VeraChem MOL file


 29 28  0  0  0  0  0  0  0  0999 V2000     
   19.9950   18.9913   18.8122 C   0  0  0  0  0  0  0  0  0  0  0  0
   20.8996   19.6134   18.8050 H   0  0  0  0  0  0  0  0  0  0  0  0
   20.3036   17.9386   18.7677 H   0  0  0  0  0  0  0  0  0  0  0  0
   19.4252   19.2143   17.9009 H   0  0  0  0  0  0  0  0  0  0  0  0
   19.1426   19.2667   20.0690 C   0  0  0  0  0  0  0  0  0  0  0  0
   18.2298   18.6558   20.0314 H   0  0  0  0  0  0  0  0  0  0  0  0
   18.8212   20.3177   20.0684 H   0  0  0  0  0  0  0  0  0  0  0  0
   19.9220   18.9603   21.3669 C   0  0  0  0  0  0  0  0  0  0  0  0
   20.2432   17.9095   21.3619 H   0  0  0  0  0  0  0  0  0  0  0  0
   20.8346   19.5715   21.3990 H   0  0  0  0  0  0  0  0  0  0  0  0
   19.0717   19.2348   22.6277 C   0  0  0  0  0  0  0  0  0  0  0  0
   18.1591   18.6236   22.5948 H   0  0  0  0  0  0  0  0  0  0  0  0
   18.7507   20.2857   22.6319 H   0  0  0  0  0  0  0  0  0  0  0  0
   19.8517   18.9282   23.9260 C   0  0  0  0  0  0  0  0  0  0  0  0
   20.1729   17.8774   23.9214 H   0  0  0  0  0  0  0  0  0  0  0  0
   20.7643   19.5395   23.9585 H   0  0  0  0  0  0  0  0  0  0  0  0
   19.0012   19.2027   25.1867 C   0  0  0  0  0  0  0  0  0  0  0  0
   18.0885   18.5914   25.1547 H   0  0  0  0  0  0  0  0  0  0  0  0
   18.6799   20.2536   25.1918 H   0  0  0  0  0  0  0  0  0  0  0  0
   19.7803   18.8965   26.4847 C   0  0  0  0  0  0  0  0  0  0  0  0
   20.0987   17.8455   26.4858 H   0  0  0  0  0  0  0  0  0  0  0  0
   20.6907   19.5094   26.5230 H   0  0  0  0  0  0  0  0  0  0  0  0
   18.9245   19.1732   27.7332 C   0  0  0  0  0  0  0  0  0  0  0  0
   18.0245   18.5528   27.7077 H   0  0  0  0  0  0  0  0  0  0  0  0
   18.6188   20.2229   27.7450 H   0  0  0  0  0  0  0  0  0  0  0  0
   19.6549   18.8843   29.0286 N   0  3  0  0  0  0  0  0  0  0  0  0
   20.4996   19.4574   29.1268 H   0  0  0  0  0  0  0  0  0  0  0  0
   19.9466   17.9032   29.0920 H   0  0  0  0  0  0  0  0  0  0  0  0
   19.0675   19.0750   29.8479 H   0  0  0  0  0  0  0  0  0  0  0  0
  1  2  1  0  0  0  0
  1  3  1  0  0  0  0
  1  4  1  0  0  0  0
  1  5  1  0  0  0  0
  5  6  1  0  0  0  0
  5  7  1  0  0  0  0
  5  8  1  0  0  0  0
  8  9  1  0  0  0  0
  8 10  1  0  0  0  0
  8 11  1  0  0  0  0
 11 12  1  0  0  0  0
 11 13  1  0  0  0  0
 11 14  1  0  0  0  0
 14 15  1  0  0  0  0
 14 16  1  0  0  0  0
 14 17  1  0  0  0  0
 17 18  1  0  0  0  0
 17 19  1  0  0  0  0
 17 20  1  0  0  0  0
 20 21  1  0  0  0  0
 20 22  1  0  0  0  0
 20 23  1  0  0  0  0
 23 24  1  0  0  0  0
 23 25  1  0  0  0  0
 23 26  1  0  0  0  0
 26 27  1  0  0  0  0
 26 28  1  0  0  0  0
 26 29  1  0  0  0  0
M  END
> <VM2 Rank>
1

> <Conf_Id>
1101

> <Probability>
5.28

> <Sum Probability>
5.28

> <Delta G>
0.000

> <G>
58.146

> <E>
20.962

> <-TS>
37.184

> <U+W>
-3.183

> <U>
47.674

> <W>
-50.852

> <W(PB)>
-53.433

> <W(SA)>
2.581

> <Valence>
2.587

> <Coulomb>
44.357

> <VdW>
0.730

> <VdW6>
-6.901

> <VdW12>
7.631

> <Bond>
0.145

> <Angle>
0.401

> <Pdih>
2.040

> <Idih>
0.000

> <Tether>
0.000

$$$$
VeraChem MOL file


 29 28  0  0  0  0  0  0  0  0999 V2000     
   19.8615   19.1636   18.8954 C   0  0  0  0  0  0  0  0  0  0  0  0
   19.7032   18.0904   18.7269 H   0  0  0  0  0  0  0  0  0  0  0  0
   19.4175   19.7065   18.0508 H   0  0  0  0  0  0  0  0  0  0  0  0
   20.9425   19.3551   18.8885 H   0  0  0  0  0  0  0  0  0  0  0  0
   19.2268   19.6154   20.2277 C   0  0  0  0  0  0  0  0  0  0  0  0
   18.1420   19.4427   20.1917 H   0  0  0  0  0  0  0  0  0  0  0  0
   19.3717   20.6977   20.3521 H   0  0  0  0  0  0  0  0  0  0  0  0
   19.8345   18.8658   21.4338 C   0  0  0  0  0  0  0  0  0  0  0  0
   19.6893   17.7844   21.3039 H   0  0  0  0  0  0  0  0  0  0  0  0
   20.9190   19.0395   21.4643 H   0  0  0  0  0  0  0  0  0  0  0  0
   19.2013   19.3153   22.7698 C   0  0  0  0  0  0  0  0  0  0  0  0
   18.1167   19.1415   22.7384 H   0  0  0  0  0  0  0  0  0  0  0  0
   19.3466   20.3968   22.8988 H   0  0  0  0  0  0  0  0  0  0  0  0
   19.8095   18.5651   23.9761 C   0  0  0  0  0  0  0  0  0  0  0  0
   19.6649   17.4836   23.8459 H   0  0  0  0  0  0  0  0  0  0  0  0
   20.8940   18.7394   24.0076 H   0  0  0  0  0  0  0  0  0  0  0  0
   19.1758   19.0139   25.3121 C   0  0  0  0  0  0  0  0  0  0  0  0
   18.0916   18.8367   25.2817 H   0  0  0  0  0  0  0  0  0  0  0  0
   19.3188   20.0959   25.4347 H   0  0  0  0  0  0  0  0  0  0  0  0
   19.7867   18.2625   26.5184 C   0  0  0  0  0  0  0  0  0  0  0  0
   19.6721   17.1806   26.3688 H   0  0  0  0  0  0  0  0  0  0  0  0
   20.8658   18.4583   26.5766 H   0  0  0  0  0  0  0  0  0  0  0  0
   19.1220   18.6430   27.8553 C   0  0  0  0  0  0  0  0  0  0  0  0
   19.5350   18.0226   28.6554 H   0  0  0  0  0  0  0  0  0  0  0  0
   18.0464   18.4550   27.7983 H   0  0  0  0  0  0  0  0  0  0  0  0
   19.3260   20.0934   28.2465 N   0  3  0  0  0  0  0  0  0  0  0  0
   20.3203   20.3263   28.3387 H   0  0  0  0  0  0  0  0  0  0  0  0
   18.8823   20.3113   29.1455 H   0  0  0  0  0  0  0  0  0  0  0  0
   18.9277   20.7331   27.5520 H   0  0  0  0  0  0  0  0  0  0  0  0
  1  2  1  0  0  0  0
  1  3  1  0  0  0  0
  1  4  1  0  0  0  0
  1  5  1  0  0  0  0
  5  6  1  0  0  0  0
  5  7  1  0  0  0  0
  5  8  1  0  0  0  0
  8  9  1  0  0  0  0
  8 10  1  0  0  0  0
  8 11  1  0  0  0  0
 11 12  1  0  0  0  0
 11 13  1  0  0  0  0
 11 14  1  0  0  0  0
 14 15  1  0  0  0  0
 14 16  1  0  0  0  0
 14 17  1  0  0  0  0
 17 18  1  0  0  0  0
 17 19  1  0  0  0  0
 17 20  1  0  0  0  0
 20 21  1  0  0  0  0
 20 22  1  0  0  0  0
 20 23  1  0  0  0  0
 23 24  1  0  0  0  0
 23 25  1  0  0  0  0
 23 26  1  0  0  0  0
 26 27  1  0  0  0  0
 26 28  1  0  0  0  0
 26 29  1  0  0  0  0
M  END
> <VM2 Rank>
2

> <Conf_Id>
1250

> <Probability>
3.53

> <Sum Probability>
8.81

> <Delta G>
0.240

> <G>
58.386

> <E>
21.098

> <-TS>
37.288

> <U+W>
-3.047

> <U>
48.292

> <W>
-51.339

> <W(PB)>
-53.880

> <W(SA)>
2.541

> <Valence>
2.685

> <Coulomb>
44.768

> <VdW>
0.839

> <VdW6>
-7.428

> <VdW12>
8.267

> <Bond>
0.165

> <Angle>
0.440

> <Pdih>
2.080

> <Idih>
0.000

> <Tether>
0.000

$$$$
VeraChem MOL file


 29 28  0  0  0  0  0  0  0  0999 V2000     
   19.7815   18.9389   18.8904 C   0  0  0  0  0  0  0  0  0  0  0  0
   20.4990   18.1084   18.8608 H   0  0  0  0  0  0  0  0  0  0  0  0
   19.1065   18.8320   18.0314 H   0  0  0  0  0  0  0  0  0  0  0  0
   20.3386   19.8767   18.7667 H   0  0  0  0  0  0  0  0  0  0  0  0
   18.9854   18.9370   20.2126 C   0  0  0  0  0  0  0  0  0  0  0  0
   18.4128   18.0023   20.2920 H   0  0  0  0  0  0  0  0  0  0  0  0
   18.2538   19.7570   20.1987 H   0  0  0  0  0  0  0  0  0  0  0  0
   19.9129   19.0863   21.4387 C   0  0  0  0  0  0  0  0  0  0  0  0
   20.6437   18.2657   21.4472 H   0  0  0  0  0  0  0  0  0  0  0  0
   20.4849   20.0206   21.3537 H   0  0  0  0  0  0  0  0  0  0  0  0
   19.1193   19.0851   22.7647 C   0  0  0  0  0  0  0  0  0  0  0  0
   18.5472   18.1507   22.8487 H   0  0  0  0  0  0  0  0  0  0  0  0
   18.3886   19.9058   22.7554 H   0  0  0  0  0  0  0  0  0  0  0  0
   20.0476   19.2343   23.9911 C   0  0  0  0  0  0  0  0  0  0  0  0
   20.7779   18.4132   24.0003 H   0  0  0  0  0  0  0  0  0  0  0  0
   20.6201   20.1683   23.9058 H   0  0  0  0  0  0  0  0  0  0  0  0
   19.2540   19.2338   25.3170 C   0  0  0  0  0  0  0  0  0  0  0  0
   18.6800   18.3008   25.3945 H   0  0  0  0  0  0  0  0  0  0  0  0
   18.5258   20.0569   25.3090 H   0  0  0  0  0  0  0  0  0  0  0  0
   20.1852   19.3821   26.5434 C   0  0  0  0  0  0  0  0  0  0  0  0
   20.8973   18.5469   26.5785 H   0  0  0  0  0  0  0  0  0  0  0  0
   20.7815   20.2983   26.4385 H   0  0  0  0  0  0  0  0  0  0  0  0
   19.4107   19.4541   27.8734 C   0  0  0  0  0  0  0  0  0  0  0  0
   18.6964   20.2811   27.8393 H   0  0  0  0  0  0  0  0  0  0  0  0
   20.1113   19.6418   28.6916 H   0  0  0  0  0  0  0  0  0  0  0  0
   18.6475   18.1865   28.2038 N   0  3  0  0  0  0  0  0  0  0  0  0
   17.9444   17.9704   27.4902 H   0  0  0  0  0  0  0  0  0  0  0  0
   18.1533   18.2622   29.0997 H   0  0  0  0  0  0  0  0  0  0  0  0
   19.2698   17.3746   28.2723 H   0  0  0  0  0  0  0  0  0  0  0  0
  1  2  1  0  0  0  0
  1  3  1  0  0  0  0
  1  4  1  0  0  0  0
  1  5  1  0  0  0  0
  5  6  1  0  0  0  0
  5  7  1  0  0  0  0
  5  8  1  0  0  0  0
  8  9  1  0  0  0  0
  8 10  1  0  0  0  0
  8 11  1  0  0  0  0
 11 12  1  0  0  0  0
 11 13  1  0  0  0  0
 11 14  1  0  0  0  0
 14 15  1  0  0  0  0
 14 16  1  0  0  0  0
 14 17  1  0  0  0  0
 17 18  1  0  0  0  0
 17 19  1  0  0  0  0
 17 20  1  0  0  0  0
 20 21  1  0  0  0  0
 20 22  1  0  0  0  0
 20 23  1  0  0  0  0
 23 24  1  0  0  0  0
 23 25  1  0  0  0  0
 23 26  1  0  0  0  0
 26 27  1  0  0  0  0
 26 28  1  0  0  0  0
 26 29  1  0  0  0  0
M  END
> <VM2 Rank>
3

> <Conf_Id>
2851

> <Probability>
3.35

> <Sum Probability>
12.16

> <Delta G>
0.271

> <G>
58.417

> <E>
21.129

> <-TS>
37.288

> <U+W>
-3.016

> <U>
48.292

> <W>
-51.308

> <W(PB)>
-53.860

> <W(SA)>
2.552

> <Valence>
2.685

> <Coulomb>
44.768

> <VdW>
0.840

> <VdW6>
-7.428

> <VdW12>
8.268

> <Bond>
0.165

> <Angle>
0.440

> <Pdih>
2.080

> <Idih>
0.000

> <Tether>
0.000

$$$$
VeraChem MOL file


 29 28  0  0  0  0  0  0  0  0999 V2000     
   20.2026   18.4715   19.1139 C   0  0  0  0  0  0  0  0  0  0  0  0
   20.3378   17.3931   19.2691 H   0  0  0  0  0  0  0  0  0  0  0  0
   19.7628   18.6163   18.1186 H   0  0  0  0  0  0  0  0  0  0  0  0
   21.1933   18.9444   19.1168 H   0  0  0  0  0  0  0  0  0  0  0  0
   19.2949   19.0791   20.2042 C   0  0  0  0  0  0  0  0  0  0  0  0
   18.3019   18.6107   20.1547 H   0  0  0  0  0  0  0  0  0  0  0  0
   19.1508   20.1501   20.0035 H   0  0  0  0  0  0  0  0  0  0  0  0
   19.8915   18.8889   21.6163 C   0  0  0  0  0  0  0  0  0  0  0  0
   20.0359   17.8172   21.8114 H   0  0  0  0  0  0  0  0  0  0  0  0
   20.8847   19.3568   21.6603 H   0  0  0  0  0  0  0  0  0  0  0  0
   18.9852   19.4960   22.7109 C   0  0  0  0  0  0  0  0  0  0  0  0
   17.9922   19.0277   22.6663 H   0  0  0  0  0  0  0  0  0  0  0  0
   18.8408   20.5675   22.5143 H   0  0  0  0  0  0  0  0  0  0  0  0
   19.5824   19.3058   24.1234 C   0  0  0  0  0  0  0  0  0  0  0  0
   19.7300   18.2338   24.3109 H   0  0  0  0  0  0  0  0  0  0  0  0
   20.5742   19.7768   24.1680 H   0  0  0  0  0  0  0  0  0  0  0  0
   18.6724   19.9133   25.2176 C   0  0  0  0  0  0  0  0  0  0  0  0
   17.6899   19.4215   25.1981 H   0  0  0  0  0  0  0  0  0  0  0  0
   18.4936   20.9736   24.9910 H   0  0  0  0  0  0  0  0  0  0  0  0
   19.2753   19.8047   26.6378 C   0  0  0  0  0  0  0  0  0  0  0  0
   20.2462   20.3170   26.6667 H   0  0  0  0  0  0  0  0  0  0  0  0
   18.6203   20.3318   27.3442 H   0  0  0  0  0  0  0  0  0  0  0  0
   19.4455   18.3460   27.1018 C   0  0  0  0  0  0  0  0  0  0  0  0
   20.1312   17.8216   26.4314 H   0  0  0  0  0  0  0  0  0  0  0  0
   18.4787   17.8360   27.0743 H   0  0  0  0  0  0  0  0  0  0  0  0
   19.9943   18.2326   28.5092 N   0  3  0  0  0  0  0  0  0  0  0  0
   20.9170   18.6714   28.5957 H   0  0  0  0  0  0  0  0  0  0  0  0
   20.1000   17.2541   28.7993 H   0  0  0  0  0  0  0  0  0  0  0  0
   19.3802   18.6830   29.1959 H   0  0  0  0  0  0  0  0  0  0  0  0
  1  2  1  0  0  0  0
  1  3  1  0  0  0  0
  1  4  1  0  0  0  0
  1  5  1  0  0  0  0
  5  6  1  0  0  0  0
  5  7  1  0  0  0  0
  5  8  1  0  0  0  0
  8  9  1  0  0  0  0
  8 10  1  0  0  0  0
  8 11  1  0  0  0  0
 11 12  1  0  0  0  0
 11 13  1  0  0  0  0
 11 14  1  0  0  0  0
 14 15  1  0  0  0  0
 14 16  1  0  0  0  0
 14 17  1  0  0  0  0
 17 18  1  0  0  0  0
 17 19  1  0  0  0  0
 17 20  1  0  0  0  0
 20 21  1  0  0  0  0
 20 22  1  0  0  0  0
 20 23  1  0  0  0  0
 23 24  1  0  0  0  0
 23 25  1  0  0  0  0
 23 26  1  0  0  0  0
 26 27  1  0  0  0  0
 26 28  1  0  0  0  0
 26 29  1  0  0  0  0
M  END
> <VM2 Rank>
4

> <Conf_Id>
228

> <Probability>
2.26

> <Sum Probability>
14.42

> <Delta G>
0.507

> <G>
58.653

> <E>
21.369

> <-TS>
37.284

> <U+W>
-2.775

> <U>
48.481

> <W>
-51.256

> <W(PB)>
-53.824

> <W(SA)>
2.568

> <Valence>
2.887

> <Coulomb>
44.809

> <VdW>
0.785

> <VdW6>
-7.506

> <VdW12>
8.292

> <Bond>
0.167

> <Angle>
0.525

> <Pdih>
2.195

> <Idih>
0.000

> <Tether>
0.000

$$$$
VeraChem MOL file


 29 28  0  0  0  0  0  0  0  0999 V2000     
   20.4800   19.2508   19.1313 C   0  0  0  0  0  0  0  0  0  0  0  0
   20.9495   18.2588   19.1016 H   0  0  0  0  0  0  0  0  0  0  0  0
   20.0617   19.4557   18.1373 H   0  0  0  0  0  0  0  0  0  0  0  0
   21.2637   19.9943   19.3272 H   0  0  0  0  0  0  0  0  0  0  0  0
   19.3772   19.3103   20.2094 C   0  0  0  0  0  0  0  0  0  0  0  0
   18.5921   18.5800   19.9685 H   0  0  0  0  0  0  0  0  0  0  0  0
   18.9039   20.3020   20.1924 H   0  0  0  0  0  0  0  0  0  0  0  0
   19.9399   19.0250   21.6193 C   0  0  0  0  0  0  0  0  0  0  0  0
   20.4138   18.0337   21.6309 H   0  0  0  0  0  0  0  0  0  0  0  0
   20.7259   19.7560   21.8547 H   0  0  0  0  0  0  0  0  0  0  0  0
   18.8384   19.0838   22.7017 C   0  0  0  0  0  0  0  0  0  0  0  0
   18.0527   18.3532   22.4649 H   0  0  0  0  0  0  0  0  0  0  0  0
   18.3650   20.0754   22.6897 H   0  0  0  0  0  0  0  0  0  0  0  0
   19.4016   18.7981   24.1121 C   0  0  0  0  0  0  0  0  0  0  0  0
   19.8723   17.8053   24.1240 H   0  0  0  0  0  0  0  0  0  0  0  0
   20.1904   19.5276   24.3397 H   0  0  0  0  0  0  0  0  0  0  0  0
   18.2970   18.8591   25.1940 C   0  0  0  0  0  0  0  0  0  0  0  0
   17.4920   18.1601   24.9282 H   0  0  0  0  0  0  0  0  0  0  0  0
   17.8464   19.8613   25.2079 H   0  0  0  0  0  0  0  0  0  0  0  0
   18.8130   18.5062   26.6088 C   0  0  0  0  0  0  0  0  0  0  0  0
   17.9624   18.4840   27.3030 H   0  0  0  0  0  0  0  0  0  0  0  0
   19.2414   17.4950   26.6038 H   0  0  0  0  0  0  0  0  0  0  0  0
   19.8598   19.5096   27.1277 C   0  0  0  0  0  0  0  0  0  0  0  0
   19.4331   20.5162   27.1340 H   0  0  0  0  0  0  0  0  0  0  0  0
   20.7320   19.5089   26.4690 H   0  0  0  0  0  0  0  0  0  0  0  0
   20.3370   19.1950   28.5307 N   0  3  0  0  0  0  0  0  0  0  0  0
   19.5668   19.2072   29.2076 H   0  0  0  0  0  0  0  0  0  0  0  0
   21.0330   19.8742   28.8577 H   0  0  0  0  0  0  0  0  0  0  0  0
   20.7737   18.2689   28.5867 H   0  0  0  0  0  0  0  0  0  0  0  0
  1  2  1  0  0  0  0
  1  3  1  0  0  0  0
  1  4  1  0  0  0  0
  1  5  1  0  0  0  0
  5  6  1  0  0  0  0
  5  7  1  0  0  0  0
  5  8  1  0  0  0  0
  8  9  1  0  0  0  0
  8 10  1  0  0  0  0
  8 11  1  0  0  0  0
 11 12  1  0  0  0  0
 11 13  1  0  0  0  0
 11 14  1  0  0  0  0
 14 15  1  0  0  0  0
 14 16  1  0  0  0  0
 14 17  1  0  0  0  0
 17 18  1  0  0  0  0
 17 19  1  0  0  0  0
 17 20  1  0  0  0  0
 20 21  1  0  0  0  0
 20 22  1  0  0  0  0
 20 23  1  0  0  0  0
 23 24  1  0  0  0  0
 23 25  1  0  0  0  0
 23 26  1  0  0  0  0
 26 27  1  0  0  0  0
 26 28  1  0  0  0  0
 26 29  1  0  0  0  0
M  END
> <VM2 Rank>
5

> <Conf_Id>
2213

> <Probability>
2.23

> <Sum Probability>
16.65

> <Delta G>
0.515

> <G>
58.661

> <E>
21.378

> <-TS>
37.284

> <U+W>
-2.767

> <U>
48.481

> <W>
-51.248

> <W(PB)>
-53.780

> <W(SA)>
2.532

> <Valence>
2.887

> <Coulomb>
44.809

> <VdW>
0.786

> <VdW6>
-7.506

> <VdW12>
8.292

> <Bond>
0.167

> <Angle>
0.525

> <Pdih>
2.195

> <Idih>
0.000

> <Tether>
0.000

$$$$
VeraChem MOL file


 29 28  0  0  0  0  0  0  0  0999 V2000     
   18.9505   18.2469   19.5329 C   0  0  0  0  0  0  0  0  0  0  0  0
   19.6612   17.4104   19.5505 H   0  0  0  0  0  0  0  0  0  0  0  0
   18.1072   17.9960   20.1882 H   0  0  0  0  0  0  0  0  0  0  0  0
   18.5595   18.3338   18.5109 H   0  0  0  0  0  0  0  0  0  0  0  0
   19.6327   19.5647   19.9648 C   0  0  0  0  0  0  0  0  0  0  0  0
   18.8948   20.3791   19.9680 H   0  0  0  0  0  0  0  0  0  0  0  0
   20.3867   19.8359   19.2127 H   0  0  0  0  0  0  0  0  0  0  0  0
   20.3208   19.4765   21.3483 C   0  0  0  0  0  0  0  0  0  0  0  0
   21.0717   18.6745   21.3339 H   0  0  0  0  0  0  0  0  0  0  0  0
   20.8704   20.4115   21.5244 H   0  0  0  0  0  0  0  0  0  0  0  0
   19.3315   19.2445   22.5153 C   0  0  0  0  0  0  0  0  0  0  0  0
   18.8253   18.2784   22.3896 H   0  0  0  0  0  0  0  0  0  0  0  0
   18.5523   20.0189   22.4949 H   0  0  0  0  0  0  0  0  0  0  0  0
   20.0458   19.2669   23.8855 C   0  0  0  0  0  0  0  0  0  0  0  0
   20.8276   18.4949   23.9037 H   0  0  0  0  0  0  0  0  0  0  0  0
   20.5502   20.2337   24.0208 H   0  0  0  0  0  0  0  0  0  0  0  0
   19.0602   19.0316   25.0522 C   0  0  0  0  0  0  0  0  0  0  0  0
   18.5558   18.0644   24.9180 H   0  0  0  0  0  0  0  0  0  0  0  0
   18.2779   19.8033   25.0339 H   0  0  0  0  0  0  0  0  0  0  0  0
   19.7734   19.0542   26.4219 C   0  0  0  0  0  0  0  0  0  0  0  0
   20.5527   18.2807   26.4460 H   0  0  0  0  0  0  0  0  0  0  0  0
   20.2744   20.0214   26.5622 H   0  0  0  0  0  0  0  0  0  0  0  0
   18.7832   18.8189   27.5760 C   0  0  0  0  0  0  0  0  0  0  0  0
   18.2939   17.8493   27.4494 H   0  0  0  0  0  0  0  0  0  0  0  0
   18.0146   19.5964   27.5661 H   0  0  0  0  0  0  0  0  0  0  0  0
   19.4459   18.8339   28.9382 N   0  3  0  0  0  0  0  0  0  0  0  0
   19.9030   19.7315   29.1306 H   0  0  0  0  0  0  0  0  0  0  0  0
   20.1630   18.1057   29.0221 H   0  0  0  0  0  0  0  0  0  0  0  0
   18.7691   18.6753   29.6928 H   0  0  0  0  0  0  0  0  0  0  0  0
  1  2  1  0  0  0  0
  1  3  1  0  0  0  0
  1  4  1  0  0  0  0
  1  5  1  0  0  0  0
  5  6  1  0  0  0  0
  5  7  1  0  0  0  0
  5  8  1  0  0  0  0
  8  9  1  0  0  0  0
  8 10  1  0  0  0  0
  8 11  1  0  0  0  0
 11 12  1  0  0  0  0
 11 13  1  0  0  0  0
 11 14  1  0  0  0  0
 14 15  1  0  0  0  0
 14 16  1  0  0  0  0
 14 17  1  0  0  0  0
 17 18  1  0  0  0  0
 17 19  1  0  0  0  0
 17 20  1  0  0  0  0
 20 21  1  0  0  0  0
 20 22  1  0  0  0  0
 20 23  1  0  0  0  0
 23 24  1  0  0  0  0
 23 25  1  0  0  0  0
 23 26  1  0  0  0  0
 26 27  1  0  0  0  0
 26 28  1  0  0  0  0
 26 29  1  0  0  0  0
M  END
> <VM2 Rank>
6

> <Conf_Id>
1354

> <Probability>
1.78

> <Sum Probability>
18.43

> <Delta G>
0.647

> <G>
58.793

> <E>
21.498

> <-TS>
37.295

> <U+W>
-2.646

> <U>
48.301

> <W>
-50.947

> <W(PB)>
-53.521

> <W(SA)>
2.574

> <Valence>
3.090

> <Coulomb>
44.344

> <VdW>
0.866

> <VdW6>
-7.521

> <VdW12>
8.387

> <Bond>
0.180

> <Angle>
0.641

> <Pdih>
2.270

> <Idih>
0.000

> <Tether>
0.000

$$$$
VeraChem MOL file


 29 28  0  0  0  0  0  0  0  0999 V2000     
   19.6453   20.1988   19.5764 C   0  0  0  0  0  0  0  0  0  0  0  0
   20.7242   20.3970   19.6170 H   0  0  0  0  0  0  0  0  0  0  0  0
   19.3016   20.4189   18.5574 H   0  0  0  0  0  0  0  0  0  0  0  0
   19.1408   20.8997   20.2529 H   0  0  0  0  0  0  0  0  0  0  0  0
   19.3357   18.7305   19.9462 C   0  0  0  0  0  0  0  0  0  0  0  0
   19.7595   18.0740   19.1734 H   0  0  0  0  0  0  0  0  0  0  0  0
   18.2493   18.5659   19.9277 H   0  0  0  0  0  0  0  0  0  0  0  0
   19.9055   18.3095   21.3222 C   0  0  0  0  0  0  0  0  0  0  0  0
   19.7386   17.2314   21.4535 H   0  0  0  0  0  0  0  0  0  0  0  0
   20.9943   18.4570   21.3290 H   0  0  0  0  0  0  0  0  0  0  0  0
   19.2685   19.0677   22.5114 C   0  0  0  0  0  0  0  0  0  0  0  0
   18.1758   18.9608   22.4714 H   0  0  0  0  0  0  0  0  0  0  0  0
   19.4879   20.1404   22.4312 H   0  0  0  0  0  0  0  0  0  0  0  0
   19.7890   18.5450   23.8694 C   0  0  0  0  0  0  0  0  0  0  0  0
   19.5679   17.4724   23.9592 H   0  0  0  0  0  0  0  0  0  0  0  0
   20.8823   18.6487   23.9071 H   0  0  0  0  0  0  0  0  0  0  0  0
   19.1569   19.3034   25.0583 C   0  0  0  0  0  0  0  0  0  0  0  0
   18.0634   19.2002   25.0205 H   0  0  0  0  0  0  0  0  0  0  0  0
   19.3782   20.3762   24.9696 H   0  0  0  0  0  0  0  0  0  0  0  0
   19.6764   18.7814   26.4158 C   0  0  0  0  0  0  0  0  0  0  0  0
   19.4525   17.7104   26.5106 H   0  0  0  0  0  0  0  0  0  0  0  0
   20.7686   18.8877   26.4596 H   0  0  0  0  0  0  0  0  0  0  0  0
   19.0407   19.5429   27.5921 C   0  0  0  0  0  0  0  0  0  0  0  0
   17.9540   19.4261   27.5622 H   0  0  0  0  0  0  0  0  0  0  0  0
   19.2751   20.6078   27.5111 H   0  0  0  0  0  0  0  0  0  0  0  0
   19.5259   19.0588   28.9432 N   0  3  0  0  0  0  0  0  0  0  0  0
   19.0905   19.5789   29.7130 H   0  0  0  0  0  0  0  0  0  0  0  0
   20.5405   19.1670   29.0459 H   0  0  0  0  0  0  0  0  0  0  0  0
   19.3112   18.0674   29.0934 H   0  0  0  0  0  0  0  0  0  0  0  0
  1  2  1  0  0  0  0
  1  3  1  0  0  0  0
  1  4  1  0  0  0  0
  1  5  1  0  0  0  0
  5  6  1  0  0  0  0
  5  7  1  0  0  0  0
  5  8  1  0  0  0  0
  8  9  1  0  0  0  0
  8 10  1  0  0  0  0
  8 11  1  0  0  0  0
 11 12  1  0  0  0  0
 11 13  1  0  0  0  0
 11 14  1  0  0  0  0
 14 15  1  0  0  0  0
 14 16  1  0  0  0  0
 14 17  1  0  0  0  0
 17 18  1  0  0  0  0
 17 19  1  0  0  0  0
 17 20  1  0  0  0  0
 20 21  1  0  0  0  0
 20 22  1  0  0  0  0
 20 23  1  0  0  0  0
 23 24  1  0  0  0  0
 23 25  1  0  0  0  0
 23 26  1  0  0  0  0
 26 27  1  0  0  0  0
 26 28  1  0  0  0  0
 26 29  1  0  0  0  0
M  END
> <VM2 Rank>
7

> <Conf_Id>
2267

> <Probability>
1.76

> <Sum Probability>
20.19

> <Delta G>
0.654

> <G>
58.800

> <E>
21.506

> <-TS>
37.295

> <U+W>
-2.639

> <U>
48.301

> <W>
-50.940

> <W(PB)>
-53.504

> <W(SA)>
2.565

> <Valence>
3.090

> <Coulomb>
44.344

> <VdW>
0.866

> <VdW6>
-7.521

> <VdW12>
8.387

> <Bond>
0.180

> <Angle>
0.641

> <Pdih>
2.270

> <Idih>
0.000

> <Tether>
0.000

$$$$
VeraChem MOL file


 29 28  0  0  0  0  0  0  0  0999 V2000     
   20.2308   18.4039   19.2510 C   0  0  0  0  0  0  0  0  0  0  0  0
   19.5719   18.9340   18.5509 H   0  0  0  0  0  0  0  0  0  0  0  0
   21.2153   18.8891   19.2282 H   0  0  0  0  0  0  0  0  0  0  0  0
   20.3529   17.3759   18.8859 H   0  0  0  0  0  0  0  0  0  0  0  0
   19.6435   18.4090   20.6783 C   0  0  0  0  0  0  0  0  0  0  0  0
   20.3081   17.8363   21.3386 H   0  0  0  0  0  0  0  0  0  0  0  0
   18.6738   17.8920   20.6750 H   0  0  0  0  0  0  0  0  0  0  0  0
   19.4663   19.8485   21.2163 C   0  0  0  0  0  0  0  0  0  0  0  0
   20.4439   20.3471   21.2696 H   0  0  0  0  0  0  0  0  0  0  0  0
   18.8649   20.4253   20.5001 H   0  0  0  0  0  0  0  0  0  0  0  0
   18.7748   19.9125   22.6003 C   0  0  0  0  0  0  0  0  0  0  0  0
   17.7908   19.4271   22.5423 H   0  0  0  0  0  0  0  0  0  0  0  0
   18.5847   20.9667   22.8449 H   0  0  0  0  0  0  0  0  0  0  0  0
   19.6067   19.2735   23.7381 C   0  0  0  0  0  0  0  0  0  0  0  0
   19.7410   18.2008   23.5472 H   0  0  0  0  0  0  0  0  0  0  0  0
   20.6090   19.7232   23.7568 H   0  0  0  0  0  0  0  0  0  0  0  0
   18.9315   19.4605   25.1156 C   0  0  0  0  0  0  0  0  0  0  0  0
   17.9273   19.0144   25.0960 H   0  0  0  0  0  0  0  0  0  0  0  0
   18.7994   20.5324   25.3184 H   0  0  0  0  0  0  0  0  0  0  0  0
   19.7571   18.8201   26.2531 C   0  0  0  0  0  0  0  0  0  0  0  0
   19.8865   17.7472   26.0576 H   0  0  0  0  0  0  0  0  0  0  0  0
   20.7601   19.2667   26.2787 H   0  0  0  0  0  0  0  0  0  0  0  0
   19.0763   19.0126   27.6195 C   0  0  0  0  0  0  0  0  0  0  0  0
   18.0835   18.5551   27.6040 H   0  0  0  0  0  0  0  0  0  0  0  0
   18.9604   20.0801   27.8261 H   0  0  0  0  0  0  0  0  0  0  0  0
   19.8570   18.3973   28.7628 N   0  3  0  0  0  0  0  0  0  0  0  0
   19.9778   17.3861   28.6422 H   0  0  0  0  0  0  0  0  0  0  0  0
   19.3864   18.5367   29.6638 H   0  0  0  0  0  0  0  0  0  0  0  0
   20.7938   18.8053   28.8488 H   0  0  0  0  0  0  0  0  0  0  0  0
  1  2  1  0  0  0  0
  1  3  1  0  0  0  0
  1  4  1  0  0  0  0
  1  5  1  0  0  0  0
  5  6  1  0  0  0  0
  5  7  1  0  0  0  0
  5  8  1  0  0  0  0
  8  9  1  0  0  0  0
  8 10  1  0  0  0  0
  8 11  1  0  0  0  0
 11 12  1  0  0  0  0
 11 13  1  0  0  0  0
 11 14  1  0  0  0  0
 14 15  1  0  0  0  0
 14 16  1  0  0  0  0
 14 17  1  0  0  0  0
 17 18  1  0  0  0  0
 17 19  1  0  0  0  0
 17 20  1  0  0  0  0
 20 21  1  0  0  0  0
 20 22  1  0  0  0  0
 20 23  1  0  0  0  0
 23 24  1  0  0  0  0
 23 25  1  0  0  0  0
 23 26  1  0  0  0  0
 26 27  1  0  0  0  0
 26 28  1  0  0  0  0
 26 29  1  0  0  0  0
M  END
> <VM2 Rank>
8

> <Conf_Id>
1256

> <Probability>
1.70

> <Sum Probability>
21.90

> <Delta G>
0.674

> <G>
58.820

> <E>
21.536

> <-TS>
37.284

> <U+W>
-2.608

> <U>
48.495

> <W>
-51.103

> <W(PB)>
-53.636

> <W(SA)>
2.533

> <Valence>
3.129

> <Coulomb>
44.512

> <VdW>
0.854

> <VdW6>
-7.566

> <VdW12>
8.420

> <Bond>
0.184

> <Angle>
0.664

> <Pdih>
2.281

> <Idih>
0.000

> <Tether>
0.000

$$$$
VeraChem MOL file


 29 28  0  0  0  0  0  0  0  0999 V2000     
   19.8159   17.8221   19.5012 C   0  0  0  0  0  0  0  0  0  0  0  0
   19.4327   16.8907   19.9381 H   0  0  0  0  0  0  0  0  0  0  0  0
   19.4940   17.8600   18.4525 H   0  0  0  0  0  0  0  0  0  0  0  0
   20.9129   17.7807   19.5159 H   0  0  0  0  0  0  0  0  0  0  0  0
   19.2970   19.0524   20.2752 C   0  0  0  0  0  0  0  0  0  0  0  0
   18.2001   19.0851   20.2152 H   0  0  0  0  0  0  0  0  0  0  0  0
   19.6685   19.9683   19.7945 H   0  0  0  0  0  0  0  0  0  0  0  0
   19.7373   19.0242   21.7556 C   0  0  0  0  0  0  0  0  0  0  0  0
   19.3681   18.1010   22.2208 H   0  0  0  0  0  0  0  0  0  0  0  0
   20.8342   18.9938   21.8105 H   0  0  0  0  0  0  0  0  0  0  0  0
   19.2139   20.2555   22.5336 C   0  0  0  0  0  0  0  0  0  0  0  0
   18.1152   20.2584   22.5275 H   0  0  0  0  0  0  0  0  0  0  0  0
   19.5275   21.1689   22.0095 H   0  0  0  0  0  0  0  0  0  0  0  0
   19.7246   20.3290   23.9935 C   0  0  0  0  0  0  0  0  0  0  0  0
   20.8232   20.3423   23.9984 H   0  0  0  0  0  0  0  0  0  0  0  0
   19.4027   21.2865   24.4260 H   0  0  0  0  0  0  0  0  0  0  0  0
   19.2117   19.1746   24.8877 C   0  0  0  0  0  0  0  0  0  0  0  0
   19.5893   18.2137   24.5141 H   0  0  0  0  0  0  0  0  0  0  0  0
   18.1150   19.1292   24.8365 H   0  0  0  0  0  0  0  0  0  0  0  0
   19.6509   19.3502   26.3580 C   0  0  0  0  0  0  0  0  0  0  0  0
   20.7469   19.3950   26.4134 H   0  0  0  0  0  0  0  0  0  0  0  0
   19.2689   20.3033   26.7475 H   0  0  0  0  0  0  0  0  0  0  0  0
   19.1407   18.1967   27.2393 C   0  0  0  0  0  0  0  0  0  0  0  0
   19.5321   17.2467   26.8656 H   0  0  0  0  0  0  0  0  0  0  0  0
   18.0487   18.1586   27.2001 H   0  0  0  0  0  0  0  0  0  0  0  0
   19.5520   18.3332   28.6910 N   0  3  0  0  0  0  0  0  0  0  0  0
   19.1912   19.1965   29.1106 H   0  0  0  0  0  0  0  0  0  0  0  0
   20.5716   18.3479   28.7992 H   0  0  0  0  0  0  0  0  0  0  0  0
   19.2021   17.5549   29.2608 H   0  0  0  0  0  0  0  0  0  0  0  0
  1  2  1  0  0  0  0
  1  3  1  0  0  0  0
  1  4  1  0  0  0  0
  1  5  1  0  0  0  0
  5  6  1  0  0  0  0
  5  7  1  0  0  0  0
  5  8  1  0  0  0  0
  8  9  1  0  0  0  0
  8 10  1  0  0  0  0
  8 11  1  0  0  0  0
 11 12  1  0  0  0  0
 11 13  1  0  0  0  0
 11 14  1  0  0  0  0
 14 15  1  0  0  0  0
 14 16  1  0  0  0  0
 14 17  1  0  0  0  0
 17 18  1  0  0  0  0
 17 19  1  0  0  0  0
 17 20  1  0  0  0  0
 20 21  1  0  0  0  0
 20 22  1  0  0  0  0
 20 23  1  0  0  0  0
 23 24  1  0  0  0  0
 23 25  1  0  0  0  0
 23 26  1  0  0  0  0
 26 27  1  0  0  0  0
 26 28  1  0  0  0  0
 26 29  1  0  0  0  0
M  END
> <VM2 Rank>
9

> <Conf_Id>
2629

> <Probability>
1.70

> <Sum Probability>
23.59

> <Delta G>
0.676

> <G>
58.822

> <E>
21.538

> <-TS>
37.284

> <U+W>
-2.607

> <U>
48.554

> <W>
-51.161

> <W(PB)>
-53.730

> <W(SA)>
2.569

> <Valence>
3.126

> <Coulomb>
44.585

> <VdW>
0.842

> <VdW6>
-7.592

> <VdW12>
8.435

> <Bond>
0.185

> <Angle>
0.660

> <Pdih>
2.281

> <Idih>
0.000

> <Tether>
0.000

$$$$
VeraChem MOL file


 29 28  0  0  0  0  0  0  0  0999 V2000     
   20.5851   19.9825   19.5496 C   0  0  0  0  0  0  0  0  0  0  0  0
   21.4613   19.3211   19.5504 H   0  0  0  0  0  0  0  0  0  0  0  0
   20.3264   20.1980   18.5047 H   0  0  0  0  0  0  0  0  0  0  0  0
   20.8700   20.9284   20.0283 H   0  0  0  0  0  0  0  0  0  0  0  0
   19.3948   19.3269   20.2813 C   0  0  0  0  0  0  0  0  0  0  0  0
   19.1111   18.4022   19.7595 H   0  0  0  0  0  0  0  0  0  0  0  0
   18.5247   19.9967   20.2355 H   0  0  0  0  0  0  0  0  0  0  0  0
   19.7329   19.0120   21.7553 C   0  0  0  0  0  0  0  0  0  0  0  0
   20.6016   18.3406   21.7960 H   0  0  0  0  0  0  0  0  0  0  0  0
   20.0232   19.9416   22.2619 H   0  0  0  0  0  0  0  0  0  0  0  0
   18.5385   18.3585   22.4912 C   0  0  0  0  0  0  0  0  0  0  0  0
   18.2120   17.4740   21.9270 H   0  0  0  0  0  0  0  0  0  0  0  0
   17.6851   19.0505   22.5005 H   0  0  0  0  0  0  0  0  0  0  0  0
   18.8672   17.9211   23.9397 C   0  0  0  0  0  0  0  0  0  0  0  0
   18.0068   17.3661   24.3384 H   0  0  0  0  0  0  0  0  0  0  0  0
   19.7103   17.2166   23.9286 H   0  0  0  0  0  0  0  0  0  0  0  0
   19.1864   19.1034   24.8861 C   0  0  0  0  0  0  0  0  0  0  0  0
   18.3658   19.8335   24.8522 H   0  0  0  0  0  0  0  0  0  0  0  0
   20.0913   19.6236   24.5455 H   0  0  0  0  0  0  0  0  0  0  0  0
   19.3953   18.6318   26.3419 C   0  0  0  0  0  0  0  0  0  0  0  0
   18.4916   18.1197   26.6987 H   0  0  0  0  0  0  0  0  0  0  0  0
   20.2157   17.9027   26.3801 H   0  0  0  0  0  0  0  0  0  0  0  0
   19.7159   19.8123   27.2753 C   0  0  0  0  0  0  0  0  0  0  0  0
   18.8941   20.5331   27.2531 H   0  0  0  0  0  0  0  0  0  0  0  0
   20.6246   20.3155   26.9341 H   0  0  0  0  0  0  0  0  0  0  0  0
   19.9280   19.3894   28.7145 N   0  3  0  0  0  0  0  0  0  0  0  0
   20.7075   18.7297   28.8078 H   0  0  0  0  0  0  0  0  0  0  0  0
   19.0971   18.9322   29.1046 H   0  0  0  0  0  0  0  0  0  0  0  0
   20.1402   20.1904   29.3196 H   0  0  0  0  0  0  0  0  0  0  0  0
  1  2  1  0  0  0  0
  1  3  1  0  0  0  0
  1  4  1  0  0  0  0
  1  5  1  0  0  0  0
  5  6  1  0  0  0  0
  5  7  1  0  0  0  0
  5  8  1  0  0  0  0
  8  9  1  0  0  0  0
  8 10  1  0  0  0  0
  8 11  1  0  0  0  0
 11 12  1  0  0  0  0
 11 13  1  0  0  0  0
 11 14  1  0  0  0  0
 14 15  1  0  0  0  0
 14 16  1  0  0  0  0
 14 17  1  0  0  0  0
 17 18  1  0  0  0  0
 17 19  1  0  0  0  0
 17 20  1  0  0  0  0
 20 21  1  0  0  0  0
 20 22  1  0  0  0  0
 20 23  1  0  0  0  0
 23 24  1  0  0  0  0
 23 25  1  0  0  0  0
 23 26  1  0  0  0  0
 26 27  1  0  0  0  0
 26 28  1  0  0  0  0
 26 29  1  0  0  0  0
M  END
> <VM2 Rank>
10

> <Conf_Id>
655

> <Probability>
1.66

> <Sum Probability>
25.26

> <Delta G>
0.688

> <G>
58.834

> <E>
21.550

> <-TS>
37.285

> <U+W>
-2.595

> <U>
48.554

> <W>
-51.149

> <W(PB)>
-53.686

> <W(SA)>
2.537

> <Valence>
3.126

> <Coulomb>
44.585

> <VdW>
0.842

> <VdW6>
-7.593

> <VdW12>
8.435

> <Bond>
0.185

> <Angle>
0.660

> <Pdih>
2.281

> <Idih>
0.000

> <Tether>
0.000

$$$$
VeraChem MOL file


 29 28  0  0  0  0  0  0  0  0999 V2000     
   20.5427   19.2796   19.2706 C   0  0  0  0  0  0  0  0  0  0  0  0
   21.2920   20.0127   18.9449 H   0  0  0  0  0  0  0  0  0  0  0  0
   20.9994   18.2829   19.2146 H   0  0  0  0  0  0  0  0  0  0  0  0
   19.7071   19.3135   18.5594 H   0  0  0  0  0  0  0  0  0  0  0  0
   20.0642   19.5901   20.7047 C   0  0  0  0  0  0  0  0  0  0  0  0
   19.6393   20.6032   20.7356 H   0  0  0  0  0  0  0  0  0  0  0  0
   20.9317   19.5874   21.3777 H   0  0  0  0  0  0  0  0  0  0  0  0
   19.0097   18.5665   21.1877 C   0  0  0  0  0  0  0  0  0  0  0  0
   18.1894   18.5283   20.4577 H   0  0  0  0  0  0  0  0  0  0  0  0
   19.4516   17.5607   21.2073 H   0  0  0  0  0  0  0  0  0  0  0  0
   18.4138   18.8989   22.5776 C   0  0  0  0  0  0  0  0  0  0  0  0
   17.5971   18.1931   22.7830 H   0  0  0  0  0  0  0  0  0  0  0  0
   17.9585   19.8986   22.5528 H   0  0  0  0  0  0  0  0  0  0  0  0
   19.4462   18.8232   23.7280 C   0  0  0  0  0  0  0  0  0  0  0  0
   19.9389   17.8411   23.7147 H   0  0  0  0  0  0  0  0  0  0  0  0
   20.2306   19.5765   23.5779 H   0  0  0  0  0  0  0  0  0  0  0  0
   18.7854   19.0501   25.1064 C   0  0  0  0  0  0  0  0  0  0  0  0
   18.0031   18.2954   25.2684 H   0  0  0  0  0  0  0  0  0  0  0  0
   18.2889   20.0304   25.1188 H   0  0  0  0  0  0  0  0  0  0  0  0
   19.8138   18.9794   26.2566 C   0  0  0  0  0  0  0  0  0  0  0  0
   20.3090   17.9992   26.2503 H   0  0  0  0  0  0  0  0  0  0  0  0
   20.5944   19.7363   26.1021 H   0  0  0  0  0  0  0  0  0  0  0  0
   19.1452   19.2059   27.6239 C   0  0  0  0  0  0  0  0  0  0  0  0
   18.3784   18.4444   27.7896 H   0  0  0  0  0  0  0  0  0  0  0  0
   18.6646   20.1879   27.6407 H   0  0  0  0  0  0  0  0  0  0  0  0
   20.1230   19.1442   28.7794 N   0  3  0  0  0  0  0  0  0  0  0  0
   19.6575   19.2975   29.6809 H   0  0  0  0  0  0  0  0  0  0  0  0
   20.8568   19.8557   28.6973 H   0  0  0  0  0  0  0  0  0  0  0  0
   20.5905   18.2332   28.8358 H   0  0  0  0  0  0  0  0  0  0  0  0
  1  2  1  0  0  0  0
  1  3  1  0  0  0  0
  1  4  1  0  0  0  0
  1  5  1  0  0  0  0
  5  6  1  0  0  0  0
  5  7  1  0  0  0  0
  5  8  1  0  0  0  0
  8  9  1  0  0  0  0
  8 10  1  0  0  0  0
  8 11  1  0  0  0  0
 11 12  1  0  0  0  0
 11 13  1  0  0  0  0
 11 14  1  0  0  0  0
 14 15  1  0  0  0  0
 14 16  1  0  0  0  0
 14 17  1  0  0  0  0
 17 18  1  0  0  0  0
 17 19  1  0  0  0  0
 17 20  1  0  0  0  0
 20 21  1  0  0  0  0
 20 22  1  0  0  0  0
 20 23  1  0  0  0  0
 23 24  1  0  0  0  0
 23 25  1  0  0  0  0
 23 26  1  0  0  0  0
 26 27  1  0  0  0  0
 26 28  1  0  0  0  0
 26 29  1  0  0  0  0
M  END
> <VM2 Rank>
11

> <Conf_Id>
1930

> <Probability>
1.62

> <Sum Probability>
26.88

> <Delta G>
0.705

> <G>
58.851

> <E>
21.567

> <-TS>
37.284

> <U+W>
-2.577

> <U>
48.495

> <W>
-51.072

> <W(PB)>
-53.644

> <W(SA)>
2.572

> <Valence>
3.129

> <Coulomb>
44.512

> <VdW>
0.854

> <VdW6>
-7.566

> <VdW12>
8.420

> <Bond>
0.184

> <Angle>
0.664

> <Pdih>
2.281

> <Idih>
0.000

> <Tether>
0.000

$$$$
VeraChem MOL file


 29 28  0  0  0  0  0  0  0  0999 V2000     
   19.8231   18.4684   19.1103 C   0  0  0  0  0  0  0  0  0  0  0  0
   20.9199   18.4227   19.0902 H   0  0  0  0  0  0  0  0  0  0  0  0
   19.4407   17.6798   18.4493 H   0  0  0  0  0  0  0  0  0  0  0  0
   19.5135   19.4362   18.6947 H   0  0  0  0  0  0  0  0  0  0  0  0
   19.2866   18.2841   20.5455 C   0  0  0  0  0  0  0  0  0  0  0  0
   19.5833   17.2948   20.9214 H   0  0  0  0  0  0  0  0  0  0  0  0
   18.1878   18.3006   20.5290 H   0  0  0  0  0  0  0  0  0  0  0  0
   19.8103   19.3823   21.4972 C   0  0  0  0  0  0  0  0  0  0  0  0
   20.9089   19.3633   21.5093 H   0  0  0  0  0  0  0  0  0  0  0  0
   19.5136   20.3691   21.1155 H   0  0  0  0  0  0  0  0  0  0  0  0
   19.2748   19.2014   22.9355 C   0  0  0  0  0  0  0  0  0  0  0  0
   19.5700   18.2109   23.3055 H   0  0  0  0  0  0  0  0  0  0  0  0
   18.1764   19.2244   22.9230 H   0  0  0  0  0  0  0  0  0  0  0  0
   19.8044   20.3010   23.8872 C   0  0  0  0  0  0  0  0  0  0  0  0
   20.9003   20.2456   23.9444 H   0  0  0  0  0  0  0  0  0  0  0  0
   19.5673   21.2861   23.4621 H   0  0  0  0  0  0  0  0  0  0  0  0
   19.2062   20.2264   25.3134 C   0  0  0  0  0  0  0  0  0  0  0  0
   18.1111   20.2988   25.2579 H   0  0  0  0  0  0  0  0  0  0  0  0
   19.5448   21.1053   25.8795 H   0  0  0  0  0  0  0  0  0  0  0  0
   19.6056   18.9476   26.0864 C   0  0  0  0  0  0  0  0  0  0  0  0
   19.2048   18.0597   25.5816 H   0  0  0  0  0  0  0  0  0  0  0  0
   20.6992   18.8488   26.0977 H   0  0  0  0  0  0  0  0  0  0  0  0
   19.0805   18.9809   27.5324 C   0  0  0  0  0  0  0  0  0  0  0  0
   17.9903   19.0627   27.5264 H   0  0  0  0  0  0  0  0  0  0  0  0
   19.4884   19.8520   28.0523 H   0  0  0  0  0  0  0  0  0  0  0  0
   19.4525   17.7459   28.3271 N   0  3  0  0  0  0  0  0  0  0  0  0
   20.4688   17.6261   28.3932 H   0  0  0  0  0  0  0  0  0  0  0  0
   19.0744   16.8915   27.9045 H   0  0  0  0  0  0  0  0  0  0  0  0
   19.0935   17.7886   29.2873 H   0  0  0  0  0  0  0  0  0  0  0  0
  1  2  1  0  0  0  0
  1  3  1  0  0  0  0
  1  4  1  0  0  0  0
  1  5  1  0  0  0  0
  5  6  1  0  0  0  0
  5  7  1  0  0  0  0
  5  8  1  0  0  0  0
  8  9  1  0  0  0  0
  8 10  1  0  0  0  0
  8 11  1  0  0  0  0
 11 12  1  0  0  0  0
 11 13  1  0  0  0  0
 11 14  1  0  0  0  0
 14 15  1  0  0  0  0
 14 16  1  0  0  0  0
 14 17  1  0  0  0  0
 17 18  1  0  0  0  0
 17 19  1  0  0  0  0
 17 20  1  0  0  0  0
 20 21  1  0  0  0  0
 20 22  1  0  0  0  0
 20 23  1  0  0  0  0
 23 24  1  0  0  0  0
 23 25  1  0  0  0  0
 23 26  1  0  0  0  0
 26 27  1  0  0  0  0
 26 28  1  0  0  0  0
 26 29  1  0  0  0  0
M  END
> <VM2 Rank>
12

> <Conf_Id>
2429

> <Probability>
1.60

> <Sum Probability>
28.48

> <Delta G>
0.710

> <G>
58.857

> <E>
21.572

> <-TS>
37.285

> <U+W>
-2.573

> <U>
48.759

> <W>
-51.332

> <W(PB)>
-53.903

> <W(SA)>
2.571

> <Valence>
3.125

> <Coulomb>
44.794

> <VdW>
0.840

> <VdW6>
-7.584

> <VdW12>
8.424

> <Bond>
0.184

> <Angle>
0.662

> <Pdih>
2.279

> <Idih>
0.000

> <Tether>
0.000

$$$$
VeraChem MOL file


 29 28  0  0  0  0  0  0  0  0999 V2000     
   20.1875   19.4931   19.1331 C   0  0  0  0  0  0  0  0  0  0  0  0
   21.0666   18.8363   19.0992 H   0  0  0  0  0  0  0  0  0  0  0  0
   19.3419   18.9561   18.6839 H   0  0  0  0  0  0  0  0  0  0  0  0
   20.3987   20.3714   18.5094 H   0  0  0  0  0  0  0  0  0  0  0  0
   19.8682   19.9178   20.5820 C   0  0  0  0  0  0  0  0  0  0  0  0
   19.0064   20.5998   20.5805 H   0  0  0  0  0  0  0  0  0  0  0  0
   20.7179   20.4812   20.9925 H   0  0  0  0  0  0  0  0  0  0  0  0
   19.5669   18.6989   21.4819 C   0  0  0  0  0  0  0  0  0  0  0  0
   18.7189   18.1376   21.0657 H   0  0  0  0  0  0  0  0  0  0  0  0
   20.4302   18.0191   21.4791 H   0  0  0  0  0  0  0  0  0  0  0  0
   19.2461   19.1201   22.9338 C   0  0  0  0  0  0  0  0  0  0  0  0
   18.3803   19.7966   22.9360 H   0  0  0  0  0  0  0  0  0  0  0  0
   20.0954   19.6859   23.3384 H   0  0  0  0  0  0  0  0  0  0  0  0
   18.9488   17.8966   23.8335 C   0  0  0  0  0  0  0  0  0  0  0  0
   18.1489   17.3003   23.3730 H   0  0  0  0  0  0  0  0  0  0  0  0
   19.8325   17.2451   23.8774 H   0  0  0  0  0  0  0  0  0  0  0  0
   18.5120   18.2755   25.2699 C   0  0  0  0  0  0  0  0  0  0  0  0
   18.2115   17.3586   25.7958 H   0  0  0  0  0  0  0  0  0  0  0  0
   17.6180   18.9132   25.2270 H   0  0  0  0  0  0  0  0  0  0  0  0
   19.6183   18.9829   26.0872 C   0  0  0  0  0  0  0  0  0  0  0  0
   20.5284   18.3684   26.0871 H   0  0  0  0  0  0  0  0  0  0  0  0
   19.8754   19.9436   25.6237 H   0  0  0  0  0  0  0  0  0  0  0  0
   19.1697   19.2314   27.5380 C   0  0  0  0  0  0  0  0  0  0  0  0
   18.9286   18.2787   28.0172 H   0  0  0  0  0  0  0  0  0  0  0  0
   18.2727   19.8567   27.5440 H   0  0  0  0  0  0  0  0  0  0  0  0
   20.2266   19.9217   28.3757 N   0  3  0  0  0  0  0  0  0  0  0  0
   21.0892   19.3702   28.4322 H   0  0  0  0  0  0  0  0  0  0  0  0
   19.9077   20.0772   29.3384 H   0  0  0  0  0  0  0  0  0  0  0  0
   20.4788   20.8388   27.9927 H   0  0  0  0  0  0  0  0  0  0  0  0
  1  2  1  0  0  0  0
  1  3  1  0  0  0  0
  1  4  1  0  0  0  0
  1  5  1  0  0  0  0
  5  6  1  0  0  0  0
  5  7  1  0  0  0  0
  5  8  1  0  0  0  0
  8  9  1  0  0  0  0
  8 10  1  0  0  0  0
  8 11  1  0  0  0  0
 11 12  1  0  0  0  0
 11 13  1  0  0  0  0
 11 14  1  0  0  0  0
 14 15  1  0  0  0  0
 14 16  1  0  0  0  0
 14 17  1  0  0  0  0
 17 18  1  0  0  0  0
 17 19  1  0  0  0  0
 17 20  1  0  0  0  0
 20 21  1  0  0  0  0
 20 22  1  0  0  0  0
 20 23  1  0  0  0  0
 23 24  1  0  0  0  0
 23 25  1  0  0  0  0
 23 26  1  0  0  0  0
 26 27  1  0  0  0  0
 26 28  1  0  0  0  0
 26 29  1  0  0  0  0
M  END
> <VM2 Rank>
13

> <Conf_Id>
1132

> <Probability>
1.47

> <Sum Probability>
29.95

> <Delta G>
0.762

> <G>
58.908

> <E>
21.623

> <-TS>
37.285

> <U+W>
-2.522

> <U>
48.759

> <W>
-51.281

> <W(PB)>
-53.848

> <W(SA)>
2.567

> <Valence>
3.126

> <Coulomb>
44.794

> <VdW>
0.839

> <VdW6>
-7.584

> <VdW12>
8.423

> <Bond>
0.184

> <Angle>
0.663

> <Pdih>
2.279

> <Idih>
0.000

> <Tether>
0.000

$$$$
VeraChem MOL file


 29 28  0  0  0  0  0  0  0  0999 V2000     
   20.4664   19.1104   19.2527 C   0  0  0  0  0  0  0  0  0  0  0  0
   21.5125   19.3469   19.4871 H   0  0  0  0  0  0  0  0  0  0  0  0
   20.3889   18.0277   19.0886 H   0  0  0  0  0  0  0  0  0  0  0  0
   20.2099   19.6132   18.3112 H   0  0  0  0  0  0  0  0  0  0  0  0
   19.5265   19.5678   20.3882 C   0  0  0  0  0  0  0  0  0  0  0  0
   18.4859   19.3489   20.1106 H   0  0  0  0  0  0  0  0  0  0  0  0
   19.6008   20.6579   20.5061 H   0  0  0  0  0  0  0  0  0  0  0  0
   19.8663   18.8743   21.7259 C   0  0  0  0  0  0  0  0  0  0  0  0
   19.7929   17.7849   21.6027 H   0  0  0  0  0  0  0  0  0  0  0  0
   20.9079   19.0940   21.9981 H   0  0  0  0  0  0  0  0  0  0  0  0
   18.9272   19.3298   22.8655 C   0  0  0  0  0  0  0  0  0  0  0  0
   17.8858   19.1103   22.5920 H   0  0  0  0  0  0  0  0  0  0  0  0
   19.0010   20.4192   22.9881 H   0  0  0  0  0  0  0  0  0  0  0  0
   19.2673   18.6354   24.2035 C   0  0  0  0  0  0  0  0  0  0  0  0
   19.1895   17.5463   24.0809 H   0  0  0  0  0  0  0  0  0  0  0  0
   20.3110   18.8526   24.4668 H   0  0  0  0  0  0  0  0  0  0  0  0
   18.3271   19.0948   25.3434 C   0  0  0  0  0  0  0  0  0  0  0  0
   17.2851   18.9140   25.0454 H   0  0  0  0  0  0  0  0  0  0  0  0
   18.4192   20.1798   25.4865 H   0  0  0  0  0  0  0  0  0  0  0  0
   18.5902   18.3621   26.6829 C   0  0  0  0  0  0  0  0  0  0  0  0
   17.8635   18.7035   27.4320 H   0  0  0  0  0  0  0  0  0  0  0  0
   18.4095   17.2873   26.5489 H   0  0  0  0  0  0  0  0  0  0  0  0
   20.0159   18.5586   27.2369 C   0  0  0  0  0  0  0  0  0  0  0  0
   20.7475   18.1793   26.5189 H   0  0  0  0  0  0  0  0  0  0  0  0
   20.1260   17.9917   28.1653 H   0  0  0  0  0  0  0  0  0  0  0  0
   20.3572   20.0048   27.5361 N   0  3  0  0  0  0  0  0  0  0  0  0
   19.7195   20.4102   28.2290 H   0  0  0  0  0  0  0  0  0  0  0  0
   20.3009   20.5869   26.6944 H   0  0  0  0  0  0  0  0  0  0  0  0
   21.3079   20.1030   27.9088 H   0  0  0  0  0  0  0  0  0  0  0  0
  1  2  1  0  0  0  0
  1  3  1  0  0  0  0
  1  4  1  0  0  0  0
  1  5  1  0  0  0  0
  5  6  1  0  0  0  0
  5  7  1  0  0  0  0
  5  8  1  0  0  0  0
  8  9  1  0  0  0  0
  8 10  1  0  0  0  0
  8 11  1  0  0  0  0
 11 12  1  0  0  0  0
 11 13  1  0  0  0  0
 11 14  1  0  0  0  0
 14 15  1  0  0  0  0
 14 16  1  0  0  0  0
 14 17  1  0  0  0  0
 17 18  1  0  0  0  0
 17 19  1  0  0  0  0
 17 20  1  0  0  0  0
 20 21  1  0  0  0  0
 20 22  1  0  0  0  0
 20 23  1  0  0  0  0
 23 24  1  0  0  0  0
 23 25  1  0  0  0  0
 23 26  1  0  0  0  0
 26 27  1  0  0  0  0
 26 28  1  0  0  0  0
 26 29  1  0  0  0  0
M  END
> <VM2 Rank>
14

> <Conf_Id>
2118

> <Probability>
1.32

> <Sum Probability>
31.27

> <Delta G>
0.828

> <G>
58.974

> <E>
21.504

> <-TS>
37.470

> <U+W>
-2.641

> <U>
49.111

> <W>
-51.752

> <W(PB)>
-54.270

> <W(SA)>
2.518

> <Valence>
2.968

> <Coulomb>
45.352

> <VdW>
0.791

> <VdW6>
-8.246

> <VdW12>
9.037

> <Bond>
0.191

> <Angle>
0.634

> <Pdih>
2.143

> <Idih>
0.000

> <Tether>
0.000

$$$$
VeraChem MOL file


 29 28  0  0  0  0  0  0  0  0999 V2000     
   18.5240   18.7334   19.6667 C   0  0  0  0  0  0  0  0  0  0  0  0
   17.6962   18.7420   20.3865 H   0  0  0  0  0  0  0  0  0  0  0  0
   18.1204   19.0497   18.6962 H   0  0  0  0  0  0  0  0  0  0  0  0
   18.8789   17.6999   19.5621 H   0  0  0  0  0  0  0  0  0  0  0  0
   19.6696   19.6723   20.1078 C   0  0  0  0  0  0  0  0  0  0  0  0
   19.2829   20.6931   20.2344 H   0  0  0  0  0  0  0  0  0  0  0  0
   20.4152   19.7236   19.3022 H   0  0  0  0  0  0  0  0  0  0  0  0
   20.3740   19.2145   21.4077 C   0  0  0  0  0  0  0  0  0  0  0  0
   20.7763   18.2015   21.2697 H   0  0  0  0  0  0  0  0  0  0  0  0
   21.2386   19.8691   21.5847 H   0  0  0  0  0  0  0  0  0  0  0  0
   19.4538   19.2458   22.6515 C   0  0  0  0  0  0  0  0  0  0  0  0
   18.6216   18.5422   22.5184 H   0  0  0  0  0  0  0  0  0  0  0  0
   19.0128   20.2467   22.7562 H   0  0  0  0  0  0  0  0  0  0  0  0
   20.2221   18.8824   23.9422 C   0  0  0  0  0  0  0  0  0  0  0  0
   20.6666   17.8832   23.8346 H   0  0  0  0  0  0  0  0  0  0  0  0
   21.0533   19.5867   24.0855 H   0  0  0  0  0  0  0  0  0  0  0  0
   19.3041   18.9087   25.1851 C   0  0  0  0  0  0  0  0  0  0  0  0
   18.4746   18.2019   25.0435 H   0  0  0  0  0  0  0  0  0  0  0  0
   18.8588   19.9075   25.2844 H   0  0  0  0  0  0  0  0  0  0  0  0
   20.0753   18.5455   26.4760 C   0  0  0  0  0  0  0  0  0  0  0  0
   20.5475   17.5618   26.3529 H   0  0  0  0  0  0  0  0  0  0  0  0
   20.8882   19.2646   26.6438 H   0  0  0  0  0  0  0  0  0  0  0  0
   19.1660   18.4977   27.7189 C   0  0  0  0  0  0  0  0  0  0  0  0
   19.7464   18.1558   28.5802 H   0  0  0  0  0  0  0  0  0  0  0  0
   18.3518   17.7873   27.5523 H   0  0  0  0  0  0  0  0  0  0  0  0
   18.5550   19.8376   28.0791 N   0  3  0  0  0  0  0  0  0  0  0  0
   19.2731   20.5441   28.2701 H   0  0  0  0  0  0  0  0  0  0  0  0
   17.9658   19.7746   28.9166 H   0  0  0  0  0  0  0  0  0  0  0  0
   17.9654   20.2008   27.3236 H   0  0  0  0  0  0  0  0  0  0  0  0
  1  2  1  0  0  0  0
  1  3  1  0  0  0  0
  1  4  1  0  0  0  0
  1  5  1  0  0  0  0
  5  6  1  0  0  0  0
  5  7  1  0  0  0  0
  5  8  1  0  0  0  0
  8  9  1  0  0  0  0
  8 10  1  0  0  0  0
  8 11  1  0  0  0  0
 11 12  1  0  0  0  0
 11 13  1  0  0  0  0
 11 14  1  0  0  0  0
 14 15  1  0  0  0  0
 14 16  1  0  0  0  0
 14 17  1  0  0  0  0
 17 18  1  0  0  0  0
 17 19  1  0  0  0  0
 17 20  1  0  0  0  0
 20 21  1  0  0  0  0
 20 22  1  0  0  0  0
 20 23  1  0  0  0  0
 23 24  1  0  0  0  0
 23 25  1  0  0  0  0
 23 26  1  0  0  0  0
 26 27  1  0  0  0  0
 26 28  1  0  0  0  0
 26 29  1  0  0  0  0
M  END
> <VM2 Rank>
15

> <Conf_Id>
456

> <Probability>
1.23

> <Sum Probability>
32.50

> <Delta G>
0.868

> <G>
59.014

> <E>
21.615

> <-TS>
37.399

> <U+W>
-2.529

> <U>
48.927

> <W>
-51.456

> <W(PB)>
-53.984

> <W(SA)>
2.528

> <Valence>
3.189

> <Coulomb>
44.764

> <VdW>
0.974

> <VdW6>
-8.049

> <VdW12>
9.023

> <Bond>
0.200

> <Angle>
0.679

> <Pdih>
2.310

> <Idih>
0.000

> <Tether>
0.000

$$$$
VeraChem MOL file


 29 28  0  0  0  0  0  0  0  0999 V2000     
   20.2789   18.5841   19.2408 C   0  0  0  0  0  0  0  0  0  0  0  0
   20.9051   19.4777   19.1210 H   0  0  0  0  0  0  0  0  0  0  0  0
   20.9370   17.7308   19.4508 H   0  0  0  0  0  0  0  0  0  0  0  0
   19.7757   18.3942   18.2838 H   0  0  0  0  0  0  0  0  0  0  0  0
   19.2455   18.7785   20.3705 C   0  0  0  0  0  0  0  0  0  0  0  0
   18.6128   17.8829   20.4440 H   0  0  0  0  0  0  0  0  0  0  0  0
   18.5810   19.6163   20.1166 H   0  0  0  0  0  0  0  0  0  0  0  0
   19.9281   19.0478   21.7298 C   0  0  0  0  0  0  0  0  0  0  0  0
   20.5929   18.2089   21.9782 H   0  0  0  0  0  0  0  0  0  0  0  0
   20.5610   19.9425   21.6509 H   0  0  0  0  0  0  0  0  0  0  0  0
   18.8964   19.2430   22.8636 C   0  0  0  0  0  0  0  0  0  0  0  0
   18.2638   18.3480   22.9419 H   0  0  0  0  0  0  0  0  0  0  0  0
   18.2316   20.0816   22.6137 H   0  0  0  0  0  0  0  0  0  0  0  0
   19.5797   19.5129   24.2230 C   0  0  0  0  0  0  0  0  0  0  0  0
   20.2478   18.6750   24.4629 H   0  0  0  0  0  0  0  0  0  0  0  0
   20.2092   20.4101   24.1448 H   0  0  0  0  0  0  0  0  0  0  0  0
   18.5448   19.7060   25.3570 C   0  0  0  0  0  0  0  0  0  0  0  0
   17.9288   18.8022   25.4558 H   0  0  0  0  0  0  0  0  0  0  0  0
   17.8555   20.5160   25.0812 H   0  0  0  0  0  0  0  0  0  0  0  0
   19.1926   20.0541   26.7206 C   0  0  0  0  0  0  0  0  0  0  0  0
   19.7335   21.0056   26.6318 H   0  0  0  0  0  0  0  0  0  0  0  0
   18.4032   20.2192   27.4658 H   0  0  0  0  0  0  0  0  0  0  0  0
   20.1657   18.9793   27.2463 C   0  0  0  0  0  0  0  0  0  0  0  0
   20.5961   19.3120   28.1948 H   0  0  0  0  0  0  0  0  0  0  0  0
   20.9825   18.8391   26.5337 H   0  0  0  0  0  0  0  0  0  0  0  0
   19.5123   17.6323   27.4833 N   0  3  0  0  0  0  0  0  0  0  0  0
   20.1818   16.9410   27.8387 H   0  0  0  0  0  0  0  0  0  0  0  0
   19.1130   17.2504   26.6202 H   0  0  0  0  0  0  0  0  0  0  0  0
   18.7521   17.6941   28.1685 H   0  0  0  0  0  0  0  0  0  0  0  0
  1  2  1  0  0  0  0
  1  3  1  0  0  0  0
  1  4  1  0  0  0  0
  1  5  1  0  0  0  0
  5  6  1  0  0  0  0
  5  7  1  0  0  0  0
  5  8  1  0  0  0  0
  8  9  1  0  0  0  0
  8 10  1  0  0  0  0
  8 11  1  0  0  0  0
 11 12  1  0  0  0  0
 11 13  1  0  0  0  0
 11 14  1  0  0  0  0
 14 15  1  0  0  0  0
 14 16  1  0  0  0  0
 14 17  1  0  0  0  0
 17 18  1  0  0  0  0
 17 19  1  0  0  0  0
 17 20  1  0  0  0  0
 20 21  1  0  0  0  0
 20 22  1  0  0  0  0
 20 23  1  0  0  0  0
 23 24  1  0  0  0  0
 23 25  1  0  0  0  0
 23 26  1  0  0  0  0
 26 27  1  0  0  0  0
 26 28  1  0  0  0  0
 26 29  1  0  0  0  0
M  END
> <VM2 Rank>
16

> <Conf_Id>
1579

> <Probability>
1.22

> <Sum Probability>
33.73

> <Delta G>
0.871

> <G>
59.017

> <E>
21.547

> <-TS>
37.470

> <U+W>
-2.598

> <U>
49.111

> <W>
-51.708

> <W(PB)>
-54.237

> <W(SA)>
2.528

> <Valence>
2.969

> <Coulomb>
45.351

> <VdW>
0.791

> <VdW6>
-8.245

> <VdW12>
9.036

> <Bond>
0.191

> <Angle>
0.634

> <Pdih>
2.143

> <Idih>
0.000

> <Tether>
0.000

$$$$
VeraChem MOL file


 29 28  0  0  0  0  0  0  0  0999 V2000     
   19.6433   17.7813   19.7999 C   0  0  0  0  0  0  0  0  0  0  0  0
   19.1551   17.1324   20.5374 H   0  0  0  0  0  0  0  0  0  0  0  0
   19.2927   17.4734   18.8063 H   0  0  0  0  0  0  0  0  0  0  0  0
   20.7252   17.6010   19.8449 H   0  0  0  0  0  0  0  0  0  0  0  0
   19.3174   19.2711   20.0505 C   0  0  0  0  0  0  0  0  0  0  0  0
   18.2288   19.4198   20.0302 H   0  0  0  0  0  0  0  0  0  0  0  0
   19.7247   19.8668   19.2216 H   0  0  0  0  0  0  0  0  0  0  0  0
   19.8948   19.8117   21.3808 C   0  0  0  0  0  0  0  0  0  0  0  0
   20.9855   19.6793   21.3880 H   0  0  0  0  0  0  0  0  0  0  0  0
   19.7145   20.8947   21.4245 H   0  0  0  0  0  0  0  0  0  0  0  0
   19.2800   19.1463   22.6354 C   0  0  0  0  0  0  0  0  0  0  0  0
   19.5133   18.0735   22.6415 H   0  0  0  0  0  0  0  0  0  0  0  0
   18.1855   19.2355   22.5987 H   0  0  0  0  0  0  0  0  0  0  0  0
   19.8065   19.7861   23.9398 C   0  0  0  0  0  0  0  0  0  0  0  0
   20.9015   19.6997   23.9744 H   0  0  0  0  0  0  0  0  0  0  0  0
   19.5719   20.8596   23.9427 H   0  0  0  0  0  0  0  0  0  0  0  0
   19.1964   19.1209   25.1942 C   0  0  0  0  0  0  0  0  0  0  0  0
   19.4301   18.0480   25.1843 H   0  0  0  0  0  0  0  0  0  0  0  0
   18.1016   19.2096   25.1605 H   0  0  0  0  0  0  0  0  0  0  0  0
   19.7252   19.7625   26.4987 C   0  0  0  0  0  0  0  0  0  0  0  0
   20.8162   19.6519   26.5574 H   0  0  0  0  0  0  0  0  0  0  0  0
   19.5199   20.8412   26.4827 H   0  0  0  0  0  0  0  0  0  0  0  0
   19.0786   19.1620   27.7618 C   0  0  0  0  0  0  0  0  0  0  0  0
   17.9917   19.2648   27.7035 H   0  0  0  0  0  0  0  0  0  0  0  0
   19.4264   19.7088   28.6425 H   0  0  0  0  0  0  0  0  0  0  0  0
   19.4017   17.6961   27.9739 N   0  3  0  0  0  0  0  0  0  0  0  0
   19.0688   17.1180   27.1959 H   0  0  0  0  0  0  0  0  0  0  0  0
   18.9669   17.3301   28.8281 H   0  0  0  0  0  0  0  0  0  0  0  0
   20.4111   17.5375   28.0597 H   0  0  0  0  0  0  0  0  0  0  0  0
  1  2  1  0  0  0  0
  1  3  1  0  0  0  0
  1  4  1  0  0  0  0
  1  5  1  0  0  0  0
  5  6  1  0  0  0  0
  5  7  1  0  0  0  0
  5  8  1  0  0  0  0
  8  9  1  0  0  0  0
  8 10  1  0  0  0  0
  8 11  1  0  0  0  0
 11 12  1  0  0  0  0
 11 13  1  0  0  0  0
 11 14  1  0  0  0  0
 14 15  1  0  0  0  0
 14 16  1  0  0  0  0
 14 17  1  0  0  0  0
 17 18  1  0  0  0  0
 17 19  1  0  0  0  0
 17 20  1  0  0  0  0
 20 21  1  0  0  0  0
 20 22  1  0  0  0  0
 20 23  1  0  0  0  0
 23 24  1  0  0  0  0
 23 25  1  0  0  0  0
 23 26  1  0  0  0  0
 26 27  1  0  0  0  0
 26 28  1  0  0  0  0
 26 29  1  0  0  0  0
M  END
> <VM2 Rank>
17

> <Conf_Id>
585

> <Probability>
1.20

> <Sum Probability>
34.93

> <Delta G>
0.883

> <G>
59.029

> <E>
21.631

> <-TS>
37.399

> <U+W>
-2.514

> <U>
48.959

> <W>
-51.473

> <W(PB)>
-53.973

> <W(SA)>
2.501

> <Valence>
3.188

> <Coulomb>
44.796

> <VdW>
0.974

> <VdW6>
-8.049

> <VdW12>
9.023

> <Bond>
0.200

> <Angle>
0.679

> <Pdih>
2.310

> <Idih>
0.000

> <Tether>
0.000

$$$$
VeraChem MOL file


 29 28  0  0  0  0  0  0  0  0999 V2000     
   19.0039   20.0855   19.6971 C   0  0  0  0  0  0  0  0  0  0  0  0
   18.3456   20.5719   20.4275 H   0  0  0  0  0  0  0  0  0  0  0  0
   19.9322   20.6673   19.6288 H   0  0  0  0  0  0  0  0  0  0  0  0
   18.5051   20.1332   18.7204 H   0  0  0  0  0  0  0  0  0  0  0  0
   19.2951   18.6179   20.0843 C   0  0  0  0  0  0  0  0  0  0  0  0
   19.8529   18.1402   19.2668 H   0  0  0  0  0  0  0  0  0  0  0  0
   18.3497   18.0652   20.1758 H   0  0  0  0  0  0  0  0  0  0  0  0
   20.1122   18.4772   21.3912 C   0  0  0  0  0  0  0  0  0  0  0  0
   20.3680   17.4177   21.5300 H   0  0  0  0  0  0  0  0  0  0  0  0
   21.0651   19.0144   21.2877 H   0  0  0  0  0  0  0  0  0  0  0  0
   19.3609   18.9839   22.6456 C   0  0  0  0  0  0  0  0  0  0  0  0
   18.3861   18.4820   22.7168 H   0  0  0  0  0  0  0  0  0  0  0  0
   19.1607   20.0593   22.5523 H   0  0  0  0  0  0  0  0  0  0  0  0
   20.1680   18.7298   23.9388 C   0  0  0  0  0  0  0  0  0  0  0  0
   20.3668   17.6541   24.0424 H   0  0  0  0  0  0  0  0  0  0  0  0
   21.1446   19.2282   23.8646 H   0  0  0  0  0  0  0  0  0  0  0  0
   19.4217   19.2391   25.1924 C   0  0  0  0  0  0  0  0  0  0  0  0
   18.4447   18.7420   25.2583 H   0  0  0  0  0  0  0  0  0  0  0  0
   19.2259   20.3157   25.0908 H   0  0  0  0  0  0  0  0  0  0  0  0
   20.2308   18.9829   26.4858 C   0  0  0  0  0  0  0  0  0  0  0  0
   20.4053   17.9062   26.6136 H   0  0  0  0  0  0  0  0  0  0  0  0
   21.2195   19.4522   26.3952 H   0  0  0  0  0  0  0  0  0  0  0  0
   19.5379   19.5443   27.7422 C   0  0  0  0  0  0  0  0  0  0  0  0
   19.3569   20.6151   27.6155 H   0  0  0  0  0  0  0  0  0  0  0  0
   20.1916   19.4089   28.6082 H   0  0  0  0  0  0  0  0  0  0  0  0
   18.2135   18.8774   28.0575 N   0  3  0  0  0  0  0  0  0  0  0  0
   18.3221   17.8693   28.2103 H   0  0  0  0  0  0  0  0  0  0  0  0
   17.5377   18.9978   27.2965 H   0  0  0  0  0  0  0  0  0  0  0  0
   17.7842   19.2648   28.9050 H   0  0  0  0  0  0  0  0  0  0  0  0
  1  2  1  0  0  0  0
  1  3  1  0  0  0  0
  1  4  1  0  0  0  0
  1  5  1  0  0  0  0
  5  6  1  0  0  0  0
  5  7  1  0  0  0  0
  5  8  1  0  0  0  0
  8  9  1  0  0  0  0
  8 10  1  0  0  0  0
  8 11  1  0  0  0  0
 11 12  1  0  0  0  0
 11 13  1  0  0  0  0
 11 14  1  0  0  0  0
 14 15  1  0  0  0  0
 14 16  1  0  0  0  0
 14 17  1  0  0  0  0
 17 18  1  0  0  0  0
 17 19  1  0  0  0  0
 17 20  1  0  0  0  0
 20 21  1  0  0  0  0
 20 22  1  0  0  0  0
 20 23  1  0  0  0  0
 23 24  1  0  0  0  0
 23 25  1  0  0  0  0
 23 26  1  0  0  0  0
 26 27  1  0  0  0  0
 26 28  1  0  0  0  0
 26 29  1  0  0  0  0
M  END
> <VM2 Rank>
18

> <Conf_Id>
1033

> <Probability>
1.11

> <Sum Probability>
36.04

> <Delta G>
0.930

> <G>
59.076

> <E>
21.677

> <-TS>
37.399

> <U+W>
-2.468

> <U>
48.927

> <W>
-51.395

> <W(PB)>
-53.928

> <W(SA)>
2.534

> <Valence>
3.189

> <Coulomb>
44.764

> <VdW>
0.974

> <VdW6>
-8.049

> <VdW12>
9.023

> <Bond>
0.200

> <Angle>
0.679

> <Pdih>
2.310

> <Idih>
0.000

> <Tether>
0.000

$$$$
VeraChem MOL file


 29 28  0  0  0  0  0  0  0  0999 V2000     
   20.4728   20.1111   19.8517 C   0  0  0  0  0  0  0  0  0  0  0  0
   20.4941   20.8927   20.6212 H   0  0  0  0  0  0  0  0  0  0  0  0
   21.4245   19.5653   19.8885 H   0  0  0  0  0  0  0  0  0  0  0  0
   20.4094   20.6103   18.8762 H   0  0  0  0  0  0  0  0  0  0  0  0
   19.2754   19.1538   20.0479 C   0  0  0  0  0  0  0  0  0  0  0  0
   19.2263   18.4682   19.1904 H   0  0  0  0  0  0  0  0  0  0  0  0
   18.3380   19.7273   20.0372 H   0  0  0  0  0  0  0  0  0  0  0  0
   19.3628   18.3178   21.3474 C   0  0  0  0  0  0  0  0  0  0  0  0
   18.5383   17.5915   21.3507 H   0  0  0  0  0  0  0  0  0  0  0  0
   20.2917   17.7310   21.3444 H   0  0  0  0  0  0  0  0  0  0  0  0
   19.2890   19.1715   22.6360 C   0  0  0  0  0  0  0  0  0  0  0  0
   18.3848   19.7952   22.6113 H   0  0  0  0  0  0  0  0  0  0  0  0
   20.1473   19.8546   22.6812 H   0  0  0  0  0  0  0  0  0  0  0  0
   19.2748   18.2918   23.9065 C   0  0  0  0  0  0  0  0  0  0  0  0
   18.4149   17.6086   23.8702 H   0  0  0  0  0  0  0  0  0  0  0  0
   20.1777   17.6660   23.9289 H   0  0  0  0  0  0  0  0  0  0  0  0
   19.2042   19.1425   25.1947 C   0  0  0  0  0  0  0  0  0  0  0  0
   18.2999   19.7664   25.1731 H   0  0  0  0  0  0  0  0  0  0  0  0
   20.0630   19.8263   25.2240 H   0  0  0  0  0  0  0  0  0  0  0  0
   19.1907   18.2600   26.4652 C   0  0  0  0  0  0  0  0  0  0  0  0
   18.3508   17.5548   26.4092 H   0  0  0  0  0  0  0  0  0  0  0  0
   20.1057   17.6546   26.5128 H   0  0  0  0  0  0  0  0  0  0  0  0
   19.0506   19.0832   27.7601 C   0  0  0  0  0  0  0  0  0  0  0  0
   18.9627   18.4052   28.6134 H   0  0  0  0  0  0  0  0  0  0  0  0
   18.1437   19.6920   27.7131 H   0  0  0  0  0  0  0  0  0  0  0  0
   20.2236   20.0063   28.0256 N   0  3  0  0  0  0  0  0  0  0  0  0
   20.3413   20.6950   27.2759 H   0  0  0  0  0  0  0  0  0  0  0  0
   21.1052   19.4885   28.1033 H   0  0  0  0  0  0  0  0  0  0  0  0
   20.1054   20.5304   28.8996 H   0  0  0  0  0  0  0  0  0  0  0  0
  1  2  1  0  0  0  0
  1  3  1  0  0  0  0
  1  4  1  0  0  0  0
  1  5  1  0  0  0  0
  5  6  1  0  0  0  0
  5  7  1  0  0  0  0
  5  8  1  0  0  0  0
  8  9  1  0  0  0  0
  8 10  1  0  0  0  0
  8 11  1  0  0  0  0
 11 12  1  0  0  0  0
 11 13  1  0  0  0  0
 11 14  1  0  0  0  0
 14 15  1  0  0  0  0
 14 16  1  0  0  0  0
 14 17  1  0  0  0  0
 17 18  1  0  0  0  0
 17 19  1  0  0  0  0
 17 20  1  0  0  0  0
 20 21  1  0  0  0  0
 20 22  1  0  0  0  0
 20 23  1  0  0  0  0
 23 24  1  0  0  0  0
 23 25  1  0  0  0  0
 23 26  1  0  0  0  0
 26 27  1  0  0  0  0
 26 28  1  0  0  0  0
 26 29  1  0  0  0  0
M  END
> <VM2 Rank>
19

> <Conf_Id>
1687

> <Probability>
1.11

> <Sum Probability>
37.14

> <Delta G>
0.930

> <G>
59.077

> <E>
21.678

> <-TS>
37.399

> <U+W>
-2.467

> <U>
48.959

> <W>
-51.426

> <W(PB)>
-53.952

> <W(SA)>
2.526

> <Valence>
3.189

> <Coulomb>
44.796

> <VdW>
0.974

> <VdW6>
-8.049

> <VdW12>
9.023

> <Bond>
0.200

> <Angle>
0.679

> <Pdih>
2.310

> <Idih>
0.000

> <Tether>
0.000

$$$$
VeraChem MOL file


 29 28  0  0  0  0  0  0  0  0999 V2000     
   19.3378   19.3956   19.1047 C   0  0  0  0  0  0  0  0  0  0  0  0
   18.5805   19.8135   18.4286 H   0  0  0  0  0  0  0  0  0  0  0  0
   20.2641   19.9689   18.9689 H   0  0  0  0  0  0  0  0  0  0  0  0
   19.5288   18.3591   18.7974 H   0  0  0  0  0  0  0  0  0  0  0  0
   18.8555   19.4598   20.5693 C   0  0  0  0  0  0  0  0  0  0  0  0
   17.9110   18.9064   20.6668 H   0  0  0  0  0  0  0  0  0  0  0  0
   18.6404   20.5039   20.8368 H   0  0  0  0  0  0  0  0  0  0  0  0
   19.9041   18.8774   21.5426 C   0  0  0  0  0  0  0  0  0  0  0  0
   20.1177   17.8348   21.2692 H   0  0  0  0  0  0  0  0  0  0  0  0
   20.8469   19.4324   21.4406 H   0  0  0  0  0  0  0  0  0  0  0  0
   19.4246   18.9395   23.0104 C   0  0  0  0  0  0  0  0  0  0  0  0
   18.4840   18.3809   23.1124 H   0  0  0  0  0  0  0  0  0  0  0  0
   19.2070   19.9831   23.2724 H   0  0  0  0  0  0  0  0  0  0  0  0
   20.4789   18.3590   23.9833 C   0  0  0  0  0  0  0  0  0  0  0  0
   20.7398   17.3410   23.6623 H   0  0  0  0  0  0  0  0  0  0  0  0
   21.4043   18.9482   23.9219 H   0  0  0  0  0  0  0  0  0  0  0  0
   19.9973   18.3011   25.4536 C   0  0  0  0  0  0  0  0  0  0  0  0
   20.7585   17.7782   26.0491 H   0  0  0  0  0  0  0  0  0  0  0  0
   19.0854   17.6919   25.5124 H   0  0  0  0  0  0  0  0  0  0  0  0
   19.7447   19.6973   26.0753 C   0  0  0  0  0  0  0  0  0  0  0  0
   20.6323   20.3271   25.9289 H   0  0  0  0  0  0  0  0  0  0  0  0
   18.9134   20.2003   25.5654 H   0  0  0  0  0  0  0  0  0  0  0  0
   19.4404   19.6260   27.5839 C   0  0  0  0  0  0  0  0  0  0  0  0
   19.3475   20.6392   27.9842 H   0  0  0  0  0  0  0  0  0  0  0  0
   20.2643   19.1283   28.1025 H   0  0  0  0  0  0  0  0  0  0  0  0
   18.1608   18.8823   27.9118 N   0  3  0  0  0  0  0  0  0  0  0  0
   18.1956   17.9093   27.5918 H   0  0  0  0  0  0  0  0  0  0  0  0
   17.3440   19.3178   27.4710 H   0  0  0  0  0  0  0  0  0  0  0  0
   17.9811   18.8606   28.9217 H   0  0  0  0  0  0  0  0  0  0  0  0
  1  2  1  0  0  0  0
  1  3  1  0  0  0  0
  1  4  1  0  0  0  0
  1  5  1  0  0  0  0
  5  6  1  0  0  0  0
  5  7  1  0  0  0  0
  5  8  1  0  0  0  0
  8  9  1  0  0  0  0
  8 10  1  0  0  0  0
  8 11  1  0  0  0  0
 11 12  1  0  0  0  0
 11 13  1  0  0  0  0
 11 14  1  0  0  0  0
 14 15  1  0  0  0  0
 14 16  1  0  0  0  0
 14 17  1  0  0  0  0
 17 18  1  0  0  0  0
 17 19  1  0  0  0  0
 17 20  1  0  0  0  0
 20 21  1  0  0  0  0
 20 22  1  0  0  0  0
 20 23  1  0  0  0  0
 23 24  1  0  0  0  0
 23 25  1  0  0  0  0
 23 26  1  0  0  0  0
 26 27  1  0  0  0  0
 26 28  1  0  0  0  0
 26 29  1  0  0  0  0
M  END
> <VM2 Rank>
20

> <Conf_Id>
2888

> <Probability>
1.11

> <Sum Probability>
38.25

> <Delta G>
0.932

> <G>
59.078

> <E>
21.678

> <-TS>
37.400

> <U+W>
-2.466

> <U>
49.184

> <W>
-51.651

> <W(PB)>
-54.196

> <W(SA)>
2.546

> <Valence>
3.217

> <Coulomb>
45.039

> <VdW>
0.928

> <VdW6>
-8.123

> <VdW12>
9.050

> <Bond>
0.205

> <Angle>
0.676

> <Pdih>
2.337

> <Idih>
0.000

> <Tether>
0.000

$$$$
VeraChem MOL file


 29 28  0  0  0  0  0  0  0  0999 V2000     
   19.2262   19.0822   19.0977 C   0  0  0  0  0  0  0  0  0  0  0  0
   19.5839   18.0586   18.9261 H   0  0  0  0  0  0  0  0  0  0  0  0
   18.3848   19.2639   18.4163 H   0  0  0  0  0  0  0  0  0  0  0  0
   20.0334   19.7761   18.8291 H   0  0  0  0  0  0  0  0  0  0  0  0
   18.7911   19.2789   20.5653 C   0  0  0  0  0  0  0  0  0  0  0  0
   17.9611   18.5958   20.7941 H   0  0  0  0  0  0  0  0  0  0  0  0
   18.4073   20.3001   20.6980 H   0  0  0  0  0  0  0  0  0  0  0  0
   19.9580   19.0288   21.5460 C   0  0  0  0  0  0  0  0  0  0  0  0
   20.3396   18.0075   21.4087 H   0  0  0  0  0  0  0  0  0  0  0  0
   20.7861   19.7118   21.3112 H   0  0  0  0  0  0  0  0  0  0  0  0
   19.5264   19.2253   23.0168 C   0  0  0  0  0  0  0  0  0  0  0  0
   18.6947   18.5444   23.2402 H   0  0  0  0  0  0  0  0  0  0  0  0
   19.1488   20.2479   23.1542 H   0  0  0  0  0  0  0  0  0  0  0  0
   20.6965   18.9700   23.9969 C   0  0  0  0  0  0  0  0  0  0  0  0
   21.0423   17.9316   23.8992 H   0  0  0  0  0  0  0  0  0  0  0  0
   21.5464   19.6059   23.7129 H   0  0  0  0  0  0  0  0  0  0  0  0
   20.3390   19.2609   25.4750 C   0  0  0  0  0  0  0  0  0  0  0  0
   20.0167   20.3063   25.5708 H   0  0  0  0  0  0  0  0  0  0  0  0
   21.2510   19.1609   26.0800 H   0  0  0  0  0  0  0  0  0  0  0  0
   19.2522   18.3152   26.0444 C   0  0  0  0  0  0  0  0  0  0  0  0
   18.2974   18.4716   25.5268 H   0  0  0  0  0  0  0  0  0  0  0  0
   19.5440   17.2727   25.8605 H   0  0  0  0  0  0  0  0  0  0  0  0
   19.0403   18.5028   27.5588 C   0  0  0  0  0  0  0  0  0  0  0  0
   19.9858   18.3466   28.0850 H   0  0  0  0  0  0  0  0  0  0  0  0
   18.3222   17.7614   27.9198 H   0  0  0  0  0  0  0  0  0  0  0  0
   18.5143   19.8741   27.9341 N   0  3  0  0  0  0  0  0  0  0  0  0
   19.1607   20.6178   27.6525 H   0  0  0  0  0  0  0  0  0  0  0  0
   18.3745   19.9644   28.9465 H   0  0  0  0  0  0  0  0  0  0  0  0
   17.6124   20.0709   27.4880 H   0  0  0  0  0  0  0  0  0  0  0  0
  1  2  1  0  0  0  0
  1  3  1  0  0  0  0
  1  4  1  0  0  0  0
  1  5  1  0  0  0  0
  5  6  1  0  0  0  0
  5  7  1  0  0  0  0
  5  8  1  0  0  0  0
  8  9  1  0  0  0  0
  8 10  1  0  0  0  0
  8 11  1  0  0  0  0
 11 12  1  0  0  0  0
 11 13  1  0  0  0  0
 11 14  1  0  0  0  0
 14 15  1  0  0  0  0
 14 16  1  0  0  0  0
 14 17  1  0  0  0  0
 17 18  1  0  0  0  0
 17 19  1  0  0  0  0
 17 20  1  0  0  0  0
 20 21  1  0  0  0  0
 20 22  1  0  0  0  0
 20 23  1  0  0  0  0
 23 24  1  0  0  0  0
 23 25  1  0  0  0  0
 23 26  1  0  0  0  0
 26 27  1  0  0  0  0
 26 28  1  0  0  0  0
 26 29  1  0  0  0  0
M  END
> <VM2 Rank>
21

> <Conf_Id>
2538

> <Probability>
1.08

> <Sum Probability>
39.33

> <Delta G>
0.949

> <G>
59.095

> <E>
21.695

> <-TS>
37.400

> <U+W>
-2.450

> <U>
49.184

> <W>
-51.634

> <W(PB)>
-54.178

> <W(SA)>
2.544

> <Valence>
3.217

> <Coulomb>
45.039

> <VdW>
0.928

> <VdW6>
-8.123

> <VdW12>
9.051

> <Bond>
0.205

> <Angle>
0.676

> <Pdih>
2.337

> <Idih>
0.000

> <Tether>
0.000

$$$$
VeraChem MOL file


 29 28  0  0  0  0  0  0  0  0999 V2000     
   20.4088   19.1162   19.2960 C   0  0  0  0  0  0  0  0  0  0  0  0
   20.3214   18.0386   19.1052 H   0  0  0  0  0  0  0  0  0  0  0  0
   19.6659   19.6346   18.6759 H   0  0  0  0  0  0  0  0  0  0  0  0
   21.4055   19.4372   18.9666 H   0  0  0  0  0  0  0  0  0  0  0  0
   20.2012   19.4326   20.7923 C   0  0  0  0  0  0  0  0  0  0  0  0
   20.3233   20.5123   20.9566 H   0  0  0  0  0  0  0  0  0  0  0  0
   20.9855   18.9307   21.3743 H   0  0  0  0  0  0  0  0  0  0  0  0
   18.8035   18.9846   21.2808 C   0  0  0  0  0  0  0  0  0  0  0  0
   18.0383   19.4356   20.6341 H   0  0  0  0  0  0  0  0  0  0  0  0
   18.7020   17.8966   21.1657 H   0  0  0  0  0  0  0  0  0  0  0  0
   18.5023   19.3818   22.7468 C   0  0  0  0  0  0  0  0  0  0  0  0
   17.4550   19.1320   22.9660 H   0  0  0  0  0  0  0  0  0  0  0  0
   18.5893   20.4714   22.8576 H   0  0  0  0  0  0  0  0  0  0  0  0
   19.4148   18.6768   23.7790 C   0  0  0  0  0  0  0  0  0  0  0  0
   19.3674   17.5895   23.6280 H   0  0  0  0  0  0  0  0  0  0  0  0
   20.4593   18.9763   23.6223 H   0  0  0  0  0  0  0  0  0  0  0  0
   19.0055   19.0148   25.2304 C   0  0  0  0  0  0  0  0  0  0  0  0
   17.9636   18.7090   25.3990 H   0  0  0  0  0  0  0  0  0  0  0  0
   19.0458   20.1030   25.3729 H   0  0  0  0  0  0  0  0  0  0  0  0
   19.9205   18.3146   26.2627 C   0  0  0  0  0  0  0  0  0  0  0  0
   19.9030   17.2306   26.0879 H   0  0  0  0  0  0  0  0  0  0  0  0
   20.9609   18.6377   26.1240 H   0  0  0  0  0  0  0  0  0  0  0  0
   19.4890   18.5809   27.7176 C   0  0  0  0  0  0  0  0  0  0  0  0
   20.1173   17.9965   28.3952 H   0  0  0  0  0  0  0  0  0  0  0  0
   18.4514   18.2658   27.8574 H   0  0  0  0  0  0  0  0  0  0  0  0
   19.5983   20.0358   28.1293 N   0  3  0  0  0  0  0  0  0  0  0  0
   20.5584   20.3849   28.0416 H   0  0  0  0  0  0  0  0  0  0  0  0
   19.3155   20.1776   29.1053 H   0  0  0  0  0  0  0  0  0  0  0  0
   19.0025   20.6386   27.5532 H   0  0  0  0  0  0  0  0  0  0  0  0
  1  2  1  0  0  0  0
  1  3  1  0  0  0  0
  1  4  1  0  0  0  0
  1  5  1  0  0  0  0
  5  6  1  0  0  0  0
  5  7  1  0  0  0  0
  5  8  1  0  0  0  0
  8  9  1  0  0  0  0
  8 10  1  0  0  0  0
  8 11  1  0  0  0  0
 11 12  1  0  0  0  0
 11 13  1  0  0  0  0
 11 14  1  0  0  0  0
 14 15  1  0  0  0  0
 14 16  1  0  0  0  0
 14 17  1  0  0  0  0
 17 18  1  0  0  0  0
 17 19  1  0  0  0  0
 17 20  1  0  0  0  0
 20 21  1  0  0  0  0
 20 22  1  0  0  0  0
 20 23  1  0  0  0  0
 23 24  1  0  0  0  0
 23 25  1  0  0  0  0
 23 26  1  0  0  0  0
 26 27  1  0  0  0  0
 26 28  1  0  0  0  0
 26 29  1  0  0  0  0
M  END
> <VM2 Rank>
22

> <Conf_Id>
1322

> <Probability>
1.05

> <Sum Probability>
40.37

> <Delta G>
0.965

> <G>
59.111

> <E>
21.723

> <-TS>
37.388

> <U+W>
-2.421

> <U>
49.093

> <W>
-51.514

> <W(PB)>
-54.035

> <W(SA)>
2.521

> <Valence>
3.228

> <Coulomb>
44.904

> <VdW>
0.962

> <VdW6>
-8.094

> <VdW12>
9.056

> <Bond>
0.203

> <Angle>
0.702

> <Pdih>
2.322

> <Idih>
0.000

> <Tether>
0.000

$$$$
VeraChem MOL file


 29 28  0  0  0  0  0  0  0  0999 V2000     
   20.0843   19.5120   19.2243 C   0  0  0  0  0  0  0  0  0  0  0  0
   19.3996   18.9120   18.6107 H   0  0  0  0  0  0  0  0  0  0  0  0
   20.1698   20.5038   18.7616 H   0  0  0  0  0  0  0  0  0  0  0  0
   21.0746   19.0391   19.1937 H   0  0  0  0  0  0  0  0  0  0  0  0
   19.5711   19.6300   20.6751 C   0  0  0  0  0  0  0  0  0  0  0  0
   18.5937   20.1324   20.6759 H   0  0  0  0  0  0  0  0  0  0  0  0
   20.2587   20.2689   21.2449 H   0  0  0  0  0  0  0  0  0  0  0  0
   19.4465   18.2436   21.3498 C   0  0  0  0  0  0  0  0  0  0  0  0
   18.8194   17.5963   20.7213 H   0  0  0  0  0  0  0  0  0  0  0  0
   20.4341   17.7643   21.3967 H   0  0  0  0  0  0  0  0  0  0  0  0
   18.8278   18.2976   22.7683 C   0  0  0  0  0  0  0  0  0  0  0  0
   18.6682   17.2678   23.1167 H   0  0  0  0  0  0  0  0  0  0  0  0
   17.8341   18.7638   22.7183 H   0  0  0  0  0  0  0  0  0  0  0  0
   19.7059   19.0477   23.7984 C   0  0  0  0  0  0  0  0  0  0  0  0
   20.7151   18.6132   23.8059 H   0  0  0  0  0  0  0  0  0  0  0  0
   19.8129   20.0998   23.5039 H   0  0  0  0  0  0  0  0  0  0  0  0
   19.1049   18.9799   25.2206 C   0  0  0  0  0  0  0  0  0  0  0  0
   18.9985   17.9284   25.5189 H   0  0  0  0  0  0  0  0  0  0  0  0
   18.0952   19.4134   25.2128 H   0  0  0  0  0  0  0  0  0  0  0  0
   19.9806   19.7322   26.2503 C   0  0  0  0  0  0  0  0  0  0  0  0
   20.9837   19.2870   26.2881 H   0  0  0  0  0  0  0  0  0  0  0  0
   20.1115   20.7729   25.9252 H   0  0  0  0  0  0  0  0  0  0  0  0
   19.3663   19.7368   27.6633 C   0  0  0  0  0  0  0  0  0  0  0  0
   18.3646   20.1736   27.6280 H   0  0  0  0  0  0  0  0  0  0  0  0
   19.9832   20.3507   28.3253 H   0  0  0  0  0  0  0  0  0  0  0  0
   19.2566   18.3583   28.2848 N   0  3  0  0  0  0  0  0  0  0  0  0
   18.6588   17.7385   27.7293 H   0  0  0  0  0  0  0  0  0  0  0  0
   18.8556   18.3969   29.2284 H   0  0  0  0  0  0  0  0  0  0  0  0
   20.1721   17.9039   28.3665 H   0  0  0  0  0  0  0  0  0  0  0  0
  1  2  1  0  0  0  0
  1  3  1  0  0  0  0
  1  4  1  0  0  0  0
  1  5  1  0  0  0  0
  5  6  1  0  0  0  0
  5  7  1  0  0  0  0
  5  8  1  0  0  0  0
  8  9  1  0  0  0  0
  8 10  1  0  0  0  0
  8 11  1  0  0  0  0
 11 12  1  0  0  0  0
 11 13  1  0  0  0  0
 11 14  1  0  0  0  0
 14 15  1  0  0  0  0
 14 16  1  0  0  0  0
 14 17  1  0  0  0  0
 17 18  1  0  0  0  0
 17 19  1  0  0  0  0
 17 20  1  0  0  0  0
 20 21  1  0  0  0  0
 20 22  1  0  0  0  0
 20 23  1  0  0  0  0
 23 24  1  0  0  0  0
 23 25  1  0  0  0  0
 23 26  1  0  0  0  0
 26 27  1  0  0  0  0
 26 28  1  0  0  0  0
 26 29  1  0  0  0  0
M  END
> <VM2 Rank>
23

> <Conf_Id>
1242

> <Probability>
1.05

> <Sum Probability>
41.42

> <Delta G>
0.965

> <G>
59.111

> <E>
21.724

> <-TS>
37.387

> <U+W>
-2.421

> <U>
49.031

> <W>
-51.452

> <W(PB)>
-53.972

> <W(SA)>
2.520

> <Valence>
3.227

> <Coulomb>
44.840

> <VdW>
0.965

> <VdW6>
-8.093

> <VdW12>
9.058

> <Bond>
0.204

> <Angle>
0.702

> <Pdih>
2.321

> <Idih>
0.000

> <Tether>
0.000

$$$$
VeraChem MOL file


 29 28  0  0  0  0  0  0  0  0999 V2000     
   20.9196   19.4211   19.6997 C   0  0  0  0  0  0  0  0  0  0  0  0
   20.8577   19.8854   18.7069 H   0  0  0  0  0  0  0  0  0  0  0  0
   21.7415   19.9021   20.2460 H   0  0  0  0  0  0  0  0  0  0  0  0
   21.1743   18.3622   19.5614 H   0  0  0  0  0  0  0  0  0  0  0  0
   19.5842   19.5758   20.4577 C   0  0  0  0  0  0  0  0  0  0  0  0
   18.7769   19.1159   19.8707 H   0  0  0  0  0  0  0  0  0  0  0  0
   19.3396   20.6432   20.5517 H   0  0  0  0  0  0  0  0  0  0  0  0
   19.6440   18.9296   21.8594 C   0  0  0  0  0  0  0  0  0  0  0  0
   19.8865   17.8626   21.7603 H   0  0  0  0  0  0  0  0  0  0  0  0
   20.4595   19.3911   22.4313 H   0  0  0  0  0  0  0  0  0  0  0  0
   18.3066   19.0880   22.6220 C   0  0  0  0  0  0  0  0  0  0  0  0
   17.4919   18.6913   22.0006 H   0  0  0  0  0  0  0  0  0  0  0  0
   18.0891   20.1546   22.7714 H   0  0  0  0  0  0  0  0  0  0  0  0
   18.2813   18.3573   23.9870 C   0  0  0  0  0  0  0  0  0  0  0  0
   17.2649   18.4258   24.3987 H   0  0  0  0  0  0  0  0  0  0  0  0
   18.4810   17.2876   23.8348 H   0  0  0  0  0  0  0  0  0  0  0  0
   19.2817   18.9347   25.0170 C   0  0  0  0  0  0  0  0  0  0  0  0
   19.1149   20.0155   25.1164 H   0  0  0  0  0  0  0  0  0  0  0  0
   20.3101   18.8003   24.6569 H   0  0  0  0  0  0  0  0  0  0  0  0
   19.1384   18.2514   26.3974 C   0  0  0  0  0  0  0  0  0  0  0  0
   18.1256   18.4074   26.7920 H   0  0  0  0  0  0  0  0  0  0  0  0
   19.2659   17.1669   26.2809 H   0  0  0  0  0  0  0  0  0  0  0  0
   20.1725   18.7568   27.4217 C   0  0  0  0  0  0  0  0  0  0  0  0
   21.1822   18.6080   27.0297 H   0  0  0  0  0  0  0  0  0  0  0  0
   20.0775   18.1821   28.3471 H   0  0  0  0  0  0  0  0  0  0  0  0
   20.0157   20.2232   27.7731 N   0  3  0  0  0  0  0  0  0  0  0  0
   20.1293   20.8243   26.9510 H   0  0  0  0  0  0  0  0  0  0  0  0
   20.7103   20.5253   28.4651 H   0  0  0  0  0  0  0  0  0  0  0  0
   19.0913   20.4225   28.1695 H   0  0  0  0  0  0  0  0  0  0  0  0
  1  2  1  0  0  0  0
  1  3  1  0  0  0  0
  1  4  1  0  0  0  0
  1  5  1  0  0  0  0
  5  6  1  0  0  0  0
  5  7  1  0  0  0  0
  5  8  1  0  0  0  0
  8  9  1  0  0  0  0
  8 10  1  0  0  0  0
  8 11  1  0  0  0  0
 11 12  1  0  0  0  0
 11 13  1  0  0  0  0
 11 14  1  0  0  0  0
 14 15  1  0  0  0  0
 14 16  1  0  0  0  0
 14 17  1  0  0  0  0
 17 18  1  0  0  0  0
 17 19  1  0  0  0  0
 17 20  1  0  0  0  0
 20 21  1  0  0  0  0
 20 22  1  0  0  0  0
 20 23  1  0  0  0  0
 23 24  1  0  0  0  0
 23 25  1  0  0  0  0
 23 26  1  0  0  0  0
 26 27  1  0  0  0  0
 26 28  1  0  0  0  0
 26 29  1  0  0  0  0
M  END
> <VM2 Rank>
24

> <Conf_Id>
1049

> <Probability>
0.99

> <Sum Probability>
42.41

> <Delta G>
0.995

> <G>
59.142

> <E>
21.751

> <-TS>
37.391

> <U+W>
-2.394

> <U>
49.240

> <W>
-51.634

> <W(PB)>
-54.159

> <W(SA)>
2.525

> <Valence>
3.225

> <Coulomb>
45.075

> <VdW>
0.940

> <VdW6>
-8.132

> <VdW12>
9.072

> <Bond>
0.204

> <Angle>
0.698

> <Pdih>
2.323

> <Idih>
0.000

> <Tether>
0.000

$$$$
VeraChem MOL file


 29 28  0  0  0  0  0  0  0  0999 V2000     
   20.4046   17.7926   19.8284 C   0  0  0  0  0  0  0  0  0  0  0  0
   21.4323   18.1776   19.8575 H   0  0  0  0  0  0  0  0  0  0  0  0
   20.3844   16.8310   20.3576 H   0  0  0  0  0  0  0  0  0  0  0  0
   20.1445   17.6051   18.7785 H   0  0  0  0  0  0  0  0  0  0  0  0
   19.4185   18.7960   20.4631 C   0  0  0  0  0  0  0  0  0  0  0  0
   18.3963   18.3987   20.3899 H   0  0  0  0  0  0  0  0  0  0  0  0
   19.4357   19.7346   19.8916 H   0  0  0  0  0  0  0  0  0  0  0  0
   19.7629   19.0786   21.9421 C   0  0  0  0  0  0  0  0  0  0  0  0
   19.7516   18.1325   22.4987 H   0  0  0  0  0  0  0  0  0  0  0  0
   20.7843   19.4778   22.0100 H   0  0  0  0  0  0  0  0  0  0  0  0
   18.7717   20.0810   22.5808 C   0  0  0  0  0  0  0  0  0  0  0  0
   17.7570   19.6596   22.5659 H   0  0  0  0  0  0  0  0  0  0  0  0
   18.7369   20.9903   21.9650 H   0  0  0  0  0  0  0  0  0  0  0  0
   19.1443   20.4847   24.0285 C   0  0  0  0  0  0  0  0  0  0  0  0
   20.1529   20.9204   24.0407 H   0  0  0  0  0  0  0  0  0  0  0  0
   18.4605   21.2812   24.3532 H   0  0  0  0  0  0  0  0  0  0  0  0
   19.0690   19.3133   25.0371 C   0  0  0  0  0  0  0  0  0  0  0  0
   19.8009   18.5430   24.7642 H   0  0  0  0  0  0  0  0  0  0  0  0
   18.0758   18.8462   24.9836 H   0  0  0  0  0  0  0  0  0  0  0  0
   19.3370   19.7877   26.4850 C   0  0  0  0  0  0  0  0  0  0  0  0
   20.3387   20.2323   26.5559 H   0  0  0  0  0  0  0  0  0  0  0  0
   18.6232   20.5802   26.7465 H   0  0  0  0  0  0  0  0  0  0  0  0
   19.2034   18.6524   27.5181 C   0  0  0  0  0  0  0  0  0  0  0  0
   18.2099   18.2020   27.4439 H   0  0  0  0  0  0  0  0  0  0  0  0
   19.3175   19.0631   28.5250 H   0  0  0  0  0  0  0  0  0  0  0  0
   20.2327   17.5517   27.3517 N   0  3  0  0  0  0  0  0  0  0  0  0
   20.1566   17.0965   26.4368 H   0  0  0  0  0  0  0  0  0  0  0  0
   20.1247   16.8193   28.0620 H   0  0  0  0  0  0  0  0  0  0  0  0
   21.1897   17.9104   27.4340 H   0  0  0  0  0  0  0  0  0  0  0  0
  1  2  1  0  0  0  0
  1  3  1  0  0  0  0
  1  4  1  0  0  0  0
  1  5  1  0  0  0  0
  5  6  1  0  0  0  0
  5  7  1  0  0  0  0
  5  8  1  0  0  0  0
  8  9  1  0  0  0  0
  8 10  1  0  0  0  0
  8 11  1  0  0  0  0
 11 12  1  0  0  0  0
 11 13  1  0  0  0  0
 11 14  1  0  0  0  0
 14 15  1  0  0  0  0
 14 16  1  0  0  0  0
 14 17  1  0  0  0  0
 17 18  1  0  0  0  0
 17 19  1  0  0  0  0
 17 20  1  0  0  0  0
 20 21  1  0  0  0  0
 20 22  1  0  0  0  0
 20 23  1  0  0  0  0
 23 24  1  0  0  0  0
 23 25  1  0  0  0  0
 23 26  1  0  0  0  0
 26 27  1  0  0  0  0
 26 28  1  0  0  0  0
 26 29  1  0  0  0  0
M  END
> <VM2 Rank>
25

> <Conf_Id>
1924

> <Probability>
0.99

> <Sum Probability>
43.40

> <Delta G>
0.999

> <G>
59.145

> <E>
21.761

> <-TS>
37.384

> <U+W>
-2.383

> <U>
49.501

> <W>
-51.885

> <W(PB)>
-54.406

> <W(SA)>
2.522

> <Valence>
3.223

> <Coulomb>
45.341

> <VdW>
0.937

> <VdW6>
-8.143

> <VdW12>
9.080

> <Bond>
0.206

> <Angle>
0.695

> <Pdih>
2.322

> <Idih>
0.000

> <Tether>
0.000

$$$$
VeraChem MOL file


 29 28  0  0  0  0  0  0  0  0999 V2000     
   20.2300   18.6138   19.2849 C   0  0  0  0  0  0  0  0  0  0  0  0
   19.3355   18.7066   18.6552 H   0  0  0  0  0  0  0  0  0  0  0  0
   20.8461   19.5105   19.1382 H   0  0  0  0  0  0  0  0  0  0  0  0
   20.8040   17.7484   18.9290 H   0  0  0  0  0  0  0  0  0  0  0  0
   19.8479   18.4408   20.7702 C   0  0  0  0  0  0  0  0  0  0  0  0
   20.7646   18.3105   21.3605 H   0  0  0  0  0  0  0  0  0  0  0  0
   19.2578   17.5215   20.8897 H   0  0  0  0  0  0  0  0  0  0  0  0
   19.0412   19.6515   21.2957 C   0  0  0  0  0  0  0  0  0  0  0  0
   19.6517   20.5623   21.2252 H   0  0  0  0  0  0  0  0  0  0  0  0
   18.1723   19.8117   20.6424 H   0  0  0  0  0  0  0  0  0  0  0  0
   18.5360   19.4764   22.7489 C   0  0  0  0  0  0  0  0  0  0  0  0
   17.9133   18.5736   22.8152 H   0  0  0  0  0  0  0  0  0  0  0  0
   17.8791   20.3228   22.9925 H   0  0  0  0  0  0  0  0  0  0  0  0
   19.6740   19.4047   23.7953 C   0  0  0  0  0  0  0  0  0  0  0  0
   20.2966   18.5193   23.6121 H   0  0  0  0  0  0  0  0  0  0  0  0
   20.3262   20.2824   23.6883 H   0  0  0  0  0  0  0  0  0  0  0  0
   19.1227   19.3440   25.2378 C   0  0  0  0  0  0  0  0  0  0  0  0
   18.4646   18.4704   25.3364 H   0  0  0  0  0  0  0  0  0  0  0  0
   18.5058   20.2322   25.4330 H   0  0  0  0  0  0  0  0  0  0  0  0
   20.2596   19.2673   26.2841 C   0  0  0  0  0  0  0  0  0  0  0  0
   20.8641   18.3657   26.1179 H   0  0  0  0  0  0  0  0  0  0  0  0
   20.9329   20.1248   26.1528 H   0  0  0  0  0  0  0  0  0  0  0  0
   19.7362   19.2758   27.7332 C   0  0  0  0  0  0  0  0  0  0  0  0
   19.1286   20.1694   27.9000 H   0  0  0  0  0  0  0  0  0  0  0  0
   20.5827   19.3047   28.4246 H   0  0  0  0  0  0  0  0  0  0  0  0
   18.8965   18.0636   28.0851 N   0  3  0  0  0  0  0  0  0  0  0  0
   18.0621   17.9959   27.4939 H   0  0  0  0  0  0  0  0  0  0  0  0
   18.5738   18.0936   29.0585 H   0  0  0  0  0  0  0  0  0  0  0  0
   19.4217   17.1906   27.9700 H   0  0  0  0  0  0  0  0  0  0  0  0
  1  2  1  0  0  0  0
  1  3  1  0  0  0  0
  1  4  1  0  0  0  0
  1  5  1  0  0  0  0
  5  6  1  0  0  0  0
  5  7  1  0  0  0  0
  5  8  1  0  0  0  0
  8  9  1  0  0  0  0
  8 10  1  0  0  0  0
  8 11  1  0  0  0  0
 11 12  1  0  0  0  0
 11 13  1  0  0  0  0
 11 14  1  0  0  0  0
 14 15  1  0  0  0  0
 14 16  1  0  0  0  0
 14 17  1  0  0  0  0
 17 18  1  0  0  0  0
 17 19  1  0  0  0  0
 17 20  1  0  0  0  0
 20 21  1  0  0  0  0
 20 22  1  0  0  0  0
 20 23  1  0  0  0  0
 23 24  1  0  0  0  0
 23 25  1  0  0  0  0
 23 26  1  0  0  0  0
 26 27  1  0  0  0  0
 26 28  1  0  0  0  0
 26 29  1  0  0  0  0
M  END
> <VM2 Rank>
26

> <Conf_Id>
538

> <Probability>
0.99

> <Sum Probability>
44.39

> <Delta G>
1.001

> <G>
59.147

> <E>
21.759

> <-TS>
37.388

> <U+W>
-2.385

> <U>
49.093

> <W>
-51.478

> <W(PB)>
-54.001

> <W(SA)>
2.523

> <Valence>
3.228

> <Coulomb>
44.904

> <VdW>
0.961

> <VdW6>
-8.094

> <VdW12>
9.056

> <Bond>
0.204

> <Angle>
0.702

> <Pdih>
2.322

> <Idih>
0.000

> <Tether>
0.000

$$$$
VeraChem MOL file


 29 28  0  0  0  0  0  0  0  0999 V2000     
   19.7900   19.3959   19.0367 C   0  0  0  0  0  0  0  0  0  0  0  0
   20.8621   19.6313   19.0188 H   0  0  0  0  0  0  0  0  0  0  0  0
   19.6648   18.3480   18.7341 H   0  0  0  0  0  0  0  0  0  0  0  0
   19.2941   20.0250   18.2862 H   0  0  0  0  0  0  0  0  0  0  0  0
   19.1911   19.6439   20.4373 C   0  0  0  0  0  0  0  0  0  0  0  0
   18.1128   19.4325   20.4155 H   0  0  0  0  0  0  0  0  0  0  0  0
   19.3008   20.7060   20.6978 H   0  0  0  0  0  0  0  0  0  0  0  0
   19.8722   18.7698   21.5135 C   0  0  0  0  0  0  0  0  0  0  0  0
   19.7623   17.7095   21.2468 H   0  0  0  0  0  0  0  0  0  0  0  0
   20.9499   18.9833   21.5307 H   0  0  0  0  0  0  0  0  0  0  0  0
   19.2748   19.0150   22.9175 C   0  0  0  0  0  0  0  0  0  0  0  0
   18.1980   18.7973   22.9004 H   0  0  0  0  0  0  0  0  0  0  0  0
   19.3826   20.0775   23.1713 H   0  0  0  0  0  0  0  0  0  0  0  0
   19.9623   18.1408   23.9938 C   0  0  0  0  0  0  0  0  0  0  0  0
   19.9149   17.0883   23.6817 H   0  0  0  0  0  0  0  0  0  0  0  0
   21.0293   18.3965   24.0536 H   0  0  0  0  0  0  0  0  0  0  0  0
   19.3200   18.2637   25.3974 C   0  0  0  0  0  0  0  0  0  0  0  0
   19.7856   17.5154   26.0523 H   0  0  0  0  0  0  0  0  0  0  0  0
   18.2544   18.0020   25.3385 H   0  0  0  0  0  0  0  0  0  0  0  0
   19.4779   19.6694   26.0294 C   0  0  0  0  0  0  0  0  0  0  0  0
   20.5392   19.9489   26.0663 H   0  0  0  0  0  0  0  0  0  0  0  0
   18.9769   20.4175   25.4028 H   0  0  0  0  0  0  0  0  0  0  0  0
   18.8744   19.7552   27.4447 C   0  0  0  0  0  0  0  0  0  0  0  0
   17.8226   19.4584   27.4151 H   0  0  0  0  0  0  0  0  0  0  0  0
   18.9275   20.7883   27.7989 H   0  0  0  0  0  0  0  0  0  0  0  0
   19.5812   18.8843   28.4647 N   0  3  0  0  0  0  0  0  0  0  0  0
   19.1639   18.9754   29.3975 H   0  0  0  0  0  0  0  0  0  0  0  0
   20.5723   19.1312   28.5542 H   0  0  0  0  0  0  0  0  0  0  0  0
   19.5375   17.8921   28.2119 H   0  0  0  0  0  0  0  0  0  0  0  0
  1  2  1  0  0  0  0
  1  3  1  0  0  0  0
  1  4  1  0  0  0  0
  1  5  1  0  0  0  0
  5  6  1  0  0  0  0
  5  7  1  0  0  0  0
  5  8  1  0  0  0  0
  8  9  1  0  0  0  0
  8 10  1  0  0  0  0
  8 11  1  0  0  0  0
 11 12  1  0  0  0  0
 11 13  1  0  0  0  0
 11 14  1  0  0  0  0
 14 15  1  0  0  0  0
 14 16  1  0  0  0  0
 14 17  1  0  0  0  0
 17 18  1  0  0  0  0
 17 19  1  0  0  0  0
 17 20  1  0  0  0  0
 20 21  1  0  0  0  0
 20 22  1  0  0  0  0
 20 23  1  0  0  0  0
 23 24  1  0  0  0  0
 23 25  1  0  0  0  0
 23 26  1  0  0  0  0
 26 27  1  0  0  0  0
 26 28  1  0  0  0  0
 26 29  1  0  0  0  0
M  END
> <VM2 Rank>
27

> <Conf_Id>
1362

> <Probability>
0.97

> <Sum Probability>
45.36

> <Delta G>
1.008

> <G>
59.154

> <E>
21.788

> <-TS>
37.367

> <U+W>
-2.357

> <U>
49.027

> <W>
-51.384

> <W(PB)>
-53.885

> <W(SA)>
2.502

> <Valence>
3.250

> <Coulomb>
44.791

> <VdW>
0.986

> <VdW6>
-8.078

> <VdW12>
9.063

> <Bond>
0.210

> <Angle>
0.724

> <Pdih>
2.316

> <Idih>
0.000

> <Tether>
0.000

$$$$
VeraChem MOL file


 29 28  0  0  0  0  0  0  0  0999 V2000     
   19.7299   18.5155   19.2021 C   0  0  0  0  0  0  0  0  0  0  0  0
   19.5862   19.4367   18.6224 H   0  0  0  0  0  0  0  0  0  0  0  0
   20.7968   18.2580   19.1763 H   0  0  0  0  0  0  0  0  0  0  0  0
   19.1767   17.7115   18.6994 H   0  0  0  0  0  0  0  0  0  0  0  0
   19.2370   18.6906   20.6541 C   0  0  0  0  0  0  0  0  0  0  0  0
   19.3589   17.7391   21.1884 H   0  0  0  0  0  0  0  0  0  0  0  0
   18.1620   18.9183   20.6489 H   0  0  0  0  0  0  0  0  0  0  0  0
   20.0061   19.8164   21.3849 C   0  0  0  0  0  0  0  0  0  0  0  0
   21.0738   19.5624   21.4369 H   0  0  0  0  0  0  0  0  0  0  0  0
   19.9373   20.7385   20.7914 H   0  0  0  0  0  0  0  0  0  0  0  0
   19.4722   20.1090   22.8087 C   0  0  0  0  0  0  0  0  0  0  0  0
   18.4082   20.3774   22.7543 H   0  0  0  0  0  0  0  0  0  0  0  0
   19.9938   20.9934   23.1999 H   0  0  0  0  0  0  0  0  0  0  0  0
   19.6648   18.9328   23.7958 C   0  0  0  0  0  0  0  0  0  0  0  0
   19.0874   18.0622   23.4584 H   0  0  0  0  0  0  0  0  0  0  0  0
   20.7214   18.6316   23.8062 H   0  0  0  0  0  0  0  0  0  0  0  0
   19.2218   19.3085   25.2279 C   0  0  0  0  0  0  0  0  0  0  0  0
   18.1654   19.6109   25.2173 H   0  0  0  0  0  0  0  0  0  0  0  0
   19.7993   20.1781   25.5691 H   0  0  0  0  0  0  0  0  0  0  0  0
   19.4110   18.1321   26.2146 C   0  0  0  0  0  0  0  0  0  0  0  0
   18.8597   17.2565   25.8467 H   0  0  0  0  0  0  0  0  0  0  0  0
   20.4693   17.8417   26.2557 H   0  0  0  0  0  0  0  0  0  0  0  0
   18.9121   18.4606   27.6349 C   0  0  0  0  0  0  0  0  0  0  0  0
   18.9932   17.5694   28.2631 H   0  0  0  0  0  0  0  0  0  0  0  0
   17.8603   18.7565   27.5964 H   0  0  0  0  0  0  0  0  0  0  0  0
   19.6891   19.5725   28.3119 N   0  3  0  0  0  0  0  0  0  0  0  0
   19.6251   20.4520   27.7899 H   0  0  0  0  0  0  0  0  0  0  0  0
   20.6846   19.3427   28.3986 H   0  0  0  0  0  0  0  0  0  0  0  0
   19.3406   19.7586   29.2588 H   0  0  0  0  0  0  0  0  0  0  0  0
  1  2  1  0  0  0  0
  1  3  1  0  0  0  0
  1  4  1  0  0  0  0
  1  5  1  0  0  0  0
  5  6  1  0  0  0  0
  5  7  1  0  0  0  0
  5  8  1  0  0  0  0
  8  9  1  0  0  0  0
  8 10  1  0  0  0  0
  8 11  1  0  0  0  0
 11 12  1  0  0  0  0
 11 13  1  0  0  0  0
 11 14  1  0  0  0  0
 14 15  1  0  0  0  0
 14 16  1  0  0  0  0
 14 17  1  0  0  0  0
 17 18  1  0  0  0  0
 17 19  1  0  0  0  0
 17 20  1  0  0  0  0
 20 21  1  0  0  0  0
 20 22  1  0  0  0  0
 20 23  1  0  0  0  0
 23 24  1  0  0  0  0
 23 25  1  0  0  0  0
 23 26  1  0  0  0  0
 26 27  1  0  0  0  0
 26 28  1  0  0  0  0
 26 29  1  0  0  0  0
M  END
> <VM2 Rank>
28

> <Conf_Id>
2896

> <Probability>
0.95

> <Sum Probability>
46.31

> <Delta G>
1.024

> <G>
59.171

> <E>
21.783

> <-TS>
37.388

> <U+W>
-2.362

> <U>
49.031

> <W>
-51.393

> <W(PB)>
-53.927

> <W(SA)>
2.534

> <Valence>
3.227

> <Coulomb>
44.840

> <VdW>
0.965

> <VdW6>
-8.093

> <VdW12>
9.058

> <Bond>
0.204

> <Angle>
0.702

> <Pdih>
2.321

> <Idih>
0.000

> <Tether>
0.000

$$$$
VeraChem MOL file


 29 28  0  0  0  0  0  0  0  0999 V2000     
   20.6588   19.1555   19.5388 C   0  0  0  0  0  0  0  0  0  0  0  0
   21.0751   19.9395   18.8931 H   0  0  0  0  0  0  0  0  0  0  0  0
   21.4491   18.4164   19.7241 H   0  0  0  0  0  0  0  0  0  0  0  0
   19.8491   18.6595   18.9877 H   0  0  0  0  0  0  0  0  0  0  0  0
   20.1411   19.7574   20.8623 C   0  0  0  0  0  0  0  0  0  0  0  0
   19.3768   20.5163   20.6434 H   0  0  0  0  0  0  0  0  0  0  0  0
   20.9646   20.2750   21.3740 H   0  0  0  0  0  0  0  0  0  0  0  0
   19.5492   18.6739   21.7904 C   0  0  0  0  0  0  0  0  0  0  0  0
   18.7285   18.1576   21.2733 H   0  0  0  0  0  0  0  0  0  0  0  0
   20.3160   17.9167   22.0051 H   0  0  0  0  0  0  0  0  0  0  0  0
   19.0296   19.2730   23.1166 C   0  0  0  0  0  0  0  0  0  0  0  0
   18.2597   20.0268   22.9019 H   0  0  0  0  0  0  0  0  0  0  0  0
   19.8542   19.7924   23.6222 H   0  0  0  0  0  0  0  0  0  0  0  0
   18.4423   18.1846   24.0467 C   0  0  0  0  0  0  0  0  0  0  0  0
   17.6702   17.6258   23.5000 H   0  0  0  0  0  0  0  0  0  0  0  0
   19.2219   17.4537   24.3001 H   0  0  0  0  0  0  0  0  0  0  0  0
   17.8072   18.7528   25.3421 C   0  0  0  0  0  0  0  0  0  0  0  0
   17.3809   17.9207   25.9194 H   0  0  0  0  0  0  0  0  0  0  0  0
   16.9603   19.3995   25.0742 H   0  0  0  0  0  0  0  0  0  0  0  0
   18.7781   19.5469   26.2510 C   0  0  0  0  0  0  0  0  0  0  0  0
   19.1095   20.4601   25.7404 H   0  0  0  0  0  0  0  0  0  0  0  0
   18.2346   19.8760   27.1467 H   0  0  0  0  0  0  0  0  0  0  0  0
   20.0029   18.7188   26.6813 C   0  0  0  0  0  0  0  0  0  0  0  0
   20.5748   18.4203   25.7988 H   0  0  0  0  0  0  0  0  0  0  0  0
   19.6722   17.8150   27.2002 H   0  0  0  0  0  0  0  0  0  0  0  0
   20.9348   19.4751   27.6057 N   0  3  0  0  0  0  0  0  0  0  0  0
   20.4642   19.7620   28.4704 H   0  0  0  0  0  0  0  0  0  0  0  0
   21.3024   20.3250   27.1655 H   0  0  0  0  0  0  0  0  0  0  0  0
   21.7433   18.9064   27.8801 H   0  0  0  0  0  0  0  0  0  0  0  0
  1  2  1  0  0  0  0
  1  3  1  0  0  0  0
  1  4  1  0  0  0  0
  1  5  1  0  0  0  0
  5  6  1  0  0  0  0
  5  7  1  0  0  0  0
  5  8  1  0  0  0  0
  8  9  1  0  0  0  0
  8 10  1  0  0  0  0
  8 11  1  0  0  0  0
 11 12  1  0  0  0  0
 11 13  1  0  0  0  0
 11 14  1  0  0  0  0
 14 15  1  0  0  0  0
 14 16  1  0  0  0  0
 14 17  1  0  0  0  0
 17 18  1  0  0  0  0
 17 19  1  0  0  0  0
 17 20  1  0  0  0  0
 20 21  1  0  0  0  0
 20 22  1  0  0  0  0
 20 23  1  0  0  0  0
 23 24  1  0  0  0  0
 23 25  1  0  0  0  0
 23 26  1  0  0  0  0
 26 27  1  0  0  0  0
 26 28  1  0  0  0  0
 26 29  1  0  0  0  0
M  END
> <VM2 Rank>
29

> <Conf_Id>
1774

> <Probability>
0.87

> <Sum Probability>
47.18

> <Delta G>
1.076

> <G>
59.223

> <E>
21.699

> <-TS>
37.524

> <U+W>
-2.446

> <U>
49.533

> <W>
-51.978

> <W(PB)>
-54.508

> <W(SA)>
2.530

> <Valence>
3.341

> <Coulomb>
45.459

> <VdW>
0.732

> <VdW6>
-8.519

> <VdW12>
9.251

> <Bond>
0.212

> <Angle>
0.893

> <Pdih>
2.236

> <Idih>
0.000

> <Tether>
0.000

$$$$
VeraChem MOL file


 29 28  0  0  0  0  0  0  0  0999 V2000     
   19.5774   18.7987   19.0234 C   0  0  0  0  0  0  0  0  0  0  0  0
   20.1464   19.7012   18.7643 H   0  0  0  0  0  0  0  0  0  0  0  0
   20.2602   17.9401   18.9811 H   0  0  0  0  0  0  0  0  0  0  0  0
   18.8063   18.6543   18.2556 H   0  0  0  0  0  0  0  0  0  0  0  0
   18.9368   18.9293   20.4213 C   0  0  0  0  0  0  0  0  0  0  0  0
   18.3475   18.0272   20.6380 H   0  0  0  0  0  0  0  0  0  0  0  0
   18.2346   19.7748   20.4231 H   0  0  0  0  0  0  0  0  0  0  0  0
   20.0016   19.1336   21.5216 C   0  0  0  0  0  0  0  0  0  0  0  0
   20.7022   18.2871   21.5150 H   0  0  0  0  0  0  0  0  0  0  0  0
   20.5896   20.0346   21.2987 H   0  0  0  0  0  0  0  0  0  0  0  0
   19.3639   19.2652   22.9231 C   0  0  0  0  0  0  0  0  0  0  0  0
   18.7729   18.3643   23.1330 H   0  0  0  0  0  0  0  0  0  0  0  0
   18.6668   20.1144   22.9298 H   0  0  0  0  0  0  0  0  0  0  0  0
   20.4338   19.4654   24.0233 C   0  0  0  0  0  0  0  0  0  0  0  0
   21.0986   18.5913   24.0579 H   0  0  0  0  0  0  0  0  0  0  0  0
   21.0659   20.3228   23.7539 H   0  0  0  0  0  0  0  0  0  0  0  0
   19.8384   19.7202   25.4300 C   0  0  0  0  0  0  0  0  0  0  0  0
   19.1783   20.5980   25.3964 H   0  0  0  0  0  0  0  0  0  0  0  0
   20.6627   19.9797   26.1073 H   0  0  0  0  0  0  0  0  0  0  0  0
   19.0643   18.5068   26.0035 C   0  0  0  0  0  0  0  0  0  0  0  0
   18.2124   18.2686   25.3548 H   0  0  0  0  0  0  0  0  0  0  0  0
   19.7101   17.6188   26.0144 H   0  0  0  0  0  0  0  0  0  0  0  0
   18.5222   18.7654   27.4226 C   0  0  0  0  0  0  0  0  0  0  0  0
   17.9061   17.9178   27.7349 H   0  0  0  0  0  0  0  0  0  0  0  0
   17.8944   19.6606   27.4195 H   0  0  0  0  0  0  0  0  0  0  0  0
   19.6057   18.9533   28.4663 N   0  3  0  0  0  0  0  0  0  0  0  0
   20.2169   18.1328   28.5321 H   0  0  0  0  0  0  0  0  0  0  0  0
   19.2113   19.1094   29.4005 H   0  0  0  0  0  0  0  0  0  0  0  0
   20.2018   19.7593   28.2536 H   0  0  0  0  0  0  0  0  0  0  0  0
  1  2  1  0  0  0  0
  1  3  1  0  0  0  0
  1  4  1  0  0  0  0
  1  5  1  0  0  0  0
  5  6  1  0  0  0  0
  5  7  1  0  0  0  0
  5  8  1  0  0  0  0
  8  9  1  0  0  0  0
  8 10  1  0  0  0  0
  8 11  1  0  0  0  0
 11 12  1  0  0  0  0
 11 13  1  0  0  0  0
 11 14  1  0  0  0  0
 14 15  1  0  0  0  0
 14 16  1  0  0  0  0
 14 17  1  0  0  0  0
 17 18  1  0  0  0  0
 17 19  1  0  0  0  0
 17 20  1  0  0  0  0
 20 21  1  0  0  0  0
 20 22  1  0  0  0  0
 20 23  1  0  0  0  0
 23 24  1  0  0  0  0
 23 25  1  0  0  0  0
 23 26  1  0  0  0  0
 26 27  1  0  0  0  0
 26 28  1  0  0  0  0
 26 29  1  0  0  0  0
M  END
> <VM2 Rank>
30

> <Conf_Id>
1654

> <Probability>
0.85

> <Sum Probability>
48.02

> <Delta G>
1.090

> <G>
59.236

> <E>
21.869

> <-TS>
37.367

> <U+W>
-2.276

> <U>
49.027

> <W>
-51.302

> <W(PB)>
-53.849

> <W(SA)>
2.547

> <Valence>
3.250

> <Coulomb>
44.791

> <VdW>
0.986

> <VdW6>
-8.077

> <VdW12>
9.063

> <Bond>
0.210

> <Angle>
0.724

> <Pdih>
2.316

> <Idih>
0.000

> <Tether>
0.000

$$$$
VeraChem MOL file


 29 28  0  0  0  0  0  0  0  0999 V2000     
   19.5461   18.4897   19.4977 C   0  0  0  0  0  0  0  0  0  0  0  0
   20.5356   18.0148   19.5196 H   0  0  0  0  0  0  0  0  0  0  0  0
   18.8263   17.8073   19.9664 H   0  0  0  0  0  0  0  0  0  0  0  0
   19.2531   18.6069   18.4464 H   0  0  0  0  0  0  0  0  0  0  0  0
   19.5727   19.8621   20.2078 C   0  0  0  0  0  0  0  0  0  0  0  0
   18.5659   20.3024   20.1990 H   0  0  0  0  0  0  0  0  0  0  0  0
   20.2125   20.5459   19.6326 H   0  0  0  0  0  0  0  0  0  0  0  0
   20.1009   19.7927   21.6610 C   0  0  0  0  0  0  0  0  0  0  0  0
   21.1153   19.3705   21.6628 H   0  0  0  0  0  0  0  0  0  0  0  0
   20.1916   20.8171   22.0480 H   0  0  0  0  0  0  0  0  0  0  0  0
   19.1926   18.9731   22.6086 C   0  0  0  0  0  0  0  0  0  0  0  0
   19.1491   17.9286   22.2731 H   0  0  0  0  0  0  0  0  0  0  0  0
   18.1675   19.3660   22.5650 H   0  0  0  0  0  0  0  0  0  0  0  0
   19.6998   19.0157   24.0678 C   0  0  0  0  0  0  0  0  0  0  0  0
   20.7253   18.6234   24.1100 H   0  0  0  0  0  0  0  0  0  0  0  0
   19.7438   20.0601   24.4042 H   0  0  0  0  0  0  0  0  0  0  0  0
   18.7928   18.1937   25.0146 C   0  0  0  0  0  0  0  0  0  0  0  0
   18.7189   17.1634   24.6398 H   0  0  0  0  0  0  0  0  0  0  0  0
   17.7733   18.6036   24.9999 H   0  0  0  0  0  0  0  0  0  0  0  0
   19.3121   18.1554   26.4710 C   0  0  0  0  0  0  0  0  0  0  0  0
   18.6713   17.4861   27.0603 H   0  0  0  0  0  0  0  0  0  0  0  0
   20.3215   17.7232   26.4915 H   0  0  0  0  0  0  0  0  0  0  0  0
   19.3306   19.5459   27.1327 C   0  0  0  0  0  0  0  0  0  0  0  0
   18.3256   19.9760   27.1135 H   0  0  0  0  0  0  0  0  0  0  0  0
   20.0005   20.2101   26.5807 H   0  0  0  0  0  0  0  0  0  0  0  0
   19.7963   19.5097   28.5738 N   0  3  0  0  0  0  0  0  0  0  0  0
   19.8014   20.4447   28.9963 H   0  0  0  0  0  0  0  0  0  0  0  0
   20.7485   19.1384   28.6582 H   0  0  0  0  0  0  0  0  0  0  0  0
   19.1904   18.9221   29.1562 H   0  0  0  0  0  0  0  0  0  0  0  0
  1  2  1  0  0  0  0
  1  3  1  0  0  0  0
  1  4  1  0  0  0  0
  1  5  1  0  0  0  0
  5  6  1  0  0  0  0
  5  7  1  0  0  0  0
  5  8  1  0  0  0  0
  8  9  1  0  0  0  0
  8 10  1  0  0  0  0
  8 11  1  0  0  0  0
 11 12  1  0  0  0  0
 11 13  1  0  0  0  0
 11 14  1  0  0  0  0
 14 15  1  0  0  0  0
 14 16  1  0  0  0  0
 14 17  1  0  0  0  0
 17 18  1  0  0  0  0
 17 19  1  0  0  0  0
 17 20  1  0  0  0  0
 20 21  1  0  0  0  0
 20 22  1  0  0  0  0
 20 23  1  0  0  0  0
 23 24  1  0  0  0  0
 23 25  1  0  0  0  0
 23 26  1  0  0  0  0
 26 27  1  0  0  0  0
 26 28  1  0  0  0  0
 26 29  1  0  0  0  0
M  END
> <VM2 Rank>
31

> <Conf_Id>
1003

> <Probability>
0.84

> <Sum Probability>
48.86

> <Delta G>
1.098

> <G>
59.244

> <E>
21.850

> <-TS>
37.394

> <U+W>
-2.294

> <U>
49.086

> <W>
-51.380

> <W(PB)>
-53.930

> <W(SA)>
2.550

> <Valence>
3.390

> <Coulomb>
44.772

> <VdW>
0.923

> <VdW6>
-8.126

> <VdW12>
9.049

> <Bond>
0.202

> <Angle>
0.764

> <Pdih>
2.424

> <Idih>
0.000

> <Tether>
0.000

$$$$
VeraChem MOL file


 29 28  0  0  0  0  0  0  0  0999 V2000     
   19.2733   18.1045   19.6844 C   0  0  0  0  0  0  0  0  0  0  0  0
   19.8956   17.2272   19.9039 H   0  0  0  0  0  0  0  0  0  0  0  0
   18.3033   17.9710   20.1791 H   0  0  0  0  0  0  0  0  0  0  0  0
   19.0915   18.1249   18.6021 H   0  0  0  0  0  0  0  0  0  0  0  0
   19.9688   19.4070   20.1405 C   0  0  0  0  0  0  0  0  0  0  0  0
   19.3141   20.2661   19.9378 H   0  0  0  0  0  0  0  0  0  0  0  0
   20.8715   19.5580   19.5322 H   0  0  0  0  0  0  0  0  0  0  0  0
   20.3728   19.3979   21.6345 C   0  0  0  0  0  0  0  0  0  0  0  0
   21.0432   18.5491   21.8280 H   0  0  0  0  0  0  0  0  0  0  0  0
   20.9552   20.3058   21.8437 H   0  0  0  0  0  0  0  0  0  0  0  0
   19.1645   19.3394   22.5996 C   0  0  0  0  0  0  0  0  0  0  0  0
   18.6123   18.4022   22.4507 H   0  0  0  0  0  0  0  0  0  0  0  0
   18.4709   20.1595   22.3684 H   0  0  0  0  0  0  0  0  0  0  0  0
   19.6058   19.4369   24.0774 C   0  0  0  0  0  0  0  0  0  0  0  0
   20.3062   18.6204   24.2985 H   0  0  0  0  0  0  0  0  0  0  0  0
   20.1518   20.3772   24.2356 H   0  0  0  0  0  0  0  0  0  0  0  0
   18.3977   19.3731   25.0422 C   0  0  0  0  0  0  0  0  0  0  0  0
   17.8682   18.4192   24.9110 H   0  0  0  0  0  0  0  0  0  0  0  0
   17.6824   20.1644   24.7782 H   0  0  0  0  0  0  0  0  0  0  0  0
   18.7971   19.5410   26.5270 C   0  0  0  0  0  0  0  0  0  0  0  0
   19.3045   20.5050   26.6659 H   0  0  0  0  0  0  0  0  0  0  0  0
   17.8863   19.5737   27.1395 H   0  0  0  0  0  0  0  0  0  0  0  0
   19.7023   18.4018   27.0319 C   0  0  0  0  0  0  0  0  0  0  0  0
   20.6329   18.3865   26.4588 H   0  0  0  0  0  0  0  0  0  0  0  0
   19.1969   17.4420   26.8949 H   0  0  0  0  0  0  0  0  0  0  0  0
   20.0615   18.5363   28.4974 N   0  3  0  0  0  0  0  0  0  0  0  0
   19.2294   18.5294   29.0967 H   0  0  0  0  0  0  0  0  0  0  0  0
   20.5642   19.4094   28.6888 H   0  0  0  0  0  0  0  0  0  0  0  0
   20.6642   17.7687   28.8141 H   0  0  0  0  0  0  0  0  0  0  0  0
  1  2  1  0  0  0  0
  1  3  1  0  0  0  0
  1  4  1  0  0  0  0
  1  5  1  0  0  0  0
  5  6  1  0  0  0  0
  5  7  1  0  0  0  0
  5  8  1  0  0  0  0
  8  9  1  0  0  0  0
  8 10  1  0  0  0  0
  8 11  1  0  0  0  0
 11 12  1  0  0  0  0
 11 13  1  0  0  0  0
 11 14  1  0  0  0  0
 14 15  1  0  0  0  0
 14 16  1  0  0  0  0
 14 17  1  0  0  0  0
 17 18  1  0  0  0  0
 17 19  1  0  0  0  0
 17 20  1  0  0  0  0
 20 21  1  0  0  0  0
 20 22  1  0  0  0  0
 20 23  1  0  0  0  0
 23 24  1  0  0  0  0
 23 25  1  0  0  0  0
 23 26  1  0  0  0  0
 26 27  1  0  0  0  0
 26 28  1  0  0  0  0
 26 29  1  0  0  0  0
M  END
> <VM2 Rank>
32

> <Conf_Id>
1807

> <Probability>
0.83

> <Sum Probability>
49.69

> <Delta G>
1.102

> <G>
59.249

> <E>
21.854

> <-TS>
37.394

> <U+W>
-2.290

> <U>
49.098

> <W>
-51.388

> <W(PB)>
-53.927

> <W(SA)>
2.539

> <Valence>
3.391

> <Coulomb>
44.787

> <VdW>
0.920

> <VdW6>
-8.127

> <VdW12>
9.047

> <Bond>
0.202

> <Angle>
0.764

> <Pdih>
2.425

> <Idih>
0.000

> <Tether>
0.000

$$$$
VeraChem MOL file


 29 28  0  0  0  0  0  0  0  0999 V2000     
   20.7933   18.9041   19.5807 C   0  0  0  0  0  0  0  0  0  0  0  0
   21.5024   19.6904   19.8710 H   0  0  0  0  0  0  0  0  0  0  0  0
   21.2614   17.9311   19.7791 H   0  0  0  0  0  0  0  0  0  0  0  0
   20.6265   18.9835   18.4986 H   0  0  0  0  0  0  0  0  0  0  0  0
   19.4624   19.0461   20.3490 C   0  0  0  0  0  0  0  0  0  0  0  0
   18.7628   18.2682   20.0124 H   0  0  0  0  0  0  0  0  0  0  0  0
   19.0020   20.0138   20.1052 H   0  0  0  0  0  0  0  0  0  0  0  0
   19.6691   18.9374   21.8759 C   0  0  0  0  0  0  0  0  0  0  0  0
   20.1276   17.9680   22.1149 H   0  0  0  0  0  0  0  0  0  0  0  0
   20.3760   19.7134   22.1974 H   0  0  0  0  0  0  0  0  0  0  0  0
   18.3356   19.0837   22.6476 C   0  0  0  0  0  0  0  0  0  0  0  0
   17.6160   18.3491   22.2606 H   0  0  0  0  0  0  0  0  0  0  0  0
   17.9008   20.0737   22.4522 H   0  0  0  0  0  0  0  0  0  0  0  0
   18.4787   18.8721   24.1746 C   0  0  0  0  0  0  0  0  0  0  0  0
   17.4753   18.8826   24.6223 H   0  0  0  0  0  0  0  0  0  0  0  0
   18.8914   17.8720   24.3636 H   0  0  0  0  0  0  0  0  0  0  0  0
   19.3515   19.9491   24.8672 C   0  0  0  0  0  0  0  0  0  0  0  0
   18.9871   20.9465   24.5851 H   0  0  0  0  0  0  0  0  0  0  0  0
   20.3880   19.8823   24.5112 H   0  0  0  0  0  0  0  0  0  0  0  0
   19.3400   19.8341   26.4095 C   0  0  0  0  0  0  0  0  0  0  0  0
   19.9112   20.6705   26.8339 H   0  0  0  0  0  0  0  0  0  0  0  0
   18.3112   19.9359   26.7799 H   0  0  0  0  0  0  0  0  0  0  0  0
   19.9416   18.5076   26.9098 C   0  0  0  0  0  0  0  0  0  0  0  0
   20.9670   18.4074   26.5438 H   0  0  0  0  0  0  0  0  0  0  0  0
   19.3555   17.6680   26.5276 H   0  0  0  0  0  0  0  0  0  0  0  0
   19.9719   18.4037   28.4208 N   0  3  0  0  0  0  0  0  0  0  0  0
   20.5322   19.1511   28.8438 H   0  0  0  0  0  0  0  0  0  0  0  0
   20.3757   17.5139   28.7336 H   0  0  0  0  0  0  0  0  0  0  0  0
   19.0321   18.4645   28.8265 H   0  0  0  0  0  0  0  0  0  0  0  0
  1  2  1  0  0  0  0
  1  3  1  0  0  0  0
  1  4  1  0  0  0  0
  1  5  1  0  0  0  0
  5  6  1  0  0  0  0
  5  7  1  0  0  0  0
  5  8  1  0  0  0  0
  8  9  1  0  0  0  0
  8 10  1  0  0  0  0
  8 11  1  0  0  0  0
 11 12  1  0  0  0  0
 11 13  1  0  0  0  0
 11 14  1  0  0  0  0
 14 15  1  0  0  0  0
 14 16  1  0  0  0  0
 14 17  1  0  0  0  0
 17 18  1  0  0  0  0
 17 19  1  0  0  0  0
 17 20  1  0  0  0  0
 20 21  1  0  0  0  0
 20 22  1  0  0  0  0
 20 23  1  0  0  0  0
 23 24  1  0  0  0  0
 23 25  1  0  0  0  0
 23 26  1  0  0  0  0
 26 27  1  0  0  0  0
 26 28  1  0  0  0  0
 26 29  1  0  0  0  0
M  END
> <VM2 Rank>
33

> <Conf_Id>
1580

> <Probability>
0.81

> <Sum Probability>
50.50

> <Delta G>
1.121

> <G>
59.267

> <E>
21.871

> <-TS>
37.396

> <U+W>
-2.274

> <U>
49.224

> <W>
-51.497

> <W(PB)>
-54.014

> <W(SA)>
2.516

> <Valence>
3.410

> <Coulomb>
44.942

> <VdW>
0.872

> <VdW6>
-8.213

> <VdW12>
9.085

> <Bond>
0.208

> <Angle>
0.753

> <Pdih>
2.449

> <Idih>
0.000

> <Tether>
0.000

$$$$
VeraChem MOL file


 29 28  0  0  0  0  0  0  0  0999 V2000     
   20.6579   18.5241   19.5720 C   0  0  0  0  0  0  0  0  0  0  0  0
   21.6327   18.9735   19.8025 H   0  0  0  0  0  0  0  0  0  0  0  0
   20.7063   17.4559   19.8207 H   0  0  0  0  0  0  0  0  0  0  0  0
   20.4938   18.6113   18.4901 H   0  0  0  0  0  0  0  0  0  0  0  0
   19.5259   19.2247   20.3529 C   0  0  0  0  0  0  0  0  0  0  0  0
   18.5610   18.7763   20.0774 H   0  0  0  0  0  0  0  0  0  0  0  0
   19.4801   20.2823   20.0576 H   0  0  0  0  0  0  0  0  0  0  0  0
   19.7331   19.1174   21.8799 C   0  0  0  0  0  0  0  0  0  0  0  0
   19.7861   18.0573   22.1602 H   0  0  0  0  0  0  0  0  0  0  0  0
   20.6977   19.5686   22.1507 H   0  0  0  0  0  0  0  0  0  0  0  0
   18.5964   19.8160   22.6640 C   0  0  0  0  0  0  0  0  0  0  0  0
   17.6367   19.3321   22.4357 H   0  0  0  0  0  0  0  0  0  0  0  0
   18.5082   20.8547   22.3166 H   0  0  0  0  0  0  0  0  0  0  0  0
   18.8195   19.8289   24.1960 C   0  0  0  0  0  0  0  0  0  0  0  0
   19.7685   20.3350   24.4187 H   0  0  0  0  0  0  0  0  0  0  0  0
   18.0288   20.4368   24.6571 H   0  0  0  0  0  0  0  0  0  0  0  0
   18.8061   18.4163   24.8329 C   0  0  0  0  0  0  0  0  0  0  0  0
   19.6568   17.8275   24.4653 H   0  0  0  0  0  0  0  0  0  0  0  0
   17.8977   17.8853   24.5166 H   0  0  0  0  0  0  0  0  0  0  0  0
   18.8479   18.4513   26.3786 C   0  0  0  0  0  0  0  0  0  0  0  0
   17.9808   19.0075   26.7591 H   0  0  0  0  0  0  0  0  0  0  0  0
   18.7566   17.4261   26.7613 H   0  0  0  0  0  0  0  0  0  0  0  0
   20.1449   19.0788   26.9226 C   0  0  0  0  0  0  0  0  0  0  0  0
   20.2261   20.1143   26.5822 H   0  0  0  0  0  0  0  0  0  0  0  0
   21.0083   18.5234   26.5467 H   0  0  0  0  0  0  0  0  0  0  0  0
   20.2124   19.0804   28.4360 N   0  3  0  0  0  0  0  0  0  0  0  0
   20.1689   18.1310   28.8211 H   0  0  0  0  0  0  0  0  0  0  0  0
   19.4396   19.6107   28.8521 H   0  0  0  0  0  0  0  0  0  0  0  0
   21.0829   19.5021   28.7782 H   0  0  0  0  0  0  0  0  0  0  0  0
  1  2  1  0  0  0  0
  1  3  1  0  0  0  0
  1  4  1  0  0  0  0
  1  5  1  0  0  0  0
  5  6  1  0  0  0  0
  5  7  1  0  0  0  0
  5  8  1  0  0  0  0
  8  9  1  0  0  0  0
  8 10  1  0  0  0  0
  8 11  1  0  0  0  0
 11 12  1  0  0  0  0
 11 13  1  0  0  0  0
 11 14  1  0  0  0  0
 14 15  1  0  0  0  0
 14 16  1  0  0  0  0
 14 17  1  0  0  0  0
 17 18  1  0  0  0  0
 17 19  1  0  0  0  0
 17 20  1  0  0  0  0
 20 21  1  0  0  0  0
 20 22  1  0  0  0  0
 20 23  1  0  0  0  0
 23 24  1  0  0  0  0
 23 25  1  0  0  0  0
 23 26  1  0  0  0  0
 26 27  1  0  0  0  0
 26 28  1  0  0  0  0
 26 29  1  0  0  0  0
M  END
> <VM2 Rank>
34

> <Conf_Id>
1499

> <Probability>
0.79

> <Sum Probability>
51.29

> <Delta G>
1.129

> <G>
59.275

> <E>
21.880

> <-TS>
37.396

> <U+W>
-2.265

> <U>
49.224

> <W>
-51.489

> <W(PB)>
-54.003

> <W(SA)>
2.514

> <Valence>
3.410

> <Coulomb>
44.942

> <VdW>
0.872

> <VdW6>
-8.213

> <VdW12>
9.085

> <Bond>
0.208

> <Angle>
0.753

> <Pdih>
2.449

> <Idih>
0.000

> <Tether>
0.000

$$$$
VeraChem MOL file


 29 28  0  0  0  0  0  0  0  0999 V2000     
   19.9821   20.0991   19.7285 C   0  0  0  0  0  0  0  0  0  0  0  0
   19.3067   20.7949   20.2416 H   0  0  0  0  0  0  0  0  0  0  0  0
   21.0151   20.3780   19.9736 H   0  0  0  0  0  0  0  0  0  0  0  0
   19.8432   20.2405   18.6489 H   0  0  0  0  0  0  0  0  0  0  0  0
   19.6938   18.6330   20.1233 C   0  0  0  0  0  0  0  0  0  0  0  0
   20.3075   17.9705   19.4970 H   0  0  0  0  0  0  0  0  0  0  0  0
   18.6468   18.3880   19.8962 H   0  0  0  0  0  0  0  0  0  0  0  0
   19.9921   18.3265   21.6108 C   0  0  0  0  0  0  0  0  0  0  0  0
   19.8682   17.2474   21.7760 H   0  0  0  0  0  0  0  0  0  0  0  0
   21.0450   18.5537   21.8280 H   0  0  0  0  0  0  0  0  0  0  0  0
   19.0783   19.0963   22.5941 C   0  0  0  0  0  0  0  0  0  0  0  0
   18.0260   18.9079   22.3404 H   0  0  0  0  0  0  0  0  0  0  0  0
   19.2436   20.1767   22.4902 H   0  0  0  0  0  0  0  0  0  0  0  0
   19.3381   18.6839   24.0606 C   0  0  0  0  0  0  0  0  0  0  0  0
   19.1657   17.6046   24.1738 H   0  0  0  0  0  0  0  0  0  0  0  0
   20.3935   18.8655   24.3040 H   0  0  0  0  0  0  0  0  0  0  0  0
   18.4279   19.4579   25.0441 C   0  0  0  0  0  0  0  0  0  0  0  0
   17.3775   19.3072   24.7588 H   0  0  0  0  0  0  0  0  0  0  0  0
   18.6216   20.5362   24.9583 H   0  0  0  0  0  0  0  0  0  0  0  0
   18.6104   19.0167   26.5152 C   0  0  0  0  0  0  0  0  0  0  0  0
   17.8749   19.5423   27.1387 H   0  0  0  0  0  0  0  0  0  0  0  0
   18.3929   17.9443   26.6086 H   0  0  0  0  0  0  0  0  0  0  0  0
   20.0243   19.3070   27.0523 C   0  0  0  0  0  0  0  0  0  0  0  0
   20.2407   20.3748   26.9607 H   0  0  0  0  0  0  0  0  0  0  0  0
   20.7636   18.7539   26.4672 H   0  0  0  0  0  0  0  0  0  0  0  0
   20.1969   18.9177   28.5061 N   0  3  0  0  0  0  0  0  0  0  0  0
   20.0325   17.9166   28.6554 H   0  0  0  0  0  0  0  0  0  0  0  0
   19.5477   19.4247   29.1168 H   0  0  0  0  0  0  0  0  0  0  0  0
   21.1444   19.1189   28.8446 H   0  0  0  0  0  0  0  0  0  0  0  0
  1  2  1  0  0  0  0
  1  3  1  0  0  0  0
  1  4  1  0  0  0  0
  1  5  1  0  0  0  0
  5  6  1  0  0  0  0
  5  7  1  0  0  0  0
  5  8  1  0  0  0  0
  8  9  1  0  0  0  0
  8 10  1  0  0  0  0
  8 11  1  0  0  0  0
 11 12  1  0  0  0  0
 11 13  1  0  0  0  0
 11 14  1  0  0  0  0
 14 15  1  0  0  0  0
 14 16  1  0  0  0  0
 14 17  1  0  0  0  0
 17 18  1  0  0  0  0
 17 19  1  0  0  0  0
 17 20  1  0  0  0  0
 20 21  1  0  0  0  0
 20 22  1  0  0  0  0
 20 23  1  0  0  0  0
 23 24  1  0  0  0  0
 23 25  1  0  0  0  0
 23 26  1  0  0  0  0
 26 27  1  0  0  0  0
 26 28  1  0  0  0  0
 26 29  1  0  0  0  0
M  END
> <VM2 Rank>
35

> <Conf_Id>
1163

> <Probability>
0.78

> <Sum Probability>
52.08

> <Delta G>
1.137

> <G>
59.284

> <E>
21.889

> <-TS>
37.395

> <U+W>
-2.256

> <U>
49.098

> <W>
-51.353

> <W(PB)>
-53.874

> <W(SA)>
2.520

> <Valence>
3.391

> <Coulomb>
44.787

> <VdW>
0.920

> <VdW6>
-8.128

> <VdW12>
9.048

> <Bond>
0.202

> <Angle>
0.764

> <Pdih>
2.425

> <Idih>
0.000

> <Tether>
0.000

$$$$
VeraChem MOL file


 29 28  0  0  0  0  0  0  0  0999 V2000     
   19.9545   19.6360   19.5234 C   0  0  0  0  0  0  0  0  0  0  0  0
   21.0211   19.3779   19.5502 H   0  0  0  0  0  0  0  0  0  0  0  0
   19.6682   19.7720   18.4724 H   0  0  0  0  0  0  0  0  0  0  0  0
   19.8208   20.6005   20.0288 H   0  0  0  0  0  0  0  0  0  0  0  0
   19.0982   18.5285   20.1780 C   0  0  0  0  0  0  0  0  0  0  0  0
   19.1704   17.6177   19.5672 H   0  0  0  0  0  0  0  0  0  0  0  0
   18.0397   18.8238   20.1658 H   0  0  0  0  0  0  0  0  0  0  0  0
   19.5307   18.1911   21.6252 C   0  0  0  0  0  0  0  0  0  0  0  0
   18.9487   17.3253   21.9700 H   0  0  0  0  0  0  0  0  0  0  0  0
   20.5837   17.8773   21.6296 H   0  0  0  0  0  0  0  0  0  0  0  0
   19.3309   19.3619   22.6173 C   0  0  0  0  0  0  0  0  0  0  0  0
   18.2886   19.7067   22.5725 H   0  0  0  0  0  0  0  0  0  0  0  0
   19.9615   20.2114   22.3241 H   0  0  0  0  0  0  0  0  0  0  0  0
   19.6765   18.9508   24.0663 C   0  0  0  0  0  0  0  0  0  0  0  0
   19.0463   18.1009   24.3604 H   0  0  0  0  0  0  0  0  0  0  0  0
   20.7187   18.6053   24.1097 H   0  0  0  0  0  0  0  0  0  0  0  0
   19.4789   20.1226   25.0576 C   0  0  0  0  0  0  0  0  0  0  0  0
   18.4298   20.4494   25.0411 H   0  0  0  0  0  0  0  0  0  0  0  0
   20.0774   20.9820   24.7250 H   0  0  0  0  0  0  0  0  0  0  0  0
   19.8854   19.7667   26.5069 C   0  0  0  0  0  0  0  0  0  0  0  0
   20.9406   19.4634   26.5303 H   0  0  0  0  0  0  0  0  0  0  0  0
   19.8027   20.6663   27.1313 H   0  0  0  0  0  0  0  0  0  0  0  0
   19.0126   18.6518   27.1128 C   0  0  0  0  0  0  0  0  0  0  0  0
   19.1205   17.7363   26.5254 H   0  0  0  0  0  0  0  0  0  0  0  0
   17.9620   18.9539   27.0908 H   0  0  0  0  0  0  0  0  0  0  0  0
   19.3764   18.3287   28.5474 N   0  3  0  0  0  0  0  0  0  0  0  0
   19.2693   19.1432   29.1612 H   0  0  0  0  0  0  0  0  0  0  0  0
   20.3479   18.0118   28.6329 H   0  0  0  0  0  0  0  0  0  0  0  0
   18.7842   17.5845   28.9324 H   0  0  0  0  0  0  0  0  0  0  0  0
  1  2  1  0  0  0  0
  1  3  1  0  0  0  0
  1  4  1  0  0  0  0
  1  5  1  0  0  0  0
  5  6  1  0  0  0  0
  5  7  1  0  0  0  0
  5  8  1  0  0  0  0
  8  9  1  0  0  0  0
  8 10  1  0  0  0  0
  8 11  1  0  0  0  0
 11 12  1  0  0  0  0
 11 13  1  0  0  0  0
 11 14  1  0  0  0  0
 14 15  1  0  0  0  0
 14 16  1  0  0  0  0
 14 17  1  0  0  0  0
 17 18  1  0  0  0  0
 17 19  1  0  0  0  0
 17 20  1  0  0  0  0
 20 21  1  0  0  0  0
 20 22  1  0  0  0  0
 20 23  1  0  0  0  0
 23 24  1  0  0  0  0
 23 25  1  0  0  0  0
 23 26  1  0  0  0  0
 26 27  1  0  0  0  0
 26 28  1  0  0  0  0
 26 29  1  0  0  0  0
M  END
> <VM2 Rank>
36

> <Conf_Id>
2263

> <Probability>
0.78

> <Sum Probability>
52.85

> <Delta G>
1.143

> <G>
59.289

> <E>
21.894

> <-TS>
37.395

> <U+W>
-2.250

> <U>
49.086

> <W>
-51.336

> <W(PB)>
-53.921

> <W(SA)>
2.584

> <Valence>
3.390

> <Coulomb>
44.772

> <VdW>
0.924

> <VdW6>
-8.126

> <VdW12>
9.049

> <Bond>
0.202

> <Angle>
0.764

> <Pdih>
2.424

> <Idih>
0.000

> <Tether>
0.000

$$$$
VeraChem MOL file


 29 28  0  0  0  0  0  0  0  0999 V2000     
   20.7723   18.6300   19.6412 C   0  0  0  0  0  0  0  0  0  0  0  0
   21.6675   19.2345   19.8371 H   0  0  0  0  0  0  0  0  0  0  0  0
   21.1015   17.6471   19.2798 H   0  0  0  0  0  0  0  0  0  0  0  0
   20.2037   19.1120   18.8353 H   0  0  0  0  0  0  0  0  0  0  0  0
   19.9136   18.4825   20.9152 C   0  0  0  0  0  0  0  0  0  0  0  0
   20.5014   17.9610   21.6821 H   0  0  0  0  0  0  0  0  0  0  0  0
   19.0422   17.8498   20.6958 H   0  0  0  0  0  0  0  0  0  0  0  0
   19.4412   19.8565   21.4460 C   0  0  0  0  0  0  0  0  0  0  0  0
   20.3126   20.4691   21.7153 H   0  0  0  0  0  0  0  0  0  0  0  0
   18.9255   20.3930   20.6377 H   0  0  0  0  0  0  0  0  0  0  0  0
   18.4823   19.7567   22.6578 C   0  0  0  0  0  0  0  0  0  0  0  0
   17.6029   19.1584   22.3820 H   0  0  0  0  0  0  0  0  0  0  0  0
   18.1097   20.7640   22.8897 H   0  0  0  0  0  0  0  0  0  0  0  0
   19.1441   19.1611   23.9235 C   0  0  0  0  0  0  0  0  0  0  0  0
   19.4505   18.1243   23.7328 H   0  0  0  0  0  0  0  0  0  0  0  0
   20.0560   19.7278   24.1542 H   0  0  0  0  0  0  0  0  0  0  0  0
   18.1839   19.1890   25.1367 C   0  0  0  0  0  0  0  0  0  0  0  0
   17.2547   18.6648   24.8737 H   0  0  0  0  0  0  0  0  0  0  0  0
   17.9021   20.2266   25.3634 H   0  0  0  0  0  0  0  0  0  0  0  0
   18.7842   18.5304   26.4010 C   0  0  0  0  0  0  0  0  0  0  0  0
   18.0198   18.5099   27.1892 H   0  0  0  0  0  0  0  0  0  0  0  0
   19.0419   17.4848   26.1856 H   0  0  0  0  0  0  0  0  0  0  0  0
   20.0276   19.2728   26.9250 C   0  0  0  0  0  0  0  0  0  0  0  0
   19.7710   20.3135   27.1408 H   0  0  0  0  0  0  0  0  0  0  0  0
   20.8132   19.2618   26.1652 H   0  0  0  0  0  0  0  0  0  0  0  0
   20.5948   18.6592   28.1886 N   0  3  0  0  0  0  0  0  0  0  0  0
   21.4215   19.1677   28.5213 H   0  0  0  0  0  0  0  0  0  0  0  0
   20.8809   17.6850   28.0449 H   0  0  0  0  0  0  0  0  0  0  0  0
   19.9131   18.6638   28.9546 H   0  0  0  0  0  0  0  0  0  0  0  0
  1  2  1  0  0  0  0
  1  3  1  0  0  0  0
  1  4  1  0  0  0  0
  1  5  1  0  0  0  0
  5  6  1  0  0  0  0
  5  7  1  0  0  0  0
  5  8  1  0  0  0  0
  8  9  1  0  0  0  0
  8 10  1  0  0  0  0
  8 11  1  0  0  0  0
 11 12  1  0  0  0  0
 11 13  1  0  0  0  0
 11 14  1  0  0  0  0
 14 15  1  0  0  0  0
 14 16  1  0  0  0  0
 14 17  1  0  0  0  0
 17 18  1  0  0  0  0
 17 19  1  0  0  0  0
 17 20  1  0  0  0  0
 20 21  1  0  0  0  0
 20 22  1  0  0  0  0
 20 23  1  0  0  0  0
 23 24  1  0  0  0  0
 23 25  1  0  0  0  0
 23 26  1  0  0  0  0
 26 27  1  0  0  0  0
 26 28  1  0  0  0  0
 26 29  1  0  0  0  0
M  END
> <VM2 Rank>
37

> <Conf_Id>
2540

> <Probability>
0.72

> <Sum Probability>
53.57

> <Delta G>
1.186

> <G>
59.333

> <E>
21.948

> <-TS>
37.385

> <U+W>
-2.197

> <U>
49.333

> <W>
-51.530

> <W(PB)>
-54.060

> <W(SA)>
2.530

> <Valence>
3.429

> <Coulomb>
45.008

> <VdW>
0.896

> <VdW6>
-8.187

> <VdW12>
9.083

> <Bond>
0.206

> <Angle>
0.786

> <Pdih>
2.437

> <Idih>
0.000

> <Tether>
0.000

$$$$
VeraChem MOL file


 29 28  0  0  0  0  0  0  0  0999 V2000     
   20.3638   19.3183   19.2778 C   0  0  0  0  0  0  0  0  0  0  0  0
   20.9696   18.4029   19.2628 H   0  0  0  0  0  0  0  0  0  0  0  0
   19.9840   19.4880   18.2620 H   0  0  0  0  0  0  0  0  0  0  0  0
   21.0208   20.1589   19.5368 H   0  0  0  0  0  0  0  0  0  0  0  0
   19.1982   19.1955   20.2819 C   0  0  0  0  0  0  0  0  0  0  0  0
   18.5405   18.3694   19.9770 H   0  0  0  0  0  0  0  0  0  0  0  0
   18.5919   20.1116   20.2508 H   0  0  0  0  0  0  0  0  0  0  0  0
   19.7057   18.9551   21.7209 C   0  0  0  0  0  0  0  0  0  0  0  0
   20.3090   18.0373   21.7474 H   0  0  0  0  0  0  0  0  0  0  0  0
   20.3682   19.7817   22.0084 H   0  0  0  0  0  0  0  0  0  0  0  0
   18.5374   18.8362   22.7290 C   0  0  0  0  0  0  0  0  0  0  0  0
   17.8431   18.0596   22.3793 H   0  0  0  0  0  0  0  0  0  0  0  0
   17.9660   19.7745   22.7474 H   0  0  0  0  0  0  0  0  0  0  0  0
   18.9896   18.4758   24.1656 C   0  0  0  0  0  0  0  0  0  0  0  0
   18.0909   18.2811   24.7656 H   0  0  0  0  0  0  0  0  0  0  0  0
   19.5576   17.5356   24.1465 H   0  0  0  0  0  0  0  0  0  0  0  0
   19.8344   19.5837   24.8447 C   0  0  0  0  0  0  0  0  0  0  0  0
   19.2766   20.5304   24.8417 H   0  0  0  0  0  0  0  0  0  0  0  0
   20.7493   19.7587   24.2642 H   0  0  0  0  0  0  0  0  0  0  0  0
   20.2431   19.2311   26.2944 C   0  0  0  0  0  0  0  0  0  0  0  0
   20.8073   18.2890   26.3001 H   0  0  0  0  0  0  0  0  0  0  0  0
   20.9232   20.0070   26.6705 H   0  0  0  0  0  0  0  0  0  0  0  0
   19.0363   19.1189   27.2448 C   0  0  0  0  0  0  0  0  0  0  0  0
   18.3735   18.3171   26.9099 H   0  0  0  0  0  0  0  0  0  0  0  0
   18.4742   20.0567   27.2381 H   0  0  0  0  0  0  0  0  0  0  0  0
   19.4356   18.8233   28.6760 N   0  3  0  0  0  0  0  0  0  0  0  0
   19.9469   17.9379   28.7546 H   0  0  0  0  0  0  0  0  0  0  0  0
   18.6186   18.7526   29.2926 H   0  0  0  0  0  0  0  0  0  0  0  0
   20.0394   19.5561   29.0630 H   0  0  0  0  0  0  0  0  0  0  0  0
  1  2  1  0  0  0  0
  1  3  1  0  0  0  0
  1  4  1  0  0  0  0
  1  5  1  0  0  0  0
  5  6  1  0  0  0  0
  5  7  1  0  0  0  0
  5  8  1  0  0  0  0
  8  9  1  0  0  0  0
  8 10  1  0  0  0  0
  8 11  1  0  0  0  0
 11 12  1  0  0  0  0
 11 13  1  0  0  0  0
 11 14  1  0  0  0  0
 14 15  1  0  0  0  0
 14 16  1  0  0  0  0
 14 17  1  0  0  0  0
 17 18  1  0  0  0  0
 17 19  1  0  0  0  0
 17 20  1  0  0  0  0
 20 21  1  0  0  0  0
 20 22  1  0  0  0  0
 20 23  1  0  0  0  0
 23 24  1  0  0  0  0
 23 25  1  0  0  0  0
 23 26  1  0  0  0  0
 26 27  1  0  0  0  0
 26 28  1  0  0  0  0
 26 29  1  0  0  0  0
M  END
> <VM2 Rank>
38

> <Conf_Id>
1608

> <Probability>
0.71

> <Sum Probability>
54.28

> <Delta G>
1.200

> <G>
59.346

> <E>
21.991

> <-TS>
37.355

> <U+W>
-2.154

> <U>
49.234

> <W>
-51.388

> <W(PB)>
-53.937

> <W(SA)>
2.550

> <Valence>
3.474

> <Coulomb>
44.816

> <VdW>
0.944

> <VdW6>
-8.147

> <VdW12>
9.090

> <Bond>
0.214

> <Angle>
0.815

> <Pdih>
2.445

> <Idih>
0.000

> <Tether>
0.000

$$$$
VeraChem MOL file


 29 28  0  0  0  0  0  0  0  0999 V2000     
   20.3953   18.4162   19.5221 C   0  0  0  0  0  0  0  0  0  0  0  0
   21.4722   18.4815   19.7254 H   0  0  0  0  0  0  0  0  0  0  0  0
   20.2316   17.5719   18.8399 H   0  0  0  0  0  0  0  0  0  0  0  0
   20.0891   19.3336   19.0027 H   0  0  0  0  0  0  0  0  0  0  0  0
   19.5952   18.2248   20.8278 C   0  0  0  0  0  0  0  0  0  0  0  0
   19.8990   17.2834   21.3069 H   0  0  0  0  0  0  0  0  0  0  0  0
   18.5265   18.1291   20.5899 H   0  0  0  0  0  0  0  0  0  0  0  0
   19.8082   19.4006   21.8066 C   0  0  0  0  0  0  0  0  0  0  0  0
   20.8778   19.4936   22.0403 H   0  0  0  0  0  0  0  0  0  0  0  0
   19.5058   20.3393   21.3221 H   0  0  0  0  0  0  0  0  0  0  0  0
   19.0081   19.2126   23.1152 C   0  0  0  0  0  0  0  0  0  0  0  0
   19.3117   18.2694   23.5880 H   0  0  0  0  0  0  0  0  0  0  0  0
   17.9382   19.1241   22.8816 H   0  0  0  0  0  0  0  0  0  0  0  0
   19.2276   20.3892   24.0959 C   0  0  0  0  0  0  0  0  0  0  0  0
   20.2900   20.4523   24.3671 H   0  0  0  0  0  0  0  0  0  0  0  0
   18.9901   21.3313   23.5828 H   0  0  0  0  0  0  0  0  0  0  0  0
   18.3580   20.2992   25.3766 C   0  0  0  0  0  0  0  0  0  0  0  0
   17.2969   20.3443   25.0952 H   0  0  0  0  0  0  0  0  0  0  0  0
   18.5452   21.1899   25.9923 H   0  0  0  0  0  0  0  0  0  0  0  0
   18.5959   19.0351   26.2396 C   0  0  0  0  0  0  0  0  0  0  0  0
   17.9541   19.0882   27.1290 H   0  0  0  0  0  0  0  0  0  0  0  0
   18.2831   18.1391   25.6886 H   0  0  0  0  0  0  0  0  0  0  0  0
   20.0622   18.8855   26.6852 C   0  0  0  0  0  0  0  0  0  0  0  0
   20.3695   19.7736   27.2439 H   0  0  0  0  0  0  0  0  0  0  0  0
   20.7066   18.7899   25.8074 H   0  0  0  0  0  0  0  0  0  0  0  0
   20.2935   17.6749   27.5660 N   0  3  0  0  0  0  0  0  0  0  0  0
   19.7353   17.7160   28.4252 H   0  0  0  0  0  0  0  0  0  0  0  0
   21.2756   17.5935   27.8514 H   0  0  0  0  0  0  0  0  0  0  0  0
   20.0477   16.8019   27.0876 H   0  0  0  0  0  0  0  0  0  0  0  0
  1  2  1  0  0  0  0
  1  3  1  0  0  0  0
  1  4  1  0  0  0  0
  1  5  1  0  0  0  0
  5  6  1  0  0  0  0
  5  7  1  0  0  0  0
  5  8  1  0  0  0  0
  8  9  1  0  0  0  0
  8 10  1  0  0  0  0
  8 11  1  0  0  0  0
 11 12  1  0  0  0  0
 11 13  1  0  0  0  0
 11 14  1  0  0  0  0
 14 15  1  0  0  0  0
 14 16  1  0  0  0  0
 14 17  1  0  0  0  0
 17 18  1  0  0  0  0
 17 19  1  0  0  0  0
 17 20  1  0  0  0  0
 20 21  1  0  0  0  0
 20 22  1  0  0  0  0
 20 23  1  0  0  0  0
 23 24  1  0  0  0  0
 23 25  1  0  0  0  0
 23 26  1  0  0  0  0
 26 27  1  0  0  0  0
 26 28  1  0  0  0  0
 26 29  1  0  0  0  0
M  END
> <VM2 Rank>
39

> <Conf_Id>
1980

> <Probability>
0.70

> <Sum Probability>
54.98

> <Delta G>
1.202

> <G>
59.348

> <E>
21.824

> <-TS>
37.524

> <U+W>
-2.321

> <U>
49.532

> <W>
-51.853

> <W(PB)>
-54.379

> <W(SA)>
2.526

> <Valence>
3.341

> <Coulomb>
45.459

> <VdW>
0.732

> <VdW6>
-8.518

> <VdW12>
9.251

> <Bond>
0.212

> <Angle>
0.893

> <Pdih>
2.236

> <Idih>
0.000

> <Tether>
0.000

$$$$
VeraChem MOL file


 29 28  0  0  0  0  0  0  0  0999 V2000     
   20.8141   18.7472   19.6439 C   0  0  0  0  0  0  0  0  0  0  0  0
   21.1229   17.7057   19.8027 H   0  0  0  0  0  0  0  0  0  0  0  0
   20.0803   18.7657   18.8276 H   0  0  0  0  0  0  0  0  0  0  0  0
   21.6955   19.3142   19.3173 H   0  0  0  0  0  0  0  0  0  0  0  0
   20.2239   19.3532   20.9348 C   0  0  0  0  0  0  0  0  0  0  0  0
   19.9517   20.4023   20.7533 H   0  0  0  0  0  0  0  0  0  0  0  0
   20.9981   19.3546   21.7135 H   0  0  0  0  0  0  0  0  0  0  0  0
   18.9819   18.5672   21.4172 C   0  0  0  0  0  0  0  0  0  0  0  0
   18.2547   18.5100   20.5955 H   0  0  0  0  0  0  0  0  0  0  0  0
   19.2662   17.5316   21.6495 H   0  0  0  0  0  0  0  0  0  0  0  0
   18.2847   19.2022   22.6453 C   0  0  0  0  0  0  0  0  0  0  0  0
   17.3562   18.6487   22.8423 H   0  0  0  0  0  0  0  0  0  0  0  0
   17.9852   20.2319   22.4060 H   0  0  0  0  0  0  0  0  0  0  0  0
   19.1561   19.1948   23.9242 C   0  0  0  0  0  0  0  0  0  0  0  0
   19.5013   18.1708   24.1193 H   0  0  0  0  0  0  0  0  0  0  0  0
   20.0513   19.8113   23.7706 H   0  0  0  0  0  0  0  0  0  0  0  0
   18.3772   19.7318   25.1489 C   0  0  0  0  0  0  0  0  0  0  0  0
   17.5000   19.0976   25.3382 H   0  0  0  0  0  0  0  0  0  0  0  0
   17.9918   20.7350   24.9199 H   0  0  0  0  0  0  0  0  0  0  0  0
   19.2406   19.8124   26.4296 C   0  0  0  0  0  0  0  0  0  0  0  0
   20.1039   20.4675   26.2521 H   0  0  0  0  0  0  0  0  0  0  0  0
   18.6500   20.2799   27.2287 H   0  0  0  0  0  0  0  0  0  0  0  0
   19.7279   18.4313   26.9062 C   0  0  0  0  0  0  0  0  0  0  0  0
   20.3543   17.9736   26.1363 H   0  0  0  0  0  0  0  0  0  0  0  0
   18.8685   17.7793   27.0845 H   0  0  0  0  0  0  0  0  0  0  0  0
   20.5376   18.4980   28.1848 N   0  3  0  0  0  0  0  0  0  0  0  0
   20.8524   17.5689   28.4855 H   0  0  0  0  0  0  0  0  0  0  0  0
   19.9957   18.8949   28.9596 H   0  0  0  0  0  0  0  0  0  0  0  0
   21.3768   19.0770   28.0755 H   0  0  0  0  0  0  0  0  0  0  0  0
  1  2  1  0  0  0  0
  1  3  1  0  0  0  0
  1  4  1  0  0  0  0
  1  5  1  0  0  0  0
  5  6  1  0  0  0  0
  5  7  1  0  0  0  0
  5  8  1  0  0  0  0
  8  9  1  0  0  0  0
  8 10  1  0  0  0  0
  8 11  1  0  0  0  0
 11 12  1  0  0  0  0
 11 13  1  0  0  0  0
 11 14  1  0  0  0  0
 14 15  1  0  0  0  0
 14 16  1  0  0  0  0
 14 17  1  0  0  0  0
 17 18  1  0  0  0  0
 17 19  1  0  0  0  0
 17 20  1  0  0  0  0
 20 21  1  0  0  0  0
 20 22  1  0  0  0  0
 20 23  1  0  0  0  0
 23 24  1  0  0  0  0
 23 25  1  0  0  0  0
 23 26  1  0  0  0  0
 26 27  1  0  0  0  0
 26 28  1  0  0  0  0
 26 29  1  0  0  0  0
M  END
> <VM2 Rank>
40

> <Conf_Id>
2279

> <Probability>
0.69

> <Sum Probability>
55.68

> <Delta G>
1.210

> <G>
59.357

> <E>
21.972

> <-TS>
37.385

> <U+W>
-2.172

> <U>
49.333

> <W>
-51.506

> <W(PB)>
-54.050

> <W(SA)>
2.544

> <Valence>
3.429

> <Coulomb>
45.008

> <VdW>
0.896

> <VdW6>
-8.187

> <VdW12>
9.084

> <Bond>
0.206

> <Angle>
0.786

> <Pdih>
2.437

> <Idih>
0.000

> <Tether>
0.000

$$$$
VeraChem MOL file


 29 28  0  0  0  0  0  0  0  0999 V2000     
   20.2306   17.8781   19.7406 C   0  0  0  0  0  0  0  0  0  0  0  0
   19.7093   18.3643   18.9057 H   0  0  0  0  0  0  0  0  0  0  0  0
   21.2813   18.1957   19.7192 H   0  0  0  0  0  0  0  0  0  0  0  0
   20.2024   16.7941   19.5697 H   0  0  0  0  0  0  0  0  0  0  0  0
   19.5714   18.2344   21.0898 C   0  0  0  0  0  0  0  0  0  0  0  0
   20.0936   17.6984   21.8933 H   0  0  0  0  0  0  0  0  0  0  0  0
   18.5315   17.8789   21.0922 H   0  0  0  0  0  0  0  0  0  0  0  0
   19.6033   19.7581   21.3547 C   0  0  0  0  0  0  0  0  0  0  0  0
   20.6450   20.1034   21.4065 H   0  0  0  0  0  0  0  0  0  0  0  0
   19.1487   20.2780   20.5000 H   0  0  0  0  0  0  0  0  0  0  0  0
   18.8517   20.1804   22.6410 C   0  0  0  0  0  0  0  0  0  0  0  0
   17.8064   19.8473   22.5822 H   0  0  0  0  0  0  0  0  0  0  0  0
   18.8238   21.2781   22.6817 H   0  0  0  0  0  0  0  0  0  0  0  0
   19.4987   19.6439   23.9405 C   0  0  0  0  0  0  0  0  0  0  0  0
   19.4678   18.5473   23.9417 H   0  0  0  0  0  0  0  0  0  0  0  0
   20.5577   19.9353   23.9696 H   0  0  0  0  0  0  0  0  0  0  0  0
   18.7804   20.1828   25.2009 C   0  0  0  0  0  0  0  0  0  0  0  0
   17.7274   19.8688   25.1901 H   0  0  0  0  0  0  0  0  0  0  0  0
   18.7774   21.2812   25.1738 H   0  0  0  0  0  0  0  0  0  0  0  0
   19.4425   19.7221   26.5207 C   0  0  0  0  0  0  0  0  0  0  0  0
   20.4888   20.0547   26.5444 H   0  0  0  0  0  0  0  0  0  0  0  0
   18.9372   20.2132   27.3630 H   0  0  0  0  0  0  0  0  0  0  0  0
   19.3796   18.1958   26.7173 C   0  0  0  0  0  0  0  0  0  0  0  0
   19.9185   17.6955   25.9087 H   0  0  0  0  0  0  0  0  0  0  0  0
   18.3379   17.8645   26.6945 H   0  0  0  0  0  0  0  0  0  0  0  0
   19.9859   17.7424   28.0295 N   0  3  0  0  0  0  0  0  0  0  0  0
   20.9754   18.0013   28.1025 H   0  0  0  0  0  0  0  0  0  0  0  0
   19.9341   16.7239   28.1414 H   0  0  0  0  0  0  0  0  0  0  0  0
   19.5053   18.1562   28.8353 H   0  0  0  0  0  0  0  0  0  0  0  0
  1  2  1  0  0  0  0
  1  3  1  0  0  0  0
  1  4  1  0  0  0  0
  1  5  1  0  0  0  0
  5  6  1  0  0  0  0
  5  7  1  0  0  0  0
  5  8  1  0  0  0  0
  8  9  1  0  0  0  0
  8 10  1  0  0  0  0
  8 11  1  0  0  0  0
 11 12  1  0  0  0  0
 11 13  1  0  0  0  0
 11 14  1  0  0  0  0
 14 15  1  0  0  0  0
 14 16  1  0  0  0  0
 14 17  1  0  0  0  0
 17 18  1  0  0  0  0
 17 19  1  0  0  0  0
 17 20  1  0  0  0  0
 20 21  1  0  0  0  0
 20 22  1  0  0  0  0
 20 23  1  0  0  0  0
 23 24  1  0  0  0  0
 23 25  1  0  0  0  0
 23 26  1  0  0  0  0
 26 27  1  0  0  0  0
 26 28  1  0  0  0  0
 26 29  1  0  0  0  0
M  END
> <VM2 Rank>
41

> <Conf_Id>
2601

> <Probability>
0.68

> <Sum Probability>
56.35

> <Delta G>
1.224

> <G>
59.371

> <E>
21.989

> <-TS>
37.381

> <U+W>
-2.155

> <U>
49.444

> <W>
-51.599

> <W(PB)>
-54.122

> <W(SA)>
2.523

> <Valence>
3.428

> <Coulomb>
45.119

> <VdW>
0.896

> <VdW6>
-8.201

> <VdW12>
9.097

> <Bond>
0.208

> <Angle>
0.785

> <Pdih>
2.436

> <Idih>
0.000

> <Tether>
0.000

$$$$
VeraChem MOL file


 29 28  0  0  0  0  0  0  0  0999 V2000     
   20.8678   19.6676   19.7806 C   0  0  0  0  0  0  0  0  0  0  0  0
   21.4820   18.7590   19.7320 H   0  0  0  0  0  0  0  0  0  0  0  0
   20.1684   19.6535   18.9345 H   0  0  0  0  0  0  0  0  0  0  0  0
   21.5330   20.5315   19.6532 H   0  0  0  0  0  0  0  0  0  0  0  0
   20.1126   19.7548   21.1238 C   0  0  0  0  0  0  0  0  0  0  0  0
   19.5309   20.6867   21.1547 H   0  0  0  0  0  0  0  0  0  0  0  0
   20.8445   19.8082   21.9405 H   0  0  0  0  0  0  0  0  0  0  0  0
   19.1712   18.5443   21.3276 C   0  0  0  0  0  0  0  0  0  0  0  0
   18.5025   18.4627   20.4595 H   0  0  0  0  0  0  0  0  0  0  0  0
   19.7599   17.6169   21.3511 H   0  0  0  0  0  0  0  0  0  0  0  0
   18.3037   18.6411   22.6066 C   0  0  0  0  0  0  0  0  0  0  0  0
   17.5882   17.8072   22.6042 H   0  0  0  0  0  0  0  0  0  0  0  0
   17.7046   19.5616   22.5757 H   0  0  0  0  0  0  0  0  0  0  0  0
   19.1257   18.5965   23.9171 C   0  0  0  0  0  0  0  0  0  0  0  0
   19.7622   17.7009   23.9197 H   0  0  0  0  0  0  0  0  0  0  0  0
   19.7944   19.4650   23.9622 H   0  0  0  0  0  0  0  0  0  0  0  0
   18.2108   18.5830   25.1652 C   0  0  0  0  0  0  0  0  0  0  0  0
   17.5151   17.7355   25.0946 H   0  0  0  0  0  0  0  0  0  0  0  0
   17.5931   19.4917   25.1817 H   0  0  0  0  0  0  0  0  0  0  0  0
   18.9964   18.4692   26.4927 C   0  0  0  0  0  0  0  0  0  0  0  0
   18.2827   18.3748   27.3219 H   0  0  0  0  0  0  0  0  0  0  0  0
   19.5970   17.5498   26.4885 H   0  0  0  0  0  0  0  0  0  0  0  0
   19.9090   19.6827   26.7505 C   0  0  0  0  0  0  0  0  0  0  0  0
   19.3113   20.5982   26.7554 H   0  0  0  0  0  0  0  0  0  0  0  0
   20.6542   19.7616   25.9548 H   0  0  0  0  0  0  0  0  0  0  0  0
   20.6468   19.5988   28.0709 N   0  3  0  0  0  0  0  0  0  0  0  0
   20.0015   19.5503   28.8664 H   0  0  0  0  0  0  0  0  0  0  0  0
   21.2486   20.4156   28.2238 H   0  0  0  0  0  0  0  0  0  0  0  0
   21.2491   18.7704   28.1198 H   0  0  0  0  0  0  0  0  0  0  0  0
  1  2  1  0  0  0  0
  1  3  1  0  0  0  0
  1  4  1  0  0  0  0
  1  5  1  0  0  0  0
  5  6  1  0  0  0  0
  5  7  1  0  0  0  0
  5  8  1  0  0  0  0
  8  9  1  0  0  0  0
  8 10  1  0  0  0  0
  8 11  1  0  0  0  0
 11 12  1  0  0  0  0
 11 13  1  0  0  0  0
 11 14  1  0  0  0  0
 14 15  1  0  0  0  0
 14 16  1  0  0  0  0
 14 17  1  0  0  0  0
 17 18  1  0  0  0  0
 17 19  1  0  0  0  0
 17 20  1  0  0  0  0
 20 21  1  0  0  0  0
 20 22  1  0  0  0  0
 20 23  1  0  0  0  0
 23 24  1  0  0  0  0
 23 25  1  0  0  0  0
 23 26  1  0  0  0  0
 26 27  1  0  0  0  0
 26 28  1  0  0  0  0
 26 29  1  0  0  0  0
M  END
> <VM2 Rank>
42

> <Conf_Id>
1920

> <Probability>
0.67

> <Sum Probability>
57.03

> <Delta G>
1.230

> <G>
59.376

> <E>
21.995

> <-TS>
37.381

> <U+W>
-2.149

> <U>
49.444

> <W>
-51.593

> <W(PB)>
-54.118

> <W(SA)>
2.525

> <Valence>
3.428

> <Coulomb>
45.119

> <VdW>
0.897

> <VdW6>
-8.201

> <VdW12>
9.098

> <Bond>
0.208

> <Angle>
0.784

> <Pdih>
2.436

> <Idih>
0.000

> <Tether>
0.000

$$$$
VeraChem MOL file


 29 28  0  0  0  0  0  0  0  0999 V2000     
   18.4803   18.6780   19.8092 C   0  0  0  0  0  0  0  0  0  0  0  0
   18.8119   17.6605   20.0508 H   0  0  0  0  0  0  0  0  0  0  0  0
   17.5082   18.8467   20.2903 H   0  0  0  0  0  0  0  0  0  0  0  0
   18.3307   18.7274   18.7229 H   0  0  0  0  0  0  0  0  0  0  0  0
   19.5145   19.7336   20.2613 C   0  0  0  0  0  0  0  0  0  0  0  0
   19.1969   20.7204   19.8965 H   0  0  0  0  0  0  0  0  0  0  0  0
   20.4842   19.5279   19.7869 H   0  0  0  0  0  0  0  0  0  0  0  0
   19.6875   19.8035   21.7976 C   0  0  0  0  0  0  0  0  0  0  0  0
   20.3576   20.6409   22.0360 H   0  0  0  0  0  0  0  0  0  0  0  0
   18.7185   20.0394   22.2568 H   0  0  0  0  0  0  0  0  0  0  0  0
   20.2648   18.5022   22.4096 C   0  0  0  0  0  0  0  0  0  0  0  0
   21.1669   18.2143   21.8525 H   0  0  0  0  0  0  0  0  0  0  0  0
   19.5489   17.6787   22.2875 H   0  0  0  0  0  0  0  0  0  0  0  0
   20.6345   18.6367   23.9071 C   0  0  0  0  0  0  0  0  0  0  0  0
   21.1326   17.7109   24.2267 H   0  0  0  0  0  0  0  0  0  0  0  0
   21.3708   19.4424   24.0334 H   0  0  0  0  0  0  0  0  0  0  0  0
   19.4142   18.8953   24.8231 C   0  0  0  0  0  0  0  0  0  0  0  0
   18.6571   18.1167   24.6555 H   0  0  0  0  0  0  0  0  0  0  0  0
   18.9479   19.8553   24.5649 H   0  0  0  0  0  0  0  0  0  0  0  0
   19.8115   18.9136   26.3155 C   0  0  0  0  0  0  0  0  0  0  0  0
   20.2690   17.9534   26.5888 H   0  0  0  0  0  0  0  0  0  0  0  0
   20.5672   19.6917   26.4873 H   0  0  0  0  0  0  0  0  0  0  0  0
   18.5935   19.1748   27.2189 C   0  0  0  0  0  0  0  0  0  0  0  0
   17.8451   18.3931   27.0631 H   0  0  0  0  0  0  0  0  0  0  0  0
   18.1442   20.1379   26.9619 H   0  0  0  0  0  0  0  0  0  0  0  0
   18.9432   19.2003   28.6927 N   0  3  0  0  0  0  0  0  0  0  0  0
   19.6251   19.9344   28.9108 H   0  0  0  0  0  0  0  0  0  0  0  0
   19.3468   18.3108   29.0048 H   0  0  0  0  0  0  0  0  0  0  0  0
   18.1182   19.3756   29.2770 H   0  0  0  0  0  0  0  0  0  0  0  0
  1  2  1  0  0  0  0
  1  3  1  0  0  0  0
  1  4  1  0  0  0  0
  1  5  1  0  0  0  0
  5  6  1  0  0  0  0
  5  7  1  0  0  0  0
  5  8  1  0  0  0  0
  8  9  1  0  0  0  0
  8 10  1  0  0  0  0
  8 11  1  0  0  0  0
 11 12  1  0  0  0  0
 11 13  1  0  0  0  0
 11 14  1  0  0  0  0
 14 15  1  0  0  0  0
 14 16  1  0  0  0  0
 14 17  1  0  0  0  0
 17 18  1  0  0  0  0
 17 19  1  0  0  0  0
 17 20  1  0  0  0  0
 20 21  1  0  0  0  0
 20 22  1  0  0  0  0
 20 23  1  0  0  0  0
 23 24  1  0  0  0  0
 23 25  1  0  0  0  0
 23 26  1  0  0  0  0
 26 27  1  0  0  0  0
 26 28  1  0  0  0  0
 26 29  1  0  0  0  0
M  END
> <VM2 Rank>
43

> <Conf_Id>
1193

> <Probability>
0.67

> <Sum Probability>
57.69

> <Delta G>
1.231

> <G>
59.378

> <E>
21.956

> <-TS>
37.421

> <U+W>
-2.188

> <U>
49.092

> <W>
-51.280

> <W(PB)>
-53.790

> <W(SA)>
2.510

> <Valence>
3.601

> <Coulomb>
44.542

> <VdW>
0.948

> <VdW6>
-8.237

> <VdW12>
9.185

> <Bond>
0.219

> <Angle>
0.852

> <Pdih>
2.529

> <Idih>
0.000

> <Tether>
0.000

$$$$
VeraChem MOL file


 29 28  0  0  0  0  0  0  0  0999 V2000     
   21.1934   18.9176   20.1635 C   0  0  0  0  0  0  0  0  0  0  0  0
   22.0450   18.9803   20.8534 H   0  0  0  0  0  0  0  0  0  0  0  0
   21.4717   18.2412   19.3450 H   0  0  0  0  0  0  0  0  0  0  0  0
   21.0262   19.9145   19.7350 H   0  0  0  0  0  0  0  0  0  0  0  0
   19.9298   18.4062   20.8872 C   0  0  0  0  0  0  0  0  0  0  0  0
   20.1163   17.3954   21.2762 H   0  0  0  0  0  0  0  0  0  0  0  0
   19.1056   18.3213   20.1651 H   0  0  0  0  0  0  0  0  0  0  0  0
   19.5157   19.3416   22.0445 C   0  0  0  0  0  0  0  0  0  0  0  0
   20.3502   19.4251   22.7530 H   0  0  0  0  0  0  0  0  0  0  0  0
   19.3275   20.3501   21.6512 H   0  0  0  0  0  0  0  0  0  0  0  0
   18.2524   18.8270   22.7750 C   0  0  0  0  0  0  0  0  0  0  0  0
   18.4498   17.8370   23.2066 H   0  0  0  0  0  0  0  0  0  0  0  0
   17.4497   18.6798   22.0393 H   0  0  0  0  0  0  0  0  0  0  0  0
   17.7343   19.7912   23.8734 C   0  0  0  0  0  0  0  0  0  0  0  0
   17.4250   20.7341   23.4017 H   0  0  0  0  0  0  0  0  0  0  0  0
   16.8236   19.3643   24.3156 H   0  0  0  0  0  0  0  0  0  0  0  0
   18.7418   20.1099   25.0083 C   0  0  0  0  0  0  0  0  0  0  0  0
   18.2592   20.7989   25.7153 H   0  0  0  0  0  0  0  0  0  0  0  0
   19.6061   20.6523   24.6026 H   0  0  0  0  0  0  0  0  0  0  0  0
   19.2241   18.8582   25.7779 C   0  0  0  0  0  0  0  0  0  0  0  0
   18.3571   18.2954   26.1486 H   0  0  0  0  0  0  0  0  0  0  0  0
   19.7796   18.1927   25.1049 H   0  0  0  0  0  0  0  0  0  0  0  0
   20.1291   19.2427   26.9613 C   0  0  0  0  0  0  0  0  0  0  0  0
   19.5800   19.8915   27.6491 H   0  0  0  0  0  0  0  0  0  0  0  0
   21.0020   19.7897   26.5947 H   0  0  0  0  0  0  0  0  0  0  0  0
   20.6234   18.0436   27.7441 N   0  3  0  0  0  0  0  0  0  0  0  0
   19.8488   17.5001   28.1393 H   0  0  0  0  0  0  0  0  0  0  0  0
   21.2238   18.3219   28.5281 H   0  0  0  0  0  0  0  0  0  0  0  0
   21.1727   17.4054   27.1588 H   0  0  0  0  0  0  0  0  0  0  0  0
  1  2  1  0  0  0  0
  1  3  1  0  0  0  0
  1  4  1  0  0  0  0
  1  5  1  0  0  0  0
  5  6  1  0  0  0  0
  5  7  1  0  0  0  0
  5  8  1  0  0  0  0
  8  9  1  0  0  0  0
  8 10  1  0  0  0  0
  8 11  1  0  0  0  0
 11 12  1  0  0  0  0
 11 13  1  0  0  0  0
 11 14  1  0  0  0  0
 14 15  1  0  0  0  0
 14 16  1  0  0  0  0
 14 17  1  0  0  0  0
 17 18  1  0  0  0  0
 17 19  1  0  0  0  0
 17 20  1  0  0  0  0
 20 21  1  0  0  0  0
 20 22  1  0  0  0  0
 20 23  1  0  0  0  0
 23 24  1  0  0  0  0
 23 25  1  0  0  0  0
 23 26  1  0  0  0  0
 26 27  1  0  0  0  0
 26 28  1  0  0  0  0
 26 29  1  0  0  0  0
M  END
> <VM2 Rank>
44

> <Conf_Id>
1671

> <Probability>
0.64

> <Sum Probability>
58.34

> <Delta G>
1.255

> <G>
59.401

> <E>
21.765

> <-TS>
37.636

> <U+W>
-2.379

> <U>
49.533

> <W>
-51.913

> <W(PB)>
-54.419

> <W(SA)>
2.506

> <Valence>
3.571

> <Coulomb>
45.223

> <VdW>
0.739

> <VdW6>
-8.664

> <VdW12>
9.403

> <Bond>
0.229

> <Angle>
1.076

> <Pdih>
2.266

> <Idih>
0.000

> <Tether>
0.000

$$$$
VeraChem MOL file


 29 28  0  0  0  0  0  0  0  0999 V2000     
   20.9506   18.2372   20.1479 C   0  0  0  0  0  0  0  0  0  0  0  0
   20.1970   17.5884   19.6828 H   0  0  0  0  0  0  0  0  0  0  0  0
   21.6052   18.6171   19.3529 H   0  0  0  0  0  0  0  0  0  0  0  0
   21.5612   17.6230   20.8226 H   0  0  0  0  0  0  0  0  0  0  0  0
   20.2849   19.4029   20.9092 C   0  0  0  0  0  0  0  0  0  0  0  0
   19.7101   20.0182   20.2028 H   0  0  0  0  0  0  0  0  0  0  0  0
   21.0628   20.0519   21.3351 H   0  0  0  0  0  0  0  0  0  0  0  0
   19.3566   18.8949   22.0343 C   0  0  0  0  0  0  0  0  0  0  0  0
   18.5788   18.2490   21.6043 H   0  0  0  0  0  0  0  0  0  0  0  0
   19.9405   18.2747   22.7270 H   0  0  0  0  0  0  0  0  0  0  0  0
   18.6929   20.0627   22.8026 C   0  0  0  0  0  0  0  0  0  0  0  0
   18.1745   20.7133   22.0848 H   0  0  0  0  0  0  0  0  0  0  0  0
   19.4657   20.6869   23.2703 H   0  0  0  0  0  0  0  0  0  0  0  0
   17.6666   19.6005   23.8691 C   0  0  0  0  0  0  0  0  0  0  0  0
   17.2246   20.4890   24.3408 H   0  0  0  0  0  0  0  0  0  0  0  0
   16.8376   19.0851   23.3649 H   0  0  0  0  0  0  0  0  0  0  0  0
   18.2297   18.6720   24.9761 C   0  0  0  0  0  0  0  0  0  0  0  0
   18.5624   17.7221   24.5370 H   0  0  0  0  0  0  0  0  0  0  0  0
   17.4102   18.4157   25.6619 H   0  0  0  0  0  0  0  0  0  0  0  0
   19.3835   19.3054   25.7881 C   0  0  0  0  0  0  0  0  0  0  0  0
   20.2440   19.4962   25.1344 H   0  0  0  0  0  0  0  0  0  0  0  0
   19.0620   20.2742   26.1931 H   0  0  0  0  0  0  0  0  0  0  0  0
   19.8248   18.3888   26.9424 C   0  0  0  0  0  0  0  0  0  0  0  0
   20.1608   17.4285   26.5420 H   0  0  0  0  0  0  0  0  0  0  0  0
   18.9795   18.2062   27.6114 H   0  0  0  0  0  0  0  0  0  0  0  0
   20.9544   18.9735   27.7653 N   0  3  0  0  0  0  0  0  0  0  0  0
   20.6919   19.8678   28.1928 H   0  0  0  0  0  0  0  0  0  0  0  0
   21.7916   19.1437   27.1983 H   0  0  0  0  0  0  0  0  0  0  0  0
   21.2327   18.3474   28.5290 H   0  0  0  0  0  0  0  0  0  0  0  0
  1  2  1  0  0  0  0
  1  3  1  0  0  0  0
  1  4  1  0  0  0  0
  1  5  1  0  0  0  0
  5  6  1  0  0  0  0
  5  7  1  0  0  0  0
  5  8  1  0  0  0  0
  8  9  1  0  0  0  0
  8 10  1  0  0  0  0
  8 11  1  0  0  0  0
 11 12  1  0  0  0  0
 11 13  1  0  0  0  0
 11 14  1  0  0  0  0
 14 15  1  0  0  0  0
 14 16  1  0  0  0  0
 14 17  1  0  0  0  0
 17 18  1  0  0  0  0
 17 19  1  0  0  0  0
 17 20  1  0  0  0  0
 20 21  1  0  0  0  0
 20 22  1  0  0  0  0
 20 23  1  0  0  0  0
 23 24  1  0  0  0  0
 23 25  1  0  0  0  0
 23 26  1  0  0  0  0
 26 27  1  0  0  0  0
 26 28  1  0  0  0  0
 26 29  1  0  0  0  0
M  END
> <VM2 Rank>
45

> <Conf_Id>
2631

> <Probability>
0.64

> <Sum Probability>
58.98

> <Delta G>
1.256

> <G>
59.402

> <E>
21.767

> <-TS>
37.635

> <U+W>
-2.378

> <U>
49.533

> <W>
-51.911

> <W(PB)>
-54.430

> <W(SA)>
2.519

> <Valence>
3.571

> <Coulomb>
45.223

> <VdW>
0.739

> <VdW6>
-8.663

> <VdW12>
9.402

> <Bond>
0.229

> <Angle>
1.076

> <Pdih>
2.267

> <Idih>
0.000

> <Tether>
0.000

$$$$
VeraChem MOL file


 29 28  0  0  0  0  0  0  0  0999 V2000     
   19.0038   20.1505   19.8420 C   0  0  0  0  0  0  0  0  0  0  0  0
   18.8717   20.2497   18.7568 H   0  0  0  0  0  0  0  0  0  0  0  0
   18.1365   20.6141   20.3298 H   0  0  0  0  0  0  0  0  0  0  0  0
   19.8996   20.7201   20.1189 H   0  0  0  0  0  0  0  0  0  0  0  0
   19.1337   18.6622   20.2374 C   0  0  0  0  0  0  0  0  0  0  0  0
   20.0223   18.2286   19.7579 H   0  0  0  0  0  0  0  0  0  0  0  0
   18.2698   18.1124   19.8384 H   0  0  0  0  0  0  0  0  0  0  0  0
   19.2022   18.4381   21.7672 C   0  0  0  0  0  0  0  0  0  0  0  0
   18.2952   18.8483   22.2303 H   0  0  0  0  0  0  0  0  0  0  0  0
   19.1905   17.3570   21.9628 H   0  0  0  0  0  0  0  0  0  0  0  0
   20.4623   19.0582   22.4220 C   0  0  0  0  0  0  0  0  0  0  0  0
   20.4281   20.1528   22.3426 H   0  0  0  0  0  0  0  0  0  0  0  0
   21.3516   18.7343   21.8640 H   0  0  0  0  0  0  0  0  0  0  0  0
   20.6433   18.6615   23.9076 C   0  0  0  0  0  0  0  0  0  0  0  0
   20.7047   17.5677   23.9915 H   0  0  0  0  0  0  0  0  0  0  0  0
   21.6092   19.0522   24.2566 H   0  0  0  0  0  0  0  0  0  0  0  0
   19.5205   19.1943   24.8298 C   0  0  0  0  0  0  0  0  0  0  0  0
   18.5569   18.7546   24.5404 H   0  0  0  0  0  0  0  0  0  0  0  0
   19.4263   20.2819   24.7037 H   0  0  0  0  0  0  0  0  0  0  0  0
   19.7962   18.8707   26.3146 C   0  0  0  0  0  0  0  0  0  0  0  0
   19.8897   17.7842   26.4448 H   0  0  0  0  0  0  0  0  0  0  0  0
   20.7530   19.3156   26.6192 H   0  0  0  0  0  0  0  0  0  0  0  0
   18.6737   19.4005   27.2239 C   0  0  0  0  0  0  0  0  0  0  0  0
   17.7213   18.9474   26.9354 H   0  0  0  0  0  0  0  0  0  0  0  0
   18.5879   20.4845   27.1096 H   0  0  0  0  0  0  0  0  0  0  0  0
   18.9083   19.1020   28.6905 N   0  3  0  0  0  0  0  0  0  0  0  0
   19.7779   19.5248   29.0319 H   0  0  0  0  0  0  0  0  0  0  0  0
   18.9716   18.0944   28.8698 H   0  0  0  0  0  0  0  0  0  0  0  0
   18.1493   19.4633   29.2789 H   0  0  0  0  0  0  0  0  0  0  0  0
  1  2  1  0  0  0  0
  1  3  1  0  0  0  0
  1  4  1  0  0  0  0
  1  5  1  0  0  0  0
  5  6  1  0  0  0  0
  5  7  1  0  0  0  0
  5  8  1  0  0  0  0
  8  9  1  0  0  0  0
  8 10  1  0  0  0  0
  8 11  1  0  0  0  0
 11 12  1  0  0  0  0
 11 13  1  0  0  0  0
 11 14  1  0  0  0  0
 14 15  1  0  0  0  0
 14 16  1  0  0  0  0
 14 17  1  0  0  0  0
 17 18  1  0  0  0  0
 17 19  1  0  0  0  0
 17 20  1  0  0  0  0
 20 21  1  0  0  0  0
 20 22  1  0  0  0  0
 20 23  1  0  0  0  0
 23 24  1  0  0  0  0
 23 25  1  0  0  0  0
 23 26  1  0  0  0  0
 26 27  1  0  0  0  0
 26 28  1  0  0  0  0
 26 29  1  0  0  0  0
M  END
> <VM2 Rank>
46

> <Conf_Id>
2632

> <Probability>
0.64

> <Sum Probability>
59.62

> <Delta G>
1.258

> <G>
59.404

> <E>
21.982

> <-TS>
37.422

> <U+W>
-2.163

> <U>
49.092

> <W>
-51.254

> <W(PB)>
-53.762

> <W(SA)>
2.507

> <Valence>
3.601

> <Coulomb>
44.542

> <VdW>
0.949

> <VdW6>
-8.237

> <VdW12>
9.186

> <Bond>
0.220

> <Angle>
0.852

> <Pdih>
2.529

> <Idih>
0.000

> <Tether>
0.000

$$$$
VeraChem MOL file


 29 28  0  0  0  0  0  0  0  0999 V2000     
   20.0680   18.4869   19.2593 C   0  0  0  0  0  0  0  0  0  0  0  0
   21.1160   18.8138   19.2721 H   0  0  0  0  0  0  0  0  0  0  0  0
   20.0427   17.4108   19.4754 H   0  0  0  0  0  0  0  0  0  0  0  0
   19.6809   18.6357   18.2429 H   0  0  0  0  0  0  0  0  0  0  0  0
   19.2278   19.2784   20.2837 C   0  0  0  0  0  0  0  0  0  0  0  0
   18.1796   18.9531   20.2248 H   0  0  0  0  0  0  0  0  0  0  0  0
   19.2440   20.3455   20.0211 H   0  0  0  0  0  0  0  0  0  0  0  0
   19.7526   19.0868   21.7239 C   0  0  0  0  0  0  0  0  0  0  0  0
   19.7400   18.0170   21.9690 H   0  0  0  0  0  0  0  0  0  0  0  0
   20.7996   19.4154   21.7782 H   0  0  0  0  0  0  0  0  0  0  0  0
   18.9078   19.8769   22.7522 C   0  0  0  0  0  0  0  0  0  0  0  0
   17.8720   19.5105   22.7415 H   0  0  0  0  0  0  0  0  0  0  0  0
   18.8650   20.9305   22.4435 H   0  0  0  0  0  0  0  0  0  0  0  0
   19.4656   19.8133   24.1954 C   0  0  0  0  0  0  0  0  0  0  0  0
   20.5002   20.1831   24.2057 H   0  0  0  0  0  0  0  0  0  0  0  0
   18.8837   20.5080   24.8153 H   0  0  0  0  0  0  0  0  0  0  0  0
   19.4108   18.3951   24.8182 C   0  0  0  0  0  0  0  0  0  0  0  0
   20.0174   17.7045   24.2183 H   0  0  0  0  0  0  0  0  0  0  0  0
   18.3805   18.0147   24.7857 H   0  0  0  0  0  0  0  0  0  0  0  0
   19.9301   18.3524   26.2747 C   0  0  0  0  0  0  0  0  0  0  0  0
   19.9616   17.3072   26.6103 H   0  0  0  0  0  0  0  0  0  0  0  0
   20.9626   18.7250   26.3096 H   0  0  0  0  0  0  0  0  0  0  0  0
   19.0525   19.1642   27.2459 C   0  0  0  0  0  0  0  0  0  0  0  0
   18.0245   18.7936   27.2101 H   0  0  0  0  0  0  0  0  0  0  0  0
   19.0501   20.2169   26.9523 H   0  0  0  0  0  0  0  0  0  0  0  0
   19.5288   19.0841   28.6817 N   0  3  0  0  0  0  0  0  0  0  0  0
   20.4833   19.4433   28.7879 H   0  0  0  0  0  0  0  0  0  0  0  0
   19.5283   18.1200   29.0310 H   0  0  0  0  0  0  0  0  0  0  0  0
   18.9317   19.6307   29.3122 H   0  0  0  0  0  0  0  0  0  0  0  0
  1  2  1  0  0  0  0
  1  3  1  0  0  0  0
  1  4  1  0  0  0  0
  1  5  1  0  0  0  0
  5  6  1  0  0  0  0
  5  7  1  0  0  0  0
  5  8  1  0  0  0  0
  8  9  1  0  0  0  0
  8 10  1  0  0  0  0
  8 11  1  0  0  0  0
 11 12  1  0  0  0  0
 11 13  1  0  0  0  0
 11 14  1  0  0  0  0
 14 15  1  0  0  0  0
 14 16  1  0  0  0  0
 14 17  1  0  0  0  0
 17 18  1  0  0  0  0
 17 19  1  0  0  0  0
 17 20  1  0  0  0  0
 20 21  1  0  0  0  0
 20 22  1  0  0  0  0
 20 23  1  0  0  0  0
 23 24  1  0  0  0  0
 23 25  1  0  0  0  0
 23 26  1  0  0  0  0
 26 27  1  0  0  0  0
 26 28  1  0  0  0  0
 26 29  1  0  0  0  0
M  END
> <VM2 Rank>
47

> <Conf_Id>
1184

> <Probability>
0.64

> <Sum Probability>
60.26

> <Delta G>
1.260

> <G>
59.406

> <E>
22.052

> <-TS>
37.354

> <U+W>
-2.093

> <U>
49.234

> <W>
-51.327

> <W(PB)>
-53.865

> <W(SA)>
2.538

> <Valence>
3.474

> <Coulomb>
44.816

> <VdW>
0.944

> <VdW6>
-8.147

> <VdW12>
9.091

> <Bond>
0.214

> <Angle>
0.815

> <Pdih>
2.445

> <Idih>
0.000

> <Tether>
0.000

$$$$
VeraChem MOL file


 29 28  0  0  0  0  0  0  0  0999 V2000     
   19.8704   17.7212   20.3114 C   0  0  0  0  0  0  0  0  0  0  0  0
   19.5716   17.2123   21.2363 H   0  0  0  0  0  0  0  0  0  0  0  0
   19.0124   17.7233   19.6266 H   0  0  0  0  0  0  0  0  0  0  0  0
   20.6682   17.1256   19.8492 H   0  0  0  0  0  0  0  0  0  0  0  0
   20.3612   19.1597   20.5906 C   0  0  0  0  0  0  0  0  0  0  0  0
   20.7592   19.5847   19.6586 H   0  0  0  0  0  0  0  0  0  0  0  0
   21.2052   19.1336   21.2928 H   0  0  0  0  0  0  0  0  0  0  0  0
   19.2487   20.0977   21.1244 C   0  0  0  0  0  0  0  0  0  0  0  0
   19.6711   21.1019   21.2671 H   0  0  0  0  0  0  0  0  0  0  0  0
   18.4743   20.2045   20.3523 H   0  0  0  0  0  0  0  0  0  0  0  0
   18.5745   19.6427   22.4444 C   0  0  0  0  0  0  0  0  0  0  0  0
   18.0508   18.6903   22.2884 H   0  0  0  0  0  0  0  0  0  0  0  0
   17.7980   20.3749   22.7054 H   0  0  0  0  0  0  0  0  0  0  0  0
   19.5607   19.5104   23.6294 C   0  0  0  0  0  0  0  0  0  0  0  0
   20.3011   18.7290   23.4131 H   0  0  0  0  0  0  0  0  0  0  0  0
   20.1146   20.4512   23.7524 H   0  0  0  0  0  0  0  0  0  0  0  0
   18.8307   19.1640   24.9467 C   0  0  0  0  0  0  0  0  0  0  0  0
   18.2731   18.2253   24.8216 H   0  0  0  0  0  0  0  0  0  0  0  0
   18.0918   19.9450   25.1743 H   0  0  0  0  0  0  0  0  0  0  0  0
   19.8134   19.0253   26.1300 C   0  0  0  0  0  0  0  0  0  0  0  0
   20.5503   18.2416   25.9090 H   0  0  0  0  0  0  0  0  0  0  0  0
   20.3695   19.9633   26.2609 H   0  0  0  0  0  0  0  0  0  0  0  0
   19.0764   18.6809   27.4361 C   0  0  0  0  0  0  0  0  0  0  0  0
   18.5345   17.7389   27.3157 H   0  0  0  0  0  0  0  0  0  0  0  0
   18.3531   19.4670   27.6691 H   0  0  0  0  0  0  0  0  0  0  0  0
   20.0079   18.5361   28.6220 N   0  3  0  0  0  0  0  0  0  0  0  0
   20.5294   19.3998   28.8057 H   0  0  0  0  0  0  0  0  0  0  0  0
   20.6981   17.7917   28.4770 H   0  0  0  0  0  0  0  0  0  0  0  0
   19.4971   18.3068   29.4818 H   0  0  0  0  0  0  0  0  0  0  0  0
  1  2  1  0  0  0  0
  1  3  1  0  0  0  0
  1  4  1  0  0  0  0
  1  5  1  0  0  0  0
  5  6  1  0  0  0  0
  5  7  1  0  0  0  0
  5  8  1  0  0  0  0
  8  9  1  0  0  0  0
  8 10  1  0  0  0  0
  8 11  1  0  0  0  0
 11 12  1  0  0  0  0
 11 13  1  0  0  0  0
 11 14  1  0  0  0  0
 14 15  1  0  0  0  0
 14 16  1  0  0  0  0
 14 17  1  0  0  0  0
 17 18  1  0  0  0  0
 17 19  1  0  0  0  0
 17 20  1  0  0  0  0
 20 21  1  0  0  0  0
 20 22  1  0  0  0  0
 20 23  1  0  0  0  0
 23 24  1  0  0  0  0
 23 25  1  0  0  0  0
 23 26  1  0  0  0  0
 26 27  1  0  0  0  0
 26 28  1  0  0  0  0
 26 29  1  0  0  0  0
M  END
> <VM2 Rank>
48

> <Conf_Id>
2460

> <Probability>
0.61

> <Sum Probability>
60.86

> <Delta G>
1.291

> <G>
59.437

> <E>
21.821

> <-TS>
37.616

> <U+W>
-2.323

> <U>
48.920

> <W>
-51.243

> <W(PB)>
-53.748

> <W(SA)>
2.505

> <Valence>
3.544

> <Coulomb>
44.554

> <VdW>
0.823

> <VdW6>
-8.502

> <VdW12>
9.325

> <Bond>
0.224

> <Angle>
1.044

> <Pdih>
2.276

> <Idih>
0.000

> <Tether>
0.000

$$$$
VeraChem MOL file


 29 28  0  0  0  0  0  0  0  0999 V2000     
   20.5587   17.8189   20.2026 C   0  0  0  0  0  0  0  0  0  0  0  0
   20.3161   16.8560   20.6709 H   0  0  0  0  0  0  0  0  0  0  0  0
   19.9768   17.9048   19.2757 H   0  0  0  0  0  0  0  0  0  0  0  0
   21.6225   17.8038   19.9322 H   0  0  0  0  0  0  0  0  0  0  0  0
   20.2563   18.9919   21.1588 C   0  0  0  0  0  0  0  0  0  0  0  0
   20.5361   19.9383   20.6754 H   0  0  0  0  0  0  0  0  0  0  0  0
   20.8844   18.8927   22.0540 H   0  0  0  0  0  0  0  0  0  0  0  0
   18.7624   19.0314   21.5578 C   0  0  0  0  0  0  0  0  0  0  0  0
   18.1503   19.0541   20.6457 H   0  0  0  0  0  0  0  0  0  0  0  0
   18.4921   18.1028   22.0777 H   0  0  0  0  0  0  0  0  0  0  0  0
   18.3841   20.2574   22.4286 C   0  0  0  0  0  0  0  0  0  0  0  0
   17.3061   20.2215   22.6381 H   0  0  0  0  0  0  0  0  0  0  0  0
   18.5453   21.1727   21.8427 H   0  0  0  0  0  0  0  0  0  0  0  0
   19.1522   20.3839   23.7697 C   0  0  0  0  0  0  0  0  0  0  0  0
   20.2207   20.5463   23.5763 H   0  0  0  0  0  0  0  0  0  0  0  0
   18.7989   21.2878   24.2850 H   0  0  0  0  0  0  0  0  0  0  0  0
   18.9679   19.1659   24.7061 C   0  0  0  0  0  0  0  0  0  0  0  0
   19.3837   18.2652   24.2352 H   0  0  0  0  0  0  0  0  0  0  0  0
   17.8960   18.9803   24.8612 H   0  0  0  0  0  0  0  0  0  0  0  0
   19.6560   19.3830   26.0716 C   0  0  0  0  0  0  0  0  0  0  0  0
   20.7279   19.5680   25.9200 H   0  0  0  0  0  0  0  0  0  0  0  0
   19.2401   20.2754   26.5582 H   0  0  0  0  0  0  0  0  0  0  0  0
   19.4723   18.1653   26.9941 C   0  0  0  0  0  0  0  0  0  0  0  0
   19.9002   17.2772   26.5213 H   0  0  0  0  0  0  0  0  0  0  0  0
   18.4065   17.9871   27.1608 H   0  0  0  0  0  0  0  0  0  0  0  0
   20.1341   18.3403   28.3456 N   0  3  0  0  0  0  0  0  0  0  0  0
   21.1456   18.4854   28.2596 H   0  0  0  0  0  0  0  0  0  0  0  0
   19.9999   17.5183   28.9447 H   0  0  0  0  0  0  0  0  0  0  0  0
   19.7556   19.1460   28.8546 H   0  0  0  0  0  0  0  0  0  0  0  0
  1  2  1  0  0  0  0
  1  3  1  0  0  0  0
  1  4  1  0  0  0  0
  1  5  1  0  0  0  0
  5  6  1  0  0  0  0
  5  7  1  0  0  0  0
  5  8  1  0  0  0  0
  8  9  1  0  0  0  0
  8 10  1  0  0  0  0
  8 11  1  0  0  0  0
 11 12  1  0  0  0  0
 11 13  1  0  0  0  0
 11 14  1  0  0  0  0
 14 15  1  0  0  0  0
 14 16  1  0  0  0  0
 14 17  1  0  0  0  0
 17 18  1  0  0  0  0
 17 19  1  0  0  0  0
 17 20  1  0  0  0  0
 20 21  1  0  0  0  0
 20 22  1  0  0  0  0
 20 23  1  0  0  0  0
 23 24  1  0  0  0  0
 23 25  1  0  0  0  0
 23 26  1  0  0  0  0
 26 27  1  0  0  0  0
 26 28  1  0  0  0  0
 26 29  1  0  0  0  0
M  END
> <VM2 Rank>
49

> <Conf_Id>
2862

> <Probability>
0.61

> <Sum Probability>
61.47

> <Delta G>
1.291

> <G>
59.438

> <E>
21.804

> <-TS>
37.633

> <U+W>
-2.340

> <U>
49.175

> <W>
-51.515

> <W(PB)>
-54.021

> <W(SA)>
2.506

> <Valence>
3.575

> <Coulomb>
44.838

> <VdW>
0.762

> <VdW6>
-8.633

> <VdW12>
9.396

> <Bond>
0.229

> <Angle>
1.080

> <Pdih>
2.266

> <Idih>
0.000

> <Tether>
0.000

$$$$
VeraChem MOL file


 29 28  0  0  0  0  0  0  0  0999 V2000     
   21.1532   19.4873   20.2400 C   0  0  0  0  0  0  0  0  0  0  0  0
   21.9908   18.8373   19.9555 H   0  0  0  0  0  0  0  0  0  0  0  0
   20.6611   19.8253   19.3187 H   0  0  0  0  0  0  0  0  0  0  0  0
   21.5671   20.3672   20.7495 H   0  0  0  0  0  0  0  0  0  0  0  0
   20.1639   18.7326   21.1531 C   0  0  0  0  0  0  0  0  0  0  0  0
   20.7006   18.3769   22.0426 H   0  0  0  0  0  0  0  0  0  0  0  0
   19.7896   17.8425   20.6286 H   0  0  0  0  0  0  0  0  0  0  0  0
   18.9758   19.6303   21.5712 C   0  0  0  0  0  0  0  0  0  0  0  0
   19.3458   20.4992   22.1312 H   0  0  0  0  0  0  0  0  0  0  0  0
   18.5000   20.0357   20.6676 H   0  0  0  0  0  0  0  0  0  0  0  0
   17.8955   18.8860   22.3980 C   0  0  0  0  0  0  0  0  0  0  0  0
   17.4502   18.0990   21.7740 H   0  0  0  0  0  0  0  0  0  0  0  0
   17.0800   19.5868   22.6239 H   0  0  0  0  0  0  0  0  0  0  0  0
   18.3916   18.2496   23.7221 C   0  0  0  0  0  0  0  0  0  0  0  0
   17.5394   17.7530   24.2061 H   0  0  0  0  0  0  0  0  0  0  0  0
   19.1196   17.4561   23.5074 H   0  0  0  0  0  0  0  0  0  0  0  0
   19.0057   19.2716   24.7084 C   0  0  0  0  0  0  0  0  0  0  0  0
   18.2904   20.0868   24.8856 H   0  0  0  0  0  0  0  0  0  0  0  0
   19.9038   19.7243   24.2677 H   0  0  0  0  0  0  0  0  0  0  0  0
   19.3820   18.6146   26.0545 C   0  0  0  0  0  0  0  0  0  0  0  0
   18.4887   18.1679   26.5112 H   0  0  0  0  0  0  0  0  0  0  0  0
   20.0975   17.7997   25.8807 H   0  0  0  0  0  0  0  0  0  0  0  0
   19.9966   19.6365   27.0268 C   0  0  0  0  0  0  0  0  0  0  0  0
   19.2814   20.4417   27.2155 H   0  0  0  0  0  0  0  0  0  0  0  0
   20.8963   20.0719   26.5835 H   0  0  0  0  0  0  0  0  0  0  0  0
   20.3797   19.0294   28.3609 N   0  3  0  0  0  0  0  0  0  0  0  0
   19.5699   18.6251   28.8430 H   0  0  0  0  0  0  0  0  0  0  0  0
   20.7870   19.7266   28.9939 H   0  0  0  0  0  0  0  0  0  0  0  0
   21.0727   18.2810   28.2550 H   0  0  0  0  0  0  0  0  0  0  0  0
  1  2  1  0  0  0  0
  1  3  1  0  0  0  0
  1  4  1  0  0  0  0
  1  5  1  0  0  0  0
  5  6  1  0  0  0  0
  5  7  1  0  0  0  0
  5  8  1  0  0  0  0
  8  9  1  0  0  0  0
  8 10  1  0  0  0  0
  8 11  1  0  0  0  0
 11 12  1  0  0  0  0
 11 13  1  0  0  0  0
 11 14  1  0  0  0  0
 14 15  1  0  0  0  0
 14 16  1  0  0  0  0
 14 17  1  0  0  0  0
 17 18  1  0  0  0  0
 17 19  1  0  0  0  0
 17 20  1  0  0  0  0
 20 21  1  0  0  0  0
 20 22  1  0  0  0  0
 20 23  1  0  0  0  0
 23 24  1  0  0  0  0
 23 25  1  0  0  0  0
 23 26  1  0  0  0  0
 26 27  1  0  0  0  0
 26 28  1  0  0  0  0
 26 29  1  0  0  0  0
M  END
> <VM2 Rank>
50

> <Conf_Id>
2322

> <Probability>
0.60

> <Sum Probability>
62.07

> <Delta G>
1.294

> <G>
59.440

> <E>
21.807

> <-TS>
37.633

> <U+W>
-2.337

> <U>
49.175

> <W>
-51.513

> <W(PB)>
-54.032

> <W(SA)>
2.519

> <Valence>
3.575

> <Coulomb>
44.838

> <VdW>
0.762

> <VdW6>
-8.634

> <VdW12>
9.396

> <Bond>
0.229

> <Angle>
1.080

> <Pdih>
2.266

> <Idih>
0.000

> <Tether>
0.000

$$$$
VeraChem MOL file


 29 28  0  0  0  0  0  0  0  0999 V2000     
   20.4153   20.2255   20.1010 C   0  0  0  0  0  0  0  0  0  0  0  0
   19.4619   20.5906   19.6976 H   0  0  0  0  0  0  0  0  0  0  0  0
   20.6658   20.8226   20.9865 H   0  0  0  0  0  0  0  0  0  0  0  0
   21.1917   20.4110   19.3476 H   0  0  0  0  0  0  0  0  0  0  0  0
   20.3361   18.7189   20.4361 C   0  0  0  0  0  0  0  0  0  0  0  0
   21.2911   18.3851   20.8655 H   0  0  0  0  0  0  0  0  0  0  0  0
   20.2051   18.1547   19.5021 H   0  0  0  0  0  0  0  0  0  0  0  0
   19.1769   18.3629   21.3979 C   0  0  0  0  0  0  0  0  0  0  0  0
   18.2225   18.6775   20.9537 H   0  0  0  0  0  0  0  0  0  0  0  0
   19.1274   17.2695   21.4949 H   0  0  0  0  0  0  0  0  0  0  0  0
   19.3295   18.9880   22.8053 C   0  0  0  0  0  0  0  0  0  0  0  0
   19.3035   20.0831   22.7320 H   0  0  0  0  0  0  0  0  0  0  0  0
   20.3114   18.7160   23.2134 H   0  0  0  0  0  0  0  0  0  0  0  0
   18.2094   18.5173   23.7639 C   0  0  0  0  0  0  0  0  0  0  0  0
   17.2340   18.7233   23.3017 H   0  0  0  0  0  0  0  0  0  0  0  0
   18.2653   17.4276   23.8934 H   0  0  0  0  0  0  0  0  0  0  0  0
   18.2501   19.2066   25.1498 C   0  0  0  0  0  0  0  0  0  0  0  0
   17.3606   18.9000   25.7177 H   0  0  0  0  0  0  0  0  0  0  0  0
   18.1740   20.2954   25.0221 H   0  0  0  0  0  0  0  0  0  0  0  0
   19.5137   18.8655   25.9740 C   0  0  0  0  0  0  0  0  0  0  0  0
   19.6173   17.7755   26.0581 H   0  0  0  0  0  0  0  0  0  0  0  0
   20.4105   19.2382   25.4633 H   0  0  0  0  0  0  0  0  0  0  0  0
   19.4468   19.4827   27.3819 C   0  0  0  0  0  0  0  0  0  0  0  0
   18.5667   19.1040   27.9086 H   0  0  0  0  0  0  0  0  0  0  0  0
   19.3599   20.5698   27.3036 H   0  0  0  0  0  0  0  0  0  0  0  0
   20.6662   19.1706   28.2250 N   0  3  0  0  0  0  0  0  0  0  0  0
   21.5276   19.5259   27.7971 H   0  0  0  0  0  0  0  0  0  0  0  0
   20.7894   18.1615   28.3593 H   0  0  0  0  0  0  0  0  0  0  0  0
   20.6011   19.5906   29.1589 H   0  0  0  0  0  0  0  0  0  0  0  0
  1  2  1  0  0  0  0
  1  3  1  0  0  0  0
  1  4  1  0  0  0  0
  1  5  1  0  0  0  0
  5  6  1  0  0  0  0
  5  7  1  0  0  0  0
  5  8  1  0  0  0  0
  8  9  1  0  0  0  0
  8 10  1  0  0  0  0
  8 11  1  0  0  0  0
 11 12  1  0  0  0  0
 11 13  1  0  0  0  0
 11 14  1  0  0  0  0
 14 15  1  0  0  0  0
 14 16  1  0  0  0  0
 14 17  1  0  0  0  0
 17 18  1  0  0  0  0
 17 19  1  0  0  0  0
 17 20  1  0  0  0  0
 20 21  1  0  0  0  0
 20 22  1  0  0  0  0
 20 23  1  0  0  0  0
 23 24  1  0  0  0  0
 23 25  1  0  0  0  0
 23 26  1  0  0  0  0
 26 27  1  0  0  0  0
 26 28  1  0  0  0  0
 26 29  1  0  0  0  0
M  END
> <VM2 Rank>
51

> <Conf_Id>
1811

> <Probability>
0.58

> <Sum Probability>
62.66

> <Delta G>
1.313

> <G>
59.460

> <E>
22.060

> <-TS>
37.400

> <U+W>
-2.084

> <U>
49.389

> <W>
-51.474

> <W(PB)>
-53.992

> <W(SA)>
2.519

> <Valence>
3.628

> <Coulomb>
44.800

> <VdW>
0.961

> <VdW6>
-8.223

> <VdW12>
9.184

> <Bond>
0.219

> <Angle>
0.899

> <Pdih>
2.510

> <Idih>
0.000

> <Tether>
0.000

$$$$
VeraChem MOL file


 29 28  0  0  0  0  0  0  0  0999 V2000     
   19.5207   17.7199   20.0444 C   0  0  0  0  0  0  0  0  0  0  0  0
   19.3238   17.0643   20.9016 H   0  0  0  0  0  0  0  0  0  0  0  0
   18.5575   18.0575   19.6403 H   0  0  0  0  0  0  0  0  0  0  0  0
   20.0150   17.1150   19.2732 H   0  0  0  0  0  0  0  0  0  0  0  0
   20.4085   18.9213   20.4407 C   0  0  0  0  0  0  0  0  0  0  0  0
   20.6777   19.4776   19.5319 H   0  0  0  0  0  0  0  0  0  0  0  0
   21.3527   18.5575   20.8695 H   0  0  0  0  0  0  0  0  0  0  0  0
   19.7229   19.8920   21.4322 C   0  0  0  0  0  0  0  0  0  0  0  0
   20.3753   20.7647   21.5734 H   0  0  0  0  0  0  0  0  0  0  0  0
   18.7914   20.2706   20.9894 H   0  0  0  0  0  0  0  0  0  0  0  0
   19.4252   19.2560   22.8112 C   0  0  0  0  0  0  0  0  0  0  0  0
   20.3517   18.8287   23.2160 H   0  0  0  0  0  0  0  0  0  0  0  0
   18.7132   18.4286   22.6947 H   0  0  0  0  0  0  0  0  0  0  0  0
   18.8422   20.2907   23.8035 C   0  0  0  0  0  0  0  0  0  0  0  0
   19.5731   21.0928   23.9754 H   0  0  0  0  0  0  0  0  0  0  0  0
   17.9632   20.7669   23.3474 H   0  0  0  0  0  0  0  0  0  0  0  0
   18.4179   19.6767   25.1603 C   0  0  0  0  0  0  0  0  0  0  0  0
   17.6721   18.8877   24.9905 H   0  0  0  0  0  0  0  0  0  0  0  0
   17.9149   20.4540   25.7523 H   0  0  0  0  0  0  0  0  0  0  0  0
   19.6004   19.1086   25.9796 C   0  0  0  0  0  0  0  0  0  0  0  0
   20.0664   18.2733   25.4419 H   0  0  0  0  0  0  0  0  0  0  0  0
   20.3689   19.8829   26.1054 H   0  0  0  0  0  0  0  0  0  0  0  0
   19.1381   18.6178   27.3627 C   0  0  0  0  0  0  0  0  0  0  0  0
   18.3845   17.8348   27.2425 H   0  0  0  0  0  0  0  0  0  0  0  0
   18.6884   19.4466   27.9161 H   0  0  0  0  0  0  0  0  0  0  0  0
   20.2679   18.0550   28.2005 N   0  3  0  0  0  0  0  0  0  0  0  0
   20.7166   17.2522   27.7469 H   0  0  0  0  0  0  0  0  0  0  0  0
   19.9386   17.7343   29.1178 H   0  0  0  0  0  0  0  0  0  0  0  0
   20.9995   18.7525   28.3729 H   0  0  0  0  0  0  0  0  0  0  0  0
  1  2  1  0  0  0  0
  1  3  1  0  0  0  0
  1  4  1  0  0  0  0
  1  5  1  0  0  0  0
  5  6  1  0  0  0  0
  5  7  1  0  0  0  0
  5  8  1  0  0  0  0
  8  9  1  0  0  0  0
  8 10  1  0  0  0  0
  8 11  1  0  0  0  0
 11 12  1  0  0  0  0
 11 13  1  0  0  0  0
 11 14  1  0  0  0  0
 14 15  1  0  0  0  0
 14 16  1  0  0  0  0
 14 17  1  0  0  0  0
 17 18  1  0  0  0  0
 17 19  1  0  0  0  0
 17 20  1  0  0  0  0
 20 21  1  0  0  0  0
 20 22  1  0  0  0  0
 20 23  1  0  0  0  0
 23 24  1  0  0  0  0
 23 25  1  0  0  0  0
 23 26  1  0  0  0  0
 26 27  1  0  0  0  0
 26 28  1  0  0  0  0
 26 29  1  0  0  0  0
M  END
> <VM2 Rank>
52

> <Conf_Id>
1870

> <Probability>
0.58

> <Sum Probability>
63.23

> <Delta G>
1.320

> <G>
59.466

> <E>
22.067

> <-TS>
37.400

> <U+W>
-2.078

> <U>
49.389

> <W>
-51.467

> <W(PB)>
-54.003

> <W(SA)>
2.536

> <Valence>
3.628

> <Coulomb>
44.800

> <VdW>
0.961

> <VdW6>
-8.223

> <VdW12>
9.184

> <Bond>
0.219

> <Angle>
0.899

> <Pdih>
2.510

> <Idih>
0.000

> <Tether>
0.000

$$$$
VeraChem MOL file


 29 28  0  0  0  0  0  0  0  0999 V2000     
   20.6789   19.9945   20.3616 C   0  0  0  0  0  0  0  0  0  0  0  0
   20.7556   20.5408   21.3100 H   0  0  0  0  0  0  0  0  0  0  0  0
   21.6800   19.9704   19.9121 H   0  0  0  0  0  0  0  0  0  0  0  0
   20.0219   20.5614   19.6895 H   0  0  0  0  0  0  0  0  0  0  0  0
   20.1476   18.5595   20.5771 C   0  0  0  0  0  0  0  0  0  0  0  0
   20.8087   18.0192   21.2678 H   0  0  0  0  0  0  0  0  0  0  0  0
   20.2009   18.0157   19.6236 H   0  0  0  0  0  0  0  0  0  0  0  0
   18.6853   18.5140   21.0891 C   0  0  0  0  0  0  0  0  0  0  0  0
   18.0282   18.9507   20.3245 H   0  0  0  0  0  0  0  0  0  0  0  0
   18.3770   17.4640   21.1861 H   0  0  0  0  0  0  0  0  0  0  0  0
   18.4314   19.2400   22.4355 C   0  0  0  0  0  0  0  0  0  0  0  0
   17.3633   19.1528   22.6782 H   0  0  0  0  0  0  0  0  0  0  0  0
   18.6288   20.3144   22.3246 H   0  0  0  0  0  0  0  0  0  0  0  0
   19.2628   18.6729   23.6108 C   0  0  0  0  0  0  0  0  0  0  0  0
   19.0964   17.5896   23.6887 H   0  0  0  0  0  0  0  0  0  0  0  0
   20.3333   18.8190   23.4152 H   0  0  0  0  0  0  0  0  0  0  0  0
   18.8971   19.3500   24.9508 C   0  0  0  0  0  0  0  0  0  0  0  0
   17.8278   19.2030   25.1577 H   0  0  0  0  0  0  0  0  0  0  0  0
   19.0595   20.4339   24.8709 H   0  0  0  0  0  0  0  0  0  0  0  0
   19.7297   18.7899   26.1249 C   0  0  0  0  0  0  0  0  0  0  0  0
   19.5665   17.7073   26.2107 H   0  0  0  0  0  0  0  0  0  0  0  0
   20.7990   18.9401   25.9248 H   0  0  0  0  0  0  0  0  0  0  0  0
   19.3574   19.4704   27.4537 C   0  0  0  0  0  0  0  0  0  0  0  0
   18.2968   19.3094   27.6654 H   0  0  0  0  0  0  0  0  0  0  0  0
   19.5340   20.5467   27.3785 H   0  0  0  0  0  0  0  0  0  0  0  0
   20.1538   18.9470   28.6314 N   0  3  0  0  0  0  0  0  0  0  0  0
   20.0097   17.9417   28.7734 H   0  0  0  0  0  0  0  0  0  0  0  0
   19.8905   19.4132   29.5066 H   0  0  0  0  0  0  0  0  0  0  0  0
   21.1611   19.0931   28.5064 H   0  0  0  0  0  0  0  0  0  0  0  0
  1  2  1  0  0  0  0
  1  3  1  0  0  0  0
  1  4  1  0  0  0  0
  1  5  1  0  0  0  0
  5  6  1  0  0  0  0
  5  7  1  0  0  0  0
  5  8  1  0  0  0  0
  8  9  1  0  0  0  0
  8 10  1  0  0  0  0
  8 11  1  0  0  0  0
 11 12  1  0  0  0  0
 11 13  1  0  0  0  0
 11 14  1  0  0  0  0
 14 15  1  0  0  0  0
 14 16  1  0  0  0  0
 14 17  1  0  0  0  0
 17 18  1  0  0  0  0
 17 19  1  0  0  0  0
 17 20  1  0  0  0  0
 20 21  1  0  0  0  0
 20 22  1  0  0  0  0
 20 23  1  0  0  0  0
 23 24  1  0  0  0  0
 23 25  1  0  0  0  0
 23 26  1  0  0  0  0
 26 27  1  0  0  0  0
 26 28  1  0  0  0  0
 26 29  1  0  0  0  0
M  END
> <VM2 Rank>
53

> <Conf_Id>
641

> <Probability>
0.56

> <Sum Probability>
63.79

> <Delta G>
1.341

> <G>
59.488

> <E>
21.872

> <-TS>
37.615

> <U+W>
-2.273

> <U>
48.920

> <W>
-51.192

> <W(PB)>
-53.703

> <W(SA)>
2.511

> <Valence>
3.544

> <Coulomb>
44.554

> <VdW>
0.822

> <VdW6>
-8.501

> <VdW12>
9.324

> <Bond>
0.224

> <Angle>
1.044

> <Pdih>
2.276

> <Idih>
0.000

> <Tether>
0.000

$$$$
VeraChem MOL file


 29 28  0  0  0  0  0  0  0  0999 V2000     
   19.8644   19.0622   19.3428 C   0  0  0  0  0  0  0  0  0  0  0  0
   19.4630   19.1702   18.3269 H   0  0  0  0  0  0  0  0  0  0  0  0
   20.4423   19.9674   19.5659 H   0  0  0  0  0  0  0  0  0  0  0  0
   20.5512   18.2059   19.3429 H   0  0  0  0  0  0  0  0  0  0  0  0
   18.7172   18.8547   20.3576 C   0  0  0  0  0  0  0  0  0  0  0  0
   18.0944   18.0152   20.0181 H   0  0  0  0  0  0  0  0  0  0  0  0
   18.0642   19.7386   20.3643 H   0  0  0  0  0  0  0  0  0  0  0  0
   19.2094   18.5561   21.7945 C   0  0  0  0  0  0  0  0  0  0  0  0
   18.3355   18.2902   22.4028 H   0  0  0  0  0  0  0  0  0  0  0  0
   19.8604   17.6713   21.7826 H   0  0  0  0  0  0  0  0  0  0  0  0
   19.9552   19.7460   22.4505 C   0  0  0  0  0  0  0  0  0  0  0  0
   19.3030   20.6300   22.4657 H   0  0  0  0  0  0  0  0  0  0  0  0
   20.8247   20.0141   21.8368 H   0  0  0  0  0  0  0  0  0  0  0  0
   20.4576   19.4472   23.8846 C   0  0  0  0  0  0  0  0  0  0  0  0
   21.1076   18.5614   23.8694 H   0  0  0  0  0  0  0  0  0  0  0  0
   21.0876   20.2859   24.2121 H   0  0  0  0  0  0  0  0  0  0  0  0
   19.3189   19.2438   24.9129 C   0  0  0  0  0  0  0  0  0  0  0  0
   18.7259   18.3586   24.6484 H   0  0  0  0  0  0  0  0  0  0  0  0
   18.6379   20.1058   24.8829 H   0  0  0  0  0  0  0  0  0  0  0  0
   19.8662   19.0711   26.3468 C   0  0  0  0  0  0  0  0  0  0  0  0
   20.5470   18.2099   26.3813 H   0  0  0  0  0  0  0  0  0  0  0  0
   20.4514   19.9564   26.6292 H   0  0  0  0  0  0  0  0  0  0  0  0
   18.7288   18.8652   27.3624 C   0  0  0  0  0  0  0  0  0  0  0  0
   18.1532   17.9747   27.0953 H   0  0  0  0  0  0  0  0  0  0  0  0
   18.0573   19.7278   27.3432 H   0  0  0  0  0  0  0  0  0  0  0  0
   19.2264   18.6916   28.7828 N   0  3  0  0  0  0  0  0  0  0  0  0
   19.8439   17.8781   28.8743 H   0  0  0  0  0  0  0  0  0  0  0  0
   18.4532   18.5558   29.4434 H   0  0  0  0  0  0  0  0  0  0  0  0
   19.7545   19.5094   29.1050 H   0  0  0  0  0  0  0  0  0  0  0  0
  1  2  1  0  0  0  0
  1  3  1  0  0  0  0
  1  4  1  0  0  0  0
  1  5  1  0  0  0  0
  5  6  1  0  0  0  0
  5  7  1  0  0  0  0
  5  8  1  0  0  0  0
  8  9  1  0  0  0  0
  8 10  1  0  0  0  0
  8 11  1  0  0  0  0
 11 12  1  0  0  0  0
 11 13  1  0  0  0  0
 11 14  1  0  0  0  0
 14 15  1  0  0  0  0
 14 16  1  0  0  0  0
 14 17  1  0  0  0  0
 17 18  1  0  0  0  0
 17 19  1  0  0  0  0
 17 20  1  0  0  0  0
 20 21  1  0  0  0  0
 20 22  1  0  0  0  0
 20 23  1  0  0  0  0
 23 24  1  0  0  0  0
 23 25  1  0  0  0  0
 23 26  1  0  0  0  0
 26 27  1  0  0  0  0
 26 28  1  0  0  0  0
 26 29  1  0  0  0  0
M  END
> <VM2 Rank>
54

> <Conf_Id>
1229

> <Probability>
0.54

> <Sum Probability>
64.33

> <Delta G>
1.356

> <G>
59.502

> <E>
22.165

> <-TS>
37.337

> <U+W>
-1.979

> <U>
49.254

> <W>
-51.230

> <W(PB)>
-53.763

> <W(SA)>
2.533

> <Valence>
3.706

> <Coulomb>
44.522

> <VdW>
1.026

> <VdW6>
-8.144

> <VdW12>
9.170

> <Bond>
0.228

> <Angle>
0.952

> <Pdih>
2.526

> <Idih>
0.000

> <Tether>
0.000

$$$$
VeraChem MOL file


 29 28  0  0  0  0  0  0  0  0999 V2000     
   21.1860   19.6937   20.5005 C   0  0  0  0  0  0  0  0  0  0  0  0
   21.3928   20.2278   21.4362 H   0  0  0  0  0  0  0  0  0  0  0  0
   21.7183   18.7340   20.5266 H   0  0  0  0  0  0  0  0  0  0  0  0
   21.6079   20.2895   19.6808 H   0  0  0  0  0  0  0  0  0  0  0  0
   19.6695   19.4825   20.2903 C   0  0  0  0  0  0  0  0  0  0  0  0
   19.5068   19.0589   19.2894 H   0  0  0  0  0  0  0  0  0  0  0  0
   19.1561   20.4542   20.3001 H   0  0  0  0  0  0  0  0  0  0  0  0
   19.0279   18.5410   21.3379 C   0  0  0  0  0  0  0  0  0  0  0  0
   17.9838   18.3583   21.0482 H   0  0  0  0  0  0  0  0  0  0  0  0
   19.5315   17.5649   21.3112 H   0  0  0  0  0  0  0  0  0  0  0  0
   19.0619   19.1063   22.7781 C   0  0  0  0  0  0  0  0  0  0  0  0
   18.5999   20.1030   22.7913 H   0  0  0  0  0  0  0  0  0  0  0  0
   20.1040   19.2307   23.0965 H   0  0  0  0  0  0  0  0  0  0  0  0
   18.3225   18.1802   23.7735 C   0  0  0  0  0  0  0  0  0  0  0  0
   17.3014   18.0042   23.4078 H   0  0  0  0  0  0  0  0  0  0  0  0
   18.8139   17.1978   23.8006 H   0  0  0  0  0  0  0  0  0  0  0  0
   18.2353   18.7565   25.2082 C   0  0  0  0  0  0  0  0  0  0  0  0
   17.5985   18.0943   25.8112 H   0  0  0  0  0  0  0  0  0  0  0  0
   17.7294   19.7317   25.1833 H   0  0  0  0  0  0  0  0  0  0  0  0
   19.6097   18.8996   25.9031 C   0  0  0  0  0  0  0  0  0  0  0  0
   20.1373   17.9368   25.8812 H   0  0  0  0  0  0  0  0  0  0  0  0
   20.2331   19.6236   25.3635 H   0  0  0  0  0  0  0  0  0  0  0  0
   19.4533   19.3636   27.3618 C   0  0  0  0  0  0  0  0  0  0  0  0
   18.8491   18.6400   27.9157 H   0  0  0  0  0  0  0  0  0  0  0  0
   18.9429   20.3301   27.3881 H   0  0  0  0  0  0  0  0  0  0  0  0
   20.7779   19.5145   28.0816 N   0  3  0  0  0  0  0  0  0  0  0  0
   21.3842   20.2041   27.6252 H   0  0  0  0  0  0  0  0  0  0  0  0
   21.2970   18.6308   28.1152 H   0  0  0  0  0  0  0  0  0  0  0  0
   20.6510   19.8237   29.0517 H   0  0  0  0  0  0  0  0  0  0  0  0
  1  2  1  0  0  0  0
  1  3  1  0  0  0  0
  1  4  1  0  0  0  0
  1  5  1  0  0  0  0
  5  6  1  0  0  0  0
  5  7  1  0  0  0  0
  5  8  1  0  0  0  0
  8  9  1  0  0  0  0
  8 10  1  0  0  0  0
  8 11  1  0  0  0  0
 11 12  1  0  0  0  0
 11 13  1  0  0  0  0
 11 14  1  0  0  0  0
 14 15  1  0  0  0  0
 14 16  1  0  0  0  0
 14 17  1  0  0  0  0
 17 18  1  0  0  0  0
 17 19  1  0  0  0  0
 17 20  1  0  0  0  0
 20 21  1  0  0  0  0
 20 22  1  0  0  0  0
 20 23  1  0  0  0  0
 23 24  1  0  0  0  0
 23 25  1  0  0  0  0
 23 26  1  0  0  0  0
 26 27  1  0  0  0  0
 26 28  1  0  0  0  0
 26 29  1  0  0  0  0
M  END
> <VM2 Rank>
55

> <Conf_Id>
1189

> <Probability>
0.54

> <Sum Probability>
64.87

> <Delta G>
1.358

> <G>
59.505

> <E>
22.112

> <-TS>
37.393

> <U+W>
-2.033

> <U>
49.480

> <W>
-51.512

> <W(PB)>
-54.058

> <W(SA)>
2.546

> <Valence>
3.628

> <Coulomb>
44.888

> <VdW>
0.963

> <VdW6>
-8.237

> <VdW12>
9.201

> <Bond>
0.221

> <Angle>
0.899

> <Pdih>
2.508

> <Idih>
0.000

> <Tether>
0.000

$$$$
VeraChem MOL file


 29 28  0  0  0  0  0  0  0  0999 V2000     
   20.2517   18.5901   19.3623 C   0  0  0  0  0  0  0  0  0  0  0  0
   20.7062   17.6604   18.9959 H   0  0  0  0  0  0  0  0  0  0  0  0
   19.2700   18.6973   18.8828 H   0  0  0  0  0  0  0  0  0  0  0  0
   20.8847   19.4257   19.0363 H   0  0  0  0  0  0  0  0  0  0  0  0
   20.1175   18.5620   20.8995 C   0  0  0  0  0  0  0  0  0  0  0  0
   21.1106   18.4243   21.3494 H   0  0  0  0  0  0  0  0  0  0  0  0
   19.5131   17.6920   21.1886 H   0  0  0  0  0  0  0  0  0  0  0  0
   19.4751   19.8615   21.4393 C   0  0  0  0  0  0  0  0  0  0  0  0
   20.0519   20.7231   21.0755 H   0  0  0  0  0  0  0  0  0  0  0  0
   18.4625   19.9728   21.0276 H   0  0  0  0  0  0  0  0  0  0  0  0
   19.4174   19.9266   22.9852 C   0  0  0  0  0  0  0  0  0  0  0  0
   19.0504   20.9198   23.2782 H   0  0  0  0  0  0  0  0  0  0  0  0
   20.4358   19.8407   23.3864 H   0  0  0  0  0  0  0  0  0  0  0  0
   18.5034   18.8442   23.6133 C   0  0  0  0  0  0  0  0  0  0  0  0
   17.5281   18.8615   23.1076 H   0  0  0  0  0  0  0  0  0  0  0  0
   18.9257   17.8458   23.4392 H   0  0  0  0  0  0  0  0  0  0  0  0
   18.2724   19.0395   25.1318 C   0  0  0  0  0  0  0  0  0  0  0  0
   17.5350   18.2986   25.4707 H   0  0  0  0  0  0  0  0  0  0  0  0
   17.8235   20.0261   25.3126 H   0  0  0  0  0  0  0  0  0  0  0  0
   19.5596   18.8899   25.9760 C   0  0  0  0  0  0  0  0  0  0  0  0
   20.0336   17.9233   25.7594 H   0  0  0  0  0  0  0  0  0  0  0  0
   20.2808   19.6721   25.7075 H   0  0  0  0  0  0  0  0  0  0  0  0
   19.2557   18.9841   27.4815 C   0  0  0  0  0  0  0  0  0  0  0  0
   18.5518   18.1970   27.7651 H   0  0  0  0  0  0  0  0  0  0  0  0
   18.7983   19.9518   27.7048 H   0  0  0  0  0  0  0  0  0  0  0  0
   20.4912   18.8400   28.3463 N   0  3  0  0  0  0  0  0  0  0  0  0
   21.1838   19.5696   28.1475 H   0  0  0  0  0  0  0  0  0  0  0  0
   20.9544   17.9365   28.2028 H   0  0  0  0  0  0  0  0  0  0  0  0
   20.2665   18.9054   29.3452 H   0  0  0  0  0  0  0  0  0  0  0  0
  1  2  1  0  0  0  0
  1  3  1  0  0  0  0
  1  4  1  0  0  0  0
  1  5  1  0  0  0  0
  5  6  1  0  0  0  0
  5  7  1  0  0  0  0
  5  8  1  0  0  0  0
  8  9  1  0  0  0  0
  8 10  1  0  0  0  0
  8 11  1  0  0  0  0
 11 12  1  0  0  0  0
 11 13  1  0  0  0  0
 11 14  1  0  0  0  0
 14 15  1  0  0  0  0
 14 16  1  0  0  0  0
 14 17  1  0  0  0  0
 17 18  1  0  0  0  0
 17 19  1  0  0  0  0
 17 20  1  0  0  0  0
 20 21  1  0  0  0  0
 20 22  1  0  0  0  0
 20 23  1  0  0  0  0
 23 24  1  0  0  0  0
 23 25  1  0  0  0  0
 23 26  1  0  0  0  0
 26 27  1  0  0  0  0
 26 28  1  0  0  0  0
 26 29  1  0  0  0  0
M  END
> <VM2 Rank>
56

> <Conf_Id>
1550

> <Probability>
0.53

> <Sum Probability>
65.40

> <Delta G>
1.370

> <G>
59.516

> <E>
22.100

> <-TS>
37.416

> <U+W>
-2.045

> <U>
49.434

> <W>
-51.478

> <W(PB)>
-54.002

> <W(SA)>
2.523

> <Valence>
3.637

> <Coulomb>
44.866

> <VdW>
0.931

> <VdW6>
-8.275

> <VdW12>
9.206

> <Bond>
0.222

> <Angle>
0.875

> <Pdih>
2.540

> <Idih>
0.000

> <Tether>
0.000

$$$$
VeraChem MOL file


 29 28  0  0  0  0  0  0  0  0999 V2000     
   19.8418   18.9981   19.3414 C   0  0  0  0  0  0  0  0  0  0  0  0
   20.9150   19.2276   19.3659 H   0  0  0  0  0  0  0  0  0  0  0  0
   19.7153   17.9233   19.5203 H   0  0  0  0  0  0  0  0  0  0  0  0
   19.4768   19.2081   18.3277 H   0  0  0  0  0  0  0  0  0  0  0  0
   19.0689   19.8429   20.3796 C   0  0  0  0  0  0  0  0  0  0  0  0
   18.0044   19.5703   20.3603 H   0  0  0  0  0  0  0  0  0  0  0  0
   19.1208   20.8997   20.0825 H   0  0  0  0  0  0  0  0  0  0  0  0
   19.6185   19.7064   21.8202 C   0  0  0  0  0  0  0  0  0  0  0  0
   20.6822   19.9810   21.8343 H   0  0  0  0  0  0  0  0  0  0  0  0
   19.1003   20.4400   22.4507 H   0  0  0  0  0  0  0  0  0  0  0  0
   19.4362   18.2880   22.4179 C   0  0  0  0  0  0  0  0  0  0  0  0
   19.9497   17.5556   21.7819 H   0  0  0  0  0  0  0  0  0  0  0  0
   18.3721   18.0146   22.4073 H   0  0  0  0  0  0  0  0  0  0  0  0
   19.9942   18.1452   23.8555 C   0  0  0  0  0  0  0  0  0  0  0  0
   19.9483   17.0850   24.1407 H   0  0  0  0  0  0  0  0  0  0  0  0
   21.0576   18.4213   23.8663 H   0  0  0  0  0  0  0  0  0  0  0  0
   19.2253   18.9812   24.9070 C   0  0  0  0  0  0  0  0  0  0  0  0
   18.1535   18.7449   24.8526 H   0  0  0  0  0  0  0  0  0  0  0  0
   19.3285   20.0515   24.6861 H   0  0  0  0  0  0  0  0  0  0  0  0
   19.7386   18.7125   26.3388 C   0  0  0  0  0  0  0  0  0  0  0  0
   19.6292   17.6461   26.5776 H   0  0  0  0  0  0  0  0  0  0  0  0
   20.8097   18.9481   26.3977 H   0  0  0  0  0  0  0  0  0  0  0  0
   18.9725   19.5499   27.3778 C   0  0  0  0  0  0  0  0  0  0  0  0
   17.9074   19.3066   27.3339 H   0  0  0  0  0  0  0  0  0  0  0  0
   19.0922   20.6135   27.1542 H   0  0  0  0  0  0  0  0  0  0  0  0
   19.4480   19.3139   28.7966 N   0  3  0  0  0  0  0  0  0  0  0  0
   20.4392   19.5505   28.9116 H   0  0  0  0  0  0  0  0  0  0  0  0
   19.3366   18.3344   29.0788 H   0  0  0  0  0  0  0  0  0  0  0  0
   18.9250   19.8811   29.4730 H   0  0  0  0  0  0  0  0  0  0  0  0
  1  2  1  0  0  0  0
  1  3  1  0  0  0  0
  1  4  1  0  0  0  0
  1  5  1  0  0  0  0
  5  6  1  0  0  0  0
  5  7  1  0  0  0  0
  5  8  1  0  0  0  0
  8  9  1  0  0  0  0
  8 10  1  0  0  0  0
  8 11  1  0  0  0  0
 11 12  1  0  0  0  0
 11 13  1  0  0  0  0
 11 14  1  0  0  0  0
 14 15  1  0  0  0  0
 14 16  1  0  0  0  0
 14 17  1  0  0  0  0
 17 18  1  0  0  0  0
 17 19  1  0  0  0  0
 17 20  1  0  0  0  0
 20 21  1  0  0  0  0
 20 22  1  0  0  0  0
 20 23  1  0  0  0  0
 23 24  1  0  0  0  0
 23 25  1  0  0  0  0
 23 26  1  0  0  0  0
 26 27  1  0  0  0  0
 26 28  1  0  0  0  0
 26 29  1  0  0  0  0
M  END
> <VM2 Rank>
57

> <Conf_Id>
2487

> <Probability>
0.52

> <Sum Probability>
65.93

> <Delta G>
1.380

> <G>
59.526

> <E>
22.189

> <-TS>
37.337

> <U+W>
-1.956

> <U>
49.254

> <W>
-51.210

> <W(PB)>
-53.714

> <W(SA)>
2.504

> <Valence>
3.706

> <Coulomb>
44.522

> <VdW>
1.026

> <VdW6>
-8.144

> <VdW12>
9.170

> <Bond>
0.228

> <Angle>
0.952

> <Pdih>
2.525

> <Idih>
0.000

> <Tether>
0.000

$$$$
VeraChem MOL file


 29 28  0  0  0  0  0  0  0  0999 V2000     
   20.4503   17.6281   20.4544 C   0  0  0  0  0  0  0  0  0  0  0  0
   20.4125   16.9329   19.6057 H   0  0  0  0  0  0  0  0  0  0  0  0
   21.4688   18.0333   20.5114 H   0  0  0  0  0  0  0  0  0  0  0  0
   20.2594   17.0468   21.3650 H   0  0  0  0  0  0  0  0  0  0  0  0
   19.4118   18.7584   20.2740 C   0  0  0  0  0  0  0  0  0  0  0  0
   18.3998   18.3305   20.2521 H   0  0  0  0  0  0  0  0  0  0  0  0
   19.5680   19.2289   19.2932 H   0  0  0  0  0  0  0  0  0  0  0  0
   19.4946   19.8509   21.3672 C   0  0  0  0  0  0  0  0  0  0  0  0
   20.5021   20.2893   21.3723 H   0  0  0  0  0  0  0  0  0  0  0  0
   18.8052   20.6636   21.0998 H   0  0  0  0  0  0  0  0  0  0  0  0
   19.1432   19.3346   22.7831 C   0  0  0  0  0  0  0  0  0  0  0  0
   19.8677   18.5673   23.0817 H   0  0  0  0  0  0  0  0  0  0  0  0
   18.1553   18.8544   22.7631 H   0  0  0  0  0  0  0  0  0  0  0  0
   19.1409   20.4791   23.8249 C   0  0  0  0  0  0  0  0  0  0  0  0
   20.1419   20.9283   23.8840 H   0  0  0  0  0  0  0  0  0  0  0  0
   18.4658   21.2749   23.4809 H   0  0  0  0  0  0  0  0  0  0  0  0
   18.6890   20.0310   25.2366 C   0  0  0  0  0  0  0  0  0  0  0  0
   17.6814   19.5963   25.1801 H   0  0  0  0  0  0  0  0  0  0  0  0
   18.6049   20.9221   25.8743 H   0  0  0  0  0  0  0  0  0  0  0  0
   19.6543   19.0248   25.9060 C   0  0  0  0  0  0  0  0  0  0  0  0
   19.6882   18.0920   25.3293 H   0  0  0  0  0  0  0  0  0  0  0  0
   20.6716   19.4382   25.9150 H   0  0  0  0  0  0  0  0  0  0  0  0
   19.2193   18.7064   27.3472 C   0  0  0  0  0  0  0  0  0  0  0  0
   18.2129   18.2791   27.3420 H   0  0  0  0  0  0  0  0  0  0  0  0
   19.1997   19.6263   27.9377 H   0  0  0  0  0  0  0  0  0  0  0  0
   20.1407   17.7247   28.0418 N   0  3  0  0  0  0  0  0  0  0  0  0
   21.1006   18.0800   28.1033 H   0  0  0  0  0  0  0  0  0  0  0  0
   20.1820   16.8259   27.5499 H   0  0  0  0  0  0  0  0  0  0  0  0
   19.8332   17.5269   29.0005 H   0  0  0  0  0  0  0  0  0  0  0  0
  1  2  1  0  0  0  0
  1  3  1  0  0  0  0
  1  4  1  0  0  0  0
  1  5  1  0  0  0  0
  5  6  1  0  0  0  0
  5  7  1  0  0  0  0
  5  8  1  0  0  0  0
  8  9  1  0  0  0  0
  8 10  1  0  0  0  0
  8 11  1  0  0  0  0
 11 12  1  0  0  0  0
 11 13  1  0  0  0  0
 11 14  1  0  0  0  0
 14 15  1  0  0  0  0
 14 16  1  0  0  0  0
 14 17  1  0  0  0  0
 17 18  1  0  0  0  0
 17 19  1  0  0  0  0
 17 20  1  0  0  0  0
 20 21  1  0  0  0  0
 20 22  1  0  0  0  0
 20 23  1  0  0  0  0
 23 24  1  0  0  0  0
 23 25  1  0  0  0  0
 23 26  1  0  0  0  0
 26 27  1  0  0  0  0
 26 28  1  0  0  0  0
 26 29  1  0  0  0  0
M  END
> <VM2 Rank>
58

> <Conf_Id>
940

> <Probability>
0.51

> <Sum Probability>
66.43

> <Delta G>
1.395

> <G>
59.541

> <E>
22.148

> <-TS>
37.393

> <U+W>
-1.996

> <U>
49.480

> <W>
-51.476

> <W(PB)>
-54.002

> <W(SA)>
2.526

> <Valence>
3.629

> <Coulomb>
44.888

> <VdW>
0.963

> <VdW6>
-8.237

> <VdW12>
9.200

> <Bond>
0.221

> <Angle>
0.900

> <Pdih>
2.508

> <Idih>
0.000

> <Tether>
0.000

$$$$
VeraChem MOL file


 29 28  0  0  0  0  0  0  0  0999 V2000     
   20.4403   19.1175   19.3744 C   0  0  0  0  0  0  0  0  0  0  0  0
   20.4073   18.0836   19.0067 H   0  0  0  0  0  0  0  0  0  0  0  0
   19.6188   19.6741   18.9046 H   0  0  0  0  0  0  0  0  0  0  0  0
   21.3853   19.5643   19.0390 H   0  0  0  0  0  0  0  0  0  0  0  0
   20.3318   19.1633   20.9132 C   0  0  0  0  0  0  0  0  0  0  0  0
   20.4093   20.2072   21.2451 H   0  0  0  0  0  0  0  0  0  0  0  0
   21.1818   18.6243   21.3545 H   0  0  0  0  0  0  0  0  0  0  0  0
   19.0049   18.5424   21.4097 C   0  0  0  0  0  0  0  0  0  0  0  0
   18.1560   19.1127   21.0082 H   0  0  0  0  0  0  0  0  0  0  0  0
   18.9124   17.5255   21.0039 H   0  0  0  0  0  0  0  0  0  0  0  0
   18.8969   18.4671   22.9524 C   0  0  0  0  0  0  0  0  0  0  0  0
   19.7345   17.8739   23.3425 H   0  0  0  0  0  0  0  0  0  0  0  0
   17.9806   17.9188   23.2108 H   0  0  0  0  0  0  0  0  0  0  0  0
   18.8639   19.8575   23.6359 C   0  0  0  0  0  0  0  0  0  0  0  0
   19.8245   20.3703   23.4956 H   0  0  0  0  0  0  0  0  0  0  0  0
   18.1043   20.4805   23.1439 H   0  0  0  0  0  0  0  0  0  0  0  0
   18.5403   19.7919   25.1486 C   0  0  0  0  0  0  0  0  0  0  0  0
   17.5665   19.3046   25.2966 H   0  0  0  0  0  0  0  0  0  0  0  0
   18.4321   20.8179   25.5271 H   0  0  0  0  0  0  0  0  0  0  0  0
   19.6206   19.0610   25.9797 C   0  0  0  0  0  0  0  0  0  0  0  0
   19.6890   18.0105   25.6701 H   0  0  0  0  0  0  0  0  0  0  0  0
   20.6017   19.5184   25.7948 H   0  0  0  0  0  0  0  0  0  0  0  0
   19.3044   19.1203   27.4844 C   0  0  0  0  0  0  0  0  0  0  0  0
   18.3354   18.6514   27.6758 H   0  0  0  0  0  0  0  0  0  0  0  0
   19.2523   20.1631   27.8089 H   0  0  0  0  0  0  0  0  0  0  0  0
   20.3409   18.4169   28.3365 N   0  3  0  0  0  0  0  0  0  0  0  0
   20.1115   18.4687   29.3352 H   0  0  0  0  0  0  0  0  0  0  0  0
   21.2727   18.8294   28.2223 H   0  0  0  0  0  0  0  0  0  0  0  0
   20.4194   17.4225   28.0992 H   0  0  0  0  0  0  0  0  0  0  0  0
  1  2  1  0  0  0  0
  1  3  1  0  0  0  0
  1  4  1  0  0  0  0
  1  5  1  0  0  0  0
  5  6  1  0  0  0  0
  5  7  1  0  0  0  0
  5  8  1  0  0  0  0
  8  9  1  0  0  0  0
  8 10  1  0  0  0  0
  8 11  1  0  0  0  0
 11 12  1  0  0  0  0
 11 13  1  0  0  0  0
 11 14  1  0  0  0  0
 14 15  1  0  0  0  0
 14 16  1  0  0  0  0
 14 17  1  0  0  0  0
 17 18  1  0  0  0  0
 17 19  1  0  0  0  0
 17 20  1  0  0  0  0
 20 21  1  0  0  0  0
 20 22  1  0  0  0  0
 20 23  1  0  0  0  0
 23 24  1  0  0  0  0
 23 25  1  0  0  0  0
 23 26  1  0  0  0  0
 26 27  1  0  0  0  0
 26 28  1  0  0  0  0
 26 29  1  0  0  0  0
M  END
> <VM2 Rank>
59

> <Conf_Id>
1356

> <Probability>
0.49

> <Sum Probability>
66.93

> <Delta G>
1.412

> <G>
59.558

> <E>
22.144

> <-TS>
37.415

> <U+W>
-2.001

> <U>
49.434

> <W>
-51.435

> <W(PB)>
-53.965

> <W(SA)>
2.530

> <Valence>
3.636

> <Coulomb>
44.866

> <VdW>
0.931

> <VdW6>
-8.275

> <VdW12>
9.207

> <Bond>
0.222

> <Angle>
0.875

> <Pdih>
2.540

> <Idih>
0.000

> <Tether>
0.000

$$$$
VeraChem MOL file


 29 28  0  0  0  0  0  0  0  0999 V2000     
   19.8060   18.9650   19.1164 C   0  0  0  0  0  0  0  0  0  0  0  0
   20.4012   18.0441   19.0623 H   0  0  0  0  0  0  0  0  0  0  0  0
   18.9980   18.8880   18.3773 H   0  0  0  0  0  0  0  0  0  0  0  0
   20.4493   19.8057   18.8257 H   0  0  0  0  0  0  0  0  0  0  0  0
   19.2303   19.1703   20.5336 C   0  0  0  0  0  0  0  0  0  0  0  0
   18.5617   18.3322   20.7700 H   0  0  0  0  0  0  0  0  0  0  0  0
   18.6172   20.0821   20.5488 H   0  0  0  0  0  0  0  0  0  0  0  0
   20.3520   19.2770   21.5938 C   0  0  0  0  0  0  0  0  0  0  0  0
   20.9300   18.3429   21.6179 H   0  0  0  0  0  0  0  0  0  0  0  0
   21.0540   20.0656   21.2894 H   0  0  0  0  0  0  0  0  0  0  0  0
   19.8356   19.6053   23.0165 C   0  0  0  0  0  0  0  0  0  0  0  0
   19.2532   20.5365   22.9901 H   0  0  0  0  0  0  0  0  0  0  0  0
   20.7070   19.8033   23.6536 H   0  0  0  0  0  0  0  0  0  0  0  0
   18.9839   18.4718   23.6429 C   0  0  0  0  0  0  0  0  0  0  0  0
   18.1130   18.2736   23.0053 H   0  0  0  0  0  0  0  0  0  0  0  0
   19.5666   17.5408   23.6692 H   0  0  0  0  0  0  0  0  0  0  0  0
   18.4670   18.8003   25.0654 C   0  0  0  0  0  0  0  0  0  0  0  0
   17.7668   18.0105   25.3711 H   0  0  0  0  0  0  0  0  0  0  0  0
   17.8870   19.7333   25.0406 H   0  0  0  0  0  0  0  0  0  0  0  0
   19.5885   18.9104   26.1251 C   0  0  0  0  0  0  0  0  0  0  0  0
   20.2011   17.9992   26.1113 H   0  0  0  0  0  0  0  0  0  0  0  0
   20.2524   19.7513   25.8890 H   0  0  0  0  0  0  0  0  0  0  0  0
   19.0073   19.1139   27.5352 C   0  0  0  0  0  0  0  0  0  0  0  0
   18.3581   18.2721   27.7909 H   0  0  0  0  0  0  0  0  0  0  0  0
   18.4096   20.0291   27.5585 H   0  0  0  0  0  0  0  0  0  0  0  0
   20.0733   19.2240   28.6060 N   0  3  0  0  0  0  0  0  0  0  0  0
   20.6548   18.3808   28.6540 H   0  0  0  0  0  0  0  0  0  0  0  0
   19.6648   19.3587   29.5375 H   0  0  0  0  0  0  0  0  0  0  0  0
   20.7027   20.0160   28.4384 H   0  0  0  0  0  0  0  0  0  0  0  0
  1  2  1  0  0  0  0
  1  3  1  0  0  0  0
  1  4  1  0  0  0  0
  1  5  1  0  0  0  0
  5  6  1  0  0  0  0
  5  7  1  0  0  0  0
  5  8  1  0  0  0  0
  8  9  1  0  0  0  0
  8 10  1  0  0  0  0
  8 11  1  0  0  0  0
 11 12  1  0  0  0  0
 11 13  1  0  0  0  0
 11 14  1  0  0  0  0
 14 15  1  0  0  0  0
 14 16  1  0  0  0  0
 14 17  1  0  0  0  0
 17 18  1  0  0  0  0
 17 19  1  0  0  0  0
 17 20  1  0  0  0  0
 20 21  1  0  0  0  0
 20 22  1  0  0  0  0
 20 23  1  0  0  0  0
 23 24  1  0  0  0  0
 23 25  1  0  0  0  0
 23 26  1  0  0  0  0
 26 27  1  0  0  0  0
 26 28  1  0  0  0  0
 26 29  1  0  0  0  0
M  END
> <VM2 Rank>
60

> <Conf_Id>
1613

> <Probability>
0.49

> <Sum Probability>
67.42

> <Delta G>
1.413

> <G>
59.559

> <E>
22.241

> <-TS>
37.318

> <U+W>
-1.904

> <U>
49.514

> <W>
-51.418

> <W(PB)>
-53.933

> <W(SA)>
2.515

> <Valence>
3.749

> <Coulomb>
44.750

> <VdW>
1.015

> <VdW6>
-8.174

> <VdW12>
9.190

> <Bond>
0.232

> <Angle>
0.981

> <Pdih>
2.536

> <Idih>
0.000

> <Tether>
0.000

$$$$
VeraChem MOL file


 29 28  0  0  0  0  0  0  0  0999 V2000     
   20.8240   19.5128   20.0218 C   0  0  0  0  0  0  0  0  0  0  0  0
   20.8996   20.4340   20.6127 H   0  0  0  0  0  0  0  0  0  0  0  0
   21.6572   18.8549   20.3012 H   0  0  0  0  0  0  0  0  0  0  0  0
   20.9515   19.7865   18.9665 H   0  0  0  0  0  0  0  0  0  0  0  0
   19.4647   18.8098   20.2376 C   0  0  0  0  0  0  0  0  0  0  0  0
   19.3877   17.9657   19.5382 H   0  0  0  0  0  0  0  0  0  0  0  0
   18.6476   19.4981   19.9800 H   0  0  0  0  0  0  0  0  0  0  0  0
   19.2681   18.2801   21.6785 C   0  0  0  0  0  0  0  0  0  0  0  0
   18.3343   17.7021   21.7130 H   0  0  0  0  0  0  0  0  0  0  0  0
   20.0760   17.5772   21.9242 H   0  0  0  0  0  0  0  0  0  0  0  0
   19.2084   19.4003   22.7444 C   0  0  0  0  0  0  0  0  0  0  0  0
   18.4342   20.1290   22.4673 H   0  0  0  0  0  0  0  0  0  0  0  0
   20.1627   19.9424   22.7706 H   0  0  0  0  0  0  0  0  0  0  0  0
   18.9077   18.8370   24.1516 C   0  0  0  0  0  0  0  0  0  0  0  0
   17.9485   18.3013   24.1349 H   0  0  0  0  0  0  0  0  0  0  0  0
   19.6788   18.1016   24.4170 H   0  0  0  0  0  0  0  0  0  0  0  0
   18.8543   19.9566   25.2184 C   0  0  0  0  0  0  0  0  0  0  0  0
   18.1124   20.7080   24.9146 H   0  0  0  0  0  0  0  0  0  0  0  0
   19.8193   20.4794   25.2570 H   0  0  0  0  0  0  0  0  0  0  0  0
   18.4795   19.4370   26.6290 C   0  0  0  0  0  0  0  0  0  0  0  0
   18.4181   20.2852   27.3237 H   0  0  0  0  0  0  0  0  0  0  0  0
   17.4748   18.9948   26.5965 H   0  0  0  0  0  0  0  0  0  0  0  0
   19.4618   18.3915   27.1948 C   0  0  0  0  0  0  0  0  0  0  0  0
   19.4962   17.5208   26.5350 H   0  0  0  0  0  0  0  0  0  0  0  0
   19.1133   18.0599   28.1766 H   0  0  0  0  0  0  0  0  0  0  0  0
   20.8756   18.9129   27.3588 N   0  3  0  0  0  0  0  0  0  0  0  0
   20.9126   19.7175   27.9932 H   0  0  0  0  0  0  0  0  0  0  0  0
   21.2721   19.2139   26.4630 H   0  0  0  0  0  0  0  0  0  0  0  0
   21.5034   18.1982   27.7428 H   0  0  0  0  0  0  0  0  0  0  0  0
  1  2  1  0  0  0  0
  1  3  1  0  0  0  0
  1  4  1  0  0  0  0
  1  5  1  0  0  0  0
  5  6  1  0  0  0  0
  5  7  1  0  0  0  0
  5  8  1  0  0  0  0
  8  9  1  0  0  0  0
  8 10  1  0  0  0  0
  8 11  1  0  0  0  0
 11 12  1  0  0  0  0
 11 13  1  0  0  0  0
 11 14  1  0  0  0  0
 14 15  1  0  0  0  0
 14 16  1  0  0  0  0
 14 17  1  0  0  0  0
 17 18  1  0  0  0  0
 17 19  1  0  0  0  0
 17 20  1  0  0  0  0
 20 21  1  0  0  0  0
 20 22  1  0  0  0  0
 20 23  1  0  0  0  0
 23 24  1  0  0  0  0
 23 25  1  0  0  0  0
 23 26  1  0  0  0  0
 26 27  1  0  0  0  0
 26 28  1  0  0  0  0
 26 29  1  0  0  0  0
M  END
> <VM2 Rank>
61

> <Conf_Id>
1904

> <Probability>
0.44

> <Sum Probability>
67.86

> <Delta G>
1.480

> <G>
59.626

> <E>
22.045

> <-TS>
37.581

> <U+W>
-2.100

> <U>
49.771

> <W>
-51.866

> <W(PB)>
-54.359

> <W(SA)>
2.493

> <Valence>
3.472

> <Coulomb>
45.376

> <VdW>
0.923

> <VdW6>
-8.870

> <VdW12>
9.793

> <Bond>
0.226

> <Angle>
0.872

> <Pdih>
2.373

> <Idih>
0.000

> <Tether>
0.000

$$$$
VeraChem MOL file


 29 28  0  0  0  0  0  0  0  0999 V2000     
   20.9736   19.3380   20.1645 C   0  0  0  0  0  0  0  0  0  0  0  0
   21.2144   18.3029   20.4369 H   0  0  0  0  0  0  0  0  0  0  0  0
   21.2461   19.4739   19.1100 H   0  0  0  0  0  0  0  0  0  0  0  0
   21.6045   20.0073   20.7636 H   0  0  0  0  0  0  0  0  0  0  0  0
   19.4748   19.6468   20.3801 C   0  0  0  0  0  0  0  0  0  0  0  0
   18.8650   18.9477   19.7909 H   0  0  0  0  0  0  0  0  0  0  0  0
   19.2591   20.6499   19.9864 H   0  0  0  0  0  0  0  0  0  0  0  0
   19.0452   19.5927   21.8659 C   0  0  0  0  0  0  0  0  0  0  0  0
   19.6405   20.3168   22.4374 H   0  0  0  0  0  0  0  0  0  0  0  0
   17.9995   19.9215   21.9395 H   0  0  0  0  0  0  0  0  0  0  0  0
   19.1780   18.1813   22.4916 C   0  0  0  0  0  0  0  0  0  0  0  0
   20.2351   17.8878   22.5379 H   0  0  0  0  0  0  0  0  0  0  0  0
   18.6818   17.4515   21.8372 H   0  0  0  0  0  0  0  0  0  0  0  0
   18.5579   18.0736   23.9062 C   0  0  0  0  0  0  0  0  0  0  0  0
   17.4926   18.3391   23.8619 H   0  0  0  0  0  0  0  0  0  0  0  0
   18.6009   17.0232   24.2259 H   0  0  0  0  0  0  0  0  0  0  0  0
   19.2722   18.9516   24.9615 C   0  0  0  0  0  0  0  0  0  0  0  0
   19.1709   20.0124   24.6967 H   0  0  0  0  0  0  0  0  0  0  0  0
   20.3457   18.7207   24.9571 H   0  0  0  0  0  0  0  0  0  0  0  0
   18.6919   18.7283   26.3780 C   0  0  0  0  0  0  0  0  0  0  0  0
   17.6111   18.9218   26.3625 H   0  0  0  0  0  0  0  0  0  0  0  0
   18.8183   17.6789   26.6760 H   0  0  0  0  0  0  0  0  0  0  0  0
   19.3364   19.6442   27.4362 C   0  0  0  0  0  0  0  0  0  0  0  0
   18.8316   19.5015   28.3956 H   0  0  0  0  0  0  0  0  0  0  0  0
   19.2172   20.6898   27.1400 H   0  0  0  0  0  0  0  0  0  0  0  0
   20.8140   19.3816   27.6509 N   0  3  0  0  0  0  0  0  0  0  0  0
   21.3543   19.5325   26.7933 H   0  0  0  0  0  0  0  0  0  0  0  0
   20.9889   18.4179   27.9542 H   0  0  0  0  0  0  0  0  0  0  0  0
   21.2100   19.9985   28.3686 H   0  0  0  0  0  0  0  0  0  0  0  0
  1  2  1  0  0  0  0
  1  3  1  0  0  0  0
  1  4  1  0  0  0  0
  1  5  1  0  0  0  0
  5  6  1  0  0  0  0
  5  7  1  0  0  0  0
  5  8  1  0  0  0  0
  8  9  1  0  0  0  0
  8 10  1  0  0  0  0
  8 11  1  0  0  0  0
 11 12  1  0  0  0  0
 11 13  1  0  0  0  0
 11 14  1  0  0  0  0
 14 15  1  0  0  0  0
 14 16  1  0  0  0  0
 14 17  1  0  0  0  0
 17 18  1  0  0  0  0
 17 19  1  0  0  0  0
 17 20  1  0  0  0  0
 20 21  1  0  0  0  0
 20 22  1  0  0  0  0
 20 23  1  0  0  0  0
 23 24  1  0  0  0  0
 23 25  1  0  0  0  0
 23 26  1  0  0  0  0
 26 27  1  0  0  0  0
 26 28  1  0  0  0  0
 26 29  1  0  0  0  0
M  END
> <VM2 Rank>
62

> <Conf_Id>
2326

> <Probability>
0.43

> <Sum Probability>
68.30

> <Delta G>
1.492

> <G>
59.638

> <E>
22.110

> <-TS>
37.528

> <U+W>
-2.034

> <U>
49.822

> <W>
-51.856

> <W(PB)>
-54.363

> <W(SA)>
2.507

> <Valence>
3.699

> <Coulomb>
45.079

> <VdW>
1.045

> <VdW6>
-8.779

> <VdW12>
9.824

> <Bond>
0.239

> <Angle>
0.889

> <Pdih>
2.571

> <Idih>
0.000

> <Tether>
0.000

$$$$
VeraChem MOL file


 29 28  0  0  0  0  0  0  0  0999 V2000     
   20.2912   18.0158   19.9886 C   0  0  0  0  0  0  0  0  0  0  0  0
   21.3486   17.9878   20.2821 H   0  0  0  0  0  0  0  0  0  0  0  0
   19.7595   17.2315   20.5414 H   0  0  0  0  0  0  0  0  0  0  0  0
   20.2320   17.7651   18.9215 H   0  0  0  0  0  0  0  0  0  0  0  0
   19.6785   19.4102   20.2510 C   0  0  0  0  0  0  0  0  0  0  0  0
   18.6140   19.4036   19.9779 H   0  0  0  0  0  0  0  0  0  0  0  0
   20.1620   20.1400   19.5867 H   0  0  0  0  0  0  0  0  0  0  0  0
   19.8404   19.8876   21.7143 C   0  0  0  0  0  0  0  0  0  0  0  0
   20.9071   19.9118   21.9763 H   0  0  0  0  0  0  0  0  0  0  0  0
   19.4811   20.9236   21.7848 H   0  0  0  0  0  0  0  0  0  0  0  0
   19.0714   19.0158   22.7358 C   0  0  0  0  0  0  0  0  0  0  0  0
   19.4683   17.9923   22.7271 H   0  0  0  0  0  0  0  0  0  0  0  0
   18.0150   18.9518   22.4410 H   0  0  0  0  0  0  0  0  0  0  0  0
   19.1744   19.5863   24.1683 C   0  0  0  0  0  0  0  0  0  0  0  0
   20.2329   19.6580   24.4517 H   0  0  0  0  0  0  0  0  0  0  0  0
   18.7696   20.6076   24.1863 H   0  0  0  0  0  0  0  0  0  0  0  0
   18.4107   18.7110   25.1906 C   0  0  0  0  0  0  0  0  0  0  0  0
   18.8277   17.6950   25.1948 H   0  0  0  0  0  0  0  0  0  0  0  0
   17.3652   18.6101   24.8678 H   0  0  0  0  0  0  0  0  0  0  0  0
   18.4287   19.2942   26.6258 C   0  0  0  0  0  0  0  0  0  0  0  0
   17.9300   20.2725   26.6250 H   0  0  0  0  0  0  0  0  0  0  0  0
   17.8354   18.6488   27.2872 H   0  0  0  0  0  0  0  0  0  0  0  0
   19.8426   19.4603   27.2186 C   0  0  0  0  0  0  0  0  0  0  0  0
   19.7682   19.8984   28.2176 H   0  0  0  0  0  0  0  0  0  0  0  0
   20.4287   20.1386   26.5934 H   0  0  0  0  0  0  0  0  0  0  0  0
   20.6063   18.1569   27.3420 N   0  3  0  0  0  0  0  0  0  0  0  0
   20.1176   17.4856   27.9434 H   0  0  0  0  0  0  0  0  0  0  0  0
   21.5391   18.2981   27.7451 H   0  0  0  0  0  0  0  0  0  0  0  0
   20.7361   17.7087   26.4295 H   0  0  0  0  0  0  0  0  0  0  0  0
  1  2  1  0  0  0  0
  1  3  1  0  0  0  0
  1  4  1  0  0  0  0
  1  5  1  0  0  0  0
  5  6  1  0  0  0  0
  5  7  1  0  0  0  0
  5  8  1  0  0  0  0
  8  9  1  0  0  0  0
  8 10  1  0  0  0  0
  8 11  1  0  0  0  0
 11 12  1  0  0  0  0
 11 13  1  0  0  0  0
 11 14  1  0  0  0  0
 14 15  1  0  0  0  0
 14 16  1  0  0  0  0
 14 17  1  0  0  0  0
 17 18  1  0  0  0  0
 17 19  1  0  0  0  0
 17 20  1  0  0  0  0
 20 21  1  0  0  0  0
 20 22  1  0  0  0  0
 20 23  1  0  0  0  0
 23 24  1  0  0  0  0
 23 25  1  0  0  0  0
 23 26  1  0  0  0  0
 26 27  1  0  0  0  0
 26 28  1  0  0  0  0
 26 29  1  0  0  0  0
M  END
> <VM2 Rank>
63

> <Conf_Id>
1016

> <Probability>
0.43

> <Sum Probability>
68.73

> <Delta G>
1.495

> <G>
59.641

> <E>
22.060

> <-TS>
37.581

> <U+W>
-2.084

> <U>
49.771

> <W>
-51.855

> <W(PB)>
-54.329

> <W(SA)>
2.474

> <Valence>
3.472

> <Coulomb>
45.376

> <VdW>
0.923

> <VdW6>
-8.870

> <VdW12>
9.793

> <Bond>
0.226

> <Angle>
0.872

> <Pdih>
2.373

> <Idih>
0.000

> <Tether>
0.000

$$$$
VeraChem MOL file


 29 28  0  0  0  0  0  0  0  0999 V2000     
   19.8645   18.2674   19.4442 C   0  0  0  0  0  0  0  0  0  0  0  0
   20.4975   17.3957   19.6555 H   0  0  0  0  0  0  0  0  0  0  0  0
   19.1813   17.9982   18.6282 H   0  0  0  0  0  0  0  0  0  0  0  0
   20.5104   19.0809   19.0886 H   0  0  0  0  0  0  0  0  0  0  0  0
   19.0735   18.6954   20.6984 C   0  0  0  0  0  0  0  0  0  0  0  0
   18.4125   17.8746   21.0101 H   0  0  0  0  0  0  0  0  0  0  0  0
   18.4254   19.5469   20.4477 H   0  0  0  0  0  0  0  0  0  0  0  0
   20.0124   19.0800   21.8630 C   0  0  0  0  0  0  0  0  0  0  0  0
   20.6595   18.2267   22.1089 H   0  0  0  0  0  0  0  0  0  0  0  0
   20.6729   19.8988   21.5455 H   0  0  0  0  0  0  0  0  0  0  0  0
   19.2238   19.5093   23.1206 C   0  0  0  0  0  0  0  0  0  0  0  0
   18.5620   18.6883   23.4262 H   0  0  0  0  0  0  0  0  0  0  0  0
   18.5801   20.3653   22.8756 H   0  0  0  0  0  0  0  0  0  0  0  0
   20.1668   19.8891   24.2872 C   0  0  0  0  0  0  0  0  0  0  0  0
   20.7835   19.0228   24.5613 H   0  0  0  0  0  0  0  0  0  0  0  0
   20.8670   20.6628   23.9432 H   0  0  0  0  0  0  0  0  0  0  0  0
   19.4206   20.4265   25.5356 C   0  0  0  0  0  0  0  0  0  0  0  0
   18.8864   21.3477   25.2649 H   0  0  0  0  0  0  0  0  0  0  0  0
   20.1613   20.7239   26.2901 H   0  0  0  0  0  0  0  0  0  0  0  0
   18.4131   19.4334   26.1720 C   0  0  0  0  0  0  0  0  0  0  0  0
   17.9778   19.8882   27.0716 H   0  0  0  0  0  0  0  0  0  0  0  0
   17.5737   19.2674   25.4847 H   0  0  0  0  0  0  0  0  0  0  0  0
   19.0288   18.0698   26.5441 C   0  0  0  0  0  0  0  0  0  0  0  0
   19.4343   17.5916   25.6487 H   0  0  0  0  0  0  0  0  0  0  0  0
   18.2518   17.4196   26.9552 H   0  0  0  0  0  0  0  0  0  0  0  0
   20.1403   18.1671   27.5700 N   0  3  0  0  0  0  0  0  0  0  0  0
   19.8113   18.5815   28.4481 H   0  0  0  0  0  0  0  0  0  0  0  0
   20.9144   18.7474   27.2321 H   0  0  0  0  0  0  0  0  0  0  0  0
   20.5297   17.2461   27.7993 H   0  0  0  0  0  0  0  0  0  0  0  0
  1  2  1  0  0  0  0
  1  3  1  0  0  0  0
  1  4  1  0  0  0  0
  1  5  1  0  0  0  0
  5  6  1  0  0  0  0
  5  7  1  0  0  0  0
  5  8  1  0  0  0  0
  8  9  1  0  0  0  0
  8 10  1  0  0  0  0
  8 11  1  0  0  0  0
 11 12  1  0  0  0  0
 11 13  1  0  0  0  0
 11 14  1  0  0  0  0
 14 15  1  0  0  0  0
 14 16  1  0  0  0  0
 14 17  1  0  0  0  0
 17 18  1  0  0  0  0
 17 19  1  0  0  0  0
 17 20  1  0  0  0  0
 20 21  1  0  0  0  0
 20 22  1  0  0  0  0
 20 23  1  0  0  0  0
 23 24  1  0  0  0  0
 23 25  1  0  0  0  0
 23 26  1  0  0  0  0
 26 27  1  0  0  0  0
 26 28  1  0  0  0  0
 26 29  1  0  0  0  0
M  END
> <VM2 Rank>
64

> <Conf_Id>
2736

> <Probability>
0.42

> <Sum Probability>
69.14

> <Delta G>
1.511

> <G>
59.657

> <E>
21.923

> <-TS>
37.735

> <U+W>
-2.222

> <U>
49.648

> <W>
-51.869

> <W(PB)>
-54.357

> <W(SA)>
2.488

> <Valence>
3.442

> <Coulomb>
45.477

> <VdW>
0.729

> <VdW6>
-9.235

> <VdW12>
9.964

> <Bond>
0.237

> <Angle>
0.960

> <Pdih>
2.245

> <Idih>
0.000

> <Tether>
0.000

$$$$
VeraChem MOL file


 29 28  0  0  0  0  0  0  0  0999 V2000     
   19.6280   19.7059   19.6399 C   0  0  0  0  0  0  0  0  0  0  0  0
   20.7151   19.5814   19.5520 H   0  0  0  0  0  0  0  0  0  0  0  0
   19.2196   19.8162   18.6270 H   0  0  0  0  0  0  0  0  0  0  0  0
   19.4310   20.6412   20.1783 H   0  0  0  0  0  0  0  0  0  0  0  0
   18.9859   18.4943   20.3528 C   0  0  0  0  0  0  0  0  0  0  0  0
   19.1047   17.6058   19.7170 H   0  0  0  0  0  0  0  0  0  0  0  0
   17.9039   18.6566   20.4554 H   0  0  0  0  0  0  0  0  0  0  0  0
   19.6046   18.1982   21.7402 C   0  0  0  0  0  0  0  0  0  0  0  0
   19.1714   17.2636   22.1226 H   0  0  0  0  0  0  0  0  0  0  0  0
   20.6826   18.0168   21.6299 H   0  0  0  0  0  0  0  0  0  0  0  0
   19.3680   19.3251   22.7740 C   0  0  0  0  0  0  0  0  0  0  0  0
   18.2926   19.5392   22.8434 H   0  0  0  0  0  0  0  0  0  0  0  0
   19.8568   20.2488   22.4378 H   0  0  0  0  0  0  0  0  0  0  0  0
   19.9098   18.9449   24.1704 C   0  0  0  0  0  0  0  0  0  0  0  0
   19.4224   18.0202   24.5068 H   0  0  0  0  0  0  0  0  0  0  0  0
   20.9852   18.7308   24.0997 H   0  0  0  0  0  0  0  0  0  0  0  0
   19.6748   20.0726   25.2035 C   0  0  0  0  0  0  0  0  0  0  0  0
   18.5992   20.2742   25.2953 H   0  0  0  0  0  0  0  0  0  0  0  0
   20.1284   21.0018   24.8316 H   0  0  0  0  0  0  0  0  0  0  0  0
   20.2729   19.7567   26.5973 C   0  0  0  0  0  0  0  0  0  0  0  0
   21.3614   19.6437   26.5068 H   0  0  0  0  0  0  0  0  0  0  0  0
   20.1085   20.6126   27.2652 H   0  0  0  0  0  0  0  0  0  0  0  0
   19.6969   18.4861   27.2547 C   0  0  0  0  0  0  0  0  0  0  0  0
   20.1869   18.3218   28.2182 H   0  0  0  0  0  0  0  0  0  0  0  0
   19.8960   17.6185   26.6205 H   0  0  0  0  0  0  0  0  0  0  0  0
   18.2031   18.5543   27.5022 N   0  3  0  0  0  0  0  0  0  0  0  0
   17.6820   18.6785   26.6285 H   0  0  0  0  0  0  0  0  0  0  0  0
   17.9552   19.3360   28.1177 H   0  0  0  0  0  0  0  0  0  0  0  0
   17.8506   17.6990   27.9458 H   0  0  0  0  0  0  0  0  0  0  0  0
  1  2  1  0  0  0  0
  1  3  1  0  0  0  0
  1  4  1  0  0  0  0
  1  5  1  0  0  0  0
  5  6  1  0  0  0  0
  5  7  1  0  0  0  0
  5  8  1  0  0  0  0
  8  9  1  0  0  0  0
  8 10  1  0  0  0  0
  8 11  1  0  0  0  0
 11 12  1  0  0  0  0
 11 13  1  0  0  0  0
 11 14  1  0  0  0  0
 14 15  1  0  0  0  0
 14 16  1  0  0  0  0
 14 17  1  0  0  0  0
 17 18  1  0  0  0  0
 17 19  1  0  0  0  0
 17 20  1  0  0  0  0
 20 21  1  0  0  0  0
 20 22  1  0  0  0  0
 20 23  1  0  0  0  0
 23 24  1  0  0  0  0
 23 25  1  0  0  0  0
 23 26  1  0  0  0  0
 26 27  1  0  0  0  0
 26 28  1  0  0  0  0
 26 29  1  0  0  0  0
M  END
> <VM2 Rank>
65

> <Conf_Id>
925

> <Probability>
0.41

> <Sum Probability>
69.56

> <Delta G>
1.520

> <G>
59.666

> <E>
22.084

> <-TS>
37.582

> <U+W>
-2.061

> <U>
49.716

> <W>
-51.777

> <W(PB)>
-54.285

> <W(SA)>
2.508

> <Valence>
3.471

> <Coulomb>
45.316

> <VdW>
0.929

> <VdW6>
-8.866

> <VdW12>
9.796

> <Bond>
0.226

> <Angle>
0.872

> <Pdih>
2.372

> <Idih>
0.000

> <Tether>
0.000

$$$$
VeraChem MOL file


 29 28  0  0  0  0  0  0  0  0999 V2000     
   19.8603   19.1190   19.1198 C   0  0  0  0  0  0  0  0  0  0  0  0
   19.2921   19.7175   18.3958 H   0  0  0  0  0  0  0  0  0  0  0  0
   20.9037   19.4593   19.0936 H   0  0  0  0  0  0  0  0  0  0  0  0
   19.8331   18.0731   18.7871 H   0  0  0  0  0  0  0  0  0  0  0  0
   19.2645   19.2670   20.5358 C   0  0  0  0  0  0  0  0  0  0  0  0
   18.2134   18.9465   20.5238 H   0  0  0  0  0  0  0  0  0  0  0  0
   19.2710   20.3289   20.8145 H   0  0  0  0  0  0  0  0  0  0  0  0
   20.0526   18.4350   21.5750 C   0  0  0  0  0  0  0  0  0  0  0  0
   20.1040   17.3930   21.2299 H   0  0  0  0  0  0  0  0  0  0  0  0
   21.0900   18.7932   21.6276 H   0  0  0  0  0  0  0  0  0  0  0  0
   19.4253   18.4502   22.9909 C   0  0  0  0  0  0  0  0  0  0  0  0
   19.9674   17.7217   23.6072 H   0  0  0  0  0  0  0  0  0  0  0  0
   18.3863   18.0973   22.9361 H   0  0  0  0  0  0  0  0  0  0  0  0
   19.4714   19.8410   23.6736 C   0  0  0  0  0  0  0  0  0  0  0  0
   20.5106   20.1934   23.7285 H   0  0  0  0  0  0  0  0  0  0  0  0
   18.9302   20.5695   23.0565 H   0  0  0  0  0  0  0  0  0  0  0  0
   18.8430   19.8566   25.0890 C   0  0  0  0  0  0  0  0  0  0  0  0
   17.8045   19.5015   25.0352 H   0  0  0  0  0  0  0  0  0  0  0  0
   18.7946   20.8983   25.4356 H   0  0  0  0  0  0  0  0  0  0  0  0
   19.6278   19.0210   26.1275 C   0  0  0  0  0  0  0  0  0  0  0  0
   19.6147   17.9600   25.8489 H   0  0  0  0  0  0  0  0  0  0  0  0
   20.6785   19.3403   26.1414 H   0  0  0  0  0  0  0  0  0  0  0  0
   19.0288   19.1747   27.5365 C   0  0  0  0  0  0  0  0  0  0  0  0
   17.9870   18.8427   27.5318 H   0  0  0  0  0  0  0  0  0  0  0  0
   19.0537   20.2263   27.8346 H   0  0  0  0  0  0  0  0  0  0  0  0
   19.7703   18.3735   28.5870 N   0  3  0  0  0  0  0  0  0  0  0  0
   19.7601   17.3694   28.3792 H   0  0  0  0  0  0  0  0  0  0  0  0
   19.3554   18.4903   29.5181 H   0  0  0  0  0  0  0  0  0  0  0  0
   20.7530   18.6570   28.6602 H   0  0  0  0  0  0  0  0  0  0  0  0
  1  2  1  0  0  0  0
  1  3  1  0  0  0  0
  1  4  1  0  0  0  0
  1  5  1  0  0  0  0
  5  6  1  0  0  0  0
  5  7  1  0  0  0  0
  5  8  1  0  0  0  0
  8  9  1  0  0  0  0
  8 10  1  0  0  0  0
  8 11  1  0  0  0  0
 11 12  1  0  0  0  0
 11 13  1  0  0  0  0
 11 14  1  0  0  0  0
 14 15  1  0  0  0  0
 14 16  1  0  0  0  0
 14 17  1  0  0  0  0
 17 18  1  0  0  0  0
 17 19  1  0  0  0  0
 17 20  1  0  0  0  0
 20 21  1  0  0  0  0
 20 22  1  0  0  0  0
 20 23  1  0  0  0  0
 23 24  1  0  0  0  0
 23 25  1  0  0  0  0
 23 26  1  0  0  0  0
 26 27  1  0  0  0  0
 26 28  1  0  0  0  0
 26 29  1  0  0  0  0
M  END
> <VM2 Rank>
66

> <Conf_Id>
1887

> <Probability>
0.41

> <Sum Probability>
69.97

> <Delta G>
1.522

> <G>
59.668

> <E>
22.350

> <-TS>
37.318

> <U+W>
-1.795

> <U>
49.514

> <W>
-51.309

> <W(PB)>
-53.856

> <W(SA)>
2.548

> <Valence>
3.749

> <Coulomb>
44.750

> <VdW>
1.016

> <VdW6>
-8.174

> <VdW12>
9.190

> <Bond>
0.232

> <Angle>
0.980

> <Pdih>
2.536

> <Idih>
0.000

> <Tether>
0.000

$$$$
VeraChem MOL file


 29 28  0  0  0  0  0  0  0  0999 V2000     
   20.5921   18.2188   19.8469 C   0  0  0  0  0  0  0  0  0  0  0  0
   21.2808   19.0586   19.6863 H   0  0  0  0  0  0  0  0  0  0  0  0
   21.1605   17.2880   19.7226 H   0  0  0  0  0  0  0  0  0  0  0  0
   19.8241   18.2517   19.0631 H   0  0  0  0  0  0  0  0  0  0  0  0
   19.9555   18.2851   21.2513 C   0  0  0  0  0  0  0  0  0  0  0  0
   20.7496   18.2083   22.0057 H   0  0  0  0  0  0  0  0  0  0  0  0
   19.2953   17.4181   21.3932 H   0  0  0  0  0  0  0  0  0  0  0  0
   19.1522   19.5919   21.4515 C   0  0  0  0  0  0  0  0  0  0  0  0
   19.8240   20.4569   21.3639 H   0  0  0  0  0  0  0  0  0  0  0  0
   18.4190   19.6877   20.6387 H   0  0  0  0  0  0  0  0  0  0  0  0
   18.3973   19.6556   22.8020 C   0  0  0  0  0  0  0  0  0  0  0  0
   17.7153   18.7980   22.8826 H   0  0  0  0  0  0  0  0  0  0  0  0
   17.7646   20.5540   22.8036 H   0  0  0  0  0  0  0  0  0  0  0  0
   19.3338   19.6965   24.0333 C   0  0  0  0  0  0  0  0  0  0  0  0
   19.9219   18.7716   24.0792 H   0  0  0  0  0  0  0  0  0  0  0  0
   20.0470   20.5250   23.9238 H   0  0  0  0  0  0  0  0  0  0  0  0
   18.5394   19.8707   25.3498 C   0  0  0  0  0  0  0  0  0  0  0  0
   17.8384   19.0345   25.4739 H   0  0  0  0  0  0  0  0  0  0  0  0
   17.9230   20.7777   25.2815 H   0  0  0  0  0  0  0  0  0  0  0  0
   19.4480   19.9872   26.5994 C   0  0  0  0  0  0  0  0  0  0  0  0
   20.0842   20.8769   26.5024 H   0  0  0  0  0  0  0  0  0  0  0  0
   18.8238   20.1527   27.4875 H   0  0  0  0  0  0  0  0  0  0  0  0
   20.3490   18.7586   26.8383 C   0  0  0  0  0  0  0  0  0  0  0  0
   20.9715   18.9310   27.7204 H   0  0  0  0  0  0  0  0  0  0  0  0
   21.0098   18.6116   25.9802 H   0  0  0  0  0  0  0  0  0  0  0  0
   19.5768   17.4736   27.0624 N   0  3  0  0  0  0  0  0  0  0  0  0
   18.9922   17.2397   26.2539 H   0  0  0  0  0  0  0  0  0  0  0  0
   18.9571   17.5400   27.8765 H   0  0  0  0  0  0  0  0  0  0  0  0
   20.2019   16.6765   27.2248 H   0  0  0  0  0  0  0  0  0  0  0  0
  1  2  1  0  0  0  0
  1  3  1  0  0  0  0
  1  4  1  0  0  0  0
  1  5  1  0  0  0  0
  5  6  1  0  0  0  0
  5  7  1  0  0  0  0
  5  8  1  0  0  0  0
  8  9  1  0  0  0  0
  8 10  1  0  0  0  0
  8 11  1  0  0  0  0
 11 12  1  0  0  0  0
 11 13  1  0  0  0  0
 11 14  1  0  0  0  0
 14 15  1  0  0  0  0
 14 16  1  0  0  0  0
 14 17  1  0  0  0  0
 17 18  1  0  0  0  0
 17 19  1  0  0  0  0
 17 20  1  0  0  0  0
 20 21  1  0  0  0  0
 20 22  1  0  0  0  0
 20 23  1  0  0  0  0
 23 24  1  0  0  0  0
 23 25  1  0  0  0  0
 23 26  1  0  0  0  0
 26 27  1  0  0  0  0
 26 28  1  0  0  0  0
 26 29  1  0  0  0  0
M  END
> <VM2 Rank>
67

> <Conf_Id>
1029

> <Probability>
0.40

> <Sum Probability>
70.37

> <Delta G>
1.539

> <G>
59.685

> <E>
22.114

> <-TS>
37.571

> <U+W>
-2.031

> <U>
50.141

> <W>
-52.171

> <W(PB)>
-54.647

> <W(SA)>
2.476

> <Valence>
3.507

> <Coulomb>
45.742

> <VdW>
0.892

> <VdW6>
-8.957

> <VdW12>
9.849

> <Bond>
0.232

> <Angle>
0.893

> <Pdih>
2.381

> <Idih>
0.000

> <Tether>
0.000

$$$$
VeraChem MOL file


 29 28  0  0  0  0  0  0  0  0999 V2000     
   20.3422   19.6092   19.4741 C   0  0  0  0  0  0  0  0  0  0  0  0
   20.3345   18.5855   19.0776 H   0  0  0  0  0  0  0  0  0  0  0  0
   19.9940   20.2813   18.6791 H   0  0  0  0  0  0  0  0  0  0  0  0
   21.3804   19.8764   19.7109 H   0  0  0  0  0  0  0  0  0  0  0  0
   19.4409   19.7276   20.7213 C   0  0  0  0  0  0  0  0  0  0  0  0
   18.4043   19.4873   20.4462 H   0  0  0  0  0  0  0  0  0  0  0  0
   19.4422   20.7683   21.0745 H   0  0  0  0  0  0  0  0  0  0  0  0
   19.9096   18.7909   21.8565 C   0  0  0  0  0  0  0  0  0  0  0  0
   19.9090   17.7523   21.4977 H   0  0  0  0  0  0  0  0  0  0  0  0
   20.9466   19.0334   22.1269 H   0  0  0  0  0  0  0  0  0  0  0  0
   19.0093   18.9067   23.1071 C   0  0  0  0  0  0  0  0  0  0  0  0
   17.9732   18.6601   22.8374 H   0  0  0  0  0  0  0  0  0  0  0  0
   19.0104   19.9483   23.4543 H   0  0  0  0  0  0  0  0  0  0  0  0
   19.4839   17.9709   24.2443 C   0  0  0  0  0  0  0  0  0  0  0  0
   19.5430   16.9432   23.8602 H   0  0  0  0  0  0  0  0  0  0  0  0
   20.5053   18.2413   24.5438 H   0  0  0  0  0  0  0  0  0  0  0  0
   18.5485   17.9766   25.4808 C   0  0  0  0  0  0  0  0  0  0  0  0
   18.9241   17.2486   26.2124 H   0  0  0  0  0  0  0  0  0  0  0  0
   17.5564   17.6116   25.1814 H   0  0  0  0  0  0  0  0  0  0  0  0
   18.3858   19.3567   26.1703 C   0  0  0  0  0  0  0  0  0  0  0  0
   17.8498   20.0426   25.5020 H   0  0  0  0  0  0  0  0  0  0  0  0
   17.7483   19.2439   27.0571 H   0  0  0  0  0  0  0  0  0  0  0  0
   19.7191   20.0088   26.5875 C   0  0  0  0  0  0  0  0  0  0  0  0
   19.5217   20.9867   27.0350 H   0  0  0  0  0  0  0  0  0  0  0  0
   20.3482   20.1584   25.7062 H   0  0  0  0  0  0  0  0  0  0  0  0
   20.5047   19.1906   27.5929 N   0  3  0  0  0  0  0  0  0  0  0  0
   19.9755   19.0427   28.4585 H   0  0  0  0  0  0  0  0  0  0  0  0
   21.3849   19.6486   27.8532 H   0  0  0  0  0  0  0  0  0  0  0  0
   20.7429   18.2658   27.2214 H   0  0  0  0  0  0  0  0  0  0  0  0
  1  2  1  0  0  0  0
  1  3  1  0  0  0  0
  1  4  1  0  0  0  0
  1  5  1  0  0  0  0
  5  6  1  0  0  0  0
  5  7  1  0  0  0  0
  5  8  1  0  0  0  0
  8  9  1  0  0  0  0
  8 10  1  0  0  0  0
  8 11  1  0  0  0  0
 11 12  1  0  0  0  0
 11 13  1  0  0  0  0
 11 14  1  0  0  0  0
 14 15  1  0  0  0  0
 14 16  1  0  0  0  0
 14 17  1  0  0  0  0
 17 18  1  0  0  0  0
 17 19  1  0  0  0  0
 17 20  1  0  0  0  0
 20 21  1  0  0  0  0
 20 22  1  0  0  0  0
 20 23  1  0  0  0  0
 23 24  1  0  0  0  0
 23 25  1  0  0  0  0
 23 26  1  0  0  0  0
 26 27  1  0  0  0  0
 26 28  1  0  0  0  0
 26 29  1  0  0  0  0
M  END
> <VM2 Rank>
68

> <Conf_Id>
316

> <Probability>
0.40

> <Sum Probability>
70.77

> <Delta G>
1.539

> <G>
59.685

> <E>
21.951

> <-TS>
37.735

> <U+W>
-2.194

> <U>
49.648

> <W>
-51.841

> <W(PB)>
-54.341

> <W(SA)>
2.499

> <Valence>
3.442

> <Coulomb>
45.477

> <VdW>
0.729

> <VdW6>
-9.235

> <VdW12>
9.964

> <Bond>
0.237

> <Angle>
0.960

> <Pdih>
2.245

> <Idih>
0.000

> <Tether>
0.000

$$$$
VeraChem MOL file


 29 28  0  0  0  0  0  0  0  0999 V2000     
   19.2477   18.6369   19.6160 C   0  0  0  0  0  0  0  0  0  0  0  0
   20.1705   18.0506   19.5177 H   0  0  0  0  0  0  0  0  0  0  0  0
   18.4970   18.0155   20.1198 H   0  0  0  0  0  0  0  0  0  0  0  0
   18.8756   18.8494   18.6054 H   0  0  0  0  0  0  0  0  0  0  0  0
   19.5046   19.9525   20.3853 C   0  0  0  0  0  0  0  0  0  0  0  0
   18.5616   20.5057   20.4966 H   0  0  0  0  0  0  0  0  0  0  0  0
   20.1666   20.5909   19.7836 H   0  0  0  0  0  0  0  0  0  0  0  0
   20.1518   19.7364   21.7745 C   0  0  0  0  0  0  0  0  0  0  0  0
   21.1038   19.2008   21.6564 H   0  0  0  0  0  0  0  0  0  0  0  0
   20.4002   20.7186   22.1998 H   0  0  0  0  0  0  0  0  0  0  0  0
   19.2424   18.9718   22.7661 C   0  0  0  0  0  0  0  0  0  0  0  0
   19.0432   17.9610   22.3867 H   0  0  0  0  0  0  0  0  0  0  0  0
   18.2723   19.4819   22.8420 H   0  0  0  0  0  0  0  0  0  0  0  0
   19.8828   18.8691   24.1687 C   0  0  0  0  0  0  0  0  0  0  0  0
   20.8529   18.3589   24.0915 H   0  0  0  0  0  0  0  0  0  0  0  0
   20.0836   19.8797   24.5483 H   0  0  0  0  0  0  0  0  0  0  0  0
   18.9741   18.1029   25.1596 C   0  0  0  0  0  0  0  0  0  0  0  0
   18.7447   17.1116   24.7448 H   0  0  0  0  0  0  0  0  0  0  0  0
   18.0115   18.6221   25.2584 H   0  0  0  0  0  0  0  0  0  0  0  0
   19.6178   17.9149   26.5562 C   0  0  0  0  0  0  0  0  0  0  0  0
   18.9406   17.3292   27.1920 H   0  0  0  0  0  0  0  0  0  0  0  0
   20.5344   17.3189   26.4549 H   0  0  0  0  0  0  0  0  0  0  0  0
   19.9639   19.2366   27.2714 C   0  0  0  0  0  0  0  0  0  0  0  0
   20.6749   19.8081   26.6693 H   0  0  0  0  0  0  0  0  0  0  0  0
   20.4340   19.0165   28.2337 H   0  0  0  0  0  0  0  0  0  0  0  0
   18.7589   20.1169   27.5371 N   0  3  0  0  0  0  0  0  0  0  0  0
   19.0192   20.9844   28.0191 H   0  0  0  0  0  0  0  0  0  0  0  0
   18.0647   19.6436   28.1246 H   0  0  0  0  0  0  0  0  0  0  0  0
   18.2887   20.3842   26.6667 H   0  0  0  0  0  0  0  0  0  0  0  0
  1  2  1  0  0  0  0
  1  3  1  0  0  0  0
  1  4  1  0  0  0  0
  1  5  1  0  0  0  0
  5  6  1  0  0  0  0
  5  7  1  0  0  0  0
  5  8  1  0  0  0  0
  8  9  1  0  0  0  0
  8 10  1  0  0  0  0
  8 11  1  0  0  0  0
 11 12  1  0  0  0  0
 11 13  1  0  0  0  0
 11 14  1  0  0  0  0
 14 15  1  0  0  0  0
 14 16  1  0  0  0  0
 14 17  1  0  0  0  0
 17 18  1  0  0  0  0
 17 19  1  0  0  0  0
 17 20  1  0  0  0  0
 20 21  1  0  0  0  0
 20 22  1  0  0  0  0
 20 23  1  0  0  0  0
 23 24  1  0  0  0  0
 23 25  1  0  0  0  0
 23 26  1  0  0  0  0
 26 27  1  0  0  0  0
 26 28  1  0  0  0  0
 26 29  1  0  0  0  0
M  END
> <VM2 Rank>
69

> <Conf_Id>
1883

> <Probability>
0.40

> <Sum Probability>
71.16

> <Delta G>
1.542

> <G>
59.688

> <E>
22.106

> <-TS>
37.582

> <U+W>
-2.039

> <U>
49.716

> <W>
-51.755

> <W(PB)>
-54.234

> <W(SA)>
2.480

> <Valence>
3.471

> <Coulomb>
45.316

> <VdW>
0.929

> <VdW6>
-8.866

> <VdW12>
9.795

> <Bond>
0.226

> <Angle>
0.872

> <Pdih>
2.372

> <Idih>
0.000

> <Tether>
0.000

$$$$
VeraChem MOL file


 29 28  0  0  0  0  0  0  0  0999 V2000     
   20.2449   18.2442   19.6236 C   0  0  0  0  0  0  0  0  0  0  0  0
   21.2899   17.9980   19.8530 H   0  0  0  0  0  0  0  0  0  0  0  0
   19.8015   17.3836   19.1061 H   0  0  0  0  0  0  0  0  0  0  0  0
   20.2384   19.0946   18.9293 H   0  0  0  0  0  0  0  0  0  0  0  0
   19.4574   18.5715   20.9099 C   0  0  0  0  0  0  0  0  0  0  0  0
   19.4520   17.6859   21.5589 H   0  0  0  0  0  0  0  0  0  0  0  0
   18.4107   18.7847   20.6519 H   0  0  0  0  0  0  0  0  0  0  0  0
   20.0672   19.7797   21.6593 C   0  0  0  0  0  0  0  0  0  0  0  0
   21.0965   19.5454   21.9639 H   0  0  0  0  0  0  0  0  0  0  0  0
   20.1366   20.6304   20.9675 H   0  0  0  0  0  0  0  0  0  0  0  0
   19.2470   20.2199   22.8967 C   0  0  0  0  0  0  0  0  0  0  0  0
   18.2228   20.4708   22.5882 H   0  0  0  0  0  0  0  0  0  0  0  0
   19.6857   21.1463   23.2924 H   0  0  0  0  0  0  0  0  0  0  0  0
   19.2089   19.1594   24.0230 C   0  0  0  0  0  0  0  0  0  0  0  0
   18.6992   18.2543   23.6678 H   0  0  0  0  0  0  0  0  0  0  0  0
   20.2364   18.8690   24.2793 H   0  0  0  0  0  0  0  0  0  0  0  0
   18.4793   19.6884   25.2810 C   0  0  0  0  0  0  0  0  0  0  0  0
   17.4714   20.0224   24.9983 H   0  0  0  0  0  0  0  0  0  0  0  0
   18.9980   20.5766   25.6659 H   0  0  0  0  0  0  0  0  0  0  0  0
   18.3501   18.6268   26.4020 C   0  0  0  0  0  0  0  0  0  0  0  0
   17.7892   19.0544   27.2437 H   0  0  0  0  0  0  0  0  0  0  0  0
   17.7527   17.7824   26.0335 H   0  0  0  0  0  0  0  0  0  0  0  0
   19.7008   18.0896   26.9167 C   0  0  0  0  0  0  0  0  0  0  0  0
   20.2489   17.6192   26.0963 H   0  0  0  0  0  0  0  0  0  0  0  0
   19.5215   17.3314   27.6839 H   0  0  0  0  0  0  0  0  0  0  0  0
   20.5882   19.1585   27.5228 N   0  3  0  0  0  0  0  0  0  0  0  0
   21.4754   18.7706   27.8617 H   0  0  0  0  0  0  0  0  0  0  0  0
   20.1376   19.6192   28.3202 H   0  0  0  0  0  0  0  0  0  0  0  0
   20.8182   19.8881   26.8408 H   0  0  0  0  0  0  0  0  0  0  0  0
  1  2  1  0  0  0  0
  1  3  1  0  0  0  0
  1  4  1  0  0  0  0
  1  5  1  0  0  0  0
  5  6  1  0  0  0  0
  5  7  1  0  0  0  0
  5  8  1  0  0  0  0
  8  9  1  0  0  0  0
  8 10  1  0  0  0  0
  8 11  1  0  0  0  0
 11 12  1  0  0  0  0
 11 13  1  0  0  0  0
 11 14  1  0  0  0  0
 14 15  1  0  0  0  0
 14 16  1  0  0  0  0
 14 17  1  0  0  0  0
 17 18  1  0  0  0  0
 17 19  1  0  0  0  0
 17 20  1  0  0  0  0
 20 21  1  0  0  0  0
 20 22  1  0  0  0  0
 20 23  1  0  0  0  0
 23 24  1  0  0  0  0
 23 25  1  0  0  0  0
 23 26  1  0  0  0  0
 26 27  1  0  0  0  0
 26 28  1  0  0  0  0
 26 29  1  0  0  0  0
M  END
> <VM2 Rank>
70

> <Conf_Id>
2524

> <Probability>
0.39

> <Sum Probability>
71.56

> <Delta G>
1.549

> <G>
59.695

> <E>
22.122

> <-TS>
37.573

> <U+W>
-2.022

> <U>
49.869

> <W>
-51.891

> <W(PB)>
-54.394

> <W(SA)>
2.503

> <Valence>
3.510

> <Coulomb>
45.457

> <VdW>
0.902

> <VdW6>
-8.930

> <VdW12>
9.832

> <Bond>
0.230

> <Angle>
0.893

> <Pdih>
2.387

> <Idih>
0.000

> <Tether>
0.000

$$$$
VeraChem MOL file


 29 28  0  0  0  0  0  0  0  0999 V2000     
   20.2904   20.1660   20.0865 C   0  0  0  0  0  0  0  0  0  0  0  0
   19.3205   20.6624   20.2152 H   0  0  0  0  0  0  0  0  0  0  0  0
   21.0347   20.7032   20.6887 H   0  0  0  0  0  0  0  0  0  0  0  0
   20.5757   20.2670   19.0314 H   0  0  0  0  0  0  0  0  0  0  0  0
   20.2220   18.6753   20.4882 C   0  0  0  0  0  0  0  0  0  0  0  0
   21.1772   18.1951   20.2338 H   0  0  0  0  0  0  0  0  0  0  0  0
   19.4532   18.1664   19.8901 H   0  0  0  0  0  0  0  0  0  0  0  0
   19.9421   18.4586   21.9948 C   0  0  0  0  0  0  0  0  0  0  0  0
   20.0107   17.3838   22.2119 H   0  0  0  0  0  0  0  0  0  0  0  0
   20.7333   18.9459   22.5795 H   0  0  0  0  0  0  0  0  0  0  0  0
   18.5521   18.9783   22.4411 C   0  0  0  0  0  0  0  0  0  0  0  0
   17.7861   18.5791   21.7622 H   0  0  0  0  0  0  0  0  0  0  0  0
   18.5107   20.0715   22.3468 H   0  0  0  0  0  0  0  0  0  0  0  0
   18.1803   18.5785   23.8900 C   0  0  0  0  0  0  0  0  0  0  0  0
   17.1442   18.8903   24.0812 H   0  0  0  0  0  0  0  0  0  0  0  0
   18.1955   17.4840   23.9851 H   0  0  0  0  0  0  0  0  0  0  0  0
   19.1032   19.2088   24.9605 C   0  0  0  0  0  0  0  0  0  0  0  0
   19.1244   20.2997   24.8301 H   0  0  0  0  0  0  0  0  0  0  0  0
   20.1302   18.8492   24.8204 H   0  0  0  0  0  0  0  0  0  0  0  0
   18.6299   18.8709   26.3940 C   0  0  0  0  0  0  0  0  0  0  0  0
   17.5912   19.2036   26.5223 H   0  0  0  0  0  0  0  0  0  0  0  0
   18.6314   17.7831   26.5441 H   0  0  0  0  0  0  0  0  0  0  0  0
   19.4933   19.5415   27.4798 C   0  0  0  0  0  0  0  0  0  0  0  0
   19.0617   19.3377   28.4635 H   0  0  0  0  0  0  0  0  0  0  0  0
   19.5004   20.6243   27.3280 H   0  0  0  0  0  0  0  0  0  0  0  0
   20.9306   19.0598   27.5002 N   0  3  0  0  0  0  0  0  0  0  0  0
   21.4084   19.2545   26.6147 H   0  0  0  0  0  0  0  0  0  0  0  0
   20.9907   18.0492   27.6621 H   0  0  0  0  0  0  0  0  0  0  0  0
   21.4741   19.5153   28.2417 H   0  0  0  0  0  0  0  0  0  0  0  0
  1  2  1  0  0  0  0
  1  3  1  0  0  0  0
  1  4  1  0  0  0  0
  1  5  1  0  0  0  0
  5  6  1  0  0  0  0
  5  7  1  0  0  0  0
  5  8  1  0  0  0  0
  8  9  1  0  0  0  0
  8 10  1  0  0  0  0
  8 11  1  0  0  0  0
 11 12  1  0  0  0  0
 11 13  1  0  0  0  0
 11 14  1  0  0  0  0
 14 15  1  0  0  0  0
 14 16  1  0  0  0  0
 14 17  1  0  0  0  0
 17 18  1  0  0  0  0
 17 19  1  0  0  0  0
 17 20  1  0  0  0  0
 20 21  1  0  0  0  0
 20 22  1  0  0  0  0
 20 23  1  0  0  0  0
 23 24  1  0  0  0  0
 23 25  1  0  0  0  0
 23 26  1  0  0  0  0
 26 27  1  0  0  0  0
 26 28  1  0  0  0  0
 26 29  1  0  0  0  0
M  END
> <VM2 Rank>
71

> <Conf_Id>
1833

> <Probability>
0.39

> <Sum Probability>
71.95

> <Delta G>
1.550

> <G>
59.696

> <E>
22.175

> <-TS>
37.521

> <U+W>
-1.970

> <U>
50.021

> <W>
-51.991

> <W(PB)>
-54.483

> <W(SA)>
2.492

> <Valence>
3.697

> <Coulomb>
45.280

> <VdW>
1.043

> <VdW6>
-8.788

> <VdW12>
9.832

> <Bond>
0.241

> <Angle>
0.886

> <Pdih>
2.571

> <Idih>
0.000

> <Tether>
0.000

$$$$
VeraChem MOL file


 29 28  0  0  0  0  0  0  0  0999 V2000     
   19.5838   20.3635   20.2787 C   0  0  0  0  0  0  0  0  0  0  0  0
   18.6591   20.2702   19.6946 H   0  0  0  0  0  0  0  0  0  0  0  0
   19.3518   20.8996   21.2075 H   0  0  0  0  0  0  0  0  0  0  0  0
   20.2833   20.9845   19.7044 H   0  0  0  0  0  0  0  0  0  0  0  0
   20.2013   18.9763   20.5657 C   0  0  0  0  0  0  0  0  0  0  0  0
   21.1125   19.0935   21.1675 H   0  0  0  0  0  0  0  0  0  0  0  0
   20.5249   18.5299   19.6151 H   0  0  0  0  0  0  0  0  0  0  0  0
   19.2216   17.9975   21.2616 C   0  0  0  0  0  0  0  0  0  0  0  0
   18.3776   17.8008   20.5863 H   0  0  0  0  0  0  0  0  0  0  0  0
   19.7262   17.0315   21.4011 H   0  0  0  0  0  0  0  0  0  0  0  0
   18.6640   18.4762   22.6269 C   0  0  0  0  0  0  0  0  0  0  0  0
   17.9733   17.7099   23.0051 H   0  0  0  0  0  0  0  0  0  0  0  0
   18.0613   19.3834   22.4879 H   0  0  0  0  0  0  0  0  0  0  0  0
   19.7609   18.7333   23.6875 C   0  0  0  0  0  0  0  0  0  0  0  0
   20.3891   17.8377   23.7903 H   0  0  0  0  0  0  0  0  0  0  0  0
   20.4173   19.5483   23.3550 H   0  0  0  0  0  0  0  0  0  0  0  0
   19.1556   19.1002   25.0612 C   0  0  0  0  0  0  0  0  0  0  0  0
   18.4996   18.2859   25.3968 H   0  0  0  0  0  0  0  0  0  0  0  0
   18.5262   19.9950   24.9570 H   0  0  0  0  0  0  0  0  0  0  0  0
   20.2523   19.3623   26.1201 C   0  0  0  0  0  0  0  0  0  0  0  0
   20.8688   18.4634   26.2540 H   0  0  0  0  0  0  0  0  0  0  0  0
   20.9244   20.1525   25.7598 H   0  0  0  0  0  0  0  0  0  0  0  0
   19.6742   19.7969   27.4806 C   0  0  0  0  0  0  0  0  0  0  0  0
   19.0545   20.6881   27.3495 H   0  0  0  0  0  0  0  0  0  0  0  0
   20.4937   20.0479   28.1596 H   0  0  0  0  0  0  0  0  0  0  0  0
   18.8303   18.7318   28.1526 N   0  3  0  0  0  0  0  0  0  0  0  0
   18.0195   18.4742   27.5812 H   0  0  0  0  0  0  0  0  0  0  0  0
   18.4707   19.0473   29.0602 H   0  0  0  0  0  0  0  0  0  0  0  0
   19.3657   17.8742   28.3238 H   0  0  0  0  0  0  0  0  0  0  0  0
  1  2  1  0  0  0  0
  1  3  1  0  0  0  0
  1  4  1  0  0  0  0
  1  5  1  0  0  0  0
  5  6  1  0  0  0  0
  5  7  1  0  0  0  0
  5  8  1  0  0  0  0
  8  9  1  0  0  0  0
  8 10  1  0  0  0  0
  8 11  1  0  0  0  0
 11 12  1  0  0  0  0
 11 13  1  0  0  0  0
 11 14  1  0  0  0  0
 14 15  1  0  0  0  0
 14 16  1  0  0  0  0
 14 17  1  0  0  0  0
 17 18  1  0  0  0  0
 17 19  1  0  0  0  0
 17 20  1  0  0  0  0
 20 21  1  0  0  0  0
 20 22  1  0  0  0  0
 20 23  1  0  0  0  0
 23 24  1  0  0  0  0
 23 25  1  0  0  0  0
 23 26  1  0  0  0  0
 26 27  1  0  0  0  0
 26 28  1  0  0  0  0
 26 29  1  0  0  0  0
M  END
> <VM2 Rank>
72

> <Conf_Id>
2915

> <Probability>
0.39

> <Sum Probability>
72.34

> <Delta G>
1.551

> <G>
59.697

> <E>
21.977

> <-TS>
37.720

> <U+W>
-2.168

> <U>
49.446

> <W>
-51.614

> <W(PB)>
-54.085

> <W(SA)>
2.470

> <Valence>
3.641

> <Coulomb>
44.872

> <VdW>
0.933

> <VdW6>
-9.029

> <VdW12>
9.962

> <Bond>
0.244

> <Angle>
1.082

> <Pdih>
2.315

> <Idih>
0.000

> <Tether>
0.000

$$$$
VeraChem MOL file


 29 28  0  0  0  0  0  0  0  0999 V2000     
   20.6495   19.3798   19.6491 C   0  0  0  0  0  0  0  0  0  0  0  0
   20.1169   18.7533   18.9217 H   0  0  0  0  0  0  0  0  0  0  0  0
   20.8570   20.3467   19.1727 H   0  0  0  0  0  0  0  0  0  0  0  0
   21.6116   18.9010   19.8734 H   0  0  0  0  0  0  0  0  0  0  0  0
   19.8141   19.5728   20.9325 C   0  0  0  0  0  0  0  0  0  0  0  0
   18.8719   20.0795   20.6810 H   0  0  0  0  0  0  0  0  0  0  0  0
   20.3603   20.2360   21.6162 H   0  0  0  0  0  0  0  0  0  0  0  0
   19.5127   18.2226   21.6245 C   0  0  0  0  0  0  0  0  0  0  0  0
   19.0388   17.5476   20.8985 H   0  0  0  0  0  0  0  0  0  0  0  0
   20.4540   17.7414   21.9236 H   0  0  0  0  0  0  0  0  0  0  0  0
   18.5814   18.3508   22.8549 C   0  0  0  0  0  0  0  0  0  0  0  0
   18.3305   17.3408   23.2073 H   0  0  0  0  0  0  0  0  0  0  0  0
   17.6333   18.8158   22.5512 H   0  0  0  0  0  0  0  0  0  0  0  0
   19.2058   19.1513   24.0228 C   0  0  0  0  0  0  0  0  0  0  0  0
   20.1821   18.7171   24.2758 H   0  0  0  0  0  0  0  0  0  0  0  0
   19.3873   20.1881   23.7111 H   0  0  0  0  0  0  0  0  0  0  0  0
   18.2885   19.1525   25.2691 C   0  0  0  0  0  0  0  0  0  0  0  0
   18.1243   18.1219   25.6111 H   0  0  0  0  0  0  0  0  0  0  0  0
   17.3002   19.5416   24.9877 H   0  0  0  0  0  0  0  0  0  0  0  0
   18.8430   20.0116   26.4330 C   0  0  0  0  0  0  0  0  0  0  0  0
   18.9182   21.0575   26.1068 H   0  0  0  0  0  0  0  0  0  0  0  0
   18.1265   20.0013   27.2650 H   0  0  0  0  0  0  0  0  0  0  0  0
   20.2223   19.5543   26.9493 C   0  0  0  0  0  0  0  0  0  0  0  0
   20.5513   20.2242   27.7483 H   0  0  0  0  0  0  0  0  0  0  0  0
   20.9556   19.6050   26.1404 H   0  0  0  0  0  0  0  0  0  0  0  0
   20.2268   18.1422   27.4999 N   0  3  0  0  0  0  0  0  0  0  0  0
   19.5754   18.0383   28.2848 H   0  0  0  0  0  0  0  0  0  0  0  0
   21.1548   17.8689   27.8412 H   0  0  0  0  0  0  0  0  0  0  0  0
   19.9539   17.4590   26.7863 H   0  0  0  0  0  0  0  0  0  0  0  0
  1  2  1  0  0  0  0
  1  3  1  0  0  0  0
  1  4  1  0  0  0  0
  1  5  1  0  0  0  0
  5  6  1  0  0  0  0
  5  7  1  0  0  0  0
  5  8  1  0  0  0  0
  8  9  1  0  0  0  0
  8 10  1  0  0  0  0
  8 11  1  0  0  0  0
 11 12  1  0  0  0  0
 11 13  1  0  0  0  0
 11 14  1  0  0  0  0
 14 15  1  0  0  0  0
 14 16  1  0  0  0  0
 14 17  1  0  0  0  0
 17 18  1  0  0  0  0
 17 19  1  0  0  0  0
 17 20  1  0  0  0  0
 20 21  1  0  0  0  0
 20 22  1  0  0  0  0
 20 23  1  0  0  0  0
 23 24  1  0  0  0  0
 23 25  1  0  0  0  0
 23 26  1  0  0  0  0
 26 27  1  0  0  0  0
 26 28  1  0  0  0  0
 26 29  1  0  0  0  0
M  END
> <VM2 Rank>
73

> <Conf_Id>
2330

> <Probability>
0.39

> <Sum Probability>
72.73

> <Delta G>
1.552

> <G>
59.698

> <E>
22.124

> <-TS>
37.574

> <U+W>
-2.020

> <U>
49.869

> <W>
-51.889

> <W(PB)>
-54.369

> <W(SA)>
2.481

> <Valence>
3.510

> <Coulomb>
45.457

> <VdW>
0.902

> <VdW6>
-8.931

> <VdW12>
9.832

> <Bond>
0.230

> <Angle>
0.893

> <Pdih>
2.387

> <Idih>
0.000

> <Tether>
0.000

$$$$
VeraChem MOL file


 29 28  0  0  0  0  0  0  0  0999 V2000     
   21.3281   18.7056   20.5659 C   0  0  0  0  0  0  0  0  0  0  0  0
   22.0766   19.2210   21.1818 H   0  0  0  0  0  0  0  0  0  0  0  0
   21.7471   17.7360   20.2670 H   0  0  0  0  0  0  0  0  0  0  0  0
   21.1673   19.2980   19.6557 H   0  0  0  0  0  0  0  0  0  0  0  0
   20.0088   18.5127   21.3430 C   0  0  0  0  0  0  0  0  0  0  0  0
   20.2021   17.8840   22.2223 H   0  0  0  0  0  0  0  0  0  0  0  0
   19.2905   17.9691   20.7135 H   0  0  0  0  0  0  0  0  0  0  0  0
   19.4008   19.8665   21.7788 C   0  0  0  0  0  0  0  0  0  0  0  0
   20.1015   20.3928   22.4402 H   0  0  0  0  0  0  0  0  0  0  0  0
   19.2851   20.5068   20.8935 H   0  0  0  0  0  0  0  0  0  0  0  0
   18.0177   19.7338   22.4675 C   0  0  0  0  0  0  0  0  0  0  0  0
   17.2991   19.3231   21.7450 H   0  0  0  0  0  0  0  0  0  0  0  0
   17.6507   20.7388   22.7171 H   0  0  0  0  0  0  0  0  0  0  0  0
   17.9917   18.8578   23.7468 C   0  0  0  0  0  0  0  0  0  0  0  0
   16.9628   18.8420   24.1322 H   0  0  0  0  0  0  0  0  0  0  0  0
   18.2341   17.8171   23.4941 H   0  0  0  0  0  0  0  0  0  0  0  0
   18.9399   19.3607   24.8614 C   0  0  0  0  0  0  0  0  0  0  0  0
   18.7206   20.4146   25.0817 H   0  0  0  0  0  0  0  0  0  0  0  0
   19.9781   19.3156   24.5094 H   0  0  0  0  0  0  0  0  0  0  0  0
   18.7978   18.5232   26.1542 C   0  0  0  0  0  0  0  0  0  0  0  0
   17.7521   18.5450   26.4890 H   0  0  0  0  0  0  0  0  0  0  0  0
   19.0397   17.4717   25.9498 H   0  0  0  0  0  0  0  0  0  0  0  0
   19.6869   19.0424   27.3005 C   0  0  0  0  0  0  0  0  0  0  0  0
   19.4808   18.4683   28.2079 H   0  0  0  0  0  0  0  0  0  0  0  0
   19.4544   20.0919   27.5005 H   0  0  0  0  0  0  0  0  0  0  0  0
   21.1724   18.9353   27.0168 N   0  3  0  0  0  0  0  0  0  0  0  0
   21.7355   19.2768   27.8035 H   0  0  0  0  0  0  0  0  0  0  0  0
   21.4417   19.4836   26.1940 H   0  0  0  0  0  0  0  0  0  0  0  0
   21.4573   17.9659   26.8427 H   0  0  0  0  0  0  0  0  0  0  0  0
  1  2  1  0  0  0  0
  1  3  1  0  0  0  0
  1  4  1  0  0  0  0
  1  5  1  0  0  0  0
  5  6  1  0  0  0  0
  5  7  1  0  0  0  0
  5  8  1  0  0  0  0
  8  9  1  0  0  0  0
  8 10  1  0  0  0  0
  8 11  1  0  0  0  0
 11 12  1  0  0  0  0
 11 13  1  0  0  0  0
 11 14  1  0  0  0  0
 14 15  1  0  0  0  0
 14 16  1  0  0  0  0
 14 17  1  0  0  0  0
 17 18  1  0  0  0  0
 17 19  1  0  0  0  0
 17 20  1  0  0  0  0
 20 21  1  0  0  0  0
 20 22  1  0  0  0  0
 20 23  1  0  0  0  0
 23 24  1  0  0  0  0
 23 25  1  0  0  0  0
 23 26  1  0  0  0  0
 26 27  1  0  0  0  0
 26 28  1  0  0  0  0
 26 29  1  0  0  0  0
M  END
> <VM2 Rank>
74

> <Conf_Id>
2976

> <Probability>
0.39

> <Sum Probability>
73.12

> <Delta G>
1.558

> <G>
59.704

> <E>
21.961

> <-TS>
37.743

> <U+W>
-2.183

> <U>
50.198

> <W>
-52.381

> <W(PB)>
-54.854

> <W(SA)>
2.473

> <Valence>
3.666

> <Coulomb>
45.691

> <VdW>
0.841

> <VdW6>
-9.219

> <VdW12>
10.060

> <Bond>
0.250

> <Angle>
1.116

> <Pdih>
2.300

> <Idih>
0.000

> <Tether>
0.000

$$$$
VeraChem MOL file


 29 28  0  0  0  0  0  0  0  0999 V2000     
   19.4627   17.8455   20.0341 C   0  0  0  0  0  0  0  0  0  0  0  0
   19.6903   16.9352   20.6037 H   0  0  0  0  0  0  0  0  0  0  0  0
   18.3959   18.0702   20.1564 H   0  0  0  0  0  0  0  0  0  0  0  0
   19.6350   17.6291   18.9719 H   0  0  0  0  0  0  0  0  0  0  0  0
   20.3472   19.0256   20.4961 C   0  0  0  0  0  0  0  0  0  0  0  0
   20.0826   19.9295   19.9299 H   0  0  0  0  0  0  0  0  0  0  0  0
   21.3943   18.8027   20.2478 H   0  0  0  0  0  0  0  0  0  0  0  0
   20.2458   19.3101   22.0140 C   0  0  0  0  0  0  0  0  0  0  0  0
   20.5420   18.4094   22.5675 H   0  0  0  0  0  0  0  0  0  0  0  0
   20.9757   20.0894   22.2729 H   0  0  0  0  0  0  0  0  0  0  0  0
   18.8343   19.7693   22.4587 C   0  0  0  0  0  0  0  0  0  0  0  0
   18.1122   18.9536   22.3217 H   0  0  0  0  0  0  0  0  0  0  0  0
   18.5031   20.5896   21.8071 H   0  0  0  0  0  0  0  0  0  0  0  0
   18.7785   20.2564   23.9275 C   0  0  0  0  0  0  0  0  0  0  0  0
   19.4808   21.0899   24.0657 H   0  0  0  0  0  0  0  0  0  0  0  0
   17.7760   20.6626   24.1208 H   0  0  0  0  0  0  0  0  0  0  0  0
   19.0797   19.1428   24.9590 C   0  0  0  0  0  0  0  0  0  0  0  0
   20.1047   18.7775   24.8190 H   0  0  0  0  0  0  0  0  0  0  0  0
   18.4085   18.2904   24.7851 H   0  0  0  0  0  0  0  0  0  0  0  0
   18.9061   19.6467   26.4113 C   0  0  0  0  0  0  0  0  0  0  0  0
   19.5927   20.4817   26.6044 H   0  0  0  0  0  0  0  0  0  0  0  0
   17.8893   20.0406   26.5409 H   0  0  0  0  0  0  0  0  0  0  0  0
   19.1359   18.5390   27.4574 C   0  0  0  0  0  0  0  0  0  0  0  0
   18.4593   17.7026   27.2627 H   0  0  0  0  0  0  0  0  0  0  0  0
   18.9163   18.9306   28.4544 H   0  0  0  0  0  0  0  0  0  0  0  0
   20.5538   18.0027   27.4768 N   0  3  0  0  0  0  0  0  0  0  0  0
   21.2368   18.7405   27.6779 H   0  0  0  0  0  0  0  0  0  0  0  0
   20.8136   17.5852   26.5777 H   0  0  0  0  0  0  0  0  0  0  0  0
   20.6765   17.2773   28.1919 H   0  0  0  0  0  0  0  0  0  0  0  0
  1  2  1  0  0  0  0
  1  3  1  0  0  0  0
  1  4  1  0  0  0  0
  1  5  1  0  0  0  0
  5  6  1  0  0  0  0
  5  7  1  0  0  0  0
  5  8  1  0  0  0  0
  8  9  1  0  0  0  0
  8 10  1  0  0  0  0
  8 11  1  0  0  0  0
 11 12  1  0  0  0  0
 11 13  1  0  0  0  0
 11 14  1  0  0  0  0
 14 15  1  0  0  0  0
 14 16  1  0  0  0  0
 14 17  1  0  0  0  0
 17 18  1  0  0  0  0
 17 19  1  0  0  0  0
 17 20  1  0  0  0  0
 20 21  1  0  0  0  0
 20 22  1  0  0  0  0
 20 23  1  0  0  0  0
 23 24  1  0  0  0  0
 23 25  1  0  0  0  0
 23 26  1  0  0  0  0
 26 27  1  0  0  0  0
 26 28  1  0  0  0  0
 26 29  1  0  0  0  0
M  END
> <VM2 Rank>
75

> <Conf_Id>
2475

> <Probability>
0.39

> <Sum Probability>
73.51

> <Delta G>
1.559

> <G>
59.706

> <E>
22.184

> <-TS>
37.521

> <U+W>
-1.960

> <U>
50.021

> <W>
-51.981

> <W(PB)>
-54.507

> <W(SA)>
2.526

> <Valence>
3.697

> <Coulomb>
45.280

> <VdW>
1.043

> <VdW6>
-8.789

> <VdW12>
9.832

> <Bond>
0.241

> <Angle>
0.886

> <Pdih>
2.571

> <Idih>
0.000

> <Tether>
0.000

$$$$
VeraChem MOL file


 29 28  0  0  0  0  0  0  0  0999 V2000     
   18.7898   18.1296   20.2292 C   0  0  0  0  0  0  0  0  0  0  0  0
   18.9488   17.2297   19.6210 H   0  0  0  0  0  0  0  0  0  0  0  0
   18.2588   17.8237   21.1393 H   0  0  0  0  0  0  0  0  0  0  0  0
   18.1394   18.8082   19.6623 H   0  0  0  0  0  0  0  0  0  0  0  0
   20.1400   18.8037   20.5619 C   0  0  0  0  0  0  0  0  0  0  0  0
   20.6859   18.9832   19.6252 H   0  0  0  0  0  0  0  0  0  0  0  0
   20.7646   18.1144   21.1456 H   0  0  0  0  0  0  0  0  0  0  0  0
   19.9876   20.1528   21.3096 C   0  0  0  0  0  0  0  0  0  0  0  0
   20.9864   20.5775   21.4801 H   0  0  0  0  0  0  0  0  0  0  0  0
   19.4663   20.8644   20.6546 H   0  0  0  0  0  0  0  0  0  0  0  0
   19.2339   20.0796   22.6627 C   0  0  0  0  0  0  0  0  0  0  0  0
   18.1959   19.7623   22.4964 H   0  0  0  0  0  0  0  0  0  0  0  0
   19.1761   21.0941   23.0805 H   0  0  0  0  0  0  0  0  0  0  0  0
   19.9077   19.1463   23.6967 C   0  0  0  0  0  0  0  0  0  0  0  0
   19.9075   18.1140   23.3230 H   0  0  0  0  0  0  0  0  0  0  0  0
   20.9585   19.4400   23.8260 H   0  0  0  0  0  0  0  0  0  0  0  0
   19.1873   19.1895   25.0631 C   0  0  0  0  0  0  0  0  0  0  0  0
   18.1361   18.8973   24.9324 H   0  0  0  0  0  0  0  0  0  0  0  0
   19.1874   20.2210   25.4400 H   0  0  0  0  0  0  0  0  0  0  0  0
   19.8579   18.2525   26.0953 C   0  0  0  0  0  0  0  0  0  0  0  0
   19.8859   17.2305   25.6945 H   0  0  0  0  0  0  0  0  0  0  0  0
   20.9014   18.5549   26.2560 H   0  0  0  0  0  0  0  0  0  0  0  0
   19.1161   18.2264   27.4455 C   0  0  0  0  0  0  0  0  0  0  0  0
   19.5841   17.4882   28.1024 H   0  0  0  0  0  0  0  0  0  0  0  0
   18.0750   17.9318   27.2880 H   0  0  0  0  0  0  0  0  0  0  0  0
   19.1237   19.5576   28.1709 N   0  3  0  0  0  0  0  0  0  0  0  0
   18.6652   20.2913   27.6216 H   0  0  0  0  0  0  0  0  0  0  0  0
   20.0776   19.8777   28.3684 H   0  0  0  0  0  0  0  0  0  0  0  0
   18.6329   19.5040   29.0702 H   0  0  0  0  0  0  0  0  0  0  0  0
  1  2  1  0  0  0  0
  1  3  1  0  0  0  0
  1  4  1  0  0  0  0
  1  5  1  0  0  0  0
  5  6  1  0  0  0  0
  5  7  1  0  0  0  0
  5  8  1  0  0  0  0
  8  9  1  0  0  0  0
  8 10  1  0  0  0  0
  8 11  1  0  0  0  0
 11 12  1  0  0  0  0
 11 13  1  0  0  0  0
 11 14  1  0  0  0  0
 14 15  1  0  0  0  0
 14 16  1  0  0  0  0
 14 17  1  0  0  0  0
 17 18  1  0  0  0  0
 17 19  1  0  0  0  0
 17 20  1  0  0  0  0
 20 21  1  0  0  0  0
 20 22  1  0  0  0  0
 20 23  1  0  0  0  0
 23 24  1  0  0  0  0
 23 25  1  0  0  0  0
 23 26  1  0  0  0  0
 26 27  1  0  0  0  0
 26 28  1  0  0  0  0
 26 29  1  0  0  0  0
M  END
> <VM2 Rank>
76

> <Conf_Id>
304

> <Probability>
0.38

> <Sum Probability>
73.89

> <Delta G>
1.568

> <G>
59.714

> <E>
21.994

> <-TS>
37.720

> <U+W>
-2.150

> <U>
49.446

> <W>
-51.597

> <W(PB)>
-54.069

> <W(SA)>
2.472

> <Valence>
3.640

> <Coulomb>
44.872

> <VdW>
0.934

> <VdW6>
-9.029

> <VdW12>
9.963

> <Bond>
0.244

> <Angle>
1.082

> <Pdih>
2.315

> <Idih>
0.000

> <Tether>
0.000

$$$$
VeraChem MOL file


 29 28  0  0  0  0  0  0  0  0999 V2000     
   21.1480   19.2851   20.3975 C   0  0  0  0  0  0  0  0  0  0  0  0
   21.3063   18.2053   20.2794 H   0  0  0  0  0  0  0  0  0  0  0  0
   21.6806   19.7935   19.5834 H   0  0  0  0  0  0  0  0  0  0  0  0
   21.6108   19.5999   21.3410 H   0  0  0  0  0  0  0  0  0  0  0  0
   19.6427   19.6335   20.3592 C   0  0  0  0  0  0  0  0  0  0  0  0
   19.2544   19.4142   19.3548 H   0  0  0  0  0  0  0  0  0  0  0  0
   19.5093   20.7137   20.5113 H   0  0  0  0  0  0  0  0  0  0  0  0
   18.8030   18.8510   21.3975 C   0  0  0  0  0  0  0  0  0  0  0  0
   17.7410   19.0734   21.2249 H   0  0  0  0  0  0  0  0  0  0  0  0
   18.9243   17.7720   21.2295 H   0  0  0  0  0  0  0  0  0  0  0  0
   19.1598   19.1939   22.8638 C   0  0  0  0  0  0  0  0  0  0  0  0
   19.0836   20.2794   23.0151 H   0  0  0  0  0  0  0  0  0  0  0  0
   20.2019   18.9144   23.0609 H   0  0  0  0  0  0  0  0  0  0  0  0
   18.2300   18.4658   23.8640 C   0  0  0  0  0  0  0  0  0  0  0  0
   17.1850   18.6975   23.6157 H   0  0  0  0  0  0  0  0  0  0  0  0
   18.3405   17.3787   23.7485 H   0  0  0  0  0  0  0  0  0  0  0  0
   18.4812   18.8591   25.3403 C   0  0  0  0  0  0  0  0  0  0  0  0
   17.7101   18.3845   25.9630 H   0  0  0  0  0  0  0  0  0  0  0  0
   18.3473   19.9432   25.4541 H   0  0  0  0  0  0  0  0  0  0  0  0
   19.8777   18.4383   25.8622 C   0  0  0  0  0  0  0  0  0  0  0  0
   20.0362   17.3711   25.6584 H   0  0  0  0  0  0  0  0  0  0  0  0
   20.6673   18.9822   25.3285 H   0  0  0  0  0  0  0  0  0  0  0  0
   20.0386   18.6752   27.3760 C   0  0  0  0  0  0  0  0  0  0  0  0
   21.0090   18.2917   27.7027 H   0  0  0  0  0  0  0  0  0  0  0  0
   19.2579   18.1350   27.9182 H   0  0  0  0  0  0  0  0  0  0  0  0
   19.9630   20.1359   27.7745 N   0  3  0  0  0  0  0  0  0  0  0  0
   20.6896   20.6940   27.3143 H   0  0  0  0  0  0  0  0  0  0  0  0
   20.0832   20.2615   28.7856 H   0  0  0  0  0  0  0  0  0  0  0  0
   19.0592   20.5500   27.5256 H   0  0  0  0  0  0  0  0  0  0  0  0
  1  2  1  0  0  0  0
  1  3  1  0  0  0  0
  1  4  1  0  0  0  0
  1  5  1  0  0  0  0
  5  6  1  0  0  0  0
  5  7  1  0  0  0  0
  5  8  1  0  0  0  0
  8  9  1  0  0  0  0
  8 10  1  0  0  0  0
  8 11  1  0  0  0  0
 11 12  1  0  0  0  0
 11 13  1  0  0  0  0
 11 14  1  0  0  0  0
 14 15  1  0  0  0  0
 14 16  1  0  0  0  0
 14 17  1  0  0  0  0
 17 18  1  0  0  0  0
 17 19  1  0  0  0  0
 17 20  1  0  0  0  0
 20 21  1  0  0  0  0
 20 22  1  0  0  0  0
 20 23  1  0  0  0  0
 23 24  1  0  0  0  0
 23 25  1  0  0  0  0
 23 26  1  0  0  0  0
 26 27  1  0  0  0  0
 26 28  1  0  0  0  0
 26 29  1  0  0  0  0
M  END
> <VM2 Rank>
77

> <Conf_Id>
672

> <Probability>
0.38

> <Sum Probability>
74.27

> <Delta G>
1.568

> <G>
59.715

> <E>
22.206

> <-TS>
37.509

> <U+W>
-1.939

> <U>
49.862

> <W>
-51.801

> <W(PB)>
-54.301

> <W(SA)>
2.500

> <Valence>
3.720

> <Coulomb>
45.091

> <VdW>
1.051

> <VdW6>
-8.777

> <VdW12>
9.828

> <Bond>
0.242

> <Angle>
0.912

> <Pdih>
2.566

> <Idih>
0.000

> <Tether>
0.000

$$$$
VeraChem MOL file


 29 28  0  0  0  0  0  0  0  0999 V2000     
   20.6804   17.9723   20.3683 C   0  0  0  0  0  0  0  0  0  0  0  0
   20.8266   17.3989   21.2920 H   0  0  0  0  0  0  0  0  0  0  0  0
   20.7833   17.2744   19.5273 H   0  0  0  0  0  0  0  0  0  0  0  0
   21.4872   18.7127   20.2909 H   0  0  0  0  0  0  0  0  0  0  0  0
   19.2944   18.6555   20.3373 C   0  0  0  0  0  0  0  0  0  0  0  0
   18.5062   17.8978   20.4483 H   0  0  0  0  0  0  0  0  0  0  0  0
   19.1464   19.1105   19.3480 H   0  0  0  0  0  0  0  0  0  0  0  0
   19.1235   19.7506   21.4176 C   0  0  0  0  0  0  0  0  0  0  0  0
   19.9017   20.5158   21.2908 H   0  0  0  0  0  0  0  0  0  0  0  0
   18.1624   20.2565   21.2513 H   0  0  0  0  0  0  0  0  0  0  0  0
   19.1626   19.2016   22.8640 C   0  0  0  0  0  0  0  0  0  0  0  0
   20.1440   18.7518   23.0572 H   0  0  0  0  0  0  0  0  0  0  0  0
   18.4155   18.4035   22.9731 H   0  0  0  0  0  0  0  0  0  0  0  0
   18.8879   20.3132   23.9052 C   0  0  0  0  0  0  0  0  0  0  0  0
   19.6621   21.0894   23.8314 H   0  0  0  0  0  0  0  0  0  0  0  0
   17.9352   20.8038   23.6628 H   0  0  0  0  0  0  0  0  0  0  0  0
   18.8132   19.7914   25.3611 C   0  0  0  0  0  0  0  0  0  0  0  0
   18.0229   19.0323   25.4338 H   0  0  0  0  0  0  0  0  0  0  0  0
   18.5067   20.6214   26.0129 H   0  0  0  0  0  0  0  0  0  0  0  0
   20.1539   19.2142   25.8796 C   0  0  0  0  0  0  0  0  0  0  0  0
   20.4298   18.3155   25.3136 H   0  0  0  0  0  0  0  0  0  0  0  0
   20.9540   19.9483   25.7161 H   0  0  0  0  0  0  0  0  0  0  0  0
   20.1075   18.8690   27.3803 C   0  0  0  0  0  0  0  0  0  0  0  0
   19.8360   19.7590   27.9545 H   0  0  0  0  0  0  0  0  0  0  0  0
   21.0973   18.5400   27.7083 H   0  0  0  0  0  0  0  0  0  0  0  0
   19.1205   17.7702   27.7215 N   0  3  0  0  0  0  0  0  0  0  0  0
   19.3377   16.8974   27.2294 H   0  0  0  0  0  0  0  0  0  0  0  0
   18.1619   18.0304   27.4691 H   0  0  0  0  0  0  0  0  0  0  0  0
   19.1200   17.5569   28.7251 H   0  0  0  0  0  0  0  0  0  0  0  0
  1  2  1  0  0  0  0
  1  3  1  0  0  0  0
  1  4  1  0  0  0  0
  1  5  1  0  0  0  0
  5  6  1  0  0  0  0
  5  7  1  0  0  0  0
  5  8  1  0  0  0  0
  8  9  1  0  0  0  0
  8 10  1  0  0  0  0
  8 11  1  0  0  0  0
 11 12  1  0  0  0  0
 11 13  1  0  0  0  0
 11 14  1  0  0  0  0
 14 15  1  0  0  0  0
 14 16  1  0  0  0  0
 14 17  1  0  0  0  0
 17 18  1  0  0  0  0
 17 19  1  0  0  0  0
 17 20  1  0  0  0  0
 20 21  1  0  0  0  0
 20 22  1  0  0  0  0
 20 23  1  0  0  0  0
 23 24  1  0  0  0  0
 23 25  1  0  0  0  0
 23 26  1  0  0  0  0
 26 27  1  0  0  0  0
 26 28  1  0  0  0  0
 26 29  1  0  0  0  0
M  END
> <VM2 Rank>
78

> <Conf_Id>
1584

> <Probability>
0.38

> <Sum Probability>
74.64

> <Delta G>
1.574

> <G>
59.720

> <E>
22.212

> <-TS>
37.509

> <U+W>
-1.933

> <U>
49.862

> <W>
-51.795

> <W(PB)>
-54.285

> <W(SA)>
2.490

> <Valence>
3.720

> <Coulomb>
45.091

> <VdW>
1.051

> <VdW6>
-8.777

> <VdW12>
9.828

> <Bond>
0.242

> <Angle>
0.912

> <Pdih>
2.566

> <Idih>
0.000

> <Tether>
0.000

$$$$
VeraChem MOL file


 29 28  0  0  0  0  0  0  0  0999 V2000     
   19.4304   19.4344   19.2764 C   0  0  0  0  0  0  0  0  0  0  0  0
   20.3781   19.8936   18.9662 H   0  0  0  0  0  0  0  0  0  0  0  0
   19.4315   18.3886   18.9423 H   0  0  0  0  0  0  0  0  0  0  0  0
   18.6171   19.9545   18.7537 H   0  0  0  0  0  0  0  0  0  0  0  0
   19.2425   19.5274   20.8054 C   0  0  0  0  0  0  0  0  0  0  0  0
   18.2686   19.0956   21.0717 H   0  0  0  0  0  0  0  0  0  0  0  0
   19.2159   20.5842   21.1056 H   0  0  0  0  0  0  0  0  0  0  0  0
   20.3756   18.7972   21.5642 C   0  0  0  0  0  0  0  0  0  0  0  0
   20.3697   17.7304   21.3017 H   0  0  0  0  0  0  0  0  0  0  0  0
   21.3438   19.1921   21.2268 H   0  0  0  0  0  0  0  0  0  0  0  0
   20.2905   18.9541   23.1022 C   0  0  0  0  0  0  0  0  0  0  0  0
   20.3228   20.0216   23.3569 H   0  0  0  0  0  0  0  0  0  0  0  0
   21.1864   18.5009   23.5484 H   0  0  0  0  0  0  0  0  0  0  0  0
   19.0304   18.2965   23.7195 C   0  0  0  0  0  0  0  0  0  0  0  0
   18.1267   18.8199   23.3809 H   0  0  0  0  0  0  0  0  0  0  0  0
   18.9479   17.2644   23.3517 H   0  0  0  0  0  0  0  0  0  0  0  0
   19.0495   18.2665   25.2673 C   0  0  0  0  0  0  0  0  0  0  0  0
   19.9351   17.7138   25.6084 H   0  0  0  0  0  0  0  0  0  0  0  0
   18.1761   17.6981   25.6161 H   0  0  0  0  0  0  0  0  0  0  0  0
   19.0223   19.6758   25.9097 C   0  0  0  0  0  0  0  0  0  0  0  0
   19.9362   20.2293   25.6594 H   0  0  0  0  0  0  0  0  0  0  0  0
   18.1826   20.2489   25.4947 H   0  0  0  0  0  0  0  0  0  0  0  0
   18.8682   19.6241   27.4417 C   0  0  0  0  0  0  0  0  0  0  0  0
   17.9587   19.0759   27.7020 H   0  0  0  0  0  0  0  0  0  0  0  0
   18.7772   20.6413   27.8323 H   0  0  0  0  0  0  0  0  0  0  0  0
   20.0346   18.9621   28.1484 N   0  3  0  0  0  0  0  0  0  0  0  0
   19.9071   18.9521   29.1664 H   0  0  0  0  0  0  0  0  0  0  0  0
   20.9180   19.4479   27.9614 H   0  0  0  0  0  0  0  0  0  0  0  0
   20.1547   17.9888   27.8509 H   0  0  0  0  0  0  0  0  0  0  0  0
  1  2  1  0  0  0  0
  1  3  1  0  0  0  0
  1  4  1  0  0  0  0
  1  5  1  0  0  0  0
  5  6  1  0  0  0  0
  5  7  1  0  0  0  0
  5  8  1  0  0  0  0
  8  9  1  0  0  0  0
  8 10  1  0  0  0  0
  8 11  1  0  0  0  0
 11 12  1  0  0  0  0
 11 13  1  0  0  0  0
 11 14  1  0  0  0  0
 14 15  1  0  0  0  0
 14 16  1  0  0  0  0
 14 17  1  0  0  0  0
 17 18  1  0  0  0  0
 17 19  1  0  0  0  0
 17 20  1  0  0  0  0
 20 21  1  0  0  0  0
 20 22  1  0  0  0  0
 20 23  1  0  0  0  0
 23 24  1  0  0  0  0
 23 25  1  0  0  0  0
 23 26  1  0  0  0  0
 26 27  1  0  0  0  0
 26 28  1  0  0  0  0
 26 29  1  0  0  0  0
M  END
> <VM2 Rank>
79

> <Conf_Id>
1360

> <Probability>
0.37

> <Sum Probability>
75.01

> <Delta G>
1.582

> <G>
59.728

> <E>
22.201

> <-TS>
37.527

> <U+W>
-1.944

> <U>
49.798

> <W>
-51.742

> <W(PB)>
-54.234

> <W(SA)>
2.492

> <Valence>
3.728

> <Coulomb>
45.048

> <VdW>
1.022

> <VdW6>
-8.813

> <VdW12>
9.835

> <Bond>
0.243

> <Angle>
0.890

> <Pdih>
2.595

> <Idih>
0.000

> <Tether>
0.000

$$$$
VeraChem MOL file


 29 28  0  0  0  0  0  0  0  0999 V2000     
   21.1837   18.3005   20.5566 C   0  0  0  0  0  0  0  0  0  0  0  0
   22.1253   18.7981   20.2904 H   0  0  0  0  0  0  0  0  0  0  0  0
   21.4294   17.4042   21.1410 H   0  0  0  0  0  0  0  0  0  0  0  0
   20.6975   17.9796   19.6261 H   0  0  0  0  0  0  0  0  0  0  0  0
   20.2723   19.2527   21.3594 C   0  0  0  0  0  0  0  0  0  0  0  0
   20.0680   20.1522   20.7621 H   0  0  0  0  0  0  0  0  0  0  0  0
   20.8071   19.5823   22.2601 H   0  0  0  0  0  0  0  0  0  0  0  0
   18.9396   18.5718   21.7499 C   0  0  0  0  0  0  0  0  0  0  0  0
   18.4578   18.1843   20.8417 H   0  0  0  0  0  0  0  0  0  0  0  0
   19.1407   17.6954   22.3800 H   0  0  0  0  0  0  0  0  0  0  0  0
   17.9420   19.5212   22.4628 C   0  0  0  0  0  0  0  0  0  0  0  0
   17.0190   18.9653   22.6776 H   0  0  0  0  0  0  0  0  0  0  0  0
   17.6549   20.3218   21.7674 H   0  0  0  0  0  0  0  0  0  0  0  0
   18.4574   20.1650   23.7760 C   0  0  0  0  0  0  0  0  0  0  0  0
   19.3065   20.8272   23.5613 H   0  0  0  0  0  0  0  0  0  0  0  0
   17.6648   20.8122   24.1761 H   0  0  0  0  0  0  0  0  0  0  0  0
   18.8585   19.1324   24.8564 C   0  0  0  0  0  0  0  0  0  0  0  0
   19.6964   18.5250   24.4918 H   0  0  0  0  0  0  0  0  0  0  0  0
   18.0193   18.4467   25.0379 H   0  0  0  0  0  0  0  0  0  0  0  0
   19.2596   19.8192   26.1832 C   0  0  0  0  0  0  0  0  0  0  0  0
   20.1145   20.4881   26.0171 H   0  0  0  0  0  0  0  0  0  0  0  0
   18.4309   20.4500   26.5315 H   0  0  0  0  0  0  0  0  0  0  0  0
   19.6041   18.8101   27.2954 C   0  0  0  0  0  0  0  0  0  0  0  0
   18.7578   18.1370   27.4569 H   0  0  0  0  0  0  0  0  0  0  0  0
   19.7944   19.3488   28.2276 H   0  0  0  0  0  0  0  0  0  0  0  0
   20.8267   17.9653   26.9953 N   0  3  0  0  0  0  0  0  0  0  0  0
   20.7004   17.4033   26.1477 H   0  0  0  0  0  0  0  0  0  0  0  0
   21.0360   17.3140   27.7598 H   0  0  0  0  0  0  0  0  0  0  0  0
   21.6626   18.5423   26.8556 H   0  0  0  0  0  0  0  0  0  0  0  0
  1  2  1  0  0  0  0
  1  3  1  0  0  0  0
  1  4  1  0  0  0  0
  1  5  1  0  0  0  0
  5  6  1  0  0  0  0
  5  7  1  0  0  0  0
  5  8  1  0  0  0  0
  8  9  1  0  0  0  0
  8 10  1  0  0  0  0
  8 11  1  0  0  0  0
 11 12  1  0  0  0  0
 11 13  1  0  0  0  0
 11 14  1  0  0  0  0
 14 15  1  0  0  0  0
 14 16  1  0  0  0  0
 14 17  1  0  0  0  0
 17 18  1  0  0  0  0
 17 19  1  0  0  0  0
 17 20  1  0  0  0  0
 20 21  1  0  0  0  0
 20 22  1  0  0  0  0
 20 23  1  0  0  0  0
 23 24  1  0  0  0  0
 23 25  1  0  0  0  0
 23 26  1  0  0  0  0
 26 27  1  0  0  0  0
 26 28  1  0  0  0  0
 26 29  1  0  0  0  0
M  END
> <VM2 Rank>
80

> <Conf_Id>
341

> <Probability>
0.37

> <Sum Probability>
75.39

> <Delta G>
1.583

> <G>
59.729

> <E>
21.987

> <-TS>
37.743

> <U+W>
-2.158

> <U>
50.198

> <W>
-52.355

> <W(PB)>
-54.838

> <W(SA)>
2.483

> <Valence>
3.666

> <Coulomb>
45.691

> <VdW>
0.841

> <VdW6>
-9.219

> <VdW12>
10.060

> <Bond>
0.250

> <Angle>
1.116

> <Pdih>
2.300

> <Idih>
0.000

> <Tether>
0.000

$$$$
VeraChem MOL file


 29 28  0  0  0  0  0  0  0  0999 V2000     
   20.9317   19.1705   19.8687 C   0  0  0  0  0  0  0  0  0  0  0  0
   20.9374   18.0916   19.6657 H   0  0  0  0  0  0  0  0  0  0  0  0
   20.3268   19.6609   19.0948 H   0  0  0  0  0  0  0  0  0  0  0  0
   21.9620   19.5371   19.7734 H   0  0  0  0  0  0  0  0  0  0  0  0
   20.3763   19.4662   21.2779 C   0  0  0  0  0  0  0  0  0  0  0  0
   20.4101   20.5489   21.4629 H   0  0  0  0  0  0  0  0  0  0  0  0
   21.0296   18.9945   22.0238 H   0  0  0  0  0  0  0  0  0  0  0  0
   18.9253   18.9540   21.4374 C   0  0  0  0  0  0  0  0  0  0  0  0
   18.3081   19.3749   20.6317 H   0  0  0  0  0  0  0  0  0  0  0  0
   18.9009   17.8634   21.3065 H   0  0  0  0  0  0  0  0  0  0  0  0
   18.2806   19.3284   22.7946 C   0  0  0  0  0  0  0  0  0  0  0  0
   17.2227   19.0329   22.7693 H   0  0  0  0  0  0  0  0  0  0  0  0
   18.2930   20.4201   22.9186 H   0  0  0  0  0  0  0  0  0  0  0  0
   18.9628   18.6565   24.0103 C   0  0  0  0  0  0  0  0  0  0  0  0
   18.9930   17.5687   23.8584 H   0  0  0  0  0  0  0  0  0  0  0  0
   20.0025   18.9984   24.0843 H   0  0  0  0  0  0  0  0  0  0  0  0
   18.2187   18.9723   25.3298 C   0  0  0  0  0  0  0  0  0  0  0  0
   17.1686   18.6633   25.2343 H   0  0  0  0  0  0  0  0  0  0  0  0
   18.2029   20.0577   25.4965 H   0  0  0  0  0  0  0  0  0  0  0  0
   18.8310   18.2585   26.5611 C   0  0  0  0  0  0  0  0  0  0  0  0
   18.2306   18.4908   27.4507 H   0  0  0  0  0  0  0  0  0  0  0  0
   18.7618   17.1716   26.4205 H   0  0  0  0  0  0  0  0  0  0  0  0
   20.3026   18.6290   26.8352 C   0  0  0  0  0  0  0  0  0  0  0  0
   20.9192   18.3578   25.9745 H   0  0  0  0  0  0  0  0  0  0  0  0
   20.6631   18.0673   27.7013 H   0  0  0  0  0  0  0  0  0  0  0  0
   20.5150   20.1025   27.1199 N   0  3  0  0  0  0  0  0  0  0  0  0
   19.9818   20.4118   27.9392 H   0  0  0  0  0  0  0  0  0  0  0  0
   20.2218   20.6849   26.3292 H   0  0  0  0  0  0  0  0  0  0  0  0
   21.5011   20.3170   27.3046 H   0  0  0  0  0  0  0  0  0  0  0  0
  1  2  1  0  0  0  0
  1  3  1  0  0  0  0
  1  4  1  0  0  0  0
  1  5  1  0  0  0  0
  5  6  1  0  0  0  0
  5  7  1  0  0  0  0
  5  8  1  0  0  0  0
  8  9  1  0  0  0  0
  8 10  1  0  0  0  0
  8 11  1  0  0  0  0
 11 12  1  0  0  0  0
 11 13  1  0  0  0  0
 11 14  1  0  0  0  0
 14 15  1  0  0  0  0
 14 16  1  0  0  0  0
 14 17  1  0  0  0  0
 17 18  1  0  0  0  0
 17 19  1  0  0  0  0
 17 20  1  0  0  0  0
 20 21  1  0  0  0  0
 20 22  1  0  0  0  0
 20 23  1  0  0  0  0
 23 24  1  0  0  0  0
 23 25  1  0  0  0  0
 23 26  1  0  0  0  0
 26 27  1  0  0  0  0
 26 28  1  0  0  0  0
 26 29  1  0  0  0  0
M  END
> <VM2 Rank>
81

> <Conf_Id>
2291

> <Probability>
0.37

> <Sum Probability>
75.75

> <Delta G>
1.588

> <G>
59.734

> <E>
22.163

> <-TS>
37.571

> <U+W>
-1.982

> <U>
50.142

> <W>
-52.124

> <W(PB)>
-54.604

> <W(SA)>
2.480

> <Valence>
3.506

> <Coulomb>
45.743

> <VdW>
0.893

> <VdW6>
-8.958

> <VdW12>
9.850

> <Bond>
0.232

> <Angle>
0.893

> <Pdih>
2.381

> <Idih>
0.000

> <Tether>
0.000

$$$$
VeraChem MOL file


 29 28  0  0  0  0  0  0  0  0999 V2000     
   20.5201   17.9146   20.2200 C   0  0  0  0  0  0  0  0  0  0  0  0
   20.4740   17.1896   19.3970 H   0  0  0  0  0  0  0  0  0  0  0  0
   21.3268   18.6248   19.9970 H   0  0  0  0  0  0  0  0  0  0  0  0
   20.7881   17.3637   21.1300 H   0  0  0  0  0  0  0  0  0  0  0  0
   19.1659   18.6429   20.3754 C   0  0  0  0  0  0  0  0  0  0  0  0
   18.3818   17.9153   20.6275 H   0  0  0  0  0  0  0  0  0  0  0  0
   18.8833   19.0758   19.4056 H   0  0  0  0  0  0  0  0  0  0  0  0
   19.1926   19.7716   21.4340 C   0  0  0  0  0  0  0  0  0  0  0  0
   19.9622   20.5082   21.1650 H   0  0  0  0  0  0  0  0  0  0  0  0
   18.2313   20.3028   21.4018 H   0  0  0  0  0  0  0  0  0  0  0  0
   19.4390   19.2607   22.8738 C   0  0  0  0  0  0  0  0  0  0  0  0
   20.4305   18.7940   22.9396 H   0  0  0  0  0  0  0  0  0  0  0  0
   18.7011   18.4829   23.1093 H   0  0  0  0  0  0  0  0  0  0  0  0
   19.3481   20.4066   23.9100 C   0  0  0  0  0  0  0  0  0  0  0  0
   20.0361   21.2109   23.6148 H   0  0  0  0  0  0  0  0  0  0  0  0
   18.3396   20.8422   23.8942 H   0  0  0  0  0  0  0  0  0  0  0  0
   19.6996   19.9650   25.3518 C   0  0  0  0  0  0  0  0  0  0  0  0
   19.7150   20.8560   25.9949 H   0  0  0  0  0  0  0  0  0  0  0  0
   20.7181   19.5544   25.3668 H   0  0  0  0  0  0  0  0  0  0  0  0
   18.7031   18.9362   25.9418 C   0  0  0  0  0  0  0  0  0  0  0  0
   17.6795   19.3197   25.8377 H   0  0  0  0  0  0  0  0  0  0  0  0
   18.7458   17.9945   25.3802 H   0  0  0  0  0  0  0  0  0  0  0  0
   18.9664   18.6461   27.4318 C   0  0  0  0  0  0  0  0  0  0  0  0
   18.1911   17.9765   27.8141 H   0  0  0  0  0  0  0  0  0  0  0  0
   18.9237   19.5783   28.0015 H   0  0  0  0  0  0  0  0  0  0  0  0
   20.3092   17.9943   27.6965 N   0  3  0  0  0  0  0  0  0  0  0  0
   20.4009   17.0989   27.2056 H   0  0  0  0  0  0  0  0  0  0  0  0
   20.4504   17.8052   28.6950 H   0  0  0  0  0  0  0  0  0  0  0  0
   21.0857   18.5891   27.3905 H   0  0  0  0  0  0  0  0  0  0  0  0
  1  2  1  0  0  0  0
  1  3  1  0  0  0  0
  1  4  1  0  0  0  0
  1  5  1  0  0  0  0
  5  6  1  0  0  0  0
  5  7  1  0  0  0  0
  5  8  1  0  0  0  0
  8  9  1  0  0  0  0
  8 10  1  0  0  0  0
  8 11  1  0  0  0  0
 11 12  1  0  0  0  0
 11 13  1  0  0  0  0
 11 14  1  0  0  0  0
 14 15  1  0  0  0  0
 14 16  1  0  0  0  0
 14 17  1  0  0  0  0
 17 18  1  0  0  0  0
 17 19  1  0  0  0  0
 17 20  1  0  0  0  0
 20 21  1  0  0  0  0
 20 22  1  0  0  0  0
 20 23  1  0  0  0  0
 23 24  1  0  0  0  0
 23 25  1  0  0  0  0
 23 26  1  0  0  0  0
 26 27  1  0  0  0  0
 26 28  1  0  0  0  0
 26 29  1  0  0  0  0
M  END
> <VM2 Rank>
82

> <Conf_Id>
215

> <Probability>
0.37

> <Sum Probability>
76.12

> <Delta G>
1.588

> <G>
59.734

> <E>
22.221

> <-TS>
37.514

> <U+W>
-1.924

> <U>
49.857

> <W>
-51.781

> <W(PB)>
-54.284

> <W(SA)>
2.503

> <Valence>
3.719

> <Coulomb>
45.090

> <VdW>
1.048

> <VdW6>
-8.764

> <VdW12>
9.811

> <Bond>
0.240

> <Angle>
0.912

> <Pdih>
2.568

> <Idih>
0.000

> <Tether>
0.000

$$$$
VeraChem MOL file


 29 28  0  0  0  0  0  0  0  0999 V2000     
   20.8027   18.1967   20.5298 C   0  0  0  0  0  0  0  0  0  0  0  0
   20.9866   17.7765   21.5265 H   0  0  0  0  0  0  0  0  0  0  0  0
   20.2459   17.4562   19.9410 H   0  0  0  0  0  0  0  0  0  0  0  0
   21.7779   18.3448   20.0484 H   0  0  0  0  0  0  0  0  0  0  0  0
   20.0314   19.5332   20.6130 C   0  0  0  0  0  0  0  0  0  0  0  0
   19.9760   19.9727   19.6074 H   0  0  0  0  0  0  0  0  0  0  0  0
   20.5971   20.2502   21.2229 H   0  0  0  0  0  0  0  0  0  0  0  0
   18.5908   19.3802   21.1641 C   0  0  0  0  0  0  0  0  0  0  0  0
   18.1049   20.3656   21.1622 H   0  0  0  0  0  0  0  0  0  0  0  0
   18.0099   18.7575   20.4698 H   0  0  0  0  0  0  0  0  0  0  0  0
   18.4859   18.7696   22.5855 C   0  0  0  0  0  0  0  0  0  0  0  0
   18.8666   17.7397   22.5794 H   0  0  0  0  0  0  0  0  0  0  0  0
   17.4225   18.6968   22.8520 H   0  0  0  0  0  0  0  0  0  0  0  0
   19.2214   19.5940   23.6689 C   0  0  0  0  0  0  0  0  0  0  0  0
   20.2982   19.6143   23.4554 H   0  0  0  0  0  0  0  0  0  0  0  0
   18.8694   20.6343   23.6397 H   0  0  0  0  0  0  0  0  0  0  0  0
   18.9978   19.0115   25.0826 C   0  0  0  0  0  0  0  0  0  0  0  0
   19.3428   17.9690   25.1022 H   0  0  0  0  0  0  0  0  0  0  0  0
   17.9224   18.9963   25.3078 H   0  0  0  0  0  0  0  0  0  0  0  0
   19.7387   19.8316   26.1649 C   0  0  0  0  0  0  0  0  0  0  0  0
   20.8190   19.8268   25.9672 H   0  0  0  0  0  0  0  0  0  0  0  0
   19.4150   20.8796   26.1120 H   0  0  0  0  0  0  0  0  0  0  0  0
   19.4745   19.3110   27.5908 C   0  0  0  0  0  0  0  0  0  0  0  0
   18.3992   19.3087   27.7885 H   0  0  0  0  0  0  0  0  0  0  0  0
   19.9532   19.9762   28.3145 H   0  0  0  0  0  0  0  0  0  0  0  0
   20.0007   17.9104   27.8356 N   0  3  0  0  0  0  0  0  0  0  0  0
   19.5636   17.2265   27.2099 H   0  0  0  0  0  0  0  0  0  0  0  0
   19.8198   17.5982   28.7960 H   0  0  0  0  0  0  0  0  0  0  0  0
   21.0137   17.8534   27.6875 H   0  0  0  0  0  0  0  0  0  0  0  0
  1  2  1  0  0  0  0
  1  3  1  0  0  0  0
  1  4  1  0  0  0  0
  1  5  1  0  0  0  0
  5  6  1  0  0  0  0
  5  7  1  0  0  0  0
  5  8  1  0  0  0  0
  8  9  1  0  0  0  0
  8 10  1  0  0  0  0
  8 11  1  0  0  0  0
 11 12  1  0  0  0  0
 11 13  1  0  0  0  0
 11 14  1  0  0  0  0
 14 15  1  0  0  0  0
 14 16  1  0  0  0  0
 14 17  1  0  0  0  0
 17 18  1  0  0  0  0
 17 19  1  0  0  0  0
 17 20  1  0  0  0  0
 20 21  1  0  0  0  0
 20 22  1  0  0  0  0
 20 23  1  0  0  0  0
 23 24  1  0  0  0  0
 23 25  1  0  0  0  0
 23 26  1  0  0  0  0
 26 27  1  0  0  0  0
 26 28  1  0  0  0  0
 26 29  1  0  0  0  0
M  END
> <VM2 Rank>
83

> <Conf_Id>
1922

> <Probability>
0.36

> <Sum Probability>
76.48

> <Delta G>
1.602

> <G>
59.749

> <E>
22.029

> <-TS>
37.720

> <U+W>
-2.116

> <U>
49.570

> <W>
-51.685

> <W(PB)>
-54.165

> <W(SA)>
2.480

> <Valence>
3.642

> <Coulomb>
45.000

> <VdW>
0.928

> <VdW6>
-9.033

> <VdW12>
9.961

> <Bond>
0.244

> <Angle>
1.082

> <Pdih>
2.316

> <Idih>
0.000

> <Tether>
0.000

$$$$
VeraChem MOL file


 29 28  0  0  0  0  0  0  0  0999 V2000     
   21.0826   19.4661   20.2614 C   0  0  0  0  0  0  0  0  0  0  0  0
   21.9414   19.0897   20.8324 H   0  0  0  0  0  0  0  0  0  0  0  0
   20.9016   18.7801   19.4236 H   0  0  0  0  0  0  0  0  0  0  0  0
   21.3576   20.4431   19.8433 H   0  0  0  0  0  0  0  0  0  0  0  0
   19.8324   19.5895   21.1579 C   0  0  0  0  0  0  0  0  0  0  0  0
   18.9990   19.9957   20.5680 H   0  0  0  0  0  0  0  0  0  0  0  0
   20.0385   20.3120   21.9588 H   0  0  0  0  0  0  0  0  0  0  0  0
   19.4276   18.2247   21.7626 C   0  0  0  0  0  0  0  0  0  0  0  0
   19.3000   17.4980   20.9485 H   0  0  0  0  0  0  0  0  0  0  0  0
   20.2446   17.8375   22.3855 H   0  0  0  0  0  0  0  0  0  0  0  0
   18.1120   18.2739   22.5820 C   0  0  0  0  0  0  0  0  0  0  0  0
   17.8856   17.2622   22.9458 H   0  0  0  0  0  0  0  0  0  0  0  0
   17.2850   18.5431   21.9106 H   0  0  0  0  0  0  0  0  0  0  0  0
   18.1136   19.2516   23.7855 C   0  0  0  0  0  0  0  0  0  0  0  0
   18.2128   20.2853   23.4289 H   0  0  0  0  0  0  0  0  0  0  0  0
   17.1322   19.1955   24.2764 H   0  0  0  0  0  0  0  0  0  0  0  0
   19.2160   18.9483   24.8282 C   0  0  0  0  0  0  0  0  0  0  0  0
   20.2067   19.0758   24.3721 H   0  0  0  0  0  0  0  0  0  0  0  0
   19.1387   17.8986   25.1408 H   0  0  0  0  0  0  0  0  0  0  0  0
   19.1065   19.8750   26.0619 C   0  0  0  0  0  0  0  0  0  0  0  0
   19.1431   20.9224   25.7339 H   0  0  0  0  0  0  0  0  0  0  0  0
   18.1348   19.7342   26.5539 H   0  0  0  0  0  0  0  0  0  0  0  0
   20.2377   19.6434   27.0820 C   0  0  0  0  0  0  0  0  0  0  0  0
   20.1564   20.3786   27.8872 H   0  0  0  0  0  0  0  0  0  0  0  0
   21.2068   19.7775   26.5939 H   0  0  0  0  0  0  0  0  0  0  0  0
   20.2157   18.2654   27.7136 N   0  3  0  0  0  0  0  0  0  0  0  0
   19.3357   18.0882   28.2091 H   0  0  0  0  0  0  0  0  0  0  0  0
   20.9731   18.1470   28.3955 H   0  0  0  0  0  0  0  0  0  0  0  0
   20.3236   17.5255   27.0129 H   0  0  0  0  0  0  0  0  0  0  0  0
  1  2  1  0  0  0  0
  1  3  1  0  0  0  0
  1  4  1  0  0  0  0
  1  5  1  0  0  0  0
  5  6  1  0  0  0  0
  5  7  1  0  0  0  0
  5  8  1  0  0  0  0
  8  9  1  0  0  0  0
  8 10  1  0  0  0  0
  8 11  1  0  0  0  0
 11 12  1  0  0  0  0
 11 13  1  0  0  0  0
 11 14  1  0  0  0  0
 14 15  1  0  0  0  0
 14 16  1  0  0  0  0
 14 17  1  0  0  0  0
 17 18  1  0  0  0  0
 17 19  1  0  0  0  0
 17 20  1  0  0  0  0
 20 21  1  0  0  0  0
 20 22  1  0  0  0  0
 20 23  1  0  0  0  0
 23 24  1  0  0  0  0
 23 25  1  0  0  0  0
 23 26  1  0  0  0  0
 26 27  1  0  0  0  0
 26 28  1  0  0  0  0
 26 29  1  0  0  0  0
M  END
> <VM2 Rank>
84

> <Conf_Id>
1330

> <Probability>
0.36

> <Sum Probability>
76.84

> <Delta G>
1.604

> <G>
59.750

> <E>
22.010

> <-TS>
37.740

> <U+W>
-2.134

> <U>
49.772

> <W>
-51.906

> <W(PB)>
-54.376

> <W(SA)>
2.470

> <Valence>
3.673

> <Coulomb>
45.240

> <VdW>
0.859

> <VdW6>
-9.177

> <VdW12>
10.036

> <Bond>
0.248

> <Angle>
1.115

> <Pdih>
2.310

> <Idih>
0.000

> <Tether>
0.000

$$$$
VeraChem MOL file


 29 28  0  0  0  0  0  0  0  0999 V2000     
   21.0624   19.4364   20.2538 C   0  0  0  0  0  0  0  0  0  0  0  0
   21.2413   18.3856   19.9915 H   0  0  0  0  0  0  0  0  0  0  0  0
   21.4967   20.0591   19.4609 H   0  0  0  0  0  0  0  0  0  0  0  0
   21.6056   19.6572   21.1810 H   0  0  0  0  0  0  0  0  0  0  0  0
   19.5508   19.7231   20.3995 C   0  0  0  0  0  0  0  0  0  0  0  0
   19.0718   19.6054   19.4175 H   0  0  0  0  0  0  0  0  0  0  0  0
   19.4000   20.7718   20.6915 H   0  0  0  0  0  0  0  0  0  0  0  0
   18.8429   18.7909   21.4122 C   0  0  0  0  0  0  0  0  0  0  0  0
   17.7629   18.9891   21.3727 H   0  0  0  0  0  0  0  0  0  0  0  0
   18.9770   17.7451   21.1032 H   0  0  0  0  0  0  0  0  0  0  0  0
   19.3366   18.9732   22.8674 C   0  0  0  0  0  0  0  0  0  0  0  0
   19.2534   20.0322   23.1441 H   0  0  0  0  0  0  0  0  0  0  0  0
   20.3988   18.7050   22.9374 H   0  0  0  0  0  0  0  0  0  0  0  0
   18.5274   18.1027   23.8585 C   0  0  0  0  0  0  0  0  0  0  0  0
   17.4708   18.4036   23.8397 H   0  0  0  0  0  0  0  0  0  0  0  0
   18.5563   17.0571   23.5218 H   0  0  0  0  0  0  0  0  0  0  0  0
   19.0584   18.1650   25.3115 C   0  0  0  0  0  0  0  0  0  0  0  0
   20.1069   17.8388   25.3283 H   0  0  0  0  0  0  0  0  0  0  0  0
   18.4984   17.4401   25.9184 H   0  0  0  0  0  0  0  0  0  0  0  0
   18.9279   19.5676   25.9560 C   0  0  0  0  0  0  0  0  0  0  0  0
   19.5638   20.2920   25.4317 H   0  0  0  0  0  0  0  0  0  0  0  0
   17.8937   19.9215   25.8514 H   0  0  0  0  0  0  0  0  0  0  0  0
   19.2943   19.5666   27.4525 C   0  0  0  0  0  0  0  0  0  0  0  0
   18.6645   18.8491   27.9853 H   0  0  0  0  0  0  0  0  0  0  0  0
   19.1110   20.5595   27.8721 H   0  0  0  0  0  0  0  0  0  0  0  0
   20.7432   19.2124   27.7237 N   0  3  0  0  0  0  0  0  0  0  0  0
   20.9737   18.2737   27.3832 H   0  0  0  0  0  0  0  0  0  0  0  0
   20.9581   19.2300   28.7267 H   0  0  0  0  0  0  0  0  0  0  0  0
   21.3867   19.8673   27.2674 H   0  0  0  0  0  0  0  0  0  0  0  0
  1  2  1  0  0  0  0
  1  3  1  0  0  0  0
  1  4  1  0  0  0  0
  1  5  1  0  0  0  0
  5  6  1  0  0  0  0
  5  7  1  0  0  0  0
  5  8  1  0  0  0  0
  8  9  1  0  0  0  0
  8 10  1  0  0  0  0
  8 11  1  0  0  0  0
 11 12  1  0  0  0  0
 11 13  1  0  0  0  0
 11 14  1  0  0  0  0
 14 15  1  0  0  0  0
 14 16  1  0  0  0  0
 14 17  1  0  0  0  0
 17 18  1  0  0  0  0
 17 19  1  0  0  0  0
 17 20  1  0  0  0  0
 20 21  1  0  0  0  0
 20 22  1  0  0  0  0
 20 23  1  0  0  0  0
 23 24  1  0  0  0  0
 23 25  1  0  0  0  0
 23 26  1  0  0  0  0
 26 27  1  0  0  0  0
 26 28  1  0  0  0  0
 26 29  1  0  0  0  0
M  END
> <VM2 Rank>
85

> <Conf_Id>
1552

> <Probability>
0.36

> <Sum Probability>
77.19

> <Delta G>
1.609

> <G>
59.755

> <E>
22.242

> <-TS>
37.514

> <U+W>
-1.903

> <U>
49.857

> <W>
-51.760

> <W(PB)>
-54.267

> <W(SA)>
2.508

> <Valence>
3.719

> <Coulomb>
45.090

> <VdW>
1.048

> <VdW6>
-8.764

> <VdW12>
9.811

> <Bond>
0.240

> <Angle>
0.912

> <Pdih>
2.568

> <Idih>
0.000

> <Tether>
0.000

$$$$
VeraChem MOL file


 29 28  0  0  0  0  0  0  0  0999 V2000     
   19.7821   18.9537   19.4885 C   0  0  0  0  0  0  0  0  0  0  0  0
   20.8282   18.6215   19.5067 H   0  0  0  0  0  0  0  0  0  0  0  0
   19.3704   18.7118   18.5001 H   0  0  0  0  0  0  0  0  0  0  0  0
   19.7656   20.0455   19.5933 H   0  0  0  0  0  0  0  0  0  0  0  0
   18.9599   18.2625   20.5999 C   0  0  0  0  0  0  0  0  0  0  0  0
   18.9007   17.1879   20.3773 H   0  0  0  0  0  0  0  0  0  0  0  0
   17.9269   18.6370   20.5836 H   0  0  0  0  0  0  0  0  0  0  0  0
   19.5600   18.4423   22.0154 C   0  0  0  0  0  0  0  0  0  0  0  0
   18.9907   17.8082   22.7067 H   0  0  0  0  0  0  0  0  0  0  0  0
   20.5920   18.0657   22.0266 H   0  0  0  0  0  0  0  0  0  0  0  0
   19.5326   19.9093   22.5149 C   0  0  0  0  0  0  0  0  0  0  0  0
   18.5002   20.2847   22.5081 H   0  0  0  0  0  0  0  0  0  0  0  0
   20.0961   20.5422   21.8174 H   0  0  0  0  0  0  0  0  0  0  0  0
   20.1429   20.0951   23.9262 C   0  0  0  0  0  0  0  0  0  0  0  0
   21.1740   19.7155   23.9340 H   0  0  0  0  0  0  0  0  0  0  0  0
   20.2096   21.1719   24.1347 H   0  0  0  0  0  0  0  0  0  0  0  0
   19.3262   19.4155   25.0517 C   0  0  0  0  0  0  0  0  0  0  0  0
   19.3167   18.3294   24.8986 H   0  0  0  0  0  0  0  0  0  0  0  0
   18.2825   19.7560   25.0046 H   0  0  0  0  0  0  0  0  0  0  0  0
   19.9077   19.7320   26.4500 C   0  0  0  0  0  0  0  0  0  0  0  0
   20.9428   19.3714   26.5174 H   0  0  0  0  0  0  0  0  0  0  0  0
   19.9451   20.8204   26.5910 H   0  0  0  0  0  0  0  0  0  0  0  0
   19.0745   19.1217   27.5935 C   0  0  0  0  0  0  0  0  0  0  0  0
   18.0413   19.4723   27.5240 H   0  0  0  0  0  0  0  0  0  0  0  0
   19.4820   19.4493   28.5538 H   0  0  0  0  0  0  0  0  0  0  0  0
   19.0580   17.6058   27.5948 N   0  3  0  0  0  0  0  0  0  0  0  0
   18.6513   17.2302   26.7324 H   0  0  0  0  0  0  0  0  0  0  0  0
   18.5067   17.2318   28.3751 H   0  0  0  0  0  0  0  0  0  0  0  0
   20.0022   17.2152   27.6806 H   0  0  0  0  0  0  0  0  0  0  0  0
  1  2  1  0  0  0  0
  1  3  1  0  0  0  0
  1  4  1  0  0  0  0
  1  5  1  0  0  0  0
  5  6  1  0  0  0  0
  5  7  1  0  0  0  0
  5  8  1  0  0  0  0
  8  9  1  0  0  0  0
  8 10  1  0  0  0  0
  8 11  1  0  0  0  0
 11 12  1  0  0  0  0
 11 13  1  0  0  0  0
 11 14  1  0  0  0  0
 14 15  1  0  0  0  0
 14 16  1  0  0  0  0
 14 17  1  0  0  0  0
 17 18  1  0  0  0  0
 17 19  1  0  0  0  0
 17 20  1  0  0  0  0
 20 21  1  0  0  0  0
 20 22  1  0  0  0  0
 20 23  1  0  0  0  0
 23 24  1  0  0  0  0
 23 25  1  0  0  0  0
 23 26  1  0  0  0  0
 26 27  1  0  0  0  0
 26 28  1  0  0  0  0
 26 29  1  0  0  0  0
M  END
> <VM2 Rank>
86

> <Conf_Id>
235

> <Probability>
0.35

> <Sum Probability>
77.55

> <Delta G>
1.610

> <G>
59.756

> <E>
22.321

> <-TS>
37.435

> <U+W>
-1.824

> <U>
50.173

> <W>
-51.996

> <W(PB)>
-54.483

> <W(SA)>
2.487

> <Valence>
3.804

> <Coulomb>
45.246

> <VdW>
1.123

> <VdW6>
-8.691

> <VdW12>
9.815

> <Bond>
0.250

> <Angle>
0.987

> <Pdih>
2.567

> <Idih>
0.000

> <Tether>
0.000

$$$$
VeraChem MOL file


 29 28  0  0  0  0  0  0  0  0999 V2000     
   19.7097   19.2128   19.4520 C   0  0  0  0  0  0  0  0  0  0  0  0
   19.9093   18.1417   19.3182 H   0  0  0  0  0  0  0  0  0  0  0  0
   19.3647   19.6127   18.4897 H   0  0  0  0  0  0  0  0  0  0  0  0
   20.6558   19.7118   19.6951 H   0  0  0  0  0  0  0  0  0  0  0  0
   18.6446   19.4471   20.5472 C   0  0  0  0  0  0  0  0  0  0  0  0
   17.6852   19.0403   20.1982 H   0  0  0  0  0  0  0  0  0  0  0  0
   18.4882   20.5259   20.6870 H   0  0  0  0  0  0  0  0  0  0  0  0
   18.9970   18.7890   21.9033 C   0  0  0  0  0  0  0  0  0  0  0  0
   18.1279   18.8923   22.5652 H   0  0  0  0  0  0  0  0  0  0  0  0
   19.1508   17.7109   21.7585 H   0  0  0  0  0  0  0  0  0  0  0  0
   20.2440   19.4089   22.5839 C   0  0  0  0  0  0  0  0  0  0  0  0
   20.0891   20.4864   22.7316 H   0  0  0  0  0  0  0  0  0  0  0  0
   21.1102   19.3098   21.9172 H   0  0  0  0  0  0  0  0  0  0  0  0
   20.6050   18.7463   23.9363 C   0  0  0  0  0  0  0  0  0  0  0  0
   20.7593   17.6685   23.7880 H   0  0  0  0  0  0  0  0  0  0  0  0
   21.5688   19.1518   24.2740 H   0  0  0  0  0  0  0  0  0  0  0  0
   19.5486   18.9769   25.0436 C   0  0  0  0  0  0  0  0  0  0  0  0
   18.5995   18.5023   24.7625 H   0  0  0  0  0  0  0  0  0  0  0  0
   19.3536   20.0534   25.1389 H   0  0  0  0  0  0  0  0  0  0  0  0
   20.0129   18.4045   26.4038 C   0  0  0  0  0  0  0  0  0  0  0  0
   20.2453   17.3374   26.2885 H   0  0  0  0  0  0  0  0  0  0  0  0
   20.9424   18.8953   26.7217 H   0  0  0  0  0  0  0  0  0  0  0  0
   18.9486   18.5556   27.5075 C   0  0  0  0  0  0  0  0  0  0  0  0
   19.2979   18.0621   28.4185 H   0  0  0  0  0  0  0  0  0  0  0  0
   18.0199   18.0724   27.1922 H   0  0  0  0  0  0  0  0  0  0  0  0
   18.6337   19.9968   27.8573 N   0  3  0  0  0  0  0  0  0  0  0  0
   17.9314   20.0631   28.6023 H   0  0  0  0  0  0  0  0  0  0  0  0
   18.2658   20.5109   27.0508 H   0  0  0  0  0  0  0  0  0  0  0  0
   19.4656   20.4993   28.1839 H   0  0  0  0  0  0  0  0  0  0  0  0
  1  2  1  0  0  0  0
  1  3  1  0  0  0  0
  1  4  1  0  0  0  0
  1  5  1  0  0  0  0
  5  6  1  0  0  0  0
  5  7  1  0  0  0  0
  5  8  1  0  0  0  0
  8  9  1  0  0  0  0
  8 10  1  0  0  0  0
  8 11  1  0  0  0  0
 11 12  1  0  0  0  0
 11 13  1  0  0  0  0
 11 14  1  0  0  0  0
 14 15  1  0  0  0  0
 14 16  1  0  0  0  0
 14 17  1  0  0  0  0
 17 18  1  0  0  0  0
 17 19  1  0  0  0  0
 17 20  1  0  0  0  0
 20 21  1  0  0  0  0
 20 22  1  0  0  0  0
 20 23  1  0  0  0  0
 23 24  1  0  0  0  0
 23 25  1  0  0  0  0
 23 26  1  0  0  0  0
 26 27  1  0  0  0  0
 26 28  1  0  0  0  0
 26 29  1  0  0  0  0
M  END
> <VM2 Rank>
87

> <Conf_Id>
942

> <Probability>
0.35

> <Sum Probability>
77.90

> <Delta G>
1.614

> <G>
59.761

> <E>
22.316

> <-TS>
37.445

> <U+W>
-1.829

> <U>
49.938

> <W>
-51.767

> <W(PB)>
-54.247

> <W(SA)>
2.481

> <Valence>
3.804

> <Coulomb>
45.009

> <VdW>
1.125

> <VdW6>
-8.684

> <VdW12>
9.808

> <Bond>
0.248

> <Angle>
0.990

> <Pdih>
2.567

> <Idih>
0.000

> <Tether>
0.000

$$$$
VeraChem MOL file


 29 28  0  0  0  0  0  0  0  0999 V2000     
   20.8130   19.8829   20.0012 C   0  0  0  0  0  0  0  0  0  0  0  0
   21.5186   20.4380   20.6331 H   0  0  0  0  0  0  0  0  0  0  0  0
   21.2827   18.9319   19.7179 H   0  0  0  0  0  0  0  0  0  0  0  0
   20.6512   20.4652   19.0848 H   0  0  0  0  0  0  0  0  0  0  0  0
   19.4781   19.6442   20.7379 C   0  0  0  0  0  0  0  0  0  0  0  0
   18.7820   19.1184   20.0694 H   0  0  0  0  0  0  0  0  0  0  0  0
   19.0164   20.6120   20.9790 H   0  0  0  0  0  0  0  0  0  0  0  0
   19.6779   18.8253   22.0322 C   0  0  0  0  0  0  0  0  0  0  0  0
   20.1367   17.8576   21.7867 H   0  0  0  0  0  0  0  0  0  0  0  0
   20.3818   19.3563   22.6863 H   0  0  0  0  0  0  0  0  0  0  0  0
   18.3412   18.5903   22.7754 C   0  0  0  0  0  0  0  0  0  0  0  0
   17.6250   18.1259   22.0836 H   0  0  0  0  0  0  0  0  0  0  0  0
   17.9001   19.5542   23.0614 H   0  0  0  0  0  0  0  0  0  0  0  0
   18.4753   17.6769   24.0214 C   0  0  0  0  0  0  0  0  0  0  0  0
   17.4808   17.5437   24.4691 H   0  0  0  0  0  0  0  0  0  0  0  0
   18.7934   16.6770   23.6953 H   0  0  0  0  0  0  0  0  0  0  0  0
   19.4549   18.1773   25.1144 C   0  0  0  0  0  0  0  0  0  0  0  0
   20.4788   18.2020   24.7184 H   0  0  0  0  0  0  0  0  0  0  0  0
   19.4636   17.4372   25.9253 H   0  0  0  0  0  0  0  0  0  0  0  0
   19.0831   19.5666   25.6903 C   0  0  0  0  0  0  0  0  0  0  0  0
   19.1152   20.3191   24.8925 H   0  0  0  0  0  0  0  0  0  0  0  0
   18.0530   19.5534   26.0703 H   0  0  0  0  0  0  0  0  0  0  0  0
   20.0393   20.0207   26.8099 C   0  0  0  0  0  0  0  0  0  0  0  0
   19.7887   21.0424   27.1080 H   0  0  0  0  0  0  0  0  0  0  0  0
   21.0681   20.0160   26.4400 H   0  0  0  0  0  0  0  0  0  0  0  0
   19.9813   19.1537   28.0523 N   0  3  0  0  0  0  0  0  0  0  0  0
   20.2422   18.1835   27.8504 H   0  0  0  0  0  0  0  0  0  0  0  0
   19.0408   19.1363   28.4602 H   0  0  0  0  0  0  0  0  0  0  0  0
   20.6187   19.4909   28.7820 H   0  0  0  0  0  0  0  0  0  0  0  0
  1  2  1  0  0  0  0
  1  3  1  0  0  0  0
  1  4  1  0  0  0  0
  1  5  1  0  0  0  0
  5  6  1  0  0  0  0
  5  7  1  0  0  0  0
  5  8  1  0  0  0  0
  8  9  1  0  0  0  0
  8 10  1  0  0  0  0
  8 11  1  0  0  0  0
 11 12  1  0  0  0  0
 11 13  1  0  0  0  0
 11 14  1  0  0  0  0
 14 15  1  0  0  0  0
 14 16  1  0  0  0  0
 14 17  1  0  0  0  0
 17 18  1  0  0  0  0
 17 19  1  0  0  0  0
 17 20  1  0  0  0  0
 20 21  1  0  0  0  0
 20 22  1  0  0  0  0
 20 23  1  0  0  0  0
 23 24  1  0  0  0  0
 23 25  1  0  0  0  0
 23 26  1  0  0  0  0
 26 27  1  0  0  0  0
 26 28  1  0  0  0  0
 26 29  1  0  0  0  0
M  END
> <VM2 Rank>
88

> <Conf_Id>
2638

> <Probability>
0.35

> <Sum Probability>
78.25

> <Delta G>
1.621

> <G>
59.767

> <E>
22.035

> <-TS>
37.732

> <U+W>
-2.110

> <U>
49.725

> <W>
-51.835

> <W(PB)>
-54.328

> <W(SA)>
2.493

> <Valence>
3.695

> <Coulomb>
45.138

> <VdW>
0.892

> <VdW6>
-9.156

> <VdW12>
10.048

> <Bond>
0.255

> <Angle>
1.154

> <Pdih>
2.287

> <Idih>
0.000

> <Tether>
0.000

$$$$
VeraChem MOL file


 29 28  0  0  0  0  0  0  0  0999 V2000     
   20.3719   20.3296   20.2158 C   0  0  0  0  0  0  0  0  0  0  0  0
   20.2461   21.0045   21.0714 H   0  0  0  0  0  0  0  0  0  0  0  0
   21.3848   19.9085   20.2550 H   0  0  0  0  0  0  0  0  0  0  0  0
   20.2954   20.9358   19.3039 H   0  0  0  0  0  0  0  0  0  0  0  0
   19.3049   19.2115   20.2126 C   0  0  0  0  0  0  0  0  0  0  0  0
   19.3938   18.6404   19.2778 H   0  0  0  0  0  0  0  0  0  0  0  0
   18.3010   19.6585   20.2056 H   0  0  0  0  0  0  0  0  0  0  0  0
   19.4342   18.2336   21.4054 C   0  0  0  0  0  0  0  0  0  0  0  0
   18.7162   17.4142   21.2628 H   0  0  0  0  0  0  0  0  0  0  0  0
   20.4325   17.7748   21.3973 H   0  0  0  0  0  0  0  0  0  0  0  0
   19.1769   18.8986   22.7789 C   0  0  0  0  0  0  0  0  0  0  0  0
   18.1978   19.3967   22.7669 H   0  0  0  0  0  0  0  0  0  0  0  0
   19.9307   19.6755   22.9544 H   0  0  0  0  0  0  0  0  0  0  0  0
   19.2178   17.8657   23.9308 C   0  0  0  0  0  0  0  0  0  0  0  0
   18.5122   17.0535   23.7072 H   0  0  0  0  0  0  0  0  0  0  0  0
   20.2136   17.4039   23.9796 H   0  0  0  0  0  0  0  0  0  0  0  0
   18.8537   18.4613   25.3131 C   0  0  0  0  0  0  0  0  0  0  0  0
   18.7800   17.6346   26.0319 H   0  0  0  0  0  0  0  0  0  0  0  0
   17.8557   18.9186   25.2652 H   0  0  0  0  0  0  0  0  0  0  0  0
   19.8798   19.5012   25.8293 C   0  0  0  0  0  0  0  0  0  0  0  0
   20.8848   19.0595   25.8521 H   0  0  0  0  0  0  0  0  0  0  0  0
   19.9257   20.3528   25.1394 H   0  0  0  0  0  0  0  0  0  0  0  0
   19.5243   20.0424   27.2276 C   0  0  0  0  0  0  0  0  0  0  0  0
   18.5161   20.4650   27.2135 H   0  0  0  0  0  0  0  0  0  0  0  0
   20.2241   20.8383   27.4965 H   0  0  0  0  0  0  0  0  0  0  0  0
   19.5805   18.9941   28.3215 N   0  3  0  0  0  0  0  0  0  0  0  0
   19.3525   19.3900   29.2401 H   0  0  0  0  0  0  0  0  0  0  0  0
   20.5129   18.5747   28.3989 H   0  0  0  0  0  0  0  0  0  0  0  0
   18.9180   18.2312   28.1505 H   0  0  0  0  0  0  0  0  0  0  0  0
  1  2  1  0  0  0  0
  1  3  1  0  0  0  0
  1  4  1  0  0  0  0
  1  5  1  0  0  0  0
  5  6  1  0  0  0  0
  5  7  1  0  0  0  0
  5  8  1  0  0  0  0
  8  9  1  0  0  0  0
  8 10  1  0  0  0  0
  8 11  1  0  0  0  0
 11 12  1  0  0  0  0
 11 13  1  0  0  0  0
 11 14  1  0  0  0  0
 14 15  1  0  0  0  0
 14 16  1  0  0  0  0
 14 17  1  0  0  0  0
 17 18  1  0  0  0  0
 17 19  1  0  0  0  0
 17 20  1  0  0  0  0
 20 21  1  0  0  0  0
 20 22  1  0  0  0  0
 20 23  1  0  0  0  0
 23 24  1  0  0  0  0
 23 25  1  0  0  0  0
 23 26  1  0  0  0  0
 26 27  1  0  0  0  0
 26 28  1  0  0  0  0
 26 29  1  0  0  0  0
M  END
> <VM2 Rank>
89

> <Conf_Id>
170

> <Probability>
0.35

> <Sum Probability>
78.60

> <Delta G>
1.622

> <G>
59.768

> <E>
22.294

> <-TS>
37.474

> <U+W>
-1.851

> <U>
49.690

> <W>
-51.541

> <W(PB)>
-54.029

> <W(SA)>
2.489

> <Valence>
3.753

> <Coulomb>
44.825

> <VdW>
1.112

> <VdW6>
-8.728

> <VdW12>
9.840

> <Bond>
0.247

> <Angle>
0.961

> <Pdih>
2.544

> <Idih>
0.000

> <Tether>
0.000

$$$$
VeraChem MOL file


 29 28  0  0  0  0  0  0  0  0999 V2000     
   19.2711   18.9865   19.2663 C   0  0  0  0  0  0  0  0  0  0  0  0
   18.3195   19.1180   18.7349 H   0  0  0  0  0  0  0  0  0  0  0  0
   19.9370   19.8089   18.9740 H   0  0  0  0  0  0  0  0  0  0  0  0
   19.7202   18.0448   18.9249 H   0  0  0  0  0  0  0  0  0  0  0  0
   19.0451   18.9725   20.7930 C   0  0  0  0  0  0  0  0  0  0  0  0
   18.3529   18.1590   21.0514 H   0  0  0  0  0  0  0  0  0  0  0  0
   18.5589   19.9113   21.0899 H   0  0  0  0  0  0  0  0  0  0  0  0
   20.3739   18.7924   21.5641 C   0  0  0  0  0  0  0  0  0  0  0  0
   20.8800   17.8886   21.1977 H   0  0  0  0  0  0  0  0  0  0  0  0
   21.0466   19.6328   21.3442 H   0  0  0  0  0  0  0  0  0  0  0  0
   20.1871   18.6637   23.0958 C   0  0  0  0  0  0  0  0  0  0  0  0
   21.1616   18.4314   23.5469 H   0  0  0  0  0  0  0  0  0  0  0  0
   19.5345   17.8065   23.3074 H   0  0  0  0  0  0  0  0  0  0  0  0
   19.6166   19.9442   23.7563 C   0  0  0  0  0  0  0  0  0  0  0  0
   20.2094   20.8101   23.4309 H   0  0  0  0  0  0  0  0  0  0  0  0
   18.5902   20.1227   23.4100 H   0  0  0  0  0  0  0  0  0  0  0  0
   19.6286   19.8940   25.3036 C   0  0  0  0  0  0  0  0  0  0  0  0
   19.3053   20.8719   25.6869 H   0  0  0  0  0  0  0  0  0  0  0  0
   20.6594   19.7495   25.6538 H   0  0  0  0  0  0  0  0  0  0  0  0
   18.7088   18.7942   25.8901 C   0  0  0  0  0  0  0  0  0  0  0  0
   17.7017   18.8968   25.4646 H   0  0  0  0  0  0  0  0  0  0  0  0
   19.0715   17.7985   25.6052 H   0  0  0  0  0  0  0  0  0  0  0  0
   18.6002   18.8710   27.4249 C   0  0  0  0  0  0  0  0  0  0  0  0
   17.8821   18.1250   27.7762 H   0  0  0  0  0  0  0  0  0  0  0  0
   18.2374   19.8594   27.7194 H   0  0  0  0  0  0  0  0  0  0  0  0
   19.9127   18.6194   28.1408 N   0  3  0  0  0  0  0  0  0  0  0  0
   20.6243   19.3094   27.8804 H   0  0  0  0  0  0  0  0  0  0  0  0
   20.2938   17.6930   27.9223 H   0  0  0  0  0  0  0  0  0  0  0  0
   19.8058   18.6674   29.1600 H   0  0  0  0  0  0  0  0  0  0  0  0
  1  2  1  0  0  0  0
  1  3  1  0  0  0  0
  1  4  1  0  0  0  0
  1  5  1  0  0  0  0
  5  6  1  0  0  0  0
  5  7  1  0  0  0  0
  5  8  1  0  0  0  0
  8  9  1  0  0  0  0
  8 10  1  0  0  0  0
  8 11  1  0  0  0  0
 11 12  1  0  0  0  0
 11 13  1  0  0  0  0
 11 14  1  0  0  0  0
 14 15  1  0  0  0  0
 14 16  1  0  0  0  0
 14 17  1  0  0  0  0
 17 18  1  0  0  0  0
 17 19  1  0  0  0  0
 17 20  1  0  0  0  0
 20 21  1  0  0  0  0
 20 22  1  0  0  0  0
 20 23  1  0  0  0  0
 23 24  1  0  0  0  0
 23 25  1  0  0  0  0
 23 26  1  0  0  0  0
 26 27  1  0  0  0  0
 26 28  1  0  0  0  0
 26 29  1  0  0  0  0
M  END
> <VM2 Rank>
90

> <Conf_Id>
2948

> <Probability>
0.35

> <Sum Probability>
78.94

> <Delta G>
1.623

> <G>
59.769

> <E>
22.242

> <-TS>
37.527

> <U+W>
-1.902

> <U>
49.798

> <W>
-51.700

> <W(PB)>
-54.200

> <W(SA)>
2.500

> <Valence>
3.728

> <Coulomb>
45.048

> <VdW>
1.022

> <VdW6>
-8.813

> <VdW12>
9.835

> <Bond>
0.243

> <Angle>
0.890

> <Pdih>
2.595

> <Idih>
0.000

> <Tether>
0.000

$$$$
VeraChem MOL file


 29 28  0  0  0  0  0  0  0  0999 V2000     
   20.0480   17.7371   19.9529 C   0  0  0  0  0  0  0  0  0  0  0  0
   21.0170   18.1873   19.7008 H   0  0  0  0  0  0  0  0  0  0  0  0
   20.2349   16.8364   20.5522 H   0  0  0  0  0  0  0  0  0  0  0  0
   19.5673   17.4252   19.0166 H   0  0  0  0  0  0  0  0  0  0  0  0
   19.1545   18.7365   20.7175 C   0  0  0  0  0  0  0  0  0  0  0  0
   18.1816   18.2699   20.9266 H   0  0  0  0  0  0  0  0  0  0  0  0
   18.9570   19.6099   20.0804 H   0  0  0  0  0  0  0  0  0  0  0  0
   19.8088   19.1923   22.0403 C   0  0  0  0  0  0  0  0  0  0  0  0
   20.0091   18.3104   22.6627 H   0  0  0  0  0  0  0  0  0  0  0  0
   20.7794   19.6608   21.8268 H   0  0  0  0  0  0  0  0  0  0  0  0
   18.9114   20.1897   22.8112 C   0  0  0  0  0  0  0  0  0  0  0  0
   17.9563   19.7114   23.0649 H   0  0  0  0  0  0  0  0  0  0  0  0
   18.6599   21.0294   22.1486 H   0  0  0  0  0  0  0  0  0  0  0  0
   19.5753   20.7623   24.0903 C   0  0  0  0  0  0  0  0  0  0  0  0
   20.4585   21.3477   23.7996 H   0  0  0  0  0  0  0  0  0  0  0  0
   18.8829   21.4765   24.5569 H   0  0  0  0  0  0  0  0  0  0  0  0
   20.0022   19.7124   25.1488 C   0  0  0  0  0  0  0  0  0  0  0  0
   20.4656   20.2475   25.9881 H   0  0  0  0  0  0  0  0  0  0  0  0
   20.7852   19.0615   24.7376 H   0  0  0  0  0  0  0  0  0  0  0  0
   18.8276   18.8499   25.6744 C   0  0  0  0  0  0  0  0  0  0  0  0
   18.0327   19.4965   26.0691 H   0  0  0  0  0  0  0  0  0  0  0  0
   18.3879   18.2789   24.8472 H   0  0  0  0  0  0  0  0  0  0  0  0
   19.2653   17.8497   26.7616 C   0  0  0  0  0  0  0  0  0  0  0  0
   20.0703   17.2173   26.3777 H   0  0  0  0  0  0  0  0  0  0  0  0
   18.4208   17.2060   27.0226 H   0  0  0  0  0  0  0  0  0  0  0  0
   19.7511   18.5081   28.0380 N   0  3  0  0  0  0  0  0  0  0  0  0
   20.5696   19.1016   27.8709 H   0  0  0  0  0  0  0  0  0  0  0  0
   20.0213   17.8153   28.7448 H   0  0  0  0  0  0  0  0  0  0  0  0
   19.0279   19.1002   28.4595 H   0  0  0  0  0  0  0  0  0  0  0  0
  1  2  1  0  0  0  0
  1  3  1  0  0  0  0
  1  4  1  0  0  0  0
  1  5  1  0  0  0  0
  5  6  1  0  0  0  0
  5  7  1  0  0  0  0
  5  8  1  0  0  0  0
  8  9  1  0  0  0  0
  8 10  1  0  0  0  0
  8 11  1  0  0  0  0
 11 12  1  0  0  0  0
 11 13  1  0  0  0  0
 11 14  1  0  0  0  0
 14 15  1  0  0  0  0
 14 16  1  0  0  0  0
 14 17  1  0  0  0  0
 17 18  1  0  0  0  0
 17 19  1  0  0  0  0
 17 20  1  0  0  0  0
 20 21  1  0  0  0  0
 20 22  1  0  0  0  0
 20 23  1  0  0  0  0
 23 24  1  0  0  0  0
 23 25  1  0  0  0  0
 23 26  1  0  0  0  0
 26 27  1  0  0  0  0
 26 28  1  0  0  0  0
 26 29  1  0  0  0  0
M  END
> <VM2 Rank>
91

> <Conf_Id>
2637

> <Probability>
0.34

> <Sum Probability>
79.29

> <Delta G>
1.628

> <G>
59.774

> <E>
22.042

> <-TS>
37.732

> <U+W>
-2.102

> <U>
49.725

> <W>
-51.827

> <W(PB)>
-54.310

> <W(SA)>
2.482

> <Valence>
3.695

> <Coulomb>
45.138

> <VdW>
0.892

> <VdW6>
-9.155

> <VdW12>
10.047

> <Bond>
0.255

> <Angle>
1.154

> <Pdih>
2.287

> <Idih>
0.000

> <Tether>
0.000

$$$$
VeraChem MOL file


 29 28  0  0  0  0  0  0  0  0999 V2000     
   20.8124   19.0884   19.9282 C   0  0  0  0  0  0  0  0  0  0  0  0
   21.6268   18.4937   20.3622 H   0  0  0  0  0  0  0  0  0  0  0  0
   20.1553   18.4108   19.3676 H   0  0  0  0  0  0  0  0  0  0  0  0
   21.2547   19.7958   19.2149 H   0  0  0  0  0  0  0  0  0  0  0  0
   20.0284   19.8392   21.0252 C   0  0  0  0  0  0  0  0  0  0  0  0
   19.2440   20.4512   20.5583 H   0  0  0  0  0  0  0  0  0  0  0  0
   20.7035   20.5323   21.5464 H   0  0  0  0  0  0  0  0  0  0  0  0
   19.3944   18.8655   22.0429 C   0  0  0  0  0  0  0  0  0  0  0  0
   18.7185   18.1761   21.5185 H   0  0  0  0  0  0  0  0  0  0  0  0
   20.1863   18.2541   22.4950 H   0  0  0  0  0  0  0  0  0  0  0  0
   18.6122   19.6171   23.1462 C   0  0  0  0  0  0  0  0  0  0  0  0
   17.8672   20.2715   22.6729 H   0  0  0  0  0  0  0  0  0  0  0  0
   19.2912   20.2819   23.6963 H   0  0  0  0  0  0  0  0  0  0  0  0
   17.8763   18.6753   24.1338 C   0  0  0  0  0  0  0  0  0  0  0  0
   17.3064   19.2861   24.8469 H   0  0  0  0  0  0  0  0  0  0  0  0
   17.1268   18.0945   23.5788 H   0  0  0  0  0  0  0  0  0  0  0  0
   18.7879   17.6907   24.9148 C   0  0  0  0  0  0  0  0  0  0  0  0
   19.2234   16.9615   24.2188 H   0  0  0  0  0  0  0  0  0  0  0  0
   18.1619   17.1052   25.6023 H   0  0  0  0  0  0  0  0  0  0  0  0
   19.9257   18.3613   25.7235 C   0  0  0  0  0  0  0  0  0  0  0  0
   20.4934   17.5825   26.2496 H   0  0  0  0  0  0  0  0  0  0  0  0
   20.6329   18.8509   25.0418 H   0  0  0  0  0  0  0  0  0  0  0  0
   19.4017   19.3829   26.7496 C   0  0  0  0  0  0  0  0  0  0  0  0
   18.7086   18.8911   27.4373 H   0  0  0  0  0  0  0  0  0  0  0  0
   18.8652   20.1828   26.2326 H   0  0  0  0  0  0  0  0  0  0  0  0
   20.5052   20.0175   27.5708 N   0  3  0  0  0  0  0  0  0  0  0  0
   20.1352   20.6943   28.2474 H   0  0  0  0  0  0  0  0  0  0  0  0
   21.1782   20.5199   26.9827 H   0  0  0  0  0  0  0  0  0  0  0  0
   21.0328   19.3192   28.1050 H   0  0  0  0  0  0  0  0  0  0  0  0
  1  2  1  0  0  0  0
  1  3  1  0  0  0  0
  1  4  1  0  0  0  0
  1  5  1  0  0  0  0
  5  6  1  0  0  0  0
  5  7  1  0  0  0  0
  5  8  1  0  0  0  0
  8  9  1  0  0  0  0
  8 10  1  0  0  0  0
  8 11  1  0  0  0  0
 11 12  1  0  0  0  0
 11 13  1  0  0  0  0
 11 14  1  0  0  0  0
 14 15  1  0  0  0  0
 14 16  1  0  0  0  0
 14 17  1  0  0  0  0
 17 18  1  0  0  0  0
 17 19  1  0  0  0  0
 17 20  1  0  0  0  0
 20 21  1  0  0  0  0
 20 22  1  0  0  0  0
 20 23  1  0  0  0  0
 23 24  1  0  0  0  0
 23 25  1  0  0  0  0
 23 26  1  0  0  0  0
 26 27  1  0  0  0  0
 26 28  1  0  0  0  0
 26 29  1  0  0  0  0
M  END
> <VM2 Rank>
92

> <Conf_Id>
775

> <Probability>
0.34

> <Sum Probability>
79.63

> <Delta G>
1.636

> <G>
59.782

> <E>
21.903

> <-TS>
37.879

> <U+W>
-2.241

> <U>
50.029

> <W>
-52.270

> <W(PB)>
-54.754

> <W(SA)>
2.484

> <Valence>
3.797

> <Coulomb>
45.604

> <VdW>
0.628

> <VdW6>
-9.561

> <VdW12>
10.189

> <Bond>
0.256

> <Angle>
1.236

> <Pdih>
2.305

> <Idih>
0.000

> <Tether>
0.000

$$$$
VeraChem MOL file


 29 28  0  0  0  0  0  0  0  0999 V2000     
   20.3067   19.2037   19.3784 C   0  0  0  0  0  0  0  0  0  0  0  0
   21.3002   19.5773   19.6587 H   0  0  0  0  0  0  0  0  0  0  0  0
   20.3789   18.1183   19.2297 H   0  0  0  0  0  0  0  0  0  0  0  0
   20.0346   19.6582   18.4169 H   0  0  0  0  0  0  0  0  0  0  0  0
   19.2597   19.5469   20.4590 C   0  0  0  0  0  0  0  0  0  0  0  0
   18.2716   19.1916   20.1346 H   0  0  0  0  0  0  0  0  0  0  0  0
   19.1862   20.6387   20.5620 H   0  0  0  0  0  0  0  0  0  0  0  0
   19.6187   18.9180   21.8235 C   0  0  0  0  0  0  0  0  0  0  0  0
   19.6888   17.8268   21.7161 H   0  0  0  0  0  0  0  0  0  0  0  0
   20.6108   19.2735   22.1304 H   0  0  0  0  0  0  0  0  0  0  0  0
   18.5714   19.2653   22.9087 C   0  0  0  0  0  0  0  0  0  0  0  0
   17.5748   18.9764   22.5471 H   0  0  0  0  0  0  0  0  0  0  0  0
   18.5406   20.3531   23.0601 H   0  0  0  0  0  0  0  0  0  0  0  0
   18.8224   18.5595   24.2640 C   0  0  0  0  0  0  0  0  0  0  0  0
   17.9608   18.7585   24.9146 H   0  0  0  0  0  0  0  0  0  0  0  0
   18.8493   17.4717   24.1120 H   0  0  0  0  0  0  0  0  0  0  0  0
   20.1222   19.0209   24.9709 C   0  0  0  0  0  0  0  0  0  0  0  0
   20.1106   20.1119   25.0952 H   0  0  0  0  0  0  0  0  0  0  0  0
   20.9875   18.7947   24.3347 H   0  0  0  0  0  0  0  0  0  0  0  0
   20.3454   18.3361   26.3429 C   0  0  0  0  0  0  0  0  0  0  0  0
   20.4307   17.2512   26.1960 H   0  0  0  0  0  0  0  0  0  0  0  0
   21.3070   18.6648   26.7591 H   0  0  0  0  0  0  0  0  0  0  0  0
   19.2319   18.6099   27.3742 C   0  0  0  0  0  0  0  0  0  0  0  0
   19.4579   18.0774   28.3020 H   0  0  0  0  0  0  0  0  0  0  0  0
   18.2762   18.2393   26.9951 H   0  0  0  0  0  0  0  0  0  0  0  0
   19.0656   20.0777   27.7135 N   0  3  0  0  0  0  0  0  0  0  0  0
   18.3240   20.2273   28.4063 H   0  0  0  0  0  0  0  0  0  0  0  0
   18.8214   20.6301   26.8855 H   0  0  0  0  0  0  0  0  0  0  0  0
   19.9256   20.4776   28.1028 H   0  0  0  0  0  0  0  0  0  0  0  0
  1  2  1  0  0  0  0
  1  3  1  0  0  0  0
  1  4  1  0  0  0  0
  1  5  1  0  0  0  0
  5  6  1  0  0  0  0
  5  7  1  0  0  0  0
  5  8  1  0  0  0  0
  8  9  1  0  0  0  0
  8 10  1  0  0  0  0
  8 11  1  0  0  0  0
 11 12  1  0  0  0  0
 11 13  1  0  0  0  0
 11 14  1  0  0  0  0
 14 15  1  0  0  0  0
 14 16  1  0  0  0  0
 14 17  1  0  0  0  0
 17 18  1  0  0  0  0
 17 19  1  0  0  0  0
 17 20  1  0  0  0  0
 20 21  1  0  0  0  0
 20 22  1  0  0  0  0
 20 23  1  0  0  0  0
 23 24  1  0  0  0  0
 23 25  1  0  0  0  0
 23 26  1  0  0  0  0
 26 27  1  0  0  0  0
 26 28  1  0  0  0  0
 26 29  1  0  0  0  0
M  END
> <VM2 Rank>
93

> <Conf_Id>
1652

> <Probability>
0.33

> <Sum Probability>
79.96

> <Delta G>
1.648

> <G>
59.794

> <E>
22.252

> <-TS>
37.542

> <U+W>
-1.893

> <U>
49.850

> <W>
-51.742

> <W(PB)>
-54.215

> <W(SA)>
2.472

> <Valence>
3.555

> <Coulomb>
45.336

> <VdW>
0.959

> <VdW6>
-8.885

> <VdW12>
9.844

> <Bond>
0.239

> <Angle>
0.939

> <Pdih>
2.377

> <Idih>
0.000

> <Tether>
0.000

$$$$
VeraChem MOL file


 29 28  0  0  0  0  0  0  0  0999 V2000     
   21.3160   19.1645   20.3642 C   0  0  0  0  0  0  0  0  0  0  0  0
   22.1213   19.2610   21.1040 H   0  0  0  0  0  0  0  0  0  0  0  0
   21.2700   18.1155   20.0435 H   0  0  0  0  0  0  0  0  0  0  0  0
   21.5858   19.7724   19.4909 H   0  0  0  0  0  0  0  0  0  0  0  0
   19.9650   19.6243   20.9516 C   0  0  0  0  0  0  0  0  0  0  0  0
   19.1871   19.5491   20.1789 H   0  0  0  0  0  0  0  0  0  0  0  0
   20.0315   20.6847   21.2327 H   0  0  0  0  0  0  0  0  0  0  0  0
   19.5610   18.7834   22.1826 C   0  0  0  0  0  0  0  0  0  0  0  0
   19.4924   17.7247   21.8969 H   0  0  0  0  0  0  0  0  0  0  0  0
   20.3501   18.8594   22.9420 H   0  0  0  0  0  0  0  0  0  0  0  0
   18.2098   19.2475   22.7770 C   0  0  0  0  0  0  0  0  0  0  0  0
   17.4482   19.2352   21.9851 H   0  0  0  0  0  0  0  0  0  0  0  0
   18.2870   20.2929   23.1037 H   0  0  0  0  0  0  0  0  0  0  0  0
   17.7091   18.3617   23.9471 C   0  0  0  0  0  0  0  0  0  0  0  0
   16.7352   18.7418   24.2850 H   0  0  0  0  0  0  0  0  0  0  0  0
   17.5205   17.3471   23.5699 H   0  0  0  0  0  0  0  0  0  0  0  0
   18.6632   18.2704   25.1659 C   0  0  0  0  0  0  0  0  0  0  0  0
   19.5945   17.7712   24.8698 H   0  0  0  0  0  0  0  0  0  0  0  0
   18.1985   17.6208   25.9205 H   0  0  0  0  0  0  0  0  0  0  0  0
   18.9749   19.6444   25.8093 C   0  0  0  0  0  0  0  0  0  0  0  0
   19.5288   20.2798   25.1065 H   0  0  0  0  0  0  0  0  0  0  0  0
   18.0334   20.1643   26.0304 H   0  0  0  0  0  0  0  0  0  0  0  0
   19.7813   19.5164   27.1157 C   0  0  0  0  0  0  0  0  0  0  0  0
   19.2382   18.8840   27.8231 H   0  0  0  0  0  0  0  0  0  0  0  0
   19.9032   20.5054   27.5657 H   0  0  0  0  0  0  0  0  0  0  0  0
   21.1638   18.9254   26.9218 N   0  3  0  0  0  0  0  0  0  0  0  0
   21.7330   19.4907   26.2835 H   0  0  0  0  0  0  0  0  0  0  0  0
   21.1196   17.9785   26.5325 H   0  0  0  0  0  0  0  0  0  0  0  0
   21.6782   18.8628   27.8073 H   0  0  0  0  0  0  0  0  0  0  0  0
  1  2  1  0  0  0  0
  1  3  1  0  0  0  0
  1  4  1  0  0  0  0
  1  5  1  0  0  0  0
  5  6  1  0  0  0  0
  5  7  1  0  0  0  0
  5  8  1  0  0  0  0
  8  9  1  0  0  0  0
  8 10  1  0  0  0  0
  8 11  1  0  0  0  0
 11 12  1  0  0  0  0
 11 13  1  0  0  0  0
 11 14  1  0  0  0  0
 14 15  1  0  0  0  0
 14 16  1  0  0  0  0
 14 17  1  0  0  0  0
 17 18  1  0  0  0  0
 17 19  1  0  0  0  0
 17 20  1  0  0  0  0
 20 21  1  0  0  0  0
 20 22  1  0  0  0  0
 20 23  1  0  0  0  0
 23 24  1  0  0  0  0
 23 25  1  0  0  0  0
 23 26  1  0  0  0  0
 26 27  1  0  0  0  0
 26 28  1  0  0  0  0
 26 29  1  0  0  0  0
M  END
> <VM2 Rank>
94

> <Conf_Id>
1172

> <Probability>
0.32

> <Sum Probability>
80.28

> <Delta G>
1.665

> <G>
59.812

> <E>
22.066

> <-TS>
37.746

> <U+W>
-2.079

> <U>
50.322

> <W>
-52.401

> <W(PB)>
-54.871

> <W(SA)>
2.470

> <Valence>
3.655

> <Coulomb>
45.884

> <VdW>
0.784

> <VdW6>
-9.261

> <VdW12>
10.045

> <Bond>
0.250

> <Angle>
1.077

> <Pdih>
2.328

> <Idih>
0.000

> <Tether>
0.000

$$$$
VeraChem MOL file


 29 28  0  0  0  0  0  0  0  0999 V2000     
   20.0944   18.6076   19.3650 C   0  0  0  0  0  0  0  0  0  0  0  0
   20.8381   19.4081   19.2585 H   0  0  0  0  0  0  0  0  0  0  0  0
   20.6244   17.6796   19.6163 H   0  0  0  0  0  0  0  0  0  0  0  0
   19.6100   18.4657   18.3903 H   0  0  0  0  0  0  0  0  0  0  0  0
   19.0509   18.9605   20.4459 C   0  0  0  0  0  0  0  0  0  0  0  0
   18.3027   18.1577   20.5065 H   0  0  0  0  0  0  0  0  0  0  0  0
   18.5141   19.8727   20.1498 H   0  0  0  0  0  0  0  0  0  0  0  0
   19.7072   19.1665   21.8290 C   0  0  0  0  0  0  0  0  0  0  0  0
   20.2471   18.2523   22.1075 H   0  0  0  0  0  0  0  0  0  0  0  0
   20.4525   19.9711   21.7640 H   0  0  0  0  0  0  0  0  0  0  0  0
   18.6607   19.5163   22.9143 C   0  0  0  0  0  0  0  0  0  0  0  0
   17.9474   18.6877   23.0228 H   0  0  0  0  0  0  0  0  0  0  0  0
   18.0761   20.3840   22.5786 H   0  0  0  0  0  0  0  0  0  0  0  0
   19.2821   19.8503   24.2928 C   0  0  0  0  0  0  0  0  0  0  0  0
   19.9925   20.6813   24.1838 H   0  0  0  0  0  0  0  0  0  0  0  0
   18.4794   20.2149   24.9471 H   0  0  0  0  0  0  0  0  0  0  0  0
   19.9878   18.6438   24.9625 C   0  0  0  0  0  0  0  0  0  0  0  0
   20.8102   18.2973   24.3236 H   0  0  0  0  0  0  0  0  0  0  0  0
   19.2876   17.8018   25.0437 H   0  0  0  0  0  0  0  0  0  0  0  0
   20.5743   18.9785   26.3572 C   0  0  0  0  0  0  0  0  0  0  0  0
   21.1058   18.1000   26.7464 H   0  0  0  0  0  0  0  0  0  0  0  0
   21.3280   19.7701   26.2521 H   0  0  0  0  0  0  0  0  0  0  0  0
   19.5239   19.4294   27.3925 C   0  0  0  0  0  0  0  0  0  0  0  0
   19.0229   20.3353   27.0419 H   0  0  0  0  0  0  0  0  0  0  0  0
   20.0225   19.6620   28.3374 H   0  0  0  0  0  0  0  0  0  0  0  0
   18.4626   18.3850   27.6757 N   0  3  0  0  0  0  0  0  0  0  0  0
   18.8709   17.5166   28.0366 H   0  0  0  0  0  0  0  0  0  0  0  0
   17.9359   18.1447   26.8301 H   0  0  0  0  0  0  0  0  0  0  0  0
   17.7838   18.7105   28.3726 H   0  0  0  0  0  0  0  0  0  0  0  0
  1  2  1  0  0  0  0
  1  3  1  0  0  0  0
  1  4  1  0  0  0  0
  1  5  1  0  0  0  0
  5  6  1  0  0  0  0
  5  7  1  0  0  0  0
  5  8  1  0  0  0  0
  8  9  1  0  0  0  0
  8 10  1  0  0  0  0
  8 11  1  0  0  0  0
 11 12  1  0  0  0  0
 11 13  1  0  0  0  0
 11 14  1  0  0  0  0
 14 15  1  0  0  0  0
 14 16  1  0  0  0  0
 14 17  1  0  0  0  0
 17 18  1  0  0  0  0
 17 19  1  0  0  0  0
 17 20  1  0  0  0  0
 20 21  1  0  0  0  0
 20 22  1  0  0  0  0
 20 23  1  0  0  0  0
 23 24  1  0  0  0  0
 23 25  1  0  0  0  0
 23 26  1  0  0  0  0
 26 27  1  0  0  0  0
 26 28  1  0  0  0  0
 26 29  1  0  0  0  0
M  END
> <VM2 Rank>
95

> <Conf_Id>
1051

> <Probability>
0.32

> <Sum Probability>
80.61

> <Delta G>
1.665

> <G>
59.812

> <E>
22.270

> <-TS>
37.542

> <U+W>
-1.874

> <U>
49.850

> <W>
-51.724

> <W(PB)>
-54.202

> <W(SA)>
2.478

> <Valence>
3.555

> <Coulomb>
45.336

> <VdW>
0.959

> <VdW6>
-8.885

> <VdW12>
9.844

> <Bond>
0.239

> <Angle>
0.938

> <Pdih>
2.377

> <Idih>
0.000

> <Tether>
0.000

$$$$
VeraChem MOL file


 29 28  0  0  0  0  0  0  0  0999 V2000     
   18.9316   20.1270   19.9226 C   0  0  0  0  0  0  0  0  0  0  0  0
   18.4288   20.6683   20.7335 H   0  0  0  0  0  0  0  0  0  0  0  0
   19.8856   20.6282   19.7135 H   0  0  0  0  0  0  0  0  0  0  0  0
   18.3026   20.2153   19.0274 H   0  0  0  0  0  0  0  0  0  0  0  0
   19.1524   18.6406   20.2837 C   0  0  0  0  0  0  0  0  0  0  0  0
   19.5445   18.1162   19.4010 H   0  0  0  0  0  0  0  0  0  0  0  0
   18.1873   18.1698   20.5175 H   0  0  0  0  0  0  0  0  0  0  0  0
   20.1350   18.4333   21.4614 C   0  0  0  0  0  0  0  0  0  0  0  0
   20.3168   17.3560   21.5784 H   0  0  0  0  0  0  0  0  0  0  0  0
   21.1051   18.8855   21.2132 H   0  0  0  0  0  0  0  0  0  0  0  0
   19.6192   19.0067   22.8030 C   0  0  0  0  0  0  0  0  0  0  0  0
   18.6236   18.5933   23.0094 H   0  0  0  0  0  0  0  0  0  0  0  0
   19.5055   20.0958   22.7241 H   0  0  0  0  0  0  0  0  0  0  0  0
   20.5809   18.6805   23.9709 C   0  0  0  0  0  0  0  0  0  0  0  0
   20.6519   17.5918   24.1005 H   0  0  0  0  0  0  0  0  0  0  0  0
   21.5903   19.0261   23.7080 H   0  0  0  0  0  0  0  0  0  0  0  0
   20.1735   19.3368   25.3130 C   0  0  0  0  0  0  0  0  0  0  0  0
   20.1110   20.4264   25.1857 H   0  0  0  0  0  0  0  0  0  0  0  0
   20.9774   19.1565   26.0388 H   0  0  0  0  0  0  0  0  0  0  0  0
   18.8362   18.8008   25.8831 C   0  0  0  0  0  0  0  0  0  0  0  0
   18.0201   19.0164   25.1825 H   0  0  0  0  0  0  0  0  0  0  0  0
   18.8819   17.7086   25.9872 H   0  0  0  0  0  0  0  0  0  0  0  0
   18.4745   19.4319   27.2415 C   0  0  0  0  0  0  0  0  0  0  0  0
   17.4811   19.0914   27.5460 H   0  0  0  0  0  0  0  0  0  0  0  0
   18.4474   20.5207   27.1461 H   0  0  0  0  0  0  0  0  0  0  0  0
   19.4407   19.0805   28.3558 N   0  3  0  0  0  0  0  0  0  0  0  0
   19.4930   18.0680   28.5086 H   0  0  0  0  0  0  0  0  0  0  0  0
   19.1636   19.5047   29.2479 H   0  0  0  0  0  0  0  0  0  0  0  0
   20.3907   19.4058   28.1509 H   0  0  0  0  0  0  0  0  0  0  0  0
  1  2  1  0  0  0  0
  1  3  1  0  0  0  0
  1  4  1  0  0  0  0
  1  5  1  0  0  0  0
  5  6  1  0  0  0  0
  5  7  1  0  0  0  0
  5  8  1  0  0  0  0
  8  9  1  0  0  0  0
  8 10  1  0  0  0  0
  8 11  1  0  0  0  0
 11 12  1  0  0  0  0
 11 13  1  0  0  0  0
 11 14  1  0  0  0  0
 14 15  1  0  0  0  0
 14 16  1  0  0  0  0
 14 17  1  0  0  0  0
 17 18  1  0  0  0  0
 17 19  1  0  0  0  0
 17 20  1  0  0  0  0
 20 21  1  0  0  0  0
 20 22  1  0  0  0  0
 20 23  1  0  0  0  0
 23 24  1  0  0  0  0
 23 25  1  0  0  0  0
 23 26  1  0  0  0  0
 26 27  1  0  0  0  0
 26 28  1  0  0  0  0
 26 29  1  0  0  0  0
M  END
> <VM2 Rank>
96

> <Conf_Id>
2863

> <Probability>
0.32

> <Sum Probability>
80.93

> <Delta G>
1.668

> <G>
59.815

> <E>
22.333

> <-TS>
37.482

> <U+W>
-1.812

> <U>
49.648

> <W>
-51.459

> <W(PB)>
-53.952

> <W(SA)>
2.493

> <Valence>
3.752

> <Coulomb>
44.787

> <VdW>
1.108

> <VdW6>
-8.715

> <VdW12>
9.824

> <Bond>
0.245

> <Angle>
0.961

> <Pdih>
2.547

> <Idih>
0.000

> <Tether>
0.000

$$$$
VeraChem MOL file


 29 28  0  0  0  0  0  0  0  0999 V2000     
   19.5485   19.2047   19.1756 C   0  0  0  0  0  0  0  0  0  0  0  0
   20.4843   19.6978   18.8818 H   0  0  0  0  0  0  0  0  0  0  0  0
   19.6542   18.1288   18.9844 H   0  0  0  0  0  0  0  0  0  0  0  0
   18.7490   19.5855   18.5268 H   0  0  0  0  0  0  0  0  0  0  0  0
   19.2208   19.4741   20.6595 C   0  0  0  0  0  0  0  0  0  0  0  0
   18.2604   19.0011   20.9026 H   0  0  0  0  0  0  0  0  0  0  0  0
   19.0926   20.5546   20.8136 H   0  0  0  0  0  0  0  0  0  0  0  0
   20.3327   18.9414   21.5941 C   0  0  0  0  0  0  0  0  0  0  0  0
   20.4222   17.8522   21.4810 H   0  0  0  0  0  0  0  0  0  0  0  0
   21.2959   19.3640   21.2764 H   0  0  0  0  0  0  0  0  0  0  0  0
   20.1136   19.2925   23.0864 C   0  0  0  0  0  0  0  0  0  0  0  0
   20.0189   20.3814   23.1975 H   0  0  0  0  0  0  0  0  0  0  0  0
   21.0177   19.0028   23.6370 H   0  0  0  0  0  0  0  0  0  0  0  0
   18.8807   18.5923   23.7126 C   0  0  0  0  0  0  0  0  0  0  0  0
   17.9762   18.8828   23.1632 H   0  0  0  0  0  0  0  0  0  0  0  0
   18.9750   17.5036   23.5999 H   0  0  0  0  0  0  0  0  0  0  0  0
   18.6641   18.9424   25.2055 C   0  0  0  0  0  0  0  0  0  0  0  0
   17.7054   18.5123   25.5272 H   0  0  0  0  0  0  0  0  0  0  0  0
   18.5663   20.0311   25.3120 H   0  0  0  0  0  0  0  0  0  0  0  0
   19.7858   18.4152   26.1349 C   0  0  0  0  0  0  0  0  0  0  0  0
   19.9385   17.3436   25.9500 H   0  0  0  0  0  0  0  0  0  0  0  0
   20.7375   18.9129   25.9107 H   0  0  0  0  0  0  0  0  0  0  0  0
   19.4563   18.6105   27.6272 C   0  0  0  0  0  0  0  0  0  0  0  0
   20.2418   18.1540   28.2355 H   0  0  0  0  0  0  0  0  0  0  0  0
   18.5105   18.1155   27.8633 H   0  0  0  0  0  0  0  0  0  0  0  0
   19.3415   20.0649   28.0392 N   0  3  0  0  0  0  0  0  0  0  0  0
   19.1315   20.1621   29.0388 H   0  0  0  0  0  0  0  0  0  0  0  0
   18.5954   20.5458   27.5271 H   0  0  0  0  0  0  0  0  0  0  0  0
   20.2106   20.5797   27.8638 H   0  0  0  0  0  0  0  0  0  0  0  0
  1  2  1  0  0  0  0
  1  3  1  0  0  0  0
  1  4  1  0  0  0  0
  1  5  1  0  0  0  0
  5  6  1  0  0  0  0
  5  7  1  0  0  0  0
  5  8  1  0  0  0  0
  8  9  1  0  0  0  0
  8 10  1  0  0  0  0
  8 11  1  0  0  0  0
 11 12  1  0  0  0  0
 11 13  1  0  0  0  0
 11 14  1  0  0  0  0
 14 15  1  0  0  0  0
 14 16  1  0  0  0  0
 14 17  1  0  0  0  0
 17 18  1  0  0  0  0
 17 19  1  0  0  0  0
 17 20  1  0  0  0  0
 20 21  1  0  0  0  0
 20 22  1  0  0  0  0
 20 23  1  0  0  0  0
 23 24  1  0  0  0  0
 23 25  1  0  0  0  0
 23 26  1  0  0  0  0
 26 27  1  0  0  0  0
 26 28  1  0  0  0  0
 26 29  1  0  0  0  0
M  END
> <VM2 Rank>
97

> <Conf_Id>
870

> <Probability>
0.31

> <Sum Probability>
81.24

> <Delta G>
1.686

> <G>
59.832

> <E>
22.394

> <-TS>
37.438

> <U+W>
-1.750

> <U>
49.985

> <W>
-51.735

> <W(PB)>
-54.248

> <W(SA)>
2.513

> <Valence>
3.839

> <Coulomb>
45.043

> <VdW>
1.103

> <VdW6>
-8.716

> <VdW12>
9.819

> <Bond>
0.253

> <Angle>
0.991

> <Pdih>
2.595

> <Idih>
0.000

> <Tether>
0.000

$$$$
VeraChem MOL file


 29 28  0  0  0  0  0  0  0  0999 V2000     
   19.8438   19.1282   19.4924 C   0  0  0  0  0  0  0  0  0  0  0  0
   19.1397   18.2894   19.5540 H   0  0  0  0  0  0  0  0  0  0  0  0
   19.6914   19.6148   18.5203 H   0  0  0  0  0  0  0  0  0  0  0  0
   20.8641   18.7238   19.5089 H   0  0  0  0  0  0  0  0  0  0  0  0
   19.6277   20.1387   20.6418 C   0  0  0  0  0  0  0  0  0  0  0  0
   18.5906   20.5019   20.6255 H   0  0  0  0  0  0  0  0  0  0  0  0
   20.2637   21.0168   20.4628 H   0  0  0  0  0  0  0  0  0  0  0  0
   19.9595   19.5643   22.0405 C   0  0  0  0  0  0  0  0  0  0  0  0
   20.9972   19.2037   22.0519 H   0  0  0  0  0  0  0  0  0  0  0  0
   19.9090   20.3875   22.7644 H   0  0  0  0  0  0  0  0  0  0  0  0
   19.0048   18.4258   22.4818 C   0  0  0  0  0  0  0  0  0  0  0  0
   19.0517   17.6075   21.7519 H   0  0  0  0  0  0  0  0  0  0  0  0
   17.9674   18.7874   22.4747 H   0  0  0  0  0  0  0  0  0  0  0  0
   19.3407   17.8407   23.8758 C   0  0  0  0  0  0  0  0  0  0  0  0
   18.7095   16.9565   24.0406 H   0  0  0  0  0  0  0  0  0  0  0  0
   20.3797   17.4832   23.8841 H   0  0  0  0  0  0  0  0  0  0  0  0
   19.1209   18.8380   25.0389 C   0  0  0  0  0  0  0  0  0  0  0  0
   18.0974   19.2352   24.9931 H   0  0  0  0  0  0  0  0  0  0  0  0
   19.8014   19.6912   24.9289 H   0  0  0  0  0  0  0  0  0  0  0  0
   19.3523   18.1704   26.4151 C   0  0  0  0  0  0  0  0  0  0  0  0
   18.6922   17.2981   26.5123 H   0  0  0  0  0  0  0  0  0  0  0  0
   20.3816   17.7936   26.4822 H   0  0  0  0  0  0  0  0  0  0  0  0
   19.0753   19.1236   27.5936 C   0  0  0  0  0  0  0  0  0  0  0  0
   19.1712   18.5746   28.5343 H   0  0  0  0  0  0  0  0  0  0  0  0
   18.0537   19.5069   27.5249 H   0  0  0  0  0  0  0  0  0  0  0  0
   20.0192   20.3084   27.6550 N   0  3  0  0  0  0  0  0  0  0  0  0
   19.8167   20.9151   28.4572 H   0  0  0  0  0  0  0  0  0  0  0  0
   19.9528   20.8901   26.8140 H   0  0  0  0  0  0  0  0  0  0  0  0
   20.9968   20.0117   27.7428 H   0  0  0  0  0  0  0  0  0  0  0  0
  1  2  1  0  0  0  0
  1  3  1  0  0  0  0
  1  4  1  0  0  0  0
  1  5  1  0  0  0  0
  5  6  1  0  0  0  0
  5  7  1  0  0  0  0
  5  8  1  0  0  0  0
  8  9  1  0  0  0  0
  8 10  1  0  0  0  0
  8 11  1  0  0  0  0
 11 12  1  0  0  0  0
 11 13  1  0  0  0  0
 11 14  1  0  0  0  0
 14 15  1  0  0  0  0
 14 16  1  0  0  0  0
 14 17  1  0  0  0  0
 17 18  1  0  0  0  0
 17 19  1  0  0  0  0
 17 20  1  0  0  0  0
 20 21  1  0  0  0  0
 20 22  1  0  0  0  0
 20 23  1  0  0  0  0
 23 24  1  0  0  0  0
 23 25  1  0  0  0  0
 23 26  1  0  0  0  0
 26 27  1  0  0  0  0
 26 28  1  0  0  0  0
 26 29  1  0  0  0  0
M  END
> <VM2 Rank>
98

> <Conf_Id>
2872

> <Probability>
0.31

> <Sum Probability>
81.55

> <Delta G>
1.687

> <G>
59.833

> <E>
22.399

> <-TS>
37.434

> <U+W>
-1.746

> <U>
50.173

> <W>
-51.918

> <W(PB)>
-54.448

> <W(SA)>
2.530

> <Valence>
3.803

> <Coulomb>
45.246

> <VdW>
1.124

> <VdW6>
-8.692

> <VdW12>
9.815

> <Bond>
0.250

> <Angle>
0.987

> <Pdih>
2.567

> <Idih>
0.000

> <Tether>
0.000

$$$$
VeraChem MOL file


 29 28  0  0  0  0  0  0  0  0999 V2000     
   20.9115   18.5118   19.9002 C   0  0  0  0  0  0  0  0  0  0  0  0
   21.8276   19.0431   20.1898 H   0  0  0  0  0  0  0  0  0  0  0  0
   21.0171   17.4605   20.1983 H   0  0  0  0  0  0  0  0  0  0  0  0
   20.8339   18.5457   18.8058 H   0  0  0  0  0  0  0  0  0  0  0  0
   19.6689   19.1518   20.5547 C   0  0  0  0  0  0  0  0  0  0  0  0
   18.7665   18.6206   20.2209 H   0  0  0  0  0  0  0  0  0  0  0  0
   19.5707   20.1910   20.2108 H   0  0  0  0  0  0  0  0  0  0  0  0
   19.7533   19.1178   22.0966 C   0  0  0  0  0  0  0  0  0  0  0  0
   19.8600   18.0760   22.4258 H   0  0  0  0  0  0  0  0  0  0  0  0
   20.6555   19.6517   22.4252 H   0  0  0  0  0  0  0  0  0  0  0  0
   18.5058   19.7557   22.7539 C   0  0  0  0  0  0  0  0  0  0  0  0
   17.6070   19.1914   22.4692 H   0  0  0  0  0  0  0  0  0  0  0  0
   18.3715   20.7708   22.3554 H   0  0  0  0  0  0  0  0  0  0  0  0
   18.5966   19.8433   24.2969 C   0  0  0  0  0  0  0  0  0  0  0  0
   19.4853   20.4259   24.5737 H   0  0  0  0  0  0  0  0  0  0  0  0
   17.7293   20.4087   24.6647 H   0  0  0  0  0  0  0  0  0  0  0  0
   18.6267   18.4589   24.9924 C   0  0  0  0  0  0  0  0  0  0  0  0
   19.5360   17.9128   24.7116 H   0  0  0  0  0  0  0  0  0  0  0  0
   17.7824   17.8556   24.6312 H   0  0  0  0  0  0  0  0  0  0  0  0
   18.5392   18.5551   26.5361 C   0  0  0  0  0  0  0  0  0  0  0  0
   17.5821   19.0146   26.8166 H   0  0  0  0  0  0  0  0  0  0  0  0
   18.5298   17.5436   26.9633 H   0  0  0  0  0  0  0  0  0  0  0  0
   19.6836   19.3646   27.1788 C   0  0  0  0  0  0  0  0  0  0  0  0
   19.5345   19.4080   28.2611 H   0  0  0  0  0  0  0  0  0  0  0  0
   19.6747   20.3874   26.7936 H   0  0  0  0  0  0  0  0  0  0  0  0
   21.0585   18.7791   26.9254 N   0  3  0  0  0  0  0  0  0  0  0  0
   21.2714   18.7386   25.9238 H   0  0  0  0  0  0  0  0  0  0  0  0
   21.1386   17.8251   27.2923 H   0  0  0  0  0  0  0  0  0  0  0  0
   21.7973   19.3351   27.3698 H   0  0  0  0  0  0  0  0  0  0  0  0
  1  2  1  0  0  0  0
  1  3  1  0  0  0  0
  1  4  1  0  0  0  0
  1  5  1  0  0  0  0
  5  6  1  0  0  0  0
  5  7  1  0  0  0  0
  5  8  1  0  0  0  0
  8  9  1  0  0  0  0
  8 10  1  0  0  0  0
  8 11  1  0  0  0  0
 11 12  1  0  0  0  0
 11 13  1  0  0  0  0
 11 14  1  0  0  0  0
 14 15  1  0  0  0  0
 14 16  1  0  0  0  0
 14 17  1  0  0  0  0
 17 18  1  0  0  0  0
 17 19  1  0  0  0  0
 17 20  1  0  0  0  0
 20 21  1  0  0  0  0
 20 22  1  0  0  0  0
 20 23  1  0  0  0  0
 23 24  1  0  0  0  0
 23 25  1  0  0  0  0
 23 26  1  0  0  0  0
 26 27  1  0  0  0  0
 26 28  1  0  0  0  0
 26 29  1  0  0  0  0
M  END
> <VM2 Rank>
99

> <Conf_Id>
1868

> <Probability>
0.31

> <Sum Probability>
81.86

> <Delta G>
1.687

> <G>
59.834

> <E>
22.248

> <-TS>
37.586

> <U+W>
-1.897

> <U>
50.207

> <W>
-52.104

> <W(PB)>
-54.586

> <W(SA)>
2.482

> <Valence>
3.485

> <Coulomb>
45.881

> <VdW>
0.841

> <VdW6>
-9.001

> <VdW12>
9.843

> <Bond>
0.232

> <Angle>
0.850

> <Pdih>
2.402

> <Idih>
0.000

> <Tether>
0.000

$$$$
VeraChem MOL file


 29 28  0  0  0  0  0  0  0  0999 V2000     
   19.4224   17.6615   20.1561 C   0  0  0  0  0  0  0  0  0  0  0  0
   20.4732   17.3467   20.1972 H   0  0  0  0  0  0  0  0  0  0  0  0
   18.8870   17.1842   20.9862 H   0  0  0  0  0  0  0  0  0  0  0  0
   18.9929   17.2765   19.2222 H   0  0  0  0  0  0  0  0  0  0  0  0
   19.3010   19.2012   20.2125 C   0  0  0  0  0  0  0  0  0  0  0  0
   18.2405   19.4891   20.2022 H   0  0  0  0  0  0  0  0  0  0  0  0
   19.7433   19.6246   19.2998 H   0  0  0  0  0  0  0  0  0  0  0  0
   20.0021   19.8296   21.4410 C   0  0  0  0  0  0  0  0  0  0  0  0
   21.0659   19.5549   21.4368 H   0  0  0  0  0  0  0  0  0  0  0  0
   19.9647   20.9232   21.3412 H   0  0  0  0  0  0  0  0  0  0  0  0
   19.3636   19.4225   22.7907 C   0  0  0  0  0  0  0  0  0  0  0  0
   19.4551   18.3380   22.9245 H   0  0  0  0  0  0  0  0  0  0  0  0
   18.2901   19.6555   22.7729 H   0  0  0  0  0  0  0  0  0  0  0  0
   20.0314   20.1511   23.9818 C   0  0  0  0  0  0  0  0  0  0  0  0
   21.0943   19.8778   24.0348 H   0  0  0  0  0  0  0  0  0  0  0  0
   20.0004   21.2343   23.8005 H   0  0  0  0  0  0  0  0  0  0  0  0
   19.3535   19.8651   25.3445 C   0  0  0  0  0  0  0  0  0  0  0  0
   18.2917   20.1432   25.2926 H   0  0  0  0  0  0  0  0  0  0  0  0
   19.8084   20.5232   26.0964 H   0  0  0  0  0  0  0  0  0  0  0  0
   19.4848   18.3914   25.8045 C   0  0  0  0  0  0  0  0  0  0  0  0
   18.9923   17.7303   25.0808 H   0  0  0  0  0  0  0  0  0  0  0  0
   20.5426   18.0977   25.8307 H   0  0  0  0  0  0  0  0  0  0  0  0
   18.8476   18.1414   27.1851 C   0  0  0  0  0  0  0  0  0  0  0  0
   18.8836   17.0725   27.4123 H   0  0  0  0  0  0  0  0  0  0  0  0
   17.7993   18.4515   27.1684 H   0  0  0  0  0  0  0  0  0  0  0  0
   19.5377   18.8742   28.3188 N   0  3  0  0  0  0  0  0  0  0  0  0
   20.5243   18.6070   28.3997 H   0  0  0  0  0  0  0  0  0  0  0  0
   19.0979   18.6754   29.2241 H   0  0  0  0  0  0  0  0  0  0  0  0
   19.5085   19.8901   28.1875 H   0  0  0  0  0  0  0  0  0  0  0  0
  1  2  1  0  0  0  0
  1  3  1  0  0  0  0
  1  4  1  0  0  0  0
  1  5  1  0  0  0  0
  5  6  1  0  0  0  0
  5  7  1  0  0  0  0
  5  8  1  0  0  0  0
  8  9  1  0  0  0  0
  8 10  1  0  0  0  0
  8 11  1  0  0  0  0
 11 12  1  0  0  0  0
 11 13  1  0  0  0  0
 11 14  1  0  0  0  0
 14 15  1  0  0  0  0
 14 16  1  0  0  0  0
 14 17  1  0  0  0  0
 17 18  1  0  0  0  0
 17 19  1  0  0  0  0
 17 20  1  0  0  0  0
 20 21  1  0  0  0  0
 20 22  1  0  0  0  0
 20 23  1  0  0  0  0
 23 24  1  0  0  0  0
 23 25  1  0  0  0  0
 23 26  1  0  0  0  0
 26 27  1  0  0  0  0
 26 28  1  0  0  0  0
 26 29  1  0  0  0  0
M  END
> <VM2 Rank>
100

> <Conf_Id>
573

> <Probability>
0.31

> <Sum Probability>
82.17

> <Delta G>
1.690

> <G>
59.836

> <E>
22.362

> <-TS>
37.474

> <U+W>
-1.782

> <U>
49.690

> <W>
-51.473

> <W(PB)>
-53.993

> <W(SA)>
2.521

> <Valence>
3.753

> <Coulomb>
44.825

> <VdW>
1.112

> <VdW6>
-8.728

> <VdW12>
9.840

> <Bond>
0.247

> <Angle>
0.961

> <Pdih>
2.545

> <Idih>
0.000

> <Tether>
0.000

$$$$
VeraChem MOL file


 29 28  0  0  0  0  0  0  0  0999 V2000     
   19.9793   19.2881   19.1726 C   0  0  0  0  0  0  0  0  0  0  0  0
   20.0611   20.2065   18.5769 H   0  0  0  0  0  0  0  0  0  0  0  0
   20.9488   18.7743   19.1349 H   0  0  0  0  0  0  0  0  0  0  0  0
   19.2311   18.6423   18.6946 H   0  0  0  0  0  0  0  0  0  0  0  0
   19.5820   19.6158   20.6275 C   0  0  0  0  0  0  0  0  0  0  0  0
   18.6239   20.1540   20.6307 H   0  0  0  0  0  0  0  0  0  0  0  0
   20.3308   20.2950   21.0555 H   0  0  0  0  0  0  0  0  0  0  0  0
   19.4650   18.3355   21.4880 C   0  0  0  0  0  0  0  0  0  0  0  0
   18.7752   17.6376   20.9937 H   0  0  0  0  0  0  0  0  0  0  0  0
   20.4382   17.8272   21.5314 H   0  0  0  0  0  0  0  0  0  0  0  0
   18.9501   18.5953   22.9253 C   0  0  0  0  0  0  0  0  0  0  0  0
   18.7631   17.6221   23.3965 H   0  0  0  0  0  0  0  0  0  0  0  0
   17.9801   19.1093   22.8806 H   0  0  0  0  0  0  0  0  0  0  0  0
   19.9367   19.4124   23.7982 C   0  0  0  0  0  0  0  0  0  0  0  0
   20.9063   18.8977   23.8440 H   0  0  0  0  0  0  0  0  0  0  0  0
   20.1248   20.3839   23.3239 H   0  0  0  0  0  0  0  0  0  0  0  0
   19.4217   19.6771   25.2346 C   0  0  0  0  0  0  0  0  0  0  0  0
   18.4441   20.1767   25.1888 H   0  0  0  0  0  0  0  0  0  0  0  0
   20.1078   20.3861   25.7164 H   0  0  0  0  0  0  0  0  0  0  0  0
   19.3151   18.3980   26.1027 C   0  0  0  0  0  0  0  0  0  0  0  0
   18.5955   17.7019   25.6549 H   0  0  0  0  0  0  0  0  0  0  0  0
   20.2821   17.8783   26.1282 H   0  0  0  0  0  0  0  0  0  0  0  0
   18.8534   18.6948   27.5426 C   0  0  0  0  0  0  0  0  0  0  0  0
   18.7024   17.7523   28.0759 H   0  0  0  0  0  0  0  0  0  0  0  0
   17.9007   19.2307   27.5207 H   0  0  0  0  0  0  0  0  0  0  0  0
   19.8406   19.5211   28.3435 N   0  3  0  0  0  0  0  0  0  0  0  0
   20.7520   19.0575   28.4185 H   0  0  0  0  0  0  0  0  0  0  0  0
   19.5093   19.6882   29.3000 H   0  0  0  0  0  0  0  0  0  0  0  0
   20.0014   20.4389   27.9169 H   0  0  0  0  0  0  0  0  0  0  0  0
  1  2  1  0  0  0  0
  1  3  1  0  0  0  0
  1  4  1  0  0  0  0
  1  5  1  0  0  0  0
  5  6  1  0  0  0  0
  5  7  1  0  0  0  0
  5  8  1  0  0  0  0
  8  9  1  0  0  0  0
  8 10  1  0  0  0  0
  8 11  1  0  0  0  0
 11 12  1  0  0  0  0
 11 13  1  0  0  0  0
 11 14  1  0  0  0  0
 14 15  1  0  0  0  0
 14 16  1  0  0  0  0
 14 17  1  0  0  0  0
 17 18  1  0  0  0  0
 17 19  1  0  0  0  0
 17 20  1  0  0  0  0
 20 21  1  0  0  0  0
 20 22  1  0  0  0  0
 20 23  1  0  0  0  0
 23 24  1  0  0  0  0
 23 25  1  0  0  0  0
 23 26  1  0  0  0  0
 26 27  1  0  0  0  0
 26 28  1  0  0  0  0
 26 29  1  0  0  0  0
M  END
> <VM2 Rank>
101

> <Conf_Id>
1938

> <Probability>
0.31

> <Sum Probability>
82.48

> <Delta G>
1.693

> <G>
59.839

> <E>
22.449

> <-TS>
37.391

> <U+W>
-1.696

> <U>
49.901

> <W>
-51.597

> <W(PB)>
-54.070

> <W(SA)>
2.473

> <Valence>
3.877

> <Coulomb>
44.864

> <VdW>
1.159

> <VdW6>
-8.668

> <VdW12>
9.827

> <Bond>
0.259

> <Angle>
1.041

> <Pdih>
2.578

> <Idih>
0.000

> <Tether>
0.000

$$$$
VeraChem MOL file


 29 28  0  0  0  0  0  0  0  0999 V2000     
   19.6254   18.9756   19.4467 C   0  0  0  0  0  0  0  0  0  0  0  0
   20.0407   17.9823   19.6562 H   0  0  0  0  0  0  0  0  0  0  0  0
   19.1193   18.9222   18.4741 H   0  0  0  0  0  0  0  0  0  0  0  0
   20.4582   19.6847   19.3531 H   0  0  0  0  0  0  0  0  0  0  0  0
   18.6359   19.4226   20.5467 C   0  0  0  0  0  0  0  0  0  0  0  0
   17.8316   18.6801   20.6452 H   0  0  0  0  0  0  0  0  0  0  0  0
   18.1537   20.3573   20.2278 H   0  0  0  0  0  0  0  0  0  0  0  0
   19.3052   19.6555   21.9228 C   0  0  0  0  0  0  0  0  0  0  0  0
   20.1073   20.3991   21.8191 H   0  0  0  0  0  0  0  0  0  0  0  0
   18.5567   20.0980   22.5923 H   0  0  0  0  0  0  0  0  0  0  0  0
   19.8708   18.3610   22.5605 C   0  0  0  0  0  0  0  0  0  0  0  0
   20.6141   17.9170   21.8860 H   0  0  0  0  0  0  0  0  0  0  0  0
   19.0680   17.6187   22.6676 H   0  0  0  0  0  0  0  0  0  0  0  0
   20.5502   18.5922   23.9328 C   0  0  0  0  0  0  0  0  0  0  0  0
   21.0361   17.6560   24.2406 H   0  0  0  0  0  0  0  0  0  0  0  0
   21.3527   19.3349   23.8251 H   0  0  0  0  0  0  0  0  0  0  0  0
   19.5701   19.0374   25.0450 C   0  0  0  0  0  0  0  0  0  0  0  0
   18.7376   18.3235   25.1004 H   0  0  0  0  0  0  0  0  0  0  0  0
   19.1385   20.0156   24.7963 H   0  0  0  0  0  0  0  0  0  0  0  0
   20.2725   19.1333   26.4200 C   0  0  0  0  0  0  0  0  0  0  0  0
   20.6782   18.1535   26.7052 H   0  0  0  0  0  0  0  0  0  0  0  0
   21.1286   19.8170   26.3437 H   0  0  0  0  0  0  0  0  0  0  0  0
   19.3367   19.6453   27.5318 C   0  0  0  0  0  0  0  0  0  0  0  0
   18.9269   20.6187   27.2488 H   0  0  0  0  0  0  0  0  0  0  0  0
   19.9065   19.7707   28.4566 H   0  0  0  0  0  0  0  0  0  0  0  0
   18.1772   18.7150   27.8287 N   0  3  0  0  0  0  0  0  0  0  0  0
   17.5786   18.5813   27.0077 H   0  0  0  0  0  0  0  0  0  0  0  0
   17.5805   19.0781   28.5802 H   0  0  0  0  0  0  0  0  0  0  0  0
   18.4996   17.7874   28.1236 H   0  0  0  0  0  0  0  0  0  0  0  0
  1  2  1  0  0  0  0
  1  3  1  0  0  0  0
  1  4  1  0  0  0  0
  1  5  1  0  0  0  0
  5  6  1  0  0  0  0
  5  7  1  0  0  0  0
  5  8  1  0  0  0  0
  8  9  1  0  0  0  0
  8 10  1  0  0  0  0
  8 11  1  0  0  0  0
 11 12  1  0  0  0  0
 11 13  1  0  0  0  0
 11 14  1  0  0  0  0
 14 15  1  0  0  0  0
 14 16  1  0  0  0  0
 14 17  1  0  0  0  0
 17 18  1  0  0  0  0
 17 19  1  0  0  0  0
 17 20  1  0  0  0  0
 20 21  1  0  0  0  0
 20 22  1  0  0  0  0
 20 23  1  0  0  0  0
 23 24  1  0  0  0  0
 23 25  1  0  0  0  0
 23 26  1  0  0  0  0
 26 27  1  0  0  0  0
 26 28  1  0  0  0  0
 26 29  1  0  0  0  0
M  END
> <VM2 Rank>
102

> <Conf_Id>
626

> <Probability>
0.31

> <Sum Probability>
82.79

> <Delta G>
1.697

> <G>
59.843

> <E>
22.399

> <-TS>
37.444

> <U+W>
-1.746

> <U>
49.938

> <W>
-51.684

> <W(PB)>
-54.166

> <W(SA)>
2.482

> <Valence>
3.804

> <Coulomb>
45.009

> <VdW>
1.125

> <VdW6>
-8.684

> <VdW12>
9.809

> <Bond>
0.248

> <Angle>
0.989

> <Pdih>
2.567

> <Idih>
0.000

> <Tether>
0.000

$$$$
VeraChem MOL file


 29 28  0  0  0  0  0  0  0  0999 V2000     
   20.0278   18.5060   19.3323 C   0  0  0  0  0  0  0  0  0  0  0  0
   20.6068   19.3930   19.0436 H   0  0  0  0  0  0  0  0  0  0  0  0
   20.5627   17.6202   18.9660 H   0  0  0  0  0  0  0  0  0  0  0  0
   19.0576   18.5493   18.8204 H   0  0  0  0  0  0  0  0  0  0  0  0
   19.8452   18.4379   20.8633 C   0  0  0  0  0  0  0  0  0  0  0  0
   20.8325   18.3550   21.3367 H   0  0  0  0  0  0  0  0  0  0  0  0
   19.2890   17.5265   21.1236 H   0  0  0  0  0  0  0  0  0  0  0  0
   19.0965   19.6789   21.4038 C   0  0  0  0  0  0  0  0  0  0  0  0
   19.6778   20.5857   21.1869 H   0  0  0  0  0  0  0  0  0  0  0  0
   18.1457   19.7860   20.8636 H   0  0  0  0  0  0  0  0  0  0  0  0
   18.7942   19.6062   22.9206 C   0  0  0  0  0  0  0  0  0  0  0  0
   18.1908   18.7117   23.1233 H   0  0  0  0  0  0  0  0  0  0  0  0
   18.1719   20.4696   23.1931 H   0  0  0  0  0  0  0  0  0  0  0  0
   20.0684   19.6025   23.8027 C   0  0  0  0  0  0  0  0  0  0  0  0
   20.6390   18.6790   23.6383 H   0  0  0  0  0  0  0  0  0  0  0  0
   20.7206   20.4301   23.4915 H   0  0  0  0  0  0  0  0  0  0  0  0
   19.7726   19.7538   25.3150 C   0  0  0  0  0  0  0  0  0  0  0  0
   19.2168   20.6854   25.4900 H   0  0  0  0  0  0  0  0  0  0  0  0
   20.7301   19.8623   25.8414 H   0  0  0  0  0  0  0  0  0  0  0  0
   18.9888   18.5586   25.9129 C   0  0  0  0  0  0  0  0  0  0  0  0
   18.0137   18.4689   25.4181 H   0  0  0  0  0  0  0  0  0  0  0  0
   19.5270   17.6210   25.7204 H   0  0  0  0  0  0  0  0  0  0  0  0
   18.7416   18.7081   27.4264 C   0  0  0  0  0  0  0  0  0  0  0  0
   18.1052   17.8889   27.7721 H   0  0  0  0  0  0  0  0  0  0  0  0
   18.2223   19.6499   27.6234 H   0  0  0  0  0  0  0  0  0  0  0  0
   20.0090   18.6860   28.2581 N   0  3  0  0  0  0  0  0  0  0  0  0
   20.5314   17.8127   28.1322 H   0  0  0  0  0  0  0  0  0  0  0  0
   19.8082   18.7737   29.2604 H   0  0  0  0  0  0  0  0  0  0  0  0
   20.6393   19.4549   28.0097 H   0  0  0  0  0  0  0  0  0  0  0  0
  1  2  1  0  0  0  0
  1  3  1  0  0  0  0
  1  4  1  0  0  0  0
  1  5  1  0  0  0  0
  5  6  1  0  0  0  0
  5  7  1  0  0  0  0
  5  8  1  0  0  0  0
  8  9  1  0  0  0  0
  8 10  1  0  0  0  0
  8 11  1  0  0  0  0
 11 12  1  0  0  0  0
 11 13  1  0  0  0  0
 11 14  1  0  0  0  0
 14 15  1  0  0  0  0
 14 16  1  0  0  0  0
 14 17  1  0  0  0  0
 17 18  1  0  0  0  0
 17 19  1  0  0  0  0
 17 20  1  0  0  0  0
 20 21  1  0  0  0  0
 20 22  1  0  0  0  0
 20 23  1  0  0  0  0
 23 24  1  0  0  0  0
 23 25  1  0  0  0  0
 23 26  1  0  0  0  0
 26 27  1  0  0  0  0
 26 28  1  0  0  0  0
 26 29  1  0  0  0  0
M  END
> <VM2 Rank>
103

> <Conf_Id>
1246

> <Probability>
0.31

> <Sum Probability>
83.10

> <Delta G>
1.697

> <G>
59.844

> <E>
22.341

> <-TS>
37.503

> <U+W>
-1.803

> <U>
49.751

> <W>
-51.554

> <W(PB)>
-54.050

> <W(SA)>
2.496

> <Valence>
3.759

> <Coulomb>
44.916

> <VdW>
1.076

> <VdW6>
-8.771

> <VdW12>
9.848

> <Bond>
0.248

> <Angle>
0.934

> <Pdih>
2.577

> <Idih>
0.000

> <Tether>
0.000

$$$$
VeraChem MOL file


 29 28  0  0  0  0  0  0  0  0999 V2000     
   20.5379   18.4697   20.1353 C   0  0  0  0  0  0  0  0  0  0  0  0
   20.7939   17.6820   20.8546 H   0  0  0  0  0  0  0  0  0  0  0  0
   19.6249   18.1688   19.6053 H   0  0  0  0  0  0  0  0  0  0  0  0
   21.3512   18.5221   19.4001 H   0  0  0  0  0  0  0  0  0  0  0  0
   20.3506   19.8361   20.8327 C   0  0  0  0  0  0  0  0  0  0  0  0
   20.2176   20.6105   20.0643 H   0  0  0  0  0  0  0  0  0  0  0  0
   21.2662   20.1001   21.3802 H   0  0  0  0  0  0  0  0  0  0  0  0
   19.1371   19.8755   21.7925 C   0  0  0  0  0  0  0  0  0  0  0  0
   19.0147   20.9045   22.1578 H   0  0  0  0  0  0  0  0  0  0  0  0
   18.2213   19.6339   21.2356 H   0  0  0  0  0  0  0  0  0  0  0  0
   19.2784   18.9231   23.0039 C   0  0  0  0  0  0  0  0  0  0  0  0
   20.2259   19.1340   23.5166 H   0  0  0  0  0  0  0  0  0  0  0  0
   19.3244   17.8824   22.6577 H   0  0  0  0  0  0  0  0  0  0  0  0
   18.0979   19.0767   23.9924 C   0  0  0  0  0  0  0  0  0  0  0  0
   18.0741   20.1020   24.3853 H   0  0  0  0  0  0  0  0  0  0  0  0
   17.1544   18.9402   23.4459 H   0  0  0  0  0  0  0  0  0  0  0  0
   18.1342   18.0613   25.1637 C   0  0  0  0  0  0  0  0  0  0  0  0
   18.0479   17.0430   24.7603 H   0  0  0  0  0  0  0  0  0  0  0  0
   17.2443   18.2144   25.7900 H   0  0  0  0  0  0  0  0  0  0  0  0
   19.3960   18.1423   26.0584 C   0  0  0  0  0  0  0  0  0  0  0  0
   19.3045   17.4046   26.8666 H   0  0  0  0  0  0  0  0  0  0  0  0
   20.2850   17.8569   25.4816 H   0  0  0  0  0  0  0  0  0  0  0  0
   19.6019   19.5392   26.6727 C   0  0  0  0  0  0  0  0  0  0  0  0
   18.7206   19.8180   27.2565 H   0  0  0  0  0  0  0  0  0  0  0  0
   19.7356   20.2762   25.8764 H   0  0  0  0  0  0  0  0  0  0  0  0
   20.8101   19.6140   27.5835 N   0  3  0  0  0  0  0  0  0  0  0  0
   20.7346   18.9624   28.3716 H   0  0  0  0  0  0  0  0  0  0  0  0
   20.9292   20.5520   27.9818 H   0  0  0  0  0  0  0  0  0  0  0  0
   21.6778   19.3878   27.0863 H   0  0  0  0  0  0  0  0  0  0  0  0
  1  2  1  0  0  0  0
  1  3  1  0  0  0  0
  1  4  1  0  0  0  0
  1  5  1  0  0  0  0
  5  6  1  0  0  0  0
  5  7  1  0  0  0  0
  5  8  1  0  0  0  0
  8  9  1  0  0  0  0
  8 10  1  0  0  0  0
  8 11  1  0  0  0  0
 11 12  1  0  0  0  0
 11 13  1  0  0  0  0
 11 14  1  0  0  0  0
 14 15  1  0  0  0  0
 14 16  1  0  0  0  0
 14 17  1  0  0  0  0
 17 18  1  0  0  0  0
 17 19  1  0  0  0  0
 17 20  1  0  0  0  0
 20 21  1  0  0  0  0
 20 22  1  0  0  0  0
 20 23  1  0  0  0  0
 23 24  1  0  0  0  0
 23 25  1  0  0  0  0
 23 26  1  0  0  0  0
 26 27  1  0  0  0  0
 26 28  1  0  0  0  0
 26 29  1  0  0  0  0
M  END
> <VM2 Rank>
104

> <Conf_Id>
2969

> <Probability>
0.30

> <Sum Probability>
83.40

> <Delta G>
1.708

> <G>
59.854

> <E>
22.216

> <-TS>
37.638

> <U+W>
-1.929

> <U>
50.132

> <W>
-52.061

> <W(PB)>
-54.530

> <W(SA)>
2.469

> <Valence>
3.843

> <Coulomb>
45.436

> <VdW>
0.853

> <VdW6>
-9.162

> <VdW12>
10.015

> <Bond>
0.247

> <Angle>
1.127

> <Pdih>
2.470

> <Idih>
0.000

> <Tether>
0.000

$$$$
VeraChem MOL file


 29 28  0  0  0  0  0  0  0  0999 V2000     
   20.7267   18.9989   20.1474 C   0  0  0  0  0  0  0  0  0  0  0  0
   21.4128   19.4181   20.8938 H   0  0  0  0  0  0  0  0  0  0  0  0
   21.3342   18.4732   19.3994 H   0  0  0  0  0  0  0  0  0  0  0  0
   20.2174   19.8300   19.6425 H   0  0  0  0  0  0  0  0  0  0  0  0
   19.7078   18.0325   20.7925 C   0  0  0  0  0  0  0  0  0  0  0  0
   20.2422   17.2276   21.3161 H   0  0  0  0  0  0  0  0  0  0  0  0
   19.1261   17.5479   19.9959 H   0  0  0  0  0  0  0  0  0  0  0  0
   18.7292   18.7313   21.7669 C   0  0  0  0  0  0  0  0  0  0  0  0
   18.1805   19.5193   21.2329 H   0  0  0  0  0  0  0  0  0  0  0  0
   17.9786   17.9981   22.0928 H   0  0  0  0  0  0  0  0  0  0  0  0
   19.4236   19.3308   23.0130 C   0  0  0  0  0  0  0  0  0  0  0  0
   20.1221   20.1208   22.7078 H   0  0  0  0  0  0  0  0  0  0  0  0
   20.0170   18.5482   23.5036 H   0  0  0  0  0  0  0  0  0  0  0  0
   18.3980   19.9191   24.0112 C   0  0  0  0  0  0  0  0  0  0  0  0
   17.7612   20.6429   23.4839 H   0  0  0  0  0  0  0  0  0  0  0  0
   17.7258   19.1252   24.3634 H   0  0  0  0  0  0  0  0  0  0  0  0
   19.0514   20.6354   25.2213 C   0  0  0  0  0  0  0  0  0  0  0  0
   18.2564   21.0546   25.8535 H   0  0  0  0  0  0  0  0  0  0  0  0
   19.6340   21.4940   24.8599 H   0  0  0  0  0  0  0  0  0  0  0  0
   19.9653   19.7396   26.0940 C   0  0  0  0  0  0  0  0  0  0  0  0
   20.8425   19.4214   25.5164 H   0  0  0  0  0  0  0  0  0  0  0  0
   20.3493   20.3362   26.9321 H   0  0  0  0  0  0  0  0  0  0  0  0
   19.2331   18.5041   26.6494 C   0  0  0  0  0  0  0  0  0  0  0  0
   18.8820   17.8809   25.8228 H   0  0  0  0  0  0  0  0  0  0  0  0
   18.3659   18.8223   27.2343 H   0  0  0  0  0  0  0  0  0  0  0  0
   20.1090   17.6463   27.5393 N   0  3  0  0  0  0  0  0  0  0  0  0
   20.9313   17.2927   27.0392 H   0  0  0  0  0  0  0  0  0  0  0  0
   19.6028   16.8293   27.8984 H   0  0  0  0  0  0  0  0  0  0  0  0
   20.4514   18.1670   28.3536 H   0  0  0  0  0  0  0  0  0  0  0  0
  1  2  1  0  0  0  0
  1  3  1  0  0  0  0
  1  4  1  0  0  0  0
  1  5  1  0  0  0  0
  5  6  1  0  0  0  0
  5  7  1  0  0  0  0
  5  8  1  0  0  0  0
  8  9  1  0  0  0  0
  8 10  1  0  0  0  0
  8 11  1  0  0  0  0
 11 12  1  0  0  0  0
 11 13  1  0  0  0  0
 11 14  1  0  0  0  0
 14 15  1  0  0  0  0
 14 16  1  0  0  0  0
 14 17  1  0  0  0  0
 17 18  1  0  0  0  0
 17 19  1  0  0  0  0
 17 20  1  0  0  0  0
 20 21  1  0  0  0  0
 20 22  1  0  0  0  0
 20 23  1  0  0  0  0
 23 24  1  0  0  0  0
 23 25  1  0  0  0  0
 23 26  1  0  0  0  0
 26 27  1  0  0  0  0
 26 28  1  0  0  0  0
 26 29  1  0  0  0  0
M  END
> <VM2 Rank>
105

> <Conf_Id>
1969

> <Probability>
0.30

> <Sum Probability>
83.70

> <Delta G>
1.710

> <G>
59.856

> <E>
22.218

> <-TS>
37.638

> <U+W>
-1.926

> <U>
50.132

> <W>
-52.058

> <W(PB)>
-54.557

> <W(SA)>
2.499

> <Valence>
3.843

> <Coulomb>
45.436

> <VdW>
0.853

> <VdW6>
-9.163

> <VdW12>
10.015

> <Bond>
0.247

> <Angle>
1.127

> <Pdih>
2.470

> <Idih>
0.000

> <Tether>
0.000

$$$$
VeraChem MOL file


 29 28  0  0  0  0  0  0  0  0999 V2000     
   20.8872   17.9609   20.3372 C   0  0  0  0  0  0  0  0  0  0  0  0
   21.5190   18.8146   20.0591 H   0  0  0  0  0  0  0  0  0  0  0  0
   21.4398   17.3480   21.0612 H   0  0  0  0  0  0  0  0  0  0  0  0
   20.7245   17.3544   19.4368 H   0  0  0  0  0  0  0  0  0  0  0  0
   19.5414   18.4355   20.9250 C   0  0  0  0  0  0  0  0  0  0  0  0
   18.9189   17.5616   21.1629 H   0  0  0  0  0  0  0  0  0  0  0  0
   18.9971   19.0159   20.1669 H   0  0  0  0  0  0  0  0  0  0  0  0
   19.7425   19.2929   22.1939 C   0  0  0  0  0  0  0  0  0  0  0  0
   20.2953   18.7053   22.9384 H   0  0  0  0  0  0  0  0  0  0  0  0
   20.3624   20.1670   21.9514 H   0  0  0  0  0  0  0  0  0  0  0  0
   18.3938   19.7639   22.7885 C   0  0  0  0  0  0  0  0  0  0  0  0
   17.7884   18.8930   23.0725 H   0  0  0  0  0  0  0  0  0  0  0  0
   17.8225   20.2861   22.0086 H   0  0  0  0  0  0  0  0  0  0  0  0
   18.5491   20.7196   23.9997 C   0  0  0  0  0  0  0  0  0  0  0  0
   19.0494   21.6390   23.6658 H   0  0  0  0  0  0  0  0  0  0  0  0
   17.5494   21.0275   24.3360 H   0  0  0  0  0  0  0  0  0  0  0  0
   19.3289   20.1390   25.2076 C   0  0  0  0  0  0  0  0  0  0  0  0
   19.3687   20.9055   25.9939 H   0  0  0  0  0  0  0  0  0  0  0  0
   20.3702   19.9485   24.9185 H   0  0  0  0  0  0  0  0  0  0  0  0
   18.6931   18.8530   25.7916 C   0  0  0  0  0  0  0  0  0  0  0  0
   17.6318   19.0368   26.0051 H   0  0  0  0  0  0  0  0  0  0  0  0
   18.7307   18.0391   25.0564 H   0  0  0  0  0  0  0  0  0  0  0  0
   19.3803   18.3908   27.0905 C   0  0  0  0  0  0  0  0  0  0  0  0
   18.8434   17.5304   27.4992 H   0  0  0  0  0  0  0  0  0  0  0  0
   19.3490   19.1955   27.8301 H   0  0  0  0  0  0  0  0  0  0  0  0
   20.8278   17.9824   26.9009 N   0  3  0  0  0  0  0  0  0  0  0  0
   21.3974   18.7587   26.5501 H   0  0  0  0  0  0  0  0  0  0  0  0
   20.9208   17.2104   26.2327 H   0  0  0  0  0  0  0  0  0  0  0  0
   21.2534   17.6706   27.7808 H   0  0  0  0  0  0  0  0  0  0  0  0
  1  2  1  0  0  0  0
  1  3  1  0  0  0  0
  1  4  1  0  0  0  0
  1  5  1  0  0  0  0
  5  6  1  0  0  0  0
  5  7  1  0  0  0  0
  5  8  1  0  0  0  0
  8  9  1  0  0  0  0
  8 10  1  0  0  0  0
  8 11  1  0  0  0  0
 11 12  1  0  0  0  0
 11 13  1  0  0  0  0
 11 14  1  0  0  0  0
 14 15  1  0  0  0  0
 14 16  1  0  0  0  0
 14 17  1  0  0  0  0
 17 18  1  0  0  0  0
 17 19  1  0  0  0  0
 17 20  1  0  0  0  0
 20 21  1  0  0  0  0
 20 22  1  0  0  0  0
 20 23  1  0  0  0  0
 23 24  1  0  0  0  0
 23 25  1  0  0  0  0
 23 26  1  0  0  0  0
 26 27  1  0  0  0  0
 26 28  1  0  0  0  0
 26 29  1  0  0  0  0
M  END
> <VM2 Rank>
106

> <Conf_Id>
2764

> <Probability>
0.29

> <Sum Probability>
83.99

> <Delta G>
1.721

> <G>
59.867

> <E>
22.121

> <-TS>
37.746

> <U+W>
-2.023

> <U>
50.322

> <W>
-52.346

> <W(PB)>
-54.826

> <W(SA)>
2.480

> <Valence>
3.655

> <Coulomb>
45.884

> <VdW>
0.784

> <VdW6>
-9.261

> <VdW12>
10.045

> <Bond>
0.250

> <Angle>
1.077

> <Pdih>
2.328

> <Idih>
0.000

> <Tether>
0.000

$$$$
VeraChem MOL file


 29 28  0  0  0  0  0  0  0  0999 V2000     
   19.5095   19.0941   19.1731 C   0  0  0  0  0  0  0  0  0  0  0  0
   19.9273   18.1328   18.8468 H   0  0  0  0  0  0  0  0  0  0  0  0
   18.6585   19.3301   18.5210 H   0  0  0  0  0  0  0  0  0  0  0  0
   20.2738   19.8678   19.0234 H   0  0  0  0  0  0  0  0  0  0  0  0
   19.0641   19.0335   20.6496 C   0  0  0  0  0  0  0  0  0  0  0  0
   18.2799   18.2719   20.7623 H   0  0  0  0  0  0  0  0  0  0  0  0
   18.6151   19.9968   20.9248 H   0  0  0  0  0  0  0  0  0  0  0  0
   20.2491   18.7065   21.5889 C   0  0  0  0  0  0  0  0  0  0  0  0
   20.7333   17.7835   21.2410 H   0  0  0  0  0  0  0  0  0  0  0  0
   21.0082   19.4977   21.5180 H   0  0  0  0  0  0  0  0  0  0  0  0
   19.8363   18.5136   23.0690 C   0  0  0  0  0  0  0  0  0  0  0  0
   20.7123   18.1454   23.6180 H   0  0  0  0  0  0  0  0  0  0  0  0
   19.0738   17.7257   23.1380 H   0  0  0  0  0  0  0  0  0  0  0  0
   19.3134   19.8095   23.7397 C   0  0  0  0  0  0  0  0  0  0  0  0
   20.0753   20.5978   23.6687 H   0  0  0  0  0  0  0  0  0  0  0  0
   18.4363   20.1770   23.1921 H   0  0  0  0  0  0  0  0  0  0  0  0
   18.9036   19.6159   25.2205 C   0  0  0  0  0  0  0  0  0  0  0  0
   18.1393   18.8299   25.2854 H   0  0  0  0  0  0  0  0  0  0  0  0
   18.4268   20.5413   25.5723 H   0  0  0  0  0  0  0  0  0  0  0  0
   20.0933   19.2800   26.1541 C   0  0  0  0  0  0  0  0  0  0  0  0
   20.5207   18.3028   25.8972 H   0  0  0  0  0  0  0  0  0  0  0  0
   20.8905   20.0213   26.0095 H   0  0  0  0  0  0  0  0  0  0  0  0
   19.6936   19.2777   27.6420 C   0  0  0  0  0  0  0  0  0  0  0  0
   19.2691   20.2488   27.9107 H   0  0  0  0  0  0  0  0  0  0  0  0
   20.5825   19.1118   28.2568 H   0  0  0  0  0  0  0  0  0  0  0  0
   18.6811   18.2071   27.9980 N   0  3  0  0  0  0  0  0  0  0  0  0
   17.8061   18.3256   27.4779 H   0  0  0  0  0  0  0  0  0  0  0  0
   18.4429   18.2250   28.9958 H   0  0  0  0  0  0  0  0  0  0  0  0
   19.0328   17.2667   27.7903 H   0  0  0  0  0  0  0  0  0  0  0  0
  1  2  1  0  0  0  0
  1  3  1  0  0  0  0
  1  4  1  0  0  0  0
  1  5  1  0  0  0  0
  5  6  1  0  0  0  0
  5  7  1  0  0  0  0
  5  8  1  0  0  0  0
  8  9  1  0  0  0  0
  8 10  1  0  0  0  0
  8 11  1  0  0  0  0
 11 12  1  0  0  0  0
 11 13  1  0  0  0  0
 11 14  1  0  0  0  0
 14 15  1  0  0  0  0
 14 16  1  0  0  0  0
 14 17  1  0  0  0  0
 17 18  1  0  0  0  0
 17 19  1  0  0  0  0
 17 20  1  0  0  0  0
 20 21  1  0  0  0  0
 20 22  1  0  0  0  0
 20 23  1  0  0  0  0
 23 24  1  0  0  0  0
 23 25  1  0  0  0  0
 23 26  1  0  0  0  0
 26 27  1  0  0  0  0
 26 28  1  0  0  0  0
 26 29  1  0  0  0  0
M  END
> <VM2 Rank>
107

> <Conf_Id>
685

> <Probability>
0.29

> <Sum Probability>
84.28

> <Delta G>
1.721

> <G>
59.867

> <E>
22.429

> <-TS>
37.438

> <U+W>
-1.715

> <U>
49.985

> <W>
-51.700

> <W(PB)>
-54.216

> <W(SA)>
2.516

> <Valence>
3.839

> <Coulomb>
45.043

> <VdW>
1.103

> <VdW6>
-8.716

> <VdW12>
9.819

> <Bond>
0.253

> <Angle>
0.991

> <Pdih>
2.595

> <Idih>
0.000

> <Tether>
0.000

$$$$
VeraChem MOL file


 29 28  0  0  0  0  0  0  0  0999 V2000     
   21.3682   18.9965   20.8965 C   0  0  0  0  0  0  0  0  0  0  0  0
   21.6451   17.9685   21.1641 H   0  0  0  0  0  0  0  0  0  0  0  0
   21.9832   19.2974   20.0385 H   0  0  0  0  0  0  0  0  0  0  0  0
   21.6295   19.6531   21.7355 H   0  0  0  0  0  0  0  0  0  0  0  0
   19.8662   19.0939   20.5454 C   0  0  0  0  0  0  0  0  0  0  0  0
   19.6795   18.5192   19.6275 H   0  0  0  0  0  0  0  0  0  0  0  0
   19.6076   20.1365   20.3134 H   0  0  0  0  0  0  0  0  0  0  0  0
   18.9371   18.5603   21.6624 C   0  0  0  0  0  0  0  0  0  0  0  0
   17.9047   18.5613   21.2865 H   0  0  0  0  0  0  0  0  0  0  0  0
   19.1869   17.5122   21.8776 H   0  0  0  0  0  0  0  0  0  0  0  0
   19.0016   19.3903   22.9667 C   0  0  0  0  0  0  0  0  0  0  0  0
   18.7957   20.4455   22.7407 H   0  0  0  0  0  0  0  0  0  0  0  0
   20.0164   19.3419   23.3800 H   0  0  0  0  0  0  0  0  0  0  0  0
   17.9894   18.8801   24.0201 C   0  0  0  0  0  0  0  0  0  0  0  0
   16.9849   18.8675   23.5750 H   0  0  0  0  0  0  0  0  0  0  0  0
   18.2184   17.8375   24.2787 H   0  0  0  0  0  0  0  0  0  0  0  0
   17.9414   19.7467   25.3051 C   0  0  0  0  0  0  0  0  0  0  0  0
   17.1736   19.3380   25.9765 H   0  0  0  0  0  0  0  0  0  0  0  0
   17.6057   20.7597   25.0438 H   0  0  0  0  0  0  0  0  0  0  0  0
   19.2807   19.8448   26.0773 C   0  0  0  0  0  0  0  0  0  0  0  0
   20.0246   20.3801   25.4736 H   0  0  0  0  0  0  0  0  0  0  0  0
   19.1249   20.4502   26.9801 H   0  0  0  0  0  0  0  0  0  0  0  0
   19.8359   18.4674   26.4843 C   0  0  0  0  0  0  0  0  0  0  0  0
   20.0337   17.8706   25.5901 H   0  0  0  0  0  0  0  0  0  0  0  0
   19.0990   17.9395   27.0955 H   0  0  0  0  0  0  0  0  0  0  0  0
   21.1236   18.5581   27.2772 N   0  3  0  0  0  0  0  0  0  0  0  0
   21.8674   19.0225   26.7458 H   0  0  0  0  0  0  0  0  0  0  0  0
   21.4763   17.6307   27.5381 H   0  0  0  0  0  0  0  0  0  0  0  0
   20.9992   19.0859   28.1475 H   0  0  0  0  0  0  0  0  0  0  0  0
  1  2  1  0  0  0  0
  1  3  1  0  0  0  0
  1  4  1  0  0  0  0
  1  5  1  0  0  0  0
  5  6  1  0  0  0  0
  5  7  1  0  0  0  0
  5  8  1  0  0  0  0
  8  9  1  0  0  0  0
  8 10  1  0  0  0  0
  8 11  1  0  0  0  0
 11 12  1  0  0  0  0
 11 13  1  0  0  0  0
 11 14  1  0  0  0  0
 14 15  1  0  0  0  0
 14 16  1  0  0  0  0
 14 17  1  0  0  0  0
 17 18  1  0  0  0  0
 17 19  1  0  0  0  0
 17 20  1  0  0  0  0
 20 21  1  0  0  0  0
 20 22  1  0  0  0  0
 20 23  1  0  0  0  0
 23 24  1  0  0  0  0
 23 25  1  0  0  0  0
 23 26  1  0  0  0  0
 26 27  1  0  0  0  0
 26 28  1  0  0  0  0
 26 29  1  0  0  0  0
M  END
> <VM2 Rank>
108

> <Conf_Id>
196

> <Probability>
0.29

> <Sum Probability>
84.58

> <Delta G>
1.721

> <G>
59.867

> <E>
22.230

> <-TS>
37.638

> <U+W>
-1.915

> <U>
50.295

> <W>
-52.210

> <W(PB)>
-54.702

> <W(SA)>
2.491

> <Valence>
3.839

> <Coulomb>
45.618

> <VdW>
0.838

> <VdW6>
-9.210

> <VdW12>
10.049

> <Bond>
0.249

> <Angle>
1.131

> <Pdih>
2.459

> <Idih>
0.000

> <Tether>
0.000

$$$$
VeraChem MOL file


 29 28  0  0  0  0  0  0  0  0999 V2000     
   20.5515   18.3553   19.9122 C   0  0  0  0  0  0  0  0  0  0  0  0
   21.5522   18.2839   20.3580 H   0  0  0  0  0  0  0  0  0  0  0  0
   20.4575   17.5563   19.1653 H   0  0  0  0  0  0  0  0  0  0  0  0
   20.4784   19.3171   19.3880 H   0  0  0  0  0  0  0  0  0  0  0  0
   19.4539   18.2261   20.9894 C   0  0  0  0  0  0  0  0  0  0  0  0
   19.5318   17.2423   21.4733 H   0  0  0  0  0  0  0  0  0  0  0  0
   18.4660   18.2663   20.5097 H   0  0  0  0  0  0  0  0  0  0  0  0
   19.5633   19.3402   22.0536 C   0  0  0  0  0  0  0  0  0  0  0  0
   20.5569   19.2953   22.5183 H   0  0  0  0  0  0  0  0  0  0  0  0
   19.4825   20.3217   21.5664 H   0  0  0  0  0  0  0  0  0  0  0  0
   18.4667   19.2089   23.1372 C   0  0  0  0  0  0  0  0  0  0  0  0
   18.5651   18.2435   23.6510 H   0  0  0  0  0  0  0  0  0  0  0  0
   17.4826   19.1917   22.6489 H   0  0  0  0  0  0  0  0  0  0  0  0
   18.4774   20.3638   24.1715 C   0  0  0  0  0  0  0  0  0  0  0  0
   18.2714   21.3090   23.6506 H   0  0  0  0  0  0  0  0  0  0  0  0
   17.6399   20.2228   24.8679 H   0  0  0  0  0  0  0  0  0  0  0  0
   19.7950   20.5192   24.9780 C   0  0  0  0  0  0  0  0  0  0  0  0
   19.6700   21.3406   25.6970 H   0  0  0  0  0  0  0  0  0  0  0  0
   20.6030   20.8362   24.3054 H   0  0  0  0  0  0  0  0  0  0  0  0
   20.2418   19.2491   25.7433 C   0  0  0  0  0  0  0  0  0  0  0  0
   20.4904   18.4504   25.0327 H   0  0  0  0  0  0  0  0  0  0  0  0
   21.1664   19.4725   26.2918 H   0  0  0  0  0  0  0  0  0  0  0  0
   19.1758   18.7483   26.7352 C   0  0  0  0  0  0  0  0  0  0  0  0
   18.2620   18.4886   26.1944 H   0  0  0  0  0  0  0  0  0  0  0  0
   18.9395   19.5395   27.4517 H   0  0  0  0  0  0  0  0  0  0  0  0
   19.6185   17.5272   27.5147 N   0  3  0  0  0  0  0  0  0  0  0  0
   20.4610   17.7133   28.0688 H   0  0  0  0  0  0  0  0  0  0  0  0
   19.8313   16.7366   26.8975 H   0  0  0  0  0  0  0  0  0  0  0  0
   18.8946   17.2100   28.1689 H   0  0  0  0  0  0  0  0  0  0  0  0
  1  2  1  0  0  0  0
  1  3  1  0  0  0  0
  1  4  1  0  0  0  0
  1  5  1  0  0  0  0
  5  6  1  0  0  0  0
  5  7  1  0  0  0  0
  5  8  1  0  0  0  0
  8  9  1  0  0  0  0
  8 10  1  0  0  0  0
  8 11  1  0  0  0  0
 11 12  1  0  0  0  0
 11 13  1  0  0  0  0
 11 14  1  0  0  0  0
 14 15  1  0  0  0  0
 14 16  1  0  0  0  0
 14 17  1  0  0  0  0
 17 18  1  0  0  0  0
 17 19  1  0  0  0  0
 17 20  1  0  0  0  0
 20 21  1  0  0  0  0
 20 22  1  0  0  0  0
 20 23  1  0  0  0  0
 23 24  1  0  0  0  0
 23 25  1  0  0  0  0
 23 26  1  0  0  0  0
 26 27  1  0  0  0  0
 26 28  1  0  0  0  0
 26 29  1  0  0  0  0
M  END
> <VM2 Rank>
109

> <Conf_Id>
944

> <Probability>
0.29

> <Sum Probability>
84.87

> <Delta G>
1.728

> <G>
59.874

> <E>
21.995

> <-TS>
37.879

> <U+W>
-2.150

> <U>
50.030

> <W>
-52.179

> <W(PB)>
-54.679

> <W(SA)>
2.500

> <Valence>
3.797

> <Coulomb>
45.605

> <VdW>
0.628

> <VdW6>
-9.562

> <VdW12>
10.189

> <Bond>
0.256

> <Angle>
1.236

> <Pdih>
2.305

> <Idih>
0.000

> <Tether>
0.000

$$$$
VeraChem MOL file


 29 28  0  0  0  0  0  0  0  0999 V2000     
   20.2623   19.0823   19.6903 C   0  0  0  0  0  0  0  0  0  0  0  0
   21.1896   19.5792   20.0036 H   0  0  0  0  0  0  0  0  0  0  0  0
   20.3532   18.0120   19.9132 H   0  0  0  0  0  0  0  0  0  0  0  0
   20.1766   19.1867   18.6010 H   0  0  0  0  0  0  0  0  0  0  0  0
   19.0340   19.7051   20.3917 C   0  0  0  0  0  0  0  0  0  0  0  0
   18.1230   19.1742   20.0821 H   0  0  0  0  0  0  0  0  0  0  0  0
   18.9173   20.7424   20.0479 H   0  0  0  0  0  0  0  0  0  0  0  0
   19.1428   19.7023   21.9355 C   0  0  0  0  0  0  0  0  0  0  0  0
   20.0400   20.2609   22.2327 H   0  0  0  0  0  0  0  0  0  0  0  0
   18.2840   20.2500   22.3472 H   0  0  0  0  0  0  0  0  0  0  0  0
   19.1755   18.2782   22.5454 C   0  0  0  0  0  0  0  0  0  0  0  0
   20.0927   17.7581   22.2390 H   0  0  0  0  0  0  0  0  0  0  0  0
   18.3377   17.6951   22.1391 H   0  0  0  0  0  0  0  0  0  0  0  0
   19.0773   18.2689   24.0905 C   0  0  0  0  0  0  0  0  0  0  0  0
   18.1435   18.7594   24.3964 H   0  0  0  0  0  0  0  0  0  0  0  0
   19.0043   17.2259   24.4282 H   0  0  0  0  0  0  0  0  0  0  0  0
   20.2867   18.9422   24.7871 C   0  0  0  0  0  0  0  0  0  0  0  0
   20.3151   20.0126   24.5438 H   0  0  0  0  0  0  0  0  0  0  0  0
   21.2172   18.5078   24.3962 H   0  0  0  0  0  0  0  0  0  0  0  0
   20.2676   18.7743   26.3244 C   0  0  0  0  0  0  0  0  0  0  0  0
   20.2752   17.7062   26.5794 H   0  0  0  0  0  0  0  0  0  0  0  0
   21.1881   19.2038   26.7417 H   0  0  0  0  0  0  0  0  0  0  0  0
   19.0515   19.4546   26.9802 C   0  0  0  0  0  0  0  0  0  0  0  0
   18.1288   19.0060   26.6034 H   0  0  0  0  0  0  0  0  0  0  0  0
   19.0454   20.5187   26.7290 H   0  0  0  0  0  0  0  0  0  0  0  0
   19.0461   19.3302   28.4900 N   0  3  0  0  0  0  0  0  0  0  0  0
   19.8770   19.7586   28.9113 H   0  0  0  0  0  0  0  0  0  0  0  0
   19.0254   18.3505   28.7922 H   0  0  0  0  0  0  0  0  0  0  0  0
   18.2290   19.7893   28.9072 H   0  0  0  0  0  0  0  0  0  0  0  0
  1  2  1  0  0  0  0
  1  3  1  0  0  0  0
  1  4  1  0  0  0  0
  1  5  1  0  0  0  0
  5  6  1  0  0  0  0
  5  7  1  0  0  0  0
  5  8  1  0  0  0  0
  8  9  1  0  0  0  0
  8 10  1  0  0  0  0
  8 11  1  0  0  0  0
 11 12  1  0  0  0  0
 11 13  1  0  0  0  0
 11 14  1  0  0  0  0
 14 15  1  0  0  0  0
 14 16  1  0  0  0  0
 14 17  1  0  0  0  0
 17 18  1  0  0  0  0
 17 19  1  0  0  0  0
 17 20  1  0  0  0  0
 20 21  1  0  0  0  0
 20 22  1  0  0  0  0
 20 23  1  0  0  0  0
 23 24  1  0  0  0  0
 23 25  1  0  0  0  0
 23 26  1  0  0  0  0
 26 27  1  0  0  0  0
 26 28  1  0  0  0  0
 26 29  1  0  0  0  0
M  END
> <VM2 Rank>
110

> <Conf_Id>
1620

> <Probability>
0.29

> <Sum Probability>
85.16

> <Delta G>
1.728

> <G>
59.874

> <E>
22.344

> <-TS>
37.531

> <U+W>
-1.801

> <U>
49.749

> <W>
-51.550

> <W(PB)>
-54.049

> <W(SA)>
2.499

> <Valence>
3.885

> <Coulomb>
44.883

> <VdW>
0.980

> <VdW6>
-8.856

> <VdW12>
9.836

> <Bond>
0.242

> <Angle>
0.948

> <Pdih>
2.696

> <Idih>
0.000

> <Tether>
0.000

$$$$
VeraChem MOL file


 29 28  0  0  0  0  0  0  0  0999 V2000     
   20.3198   19.3254   19.3507 C   0  0  0  0  0  0  0  0  0  0  0  0
   21.2995   19.6870   19.0123 H   0  0  0  0  0  0  0  0  0  0  0  0
   20.2113   18.2847   19.0186 H   0  0  0  0  0  0  0  0  0  0  0  0
   19.5483   19.9260   18.8513 H   0  0  0  0  0  0  0  0  0  0  0  0
   20.1999   19.4326   20.8856 C   0  0  0  0  0  0  0  0  0  0  0  0
   20.3418   20.4790   21.1899 H   0  0  0  0  0  0  0  0  0  0  0  0
   21.0103   18.8535   21.3477 H   0  0  0  0  0  0  0  0  0  0  0  0
   18.8276   18.9244   21.3869 C   0  0  0  0  0  0  0  0  0  0  0  0
   18.0310   19.4642   20.8565 H   0  0  0  0  0  0  0  0  0  0  0  0
   18.7075   17.8639   21.1260 H   0  0  0  0  0  0  0  0  0  0  0  0
   18.6179   19.1117   22.9095 C   0  0  0  0  0  0  0  0  0  0  0  0
   17.5861   18.8260   23.1564 H   0  0  0  0  0  0  0  0  0  0  0  0
   18.7131   20.1772   23.1561 H   0  0  0  0  0  0  0  0  0  0  0  0
   19.5950   18.2741   23.7729 C   0  0  0  0  0  0  0  0  0  0  0  0
   19.5816   17.2337   23.4200 H   0  0  0  0  0  0  0  0  0  0  0  0
   20.6231   18.6346   23.6373 H   0  0  0  0  0  0  0  0  0  0  0  0
   19.2489   18.2839   25.2822 C   0  0  0  0  0  0  0  0  0  0  0  0
   19.9148   17.5740   25.7902 H   0  0  0  0  0  0  0  0  0  0  0  0
   18.2270   17.9071   25.4279 H   0  0  0  0  0  0  0  0  0  0  0  0
   19.3883   19.6806   25.9379 C   0  0  0  0  0  0  0  0  0  0  0  0
   20.4005   20.0739   25.7751 H   0  0  0  0  0  0  0  0  0  0  0  0
   18.6962   20.3857   25.4611 H   0  0  0  0  0  0  0  0  0  0  0  0
   19.0811   19.6610   27.4477 C   0  0  0  0  0  0  0  0  0  0  0  0
   18.0809   19.2521   27.6147 H   0  0  0  0  0  0  0  0  0  0  0  0
   19.1005   20.6835   27.8346 H   0  0  0  0  0  0  0  0  0  0  0  0
   20.0657   18.8444   28.2615 N   0  3  0  0  0  0  0  0  0  0  0  0
   20.0719   17.8608   27.9739 H   0  0  0  0  0  0  0  0  0  0  0  0
   19.8407   18.8635   29.2623 H   0  0  0  0  0  0  0  0  0  0  0  0
   21.0240   19.1954   28.1629 H   0  0  0  0  0  0  0  0  0  0  0  0
  1  2  1  0  0  0  0
  1  3  1  0  0  0  0
  1  4  1  0  0  0  0
  1  5  1  0  0  0  0
  5  6  1  0  0  0  0
  5  7  1  0  0  0  0
  5  8  1  0  0  0  0
  8  9  1  0  0  0  0
  8 10  1  0  0  0  0
  8 11  1  0  0  0  0
 11 12  1  0  0  0  0
 11 13  1  0  0  0  0
 11 14  1  0  0  0  0
 14 15  1  0  0  0  0
 14 16  1  0  0  0  0
 14 17  1  0  0  0  0
 17 18  1  0  0  0  0
 17 19  1  0  0  0  0
 17 20  1  0  0  0  0
 20 21  1  0  0  0  0
 20 22  1  0  0  0  0
 20 23  1  0  0  0  0
 23 24  1  0  0  0  0
 23 25  1  0  0  0  0
 23 26  1  0  0  0  0
 26 27  1  0  0  0  0
 26 28  1  0  0  0  0
 26 29  1  0  0  0  0
M  END
> <VM2 Rank>
111

> <Conf_Id>
1332

> <Probability>
0.29

> <Sum Probability>
85.45

> <Delta G>
1.732

> <G>
59.878

> <E>
22.375

> <-TS>
37.503

> <U+W>
-1.769

> <U>
49.751

> <W>
-51.520

> <W(PB)>
-54.042

> <W(SA)>
2.521

> <Valence>
3.759

> <Coulomb>
44.916

> <VdW>
1.076

> <VdW6>
-8.772

> <VdW12>
9.848

> <Bond>
0.248

> <Angle>
0.934

> <Pdih>
2.577

> <Idih>
0.000

> <Tether>
0.000

$$$$
VeraChem MOL file


 29 28  0  0  0  0  0  0  0  0999 V2000     
   20.9387   18.1706   20.4138 C   0  0  0  0  0  0  0  0  0  0  0  0
   21.2837   17.1323   20.3256 H   0  0  0  0  0  0  0  0  0  0  0  0
   20.6058   18.5004   19.4210 H   0  0  0  0  0  0  0  0  0  0  0  0
   21.7975   18.7875   20.7091 H   0  0  0  0  0  0  0  0  0  0  0  0
   19.7972   18.2795   21.4466 C   0  0  0  0  0  0  0  0  0  0  0  0
   20.1557   17.9044   22.4144 H   0  0  0  0  0  0  0  0  0  0  0  0
   18.9651   17.6301   21.1407 H   0  0  0  0  0  0  0  0  0  0  0  0
   19.2966   19.7358   21.5917 C   0  0  0  0  0  0  0  0  0  0  0  0
   20.1175   20.3777   21.9377 H   0  0  0  0  0  0  0  0  0  0  0  0
   19.0148   20.1164   20.6003 H   0  0  0  0  0  0  0  0  0  0  0  0
   18.0745   19.8819   22.5349 C   0  0  0  0  0  0  0  0  0  0  0  0
   17.2260   19.3318   22.1054 H   0  0  0  0  0  0  0  0  0  0  0  0
   17.7687   20.9370   22.5548 H   0  0  0  0  0  0  0  0  0  0  0  0
   18.2974   19.3956   23.9902 C   0  0  0  0  0  0  0  0  0  0  0  0
   17.3655   19.5490   24.5516 H   0  0  0  0  0  0  0  0  0  0  0  0
   18.4769   18.3130   23.9937 H   0  0  0  0  0  0  0  0  0  0  0  0
   19.4506   20.1326   24.7166 C   0  0  0  0  0  0  0  0  0  0  0  0
   19.2965   21.2171   24.6317 H   0  0  0  0  0  0  0  0  0  0  0  0
   20.4077   19.9131   24.2249 H   0  0  0  0  0  0  0  0  0  0  0  0
   19.5562   19.7602   26.2138 C   0  0  0  0  0  0  0  0  0  0  0  0
   20.3353   20.3774   26.6808 H   0  0  0  0  0  0  0  0  0  0  0  0
   18.6142   20.0045   26.7227 H   0  0  0  0  0  0  0  0  0  0  0  0
   19.8929   18.2734   26.4323 C   0  0  0  0  0  0  0  0  0  0  0  0
   20.8320   18.0308   25.9277 H   0  0  0  0  0  0  0  0  0  0  0  0
   19.1024   17.6487   26.0086 H   0  0  0  0  0  0  0  0  0  0  0  0
   20.0399   17.9083   27.8952 N   0  3  0  0  0  0  0  0  0  0  0  0
   20.2639   16.9149   28.0194 H   0  0  0  0  0  0  0  0  0  0  0  0
   19.1788   18.0888   28.4220 H   0  0  0  0  0  0  0  0  0  0  0  0
   20.7887   18.4424   28.3485 H   0  0  0  0  0  0  0  0  0  0  0  0
  1  2  1  0  0  0  0
  1  3  1  0  0  0  0
  1  4  1  0  0  0  0
  1  5  1  0  0  0  0
  5  6  1  0  0  0  0
  5  7  1  0  0  0  0
  5  8  1  0  0  0  0
  8  9  1  0  0  0  0
  8 10  1  0  0  0  0
  8 11  1  0  0  0  0
 11 12  1  0  0  0  0
 11 13  1  0  0  0  0
 11 14  1  0  0  0  0
 14 15  1  0  0  0  0
 14 16  1  0  0  0  0
 14 17  1  0  0  0  0
 17 18  1  0  0  0  0
 17 19  1  0  0  0  0
 17 20  1  0  0  0  0
 20 21  1  0  0  0  0
 20 22  1  0  0  0  0
 20 23  1  0  0  0  0
 23 24  1  0  0  0  0
 23 25  1  0  0  0  0
 23 26  1  0  0  0  0
 26 27  1  0  0  0  0
 26 28  1  0  0  0  0
 26 29  1  0  0  0  0
M  END
> <VM2 Rank>
112

> <Conf_Id>
342

> <Probability>
0.28

> <Sum Probability>
85.74

> <Delta G>
1.741

> <G>
59.887

> <E>
22.148

> <-TS>
37.739

> <U+W>
-1.996

> <U>
49.970

> <W>
-51.966

> <W(PB)>
-54.458

> <W(SA)>
2.492

> <Valence>
3.848

> <Coulomb>
45.370

> <VdW>
0.752

> <VdW6>
-9.323

> <VdW12>
10.075

> <Bond>
0.251

> <Angle>
1.161

> <Pdih>
2.436

> <Idih>
0.000

> <Tether>
0.000

$$$$
VeraChem MOL file


 29 28  0  0  0  0  0  0  0  0999 V2000     
   20.9927   18.7402   19.9052 C   0  0  0  0  0  0  0  0  0  0  0  0
   21.7345   19.4756   20.2429 H   0  0  0  0  0  0  0  0  0  0  0  0
   21.3630   17.7388   20.1607 H   0  0  0  0  0  0  0  0  0  0  0  0
   20.9264   18.8061   18.8114 H   0  0  0  0  0  0  0  0  0  0  0  0
   19.6162   19.0039   20.5513 C   0  0  0  0  0  0  0  0  0  0  0  0
   18.8884   18.2749   20.1681 H   0  0  0  0  0  0  0  0  0  0  0  0
   19.2570   19.9983   20.2515 H   0  0  0  0  0  0  0  0  0  0  0  0
   19.6814   18.9161   22.0921 C   0  0  0  0  0  0  0  0  0  0  0  0
   20.0389   17.9199   22.3866 H   0  0  0  0  0  0  0  0  0  0  0  0
   20.4176   19.6423   22.4606 H   0  0  0  0  0  0  0  0  0  0  0  0
   18.3023   19.1843   22.7411 C   0  0  0  0  0  0  0  0  0  0  0  0
   17.5626   18.4990   22.3048 H   0  0  0  0  0  0  0  0  0  0  0  0
   17.9662   20.2002   22.4917 H   0  0  0  0  0  0  0  0  0  0  0  0
   18.2957   18.9981   24.2781 C   0  0  0  0  0  0  0  0  0  0  0  0
   17.2611   19.0939   24.6354 H   0  0  0  0  0  0  0  0  0  0  0  0
   18.6124   17.9745   24.5190 H   0  0  0  0  0  0  0  0  0  0  0  0
   19.1841   20.0231   25.0272 C   0  0  0  0  0  0  0  0  0  0  0  0
   18.9163   21.0378   24.7020 H   0  0  0  0  0  0  0  0  0  0  0  0
   20.2378   19.8821   24.7556 H   0  0  0  0  0  0  0  0  0  0  0  0
   19.0336   19.9429   26.5670 C   0  0  0  0  0  0  0  0  0  0  0  0
   19.6596   20.7148   27.0339 H   0  0  0  0  0  0  0  0  0  0  0  0
   17.9976   20.1811   26.8425 H   0  0  0  0  0  0  0  0  0  0  0  0
   19.3995   18.5677   27.1611 C   0  0  0  0  0  0  0  0  0  0  0  0
   18.7516   17.7970   26.7358 H   0  0  0  0  0  0  0  0  0  0  0  0
   19.2412   18.5856   28.2428 H   0  0  0  0  0  0  0  0  0  0  0  0
   20.8385   18.1618   26.9119 N   0  3  0  0  0  0  0  0  0  0  0  0
   21.0433   18.0981   25.9098 H   0  0  0  0  0  0  0  0  0  0  0  0
   21.0532   17.2471   27.3237 H   0  0  0  0  0  0  0  0  0  0  0  0
   21.4983   18.8351   27.3151 H   0  0  0  0  0  0  0  0  0  0  0  0
  1  2  1  0  0  0  0
  1  3  1  0  0  0  0
  1  4  1  0  0  0  0
  1  5  1  0  0  0  0
  5  6  1  0  0  0  0
  5  7  1  0  0  0  0
  5  8  1  0  0  0  0
  8  9  1  0  0  0  0
  8 10  1  0  0  0  0
  8 11  1  0  0  0  0
 11 12  1  0  0  0  0
 11 13  1  0  0  0  0
 11 14  1  0  0  0  0
 14 15  1  0  0  0  0
 14 16  1  0  0  0  0
 14 17  1  0  0  0  0
 17 18  1  0  0  0  0
 17 19  1  0  0  0  0
 17 20  1  0  0  0  0
 20 21  1  0  0  0  0
 20 22  1  0  0  0  0
 20 23  1  0  0  0  0
 23 24  1  0  0  0  0
 23 25  1  0  0  0  0
 23 26  1  0  0  0  0
 26 27  1  0  0  0  0
 26 28  1  0  0  0  0
 26 29  1  0  0  0  0
M  END
> <VM2 Rank>
113

> <Conf_Id>
1964

> <Probability>
0.28

> <Sum Probability>
86.02

> <Delta G>
1.745

> <G>
59.891

> <E>
22.305

> <-TS>
37.586

> <U+W>
-1.839

> <U>
50.207

> <W>
-52.046

> <W(PB)>
-54.515

> <W(SA)>
2.469

> <Valence>
3.485

> <Coulomb>
45.881

> <VdW>
0.841

> <VdW6>
-9.001

> <VdW12>
9.843

> <Bond>
0.232

> <Angle>
0.851

> <Pdih>
2.402

> <Idih>
0.000

> <Tether>
0.000

$$$$
VeraChem MOL file


 29 28  0  0  0  0  0  0  0  0999 V2000     
   21.2224   18.9654   20.4319 C   0  0  0  0  0  0  0  0  0  0  0  0
   20.7701   18.9602   19.4316 H   0  0  0  0  0  0  0  0  0  0  0  0
   22.1476   19.5539   20.3802 H   0  0  0  0  0  0  0  0  0  0  0  0
   21.4931   17.9333   20.6904 H   0  0  0  0  0  0  0  0  0  0  0  0
   20.2547   19.5623   21.4755 C   0  0  0  0  0  0  0  0  0  0  0  0
   20.0255   20.6030   21.2074 H   0  0  0  0  0  0  0  0  0  0  0  0
   20.7558   19.5871   22.4523 H   0  0  0  0  0  0  0  0  0  0  0  0
   18.9439   18.7466   21.5696 C   0  0  0  0  0  0  0  0  0  0  0  0
   18.4990   18.6698   20.5679 H   0  0  0  0  0  0  0  0  0  0  0  0
   19.1686   17.7171   21.8783 H   0  0  0  0  0  0  0  0  0  0  0  0
   17.8916   19.3692   22.5234 C   0  0  0  0  0  0  0  0  0  0  0  0
   16.9872   18.7456   22.5057 H   0  0  0  0  0  0  0  0  0  0  0  0
   17.5885   20.3484   22.1280 H   0  0  0  0  0  0  0  0  0  0  0  0
   18.3510   19.5467   23.9935 C   0  0  0  0  0  0  0  0  0  0  0  0
   19.1747   20.2705   24.0375 H   0  0  0  0  0  0  0  0  0  0  0  0
   17.5243   19.9953   24.5614 H   0  0  0  0  0  0  0  0  0  0  0  0
   18.7675   18.2184   24.6739 C   0  0  0  0  0  0  0  0  0  0  0  0
   19.6543   17.8021   24.1778 H   0  0  0  0  0  0  0  0  0  0  0  0
   17.9632   17.4805   24.5485 H   0  0  0  0  0  0  0  0  0  0  0  0
   19.0639   18.3805   26.1830 C   0  0  0  0  0  0  0  0  0  0  0  0
   18.1729   18.7675   26.6952 H   0  0  0  0  0  0  0  0  0  0  0  0
   19.2701   17.3918   26.6142 H   0  0  0  0  0  0  0  0  0  0  0  0
   20.2623   19.3087   26.4551 C   0  0  0  0  0  0  0  0  0  0  0  0
   20.0513   20.3088   26.0678 H   0  0  0  0  0  0  0  0  0  0  0  0
   21.1499   18.9222   25.9472 H   0  0  0  0  0  0  0  0  0  0  0  0
   20.5867   19.4403   27.9290 N   0  3  0  0  0  0  0  0  0  0  0  0
   20.8224   18.5355   28.3502 H   0  0  0  0  0  0  0  0  0  0  0  0
   19.7985   19.8246   28.4605 H   0  0  0  0  0  0  0  0  0  0  0  0
   21.3870   20.0620   28.0891 H   0  0  0  0  0  0  0  0  0  0  0  0
  1  2  1  0  0  0  0
  1  3  1  0  0  0  0
  1  4  1  0  0  0  0
  1  5  1  0  0  0  0
  5  6  1  0  0  0  0
  5  7  1  0  0  0  0
  5  8  1  0  0  0  0
  8  9  1  0  0  0  0
  8 10  1  0  0  0  0
  8 11  1  0  0  0  0
 11 12  1  0  0  0  0
 11 13  1  0  0  0  0
 11 14  1  0  0  0  0
 14 15  1  0  0  0  0
 14 16  1  0  0  0  0
 14 17  1  0  0  0  0
 17 18  1  0  0  0  0
 17 19  1  0  0  0  0
 17 20  1  0  0  0  0
 20 21  1  0  0  0  0
 20 22  1  0  0  0  0
 20 23  1  0  0  0  0
 23 24  1  0  0  0  0
 23 25  1  0  0  0  0
 23 26  1  0  0  0  0
 26 27  1  0  0  0  0
 26 28  1  0  0  0  0
 26 29  1  0  0  0  0
M  END
> <VM2 Rank>
114

> <Conf_Id>
2252

> <Probability>
0.28

> <Sum Probability>
86.30

> <Delta G>
1.746

> <G>
59.892

> <E>
22.153

> <-TS>
37.739

> <U+W>
-1.992

> <U>
49.970

> <W>
-51.962

> <W(PB)>
-54.437

> <W(SA)>
2.476

> <Valence>
3.848

> <Coulomb>
45.370

> <VdW>
0.752

> <VdW6>
-9.323

> <VdW12>
10.075

> <Bond>
0.251

> <Angle>
1.161

> <Pdih>
2.436

> <Idih>
0.000

> <Tether>
0.000

$$$$
VeraChem MOL file


 29 28  0  0  0  0  0  0  0  0999 V2000     
   21.0265   18.0371   20.8751 C   0  0  0  0  0  0  0  0  0  0  0  0
   20.8023   17.3304   21.6836 H   0  0  0  0  0  0  0  0  0  0  0  0
   21.3252   17.4496   19.9973 H   0  0  0  0  0  0  0  0  0  0  0  0
   21.8868   18.6473   21.1793 H   0  0  0  0  0  0  0  0  0  0  0  0
   19.8059   18.9246   20.5416 C   0  0  0  0  0  0  0  0  0  0  0  0
   18.9501   18.2901   20.2721 H   0  0  0  0  0  0  0  0  0  0  0  0
   20.0373   19.5239   19.6499 H   0  0  0  0  0  0  0  0  0  0  0  0
   19.4073   19.8804   21.6919 C   0  0  0  0  0  0  0  0  0  0  0  0
   20.2600   20.5254   21.9449 H   0  0  0  0  0  0  0  0  0  0  0  0
   18.6118   20.5468   21.3309 H   0  0  0  0  0  0  0  0  0  0  0  0
   18.9143   19.1454   22.9612 C   0  0  0  0  0  0  0  0  0  0  0  0
   19.7255   18.5253   23.3618 H   0  0  0  0  0  0  0  0  0  0  0  0
   18.0913   18.4677   22.6965 H   0  0  0  0  0  0  0  0  0  0  0  0
   18.4374   20.1382   24.0482 C   0  0  0  0  0  0  0  0  0  0  0  0
   19.2699   20.7903   24.3447 H   0  0  0  0  0  0  0  0  0  0  0  0
   17.6731   20.8002   23.6182 H   0  0  0  0  0  0  0  0  0  0  0  0
   17.8346   19.4467   25.2984 C   0  0  0  0  0  0  0  0  0  0  0  0
   16.9380   18.8849   25.0019 H   0  0  0  0  0  0  0  0  0  0  0  0
   17.4883   20.2215   25.9963 H   0  0  0  0  0  0  0  0  0  0  0  0
   18.7997   18.4940   26.0471 C   0  0  0  0  0  0  0  0  0  0  0  0
   18.2837   18.0880   26.9273 H   0  0  0  0  0  0  0  0  0  0  0  0
   19.0465   17.6335   25.4122 H   0  0  0  0  0  0  0  0  0  0  0  0
   20.0945   19.1934   26.5005 C   0  0  0  0  0  0  0  0  0  0  0  0
   19.8482   20.0434   27.1425 H   0  0  0  0  0  0  0  0  0  0  0  0
   20.6374   19.5658   25.6279 H   0  0  0  0  0  0  0  0  0  0  0  0
   21.0239   18.2783   27.2710 N   0  3  0  0  0  0  0  0  0  0  0  0
   20.5818   17.9138   28.1213 H   0  0  0  0  0  0  0  0  0  0  0  0
   21.8795   18.7631   27.5634 H   0  0  0  0  0  0  0  0  0  0  0  0
   21.3145   17.4699   26.7112 H   0  0  0  0  0  0  0  0  0  0  0  0
  1  2  1  0  0  0  0
  1  3  1  0  0  0  0
  1  4  1  0  0  0  0
  1  5  1  0  0  0  0
  5  6  1  0  0  0  0
  5  7  1  0  0  0  0
  5  8  1  0  0  0  0
  8  9  1  0  0  0  0
  8 10  1  0  0  0  0
  8 11  1  0  0  0  0
 11 12  1  0  0  0  0
 11 13  1  0  0  0  0
 11 14  1  0  0  0  0
 14 15  1  0  0  0  0
 14 16  1  0  0  0  0
 14 17  1  0  0  0  0
 17 18  1  0  0  0  0
 17 19  1  0  0  0  0
 17 20  1  0  0  0  0
 20 21  1  0  0  0  0
 20 22  1  0  0  0  0
 20 23  1  0  0  0  0
 23 24  1  0  0  0  0
 23 25  1  0  0  0  0
 23 26  1  0  0  0  0
 26 27  1  0  0  0  0
 26 28  1  0  0  0  0
 26 29  1  0  0  0  0
M  END
> <VM2 Rank>
115

> <Conf_Id>
973

> <Probability>
0.28

> <Sum Probability>
86.58

> <Delta G>
1.747

> <G>
59.894

> <E>
22.256

> <-TS>
37.638

> <U+W>
-1.889

> <U>
50.295

> <W>
-52.184

> <W(PB)>
-54.686

> <W(SA)>
2.502

> <Valence>
3.839

> <Coulomb>
45.618

> <VdW>
0.839

> <VdW6>
-9.210

> <VdW12>
10.049

> <Bond>
0.249

> <Angle>
1.131

> <Pdih>
2.459

> <Idih>
0.000

> <Tether>
0.000

$$$$
VeraChem MOL file


 29 28  0  0  0  0  0  0  0  0999 V2000     
   20.3409   18.0583   19.9066 C   0  0  0  0  0  0  0  0  0  0  0  0
   19.4546   18.2719   19.2949 H   0  0  0  0  0  0  0  0  0  0  0  0
   21.1650   18.6879   19.5463 H   0  0  0  0  0  0  0  0  0  0  0  0
   20.6206   17.0098   19.7405 H   0  0  0  0  0  0  0  0  0  0  0  0
   20.0576   18.3163   21.4016 C   0  0  0  0  0  0  0  0  0  0  0  0
   20.9514   18.0663   21.9901 H   0  0  0  0  0  0  0  0  0  0  0  0
   19.2578   17.6415   21.7341 H   0  0  0  0  0  0  0  0  0  0  0  0
   19.6568   19.7879   21.6598 C   0  0  0  0  0  0  0  0  0  0  0  0
   20.4346   20.4470   21.2500 H   0  0  0  0  0  0  0  0  0  0  0  0
   18.7339   20.0225   21.1117 H   0  0  0  0  0  0  0  0  0  0  0  0
   19.4701   20.1231   23.1597 C   0  0  0  0  0  0  0  0  0  0  0  0
   19.3008   21.2043   23.2571 H   0  0  0  0  0  0  0  0  0  0  0  0
   20.4036   19.9052   23.6951 H   0  0  0  0  0  0  0  0  0  0  0  0
   18.2889   19.3662   23.8177 C   0  0  0  0  0  0  0  0  0  0  0  0
   17.3891   19.5026   23.2023 H   0  0  0  0  0  0  0  0  0  0  0  0
   18.4898   18.2874   23.8278 H   0  0  0  0  0  0  0  0  0  0  0  0
   17.9744   19.8483   25.2573 C   0  0  0  0  0  0  0  0  0  0  0  0
   17.1072   19.2890   25.6348 H   0  0  0  0  0  0  0  0  0  0  0  0
   17.6636   20.9016   25.2250 H   0  0  0  0  0  0  0  0  0  0  0  0
   19.1434   19.6995   26.2627 C   0  0  0  0  0  0  0  0  0  0  0  0
   19.9728   20.3580   25.9747 H   0  0  0  0  0  0  0  0  0  0  0  0
   18.8069   20.0426   27.2500 H   0  0  0  0  0  0  0  0  0  0  0  0
   19.6483   18.2493   26.3785 C   0  0  0  0  0  0  0  0  0  0  0  0
   20.0240   17.9112   25.4092 H   0  0  0  0  0  0  0  0  0  0  0  0
   18.8244   17.5954   26.6766 H   0  0  0  0  0  0  0  0  0  0  0  0
   20.7635   18.0891   27.3911 N   0  3  0  0  0  0  0  0  0  0  0  0
   20.4662   18.3653   28.3328 H   0  0  0  0  0  0  0  0  0  0  0  0
   21.5809   18.6603   27.1527 H   0  0  0  0  0  0  0  0  0  0  0  0
   21.0853   17.1168   27.4526 H   0  0  0  0  0  0  0  0  0  0  0  0
  1  2  1  0  0  0  0
  1  3  1  0  0  0  0
  1  4  1  0  0  0  0
  1  5  1  0  0  0  0
  5  6  1  0  0  0  0
  5  7  1  0  0  0  0
  5  8  1  0  0  0  0
  8  9  1  0  0  0  0
  8 10  1  0  0  0  0
  8 11  1  0  0  0  0
 11 12  1  0  0  0  0
 11 13  1  0  0  0  0
 11 14  1  0  0  0  0
 14 15  1  0  0  0  0
 14 16  1  0  0  0  0
 14 17  1  0  0  0  0
 17 18  1  0  0  0  0
 17 19  1  0  0  0  0
 17 20  1  0  0  0  0
 20 21  1  0  0  0  0
 20 22  1  0  0  0  0
 20 23  1  0  0  0  0
 23 24  1  0  0  0  0
 23 25  1  0  0  0  0
 23 26  1  0  0  0  0
 26 27  1  0  0  0  0
 26 28  1  0  0  0  0
 26 29  1  0  0  0  0
M  END
> <VM2 Rank>
116

> <Conf_Id>
1169

> <Probability>
0.28

> <Sum Probability>
86.86

> <Delta G>
1.754

> <G>
59.900

> <E>
22.256

> <-TS>
37.645

> <U+W>
-1.889

> <U>
50.347

> <W>
-52.236

> <W(PB)>
-54.725

> <W(SA)>
2.490

> <Valence>
3.843

> <Coulomb>
45.716

> <VdW>
0.787

> <VdW6>
-9.277

> <VdW12>
10.064

> <Bond>
0.250

> <Angle>
1.092

> <Pdih>
2.501

> <Idih>
0.000

> <Tether>
0.000

$$$$
VeraChem MOL file


 29 28  0  0  0  0  0  0  0  0999 V2000     
   20.5105   18.2841   20.3574 C   0  0  0  0  0  0  0  0  0  0  0  0
   20.3469   17.5193   21.1269 H   0  0  0  0  0  0  0  0  0  0  0  0
   19.7902   18.1163   19.5463 H   0  0  0  0  0  0  0  0  0  0  0  0
   21.5181   18.1322   19.9493 H   0  0  0  0  0  0  0  0  0  0  0  0
   20.3707   19.7093   20.9379 C   0  0  0  0  0  0  0  0  0  0  0  0
   20.6584   20.4357   20.1651 H   0  0  0  0  0  0  0  0  0  0  0  0
   21.0861   19.8467   21.7597 H   0  0  0  0  0  0  0  0  0  0  0  0
   18.9345   20.0417   21.4165 C   0  0  0  0  0  0  0  0  0  0  0  0
   18.9149   21.0769   21.7842 H   0  0  0  0  0  0  0  0  0  0  0  0
   18.2578   20.0173   20.5513 H   0  0  0  0  0  0  0  0  0  0  0  0
   18.3689   19.1059   22.5160 C   0  0  0  0  0  0  0  0  0  0  0  0
   18.2753   18.0839   22.1255 H   0  0  0  0  0  0  0  0  0  0  0  0
   17.3475   19.4325   22.7551 H   0  0  0  0  0  0  0  0  0  0  0  0
   19.2113   19.0964   23.8138 C   0  0  0  0  0  0  0  0  0  0  0  0
   20.2131   18.6989   23.6046 H   0  0  0  0  0  0  0  0  0  0  0  0
   19.3423   20.1282   24.1660 H   0  0  0  0  0  0  0  0  0  0  0  0
   18.5483   18.2401   24.9191 C   0  0  0  0  0  0  0  0  0  0  0  0
   18.3739   17.2259   24.5339 H   0  0  0  0  0  0  0  0  0  0  0  0
   17.5603   18.6530   25.1661 H   0  0  0  0  0  0  0  0  0  0  0  0
   19.4022   18.1424   26.2050 C   0  0  0  0  0  0  0  0  0  0  0  0
   18.9124   17.4542   26.9066 H   0  0  0  0  0  0  0  0  0  0  0  0
   20.3805   17.7044   25.9659 H   0  0  0  0  0  0  0  0  0  0  0  0
   19.5996   19.5062   26.8927 C   0  0  0  0  0  0  0  0  0  0  0  0
   18.6258   19.9420   27.1320 H   0  0  0  0  0  0  0  0  0  0  0  0
   20.1264   20.1876   26.2197 H   0  0  0  0  0  0  0  0  0  0  0  0
   20.3981   19.4118   28.1766 N   0  3  0  0  0  0  0  0  0  0  0  0
   21.3370   19.0325   28.0153 H   0  0  0  0  0  0  0  0  0  0  0  0
   19.9418   18.8054   28.8662 H   0  0  0  0  0  0  0  0  0  0  0  0
   20.5183   20.3298   28.6189 H   0  0  0  0  0  0  0  0  0  0  0  0
  1  2  1  0  0  0  0
  1  3  1  0  0  0  0
  1  4  1  0  0  0  0
  1  5  1  0  0  0  0
  5  6  1  0  0  0  0
  5  7  1  0  0  0  0
  5  8  1  0  0  0  0
  8  9  1  0  0  0  0
  8 10  1  0  0  0  0
  8 11  1  0  0  0  0
 11 12  1  0  0  0  0
 11 13  1  0  0  0  0
 11 14  1  0  0  0  0
 14 15  1  0  0  0  0
 14 16  1  0  0  0  0
 14 17  1  0  0  0  0
 17 18  1  0  0  0  0
 17 19  1  0  0  0  0
 17 20  1  0  0  0  0
 20 21  1  0  0  0  0
 20 22  1  0  0  0  0
 20 23  1  0  0  0  0
 23 24  1  0  0  0  0
 23 25  1  0  0  0  0
 23 26  1  0  0  0  0
 26 27  1  0  0  0  0
 26 28  1  0  0  0  0
 26 29  1  0  0  0  0
M  END
> <VM2 Rank>
117

> <Conf_Id>
543

> <Probability>
0.28

> <Sum Probability>
87.14

> <Delta G>
1.759

> <G>
59.905

> <E>
22.187

> <-TS>
37.718

> <U+W>
-1.957

> <U>
49.729

> <W>
-51.686

> <W(PB)>
-54.188

> <W(SA)>
2.502

> <Valence>
3.843

> <Coulomb>
45.022

> <VdW>
0.863

> <VdW6>
-9.127

> <VdW12>
9.990

> <Bond>
0.246

> <Angle>
1.164

> <Pdih>
2.433

> <Idih>
0.000

> <Tether>
0.000

$$$$
VeraChem MOL file


 29 28  0  0  0  0  0  0  0  0999 V2000     
   20.8849   20.0112   20.8480 C   0  0  0  0  0  0  0  0  0  0  0  0
   20.3493   20.4991   20.0233 H   0  0  0  0  0  0  0  0  0  0  0  0
   20.7253   20.6013   21.7590 H   0  0  0  0  0  0  0  0  0  0  0  0
   21.9576   20.0425   20.6176 H   0  0  0  0  0  0  0  0  0  0  0  0
   20.4125   18.5512   21.0299 C   0  0  0  0  0  0  0  0  0  0  0  0
   20.9465   18.0910   21.8719 H   0  0  0  0  0  0  0  0  0  0  0  0
   20.7000   17.9731   20.1406 H   0  0  0  0  0  0  0  0  0  0  0  0
   18.8811   18.4190   21.2296 C   0  0  0  0  0  0  0  0  0  0  0  0
   18.3735   18.7698   20.3205 H   0  0  0  0  0  0  0  0  0  0  0  0
   18.6273   17.3542   21.3234 H   0  0  0  0  0  0  0  0  0  0  0  0
   18.3022   19.1840   22.4478 C   0  0  0  0  0  0  0  0  0  0  0  0
   17.2151   19.0264   22.4687 H   0  0  0  0  0  0  0  0  0  0  0  0
   18.4479   20.2642   22.3152 H   0  0  0  0  0  0  0  0  0  0  0  0
   18.9029   18.7369   23.8019 C   0  0  0  0  0  0  0  0  0  0  0  0
   18.7923   17.6492   23.9103 H   0  0  0  0  0  0  0  0  0  0  0  0
   19.9786   18.9528   23.8147 H   0  0  0  0  0  0  0  0  0  0  0  0
   18.2183   19.4479   24.9937 C   0  0  0  0  0  0  0  0  0  0  0  0
   17.1362   19.2620   24.9526 H   0  0  0  0  0  0  0  0  0  0  0  0
   18.3507   20.5350   24.9023 H   0  0  0  0  0  0  0  0  0  0  0  0
   18.7500   18.9773   26.3678 C   0  0  0  0  0  0  0  0  0  0  0  0
   18.1593   19.4549   27.1609 H   0  0  0  0  0  0  0  0  0  0  0  0
   18.5982   17.8946   26.4711 H   0  0  0  0  0  0  0  0  0  0  0  0
   20.2382   19.3140   26.5772 C   0  0  0  0  0  0  0  0  0  0  0  0
   20.3895   20.3920   26.4750 H   0  0  0  0  0  0  0  0  0  0  0  0
   20.8428   18.8075   25.8205 H   0  0  0  0  0  0  0  0  0  0  0  0
   20.7538   18.8964   27.9391 N   0  3  0  0  0  0  0  0  0  0  0  0
   20.2444   19.3602   28.6987 H   0  0  0  0  0  0  0  0  0  0  0  0
   21.7458   19.1292   28.0589 H   0  0  0  0  0  0  0  0  0  0  0  0
   20.6637   17.8859   28.0881 H   0  0  0  0  0  0  0  0  0  0  0  0
  1  2  1  0  0  0  0
  1  3  1  0  0  0  0
  1  4  1  0  0  0  0
  1  5  1  0  0  0  0
  5  6  1  0  0  0  0
  5  7  1  0  0  0  0
  5  8  1  0  0  0  0
  8  9  1  0  0  0  0
  8 10  1  0  0  0  0
  8 11  1  0  0  0  0
 11 12  1  0  0  0  0
 11 13  1  0  0  0  0
 11 14  1  0  0  0  0
 14 15  1  0  0  0  0
 14 16  1  0  0  0  0
 14 17  1  0  0  0  0
 17 18  1  0  0  0  0
 17 19  1  0  0  0  0
 17 20  1  0  0  0  0
 20 21  1  0  0  0  0
 20 22  1  0  0  0  0
 20 23  1  0  0  0  0
 23 24  1  0  0  0  0
 23 25  1  0  0  0  0
 23 26  1  0  0  0  0
 26 27  1  0  0  0  0
 26 28  1  0  0  0  0
 26 29  1  0  0  0  0
M  END
> <VM2 Rank>
118

> <Conf_Id>
1304

> <Probability>
0.27

> <Sum Probability>
87.41

> <Delta G>
1.768

> <G>
59.914

> <E>
22.193

> <-TS>
37.722

> <U+W>
-1.952

> <U>
49.868

> <W>
-51.820

> <W(PB)>
-54.292

> <W(SA)>
2.472

> <Valence>
3.839

> <Coulomb>
45.179

> <VdW>
0.851

> <VdW6>
-9.167

> <VdW12>
10.018

> <Bond>
0.248

> <Angle>
1.166

> <Pdih>
2.425

> <Idih>
0.000

> <Tether>
0.000

$$$$
VeraChem MOL file


 29 28  0  0  0  0  0  0  0  0999 V2000     
   20.1322   18.7170   19.6822 C   0  0  0  0  0  0  0  0  0  0  0  0
   20.5325   17.7340   19.9625 H   0  0  0  0  0  0  0  0  0  0  0  0
   20.0152   18.7334   18.5909 H   0  0  0  0  0  0  0  0  0  0  0  0
   20.8757   19.4793   19.9460 H   0  0  0  0  0  0  0  0  0  0  0  0
   18.7769   18.9830   20.3757 C   0  0  0  0  0  0  0  0  0  0  0  0
   18.0360   18.2674   19.9928 H   0  0  0  0  0  0  0  0  0  0  0  0
   18.4106   19.9819   20.1001 H   0  0  0  0  0  0  0  0  0  0  0  0
   18.8413   18.8555   21.9167 C   0  0  0  0  0  0  0  0  0  0  0  0
   17.8239   18.9577   22.3185 H   0  0  0  0  0  0  0  0  0  0  0  0
   19.1796   17.8445   22.1789 H   0  0  0  0  0  0  0  0  0  0  0  0
   19.7577   19.9133   22.5819 C   0  0  0  0  0  0  0  0  0  0  0  0
   19.4823   20.9101   22.2108 H   0  0  0  0  0  0  0  0  0  0  0  0
   20.8014   19.7487   22.2834 H   0  0  0  0  0  0  0  0  0  0  0  0
   19.6657   19.9213   24.1274 C   0  0  0  0  0  0  0  0  0  0  0  0
   20.2631   20.7617   24.5070 H   0  0  0  0  0  0  0  0  0  0  0  0
   18.6278   20.1193   24.4268 H   0  0  0  0  0  0  0  0  0  0  0  0
   20.1681   18.6086   24.7796 C   0  0  0  0  0  0  0  0  0  0  0  0
   21.1693   18.3728   24.3933 H   0  0  0  0  0  0  0  0  0  0  0  0
   19.5175   17.7715   24.4938 H   0  0  0  0  0  0  0  0  0  0  0  0
   20.2375   18.6898   26.3225 C   0  0  0  0  0  0  0  0  0  0  0  0
   20.6740   17.7594   26.7094 H   0  0  0  0  0  0  0  0  0  0  0  0
   20.9142   19.5020   26.6196 H   0  0  0  0  0  0  0  0  0  0  0  0
   18.8558   18.9048   26.9678 C   0  0  0  0  0  0  0  0  0  0  0  0
   18.1827   18.0946   26.6747 H   0  0  0  0  0  0  0  0  0  0  0  0
   18.4289   19.8498   26.6222 H   0  0  0  0  0  0  0  0  0  0  0  0
   18.9088   18.9446   28.4813 N   0  3  0  0  0  0  0  0  0  0  0  0
   19.5069   19.7045   28.8224 H   0  0  0  0  0  0  0  0  0  0  0  0
   19.2765   18.0715   28.8735 H   0  0  0  0  0  0  0  0  0  0  0  0
   17.9794   19.0885   28.8914 H   0  0  0  0  0  0  0  0  0  0  0  0
  1  2  1  0  0  0  0
  1  3  1  0  0  0  0
  1  4  1  0  0  0  0
  1  5  1  0  0  0  0
  5  6  1  0  0  0  0
  5  7  1  0  0  0  0
  5  8  1  0  0  0  0
  8  9  1  0  0  0  0
  8 10  1  0  0  0  0
  8 11  1  0  0  0  0
 11 12  1  0  0  0  0
 11 13  1  0  0  0  0
 11 14  1  0  0  0  0
 14 15  1  0  0  0  0
 14 16  1  0  0  0  0
 14 17  1  0  0  0  0
 17 18  1  0  0  0  0
 17 19  1  0  0  0  0
 17 20  1  0  0  0  0
 20 21  1  0  0  0  0
 20 22  1  0  0  0  0
 20 23  1  0  0  0  0
 23 24  1  0  0  0  0
 23 25  1  0  0  0  0
 23 26  1  0  0  0  0
 26 27  1  0  0  0  0
 26 28  1  0  0  0  0
 26 29  1  0  0  0  0
M  END
> <VM2 Rank>
119

> <Conf_Id>
2311

> <Probability>
0.27

> <Sum Probability>
87.68

> <Delta G>
1.770

> <G>
59.917

> <E>
22.386

> <-TS>
37.530

> <U+W>
-1.758

> <U>
49.749

> <W>
-51.507

> <W(PB)>
-54.006

> <W(SA)>
2.499

> <Valence>
3.885

> <Coulomb>
44.883

> <VdW>
0.980

> <VdW6>
-8.856

> <VdW12>
9.836

> <Bond>
0.242

> <Angle>
0.948

> <Pdih>
2.696

> <Idih>
0.000

> <Tether>
0.000

$$$$
VeraChem MOL file


 29 28  0  0  0  0  0  0  0  0999 V2000     
   20.8367   19.4520   19.9374 C   0  0  0  0  0  0  0  0  0  0  0  0
   21.7179   20.0939   19.8088 H   0  0  0  0  0  0  0  0  0  0  0  0
   21.0831   18.4583   19.5409 H   0  0  0  0  0  0  0  0  0  0  0  0
   20.0232   19.8704   19.3304 H   0  0  0  0  0  0  0  0  0  0  0  0
   20.4333   19.3719   21.4249 C   0  0  0  0  0  0  0  0  0  0  0  0
   20.2346   20.3864   21.7951 H   0  0  0  0  0  0  0  0  0  0  0  0
   21.2759   18.9779   22.0101 H   0  0  0  0  0  0  0  0  0  0  0  0
   19.1897   18.4752   21.6306 C   0  0  0  0  0  0  0  0  0  0  0  0
   18.3338   18.8979   21.0867 H   0  0  0  0  0  0  0  0  0  0  0  0
   19.3822   17.4898   21.1841 H   0  0  0  0  0  0  0  0  0  0  0  0
   18.8123   18.2743   23.1186 C   0  0  0  0  0  0  0  0  0  0  0  0
   19.6662   17.8325   23.6489 H   0  0  0  0  0  0  0  0  0  0  0  0
   17.9970   17.5401   23.1756 H   0  0  0  0  0  0  0  0  0  0  0  0
   18.3653   19.5803   23.8224 C   0  0  0  0  0  0  0  0  0  0  0  0
   19.2022   20.2884   23.8725 H   0  0  0  0  0  0  0  0  0  0  0  0
   17.5903   20.0673   23.2148 H   0  0  0  0  0  0  0  0  0  0  0  0
   17.7966   19.3487   25.2461 C   0  0  0  0  0  0  0  0  0  0  0  0
   16.8908   18.7307   25.1764 H   0  0  0  0  0  0  0  0  0  0  0  0
   17.4723   20.3146   25.6575 H   0  0  0  0  0  0  0  0  0  0  0  0
   18.7824   18.6858   26.2401 C   0  0  0  0  0  0  0  0  0  0  0  0
   18.2909   18.5936   27.2177 H   0  0  0  0  0  0  0  0  0  0  0  0
   19.0135   17.6635   25.9146 H   0  0  0  0  0  0  0  0  0  0  0  0
   20.0881   19.4851   26.4063 C   0  0  0  0  0  0  0  0  0  0  0  0
   19.8582   20.5000   26.7417 H   0  0  0  0  0  0  0  0  0  0  0  0
   20.6067   19.5482   25.4460 H   0  0  0  0  0  0  0  0  0  0  0  0
   21.0394   18.8646   27.4087 N   0  3  0  0  0  0  0  0  0  0  0  0
   20.6211   18.8011   28.3427 H   0  0  0  0  0  0  0  0  0  0  0  0
   21.9021   19.4117   27.5042 H   0  0  0  0  0  0  0  0  0  0  0  0
   21.3157   17.9155   27.1362 H   0  0  0  0  0  0  0  0  0  0  0  0
  1  2  1  0  0  0  0
  1  3  1  0  0  0  0
  1  4  1  0  0  0  0
  1  5  1  0  0  0  0
  5  6  1  0  0  0  0
  5  7  1  0  0  0  0
  5  8  1  0  0  0  0
  8  9  1  0  0  0  0
  8 10  1  0  0  0  0
  8 11  1  0  0  0  0
 11 12  1  0  0  0  0
 11 13  1  0  0  0  0
 11 14  1  0  0  0  0
 14 15  1  0  0  0  0
 14 16  1  0  0  0  0
 14 17  1  0  0  0  0
 17 18  1  0  0  0  0
 17 19  1  0  0  0  0
 17 20  1  0  0  0  0
 20 21  1  0  0  0  0
 20 22  1  0  0  0  0
 20 23  1  0  0  0  0
 23 24  1  0  0  0  0
 23 25  1  0  0  0  0
 23 26  1  0  0  0  0
 26 27  1  0  0  0  0
 26 28  1  0  0  0  0
 26 29  1  0  0  0  0
M  END
> <VM2 Rank>
120

> <Conf_Id>
340

> <Probability>
0.27

> <Sum Probability>
87.95

> <Delta G>
1.772

> <G>
59.918

> <E>
22.273

> <-TS>
37.646

> <U+W>
-1.872

> <U>
50.346

> <W>
-52.218

> <W(PB)>
-54.717

> <W(SA)>
2.499

> <Valence>
3.843

> <Coulomb>
45.716

> <VdW>
0.787

> <VdW6>
-9.277

> <VdW12>
10.064

> <Bond>
0.250

> <Angle>
1.092

> <Pdih>
2.501

> <Idih>
0.000

> <Tether>
0.000

$$$$
VeraChem MOL file


 29 28  0  0  0  0  0  0  0  0999 V2000     
   20.8190   19.1526   20.3760 C   0  0  0  0  0  0  0  0  0  0  0  0
   21.1645   19.8177   21.1773 H   0  0  0  0  0  0  0  0  0  0  0  0
   21.7017   18.6503   19.9597 H   0  0  0  0  0  0  0  0  0  0  0  0
   20.3774   19.7695   19.5827 H   0  0  0  0  0  0  0  0  0  0  0  0
   19.8028   18.1140   20.9020 C   0  0  0  0  0  0  0  0  0  0  0  0
   20.2595   17.5234   21.7073 H   0  0  0  0  0  0  0  0  0  0  0  0
   19.5778   17.4005   20.0971 H   0  0  0  0  0  0  0  0  0  0  0  0
   18.4728   18.7444   21.3877 C   0  0  0  0  0  0  0  0  0  0  0  0
   17.9754   19.2248   20.5340 H   0  0  0  0  0  0  0  0  0  0  0  0
   17.7989   17.9405   21.7145 H   0  0  0  0  0  0  0  0  0  0  0  0
   18.6100   19.7826   22.5312 C   0  0  0  0  0  0  0  0  0  0  0  0
   17.6086   20.1653   22.7718 H   0  0  0  0  0  0  0  0  0  0  0  0
   19.1883   20.6486   22.1829 H   0  0  0  0  0  0  0  0  0  0  0  0
   19.2509   19.2066   23.8163 C   0  0  0  0  0  0  0  0  0  0  0  0
   18.6958   18.3111   24.1257 H   0  0  0  0  0  0  0  0  0  0  0  0
   20.2814   18.8898   23.6087 H   0  0  0  0  0  0  0  0  0  0  0  0
   19.2627   20.2447   24.9638 C   0  0  0  0  0  0  0  0  0  0  0  0
   18.2327   20.5397   25.2081 H   0  0  0  0  0  0  0  0  0  0  0  0
   19.7739   21.1551   24.6215 H   0  0  0  0  0  0  0  0  0  0  0  0
   19.9679   19.7299   26.2404 C   0  0  0  0  0  0  0  0  0  0  0  0
   21.0060   19.4598   26.0052 H   0  0  0  0  0  0  0  0  0  0  0  0
   20.0135   20.5445   26.9754 H   0  0  0  0  0  0  0  0  0  0  0  0
   19.2490   18.5227   26.8711 C   0  0  0  0  0  0  0  0  0  0  0  0
   19.2359   17.6888   26.1645 H   0  0  0  0  0  0  0  0  0  0  0  0
   18.2157   18.7915   27.1065 H   0  0  0  0  0  0  0  0  0  0  0  0
   19.9091   18.0405   28.1465 N   0  3  0  0  0  0  0  0  0  0  0  0
   20.8786   17.7469   27.9872 H   0  0  0  0  0  0  0  0  0  0  0  0
   19.4157   17.2368   28.5506 H   0  0  0  0  0  0  0  0  0  0  0  0
   19.9291   18.7711   28.8657 H   0  0  0  0  0  0  0  0  0  0  0  0
  1  2  1  0  0  0  0
  1  3  1  0  0  0  0
  1  4  1  0  0  0  0
  1  5  1  0  0  0  0
  5  6  1  0  0  0  0
  5  7  1  0  0  0  0
  5  8  1  0  0  0  0
  8  9  1  0  0  0  0
  8 10  1  0  0  0  0
  8 11  1  0  0  0  0
 11 12  1  0  0  0  0
 11 13  1  0  0  0  0
 11 14  1  0  0  0  0
 14 15  1  0  0  0  0
 14 16  1  0  0  0  0
 14 17  1  0  0  0  0
 17 18  1  0  0  0  0
 17 19  1  0  0  0  0
 17 20  1  0  0  0  0
 20 21  1  0  0  0  0
 20 22  1  0  0  0  0
 20 23  1  0  0  0  0
 23 24  1  0  0  0  0
 23 25  1  0  0  0  0
 23 26  1  0  0  0  0
 26 27  1  0  0  0  0
 26 28  1  0  0  0  0
 26 29  1  0  0  0  0
M  END
> <VM2 Rank>
121

> <Conf_Id>
2568

> <Probability>
0.26

> <Sum Probability>
88.21

> <Delta G>
1.791

> <G>
59.937

> <E>
22.219

> <-TS>
37.718

> <U+W>
-1.925

> <U>
49.728

> <W>
-51.654

> <W(PB)>
-54.152

> <W(SA)>
2.498

> <Valence>
3.843

> <Coulomb>
45.022

> <VdW>
0.863

> <VdW6>
-9.126

> <VdW12>
9.989

> <Bond>
0.246

> <Angle>
1.164

> <Pdih>
2.433

> <Idih>
0.000

> <Tether>
0.000

$$$$
VeraChem MOL file


 29 28  0  0  0  0  0  0  0  0999 V2000     
   19.7906   18.7573   19.1607 C   0  0  0  0  0  0  0  0  0  0  0  0
   19.6249   19.7488   18.7194 H   0  0  0  0  0  0  0  0  0  0  0  0
   20.8673   18.5447   19.1299 H   0  0  0  0  0  0  0  0  0  0  0  0
   19.2827   18.0179   18.5280 H   0  0  0  0  0  0  0  0  0  0  0  0
   19.2550   18.6966   20.6069 C   0  0  0  0  0  0  0  0  0  0  0  0
   19.4009   17.6808   20.9971 H   0  0  0  0  0  0  0  0  0  0  0  0
   18.1723   18.8844   20.6023 H   0  0  0  0  0  0  0  0  0  0  0  0
   19.9604   19.7280   21.5191 C   0  0  0  0  0  0  0  0  0  0  0  0
   21.0353   19.5056   21.5690 H   0  0  0  0  0  0  0  0  0  0  0  0
   19.8731   20.7236   21.0626 H   0  0  0  0  0  0  0  0  0  0  0  0
   19.3768   19.7950   22.9521 C   0  0  0  0  0  0  0  0  0  0  0  0
   18.3008   20.0111   22.9006 H   0  0  0  0  0  0  0  0  0  0  0  0
   19.8396   20.6481   23.4641 H   0  0  0  0  0  0  0  0  0  0  0  0
   19.6134   18.5046   23.7779 C   0  0  0  0  0  0  0  0  0  0  0  0
   19.1523   17.6523   23.2629 H   0  0  0  0  0  0  0  0  0  0  0  0
   20.6895   18.2890   23.8303 H   0  0  0  0  0  0  0  0  0  0  0  0
   19.0268   18.5680   25.2099 C   0  0  0  0  0  0  0  0  0  0  0  0
   19.1041   17.5667   25.6535 H   0  0  0  0  0  0  0  0  0  0  0  0
   17.9541   18.8005   25.1583 H   0  0  0  0  0  0  0  0  0  0  0  0
   19.7400   19.5913   26.1293 C   0  0  0  0  0  0  0  0  0  0  0  0
   20.8174   19.3819   26.1616 H   0  0  0  0  0  0  0  0  0  0  0  0
   19.6280   20.6026   25.7197 H   0  0  0  0  0  0  0  0  0  0  0  0
   19.1745   19.5961   27.5628 C   0  0  0  0  0  0  0  0  0  0  0  0
   18.0978   19.7839   27.5332 H   0  0  0  0  0  0  0  0  0  0  0  0
   19.6453   20.4000   28.1350 H   0  0  0  0  0  0  0  0  0  0  0  0
   19.4064   18.3011   28.3162 N   0  3  0  0  0  0  0  0  0  0  0  0
   18.9572   17.5059   27.8514 H   0  0  0  0  0  0  0  0  0  0  0  0
   19.0307   18.3430   29.2700 H   0  0  0  0  0  0  0  0  0  0  0  0
   20.4046   18.0812   28.3966 H   0  0  0  0  0  0  0  0  0  0  0  0
  1  2  1  0  0  0  0
  1  3  1  0  0  0  0
  1  4  1  0  0  0  0
  1  5  1  0  0  0  0
  5  6  1  0  0  0  0
  5  7  1  0  0  0  0
  5  8  1  0  0  0  0
  8  9  1  0  0  0  0
  8 10  1  0  0  0  0
  8 11  1  0  0  0  0
 11 12  1  0  0  0  0
 11 13  1  0  0  0  0
 11 14  1  0  0  0  0
 14 15  1  0  0  0  0
 14 16  1  0  0  0  0
 14 17  1  0  0  0  0
 17 18  1  0  0  0  0
 17 19  1  0  0  0  0
 17 20  1  0  0  0  0
 20 21  1  0  0  0  0
 20 22  1  0  0  0  0
 20 23  1  0  0  0  0
 23 24  1  0  0  0  0
 23 25  1  0  0  0  0
 23 26  1  0  0  0  0
 26 27  1  0  0  0  0
 26 28  1  0  0  0  0
 26 29  1  0  0  0  0
M  END
> <VM2 Rank>
122

> <Conf_Id>
1956

> <Probability>
0.26

> <Sum Probability>
88.47

> <Delta G>
1.793

> <G>
59.939

> <E>
22.549

> <-TS>
37.391

> <U+W>
-1.596

> <U>
49.901

> <W>
-51.496

> <W(PB)>
-54.002

> <W(SA)>
2.505

> <Valence>
3.877

> <Coulomb>
44.864

> <VdW>
1.159

> <VdW6>
-8.668

> <VdW12>
9.827

> <Bond>
0.259

> <Angle>
1.041

> <Pdih>
2.578

> <Idih>
0.000

> <Tether>
0.000

$$$$
VeraChem MOL file


 29 28  0  0  0  0  0  0  0  0999 V2000     
   20.0114   17.5588   20.7931 C   0  0  0  0  0  0  0  0  0  0  0  0
   19.5020   17.1668   21.6822 H   0  0  0  0  0  0  0  0  0  0  0  0
   19.2998   17.5523   19.9574 H   0  0  0  0  0  0  0  0  0  0  0  0
   20.8263   16.8659   20.5466 H   0  0  0  0  0  0  0  0  0  0  0  0
   20.5653   18.9802   21.0394 C   0  0  0  0  0  0  0  0  0  0  0  0
   21.1659   19.2813   20.1698 H   0  0  0  0  0  0  0  0  0  0  0  0
   21.2580   18.9657   21.8915 H   0  0  0  0  0  0  0  0  0  0  0  0
   19.4593   20.0423   21.2658 C   0  0  0  0  0  0  0  0  0  0  0  0
   19.9341   21.0232   21.4053 H   0  0  0  0  0  0  0  0  0  0  0  0
   18.8571   20.1275   20.3508 H   0  0  0  0  0  0  0  0  0  0  0  0
   18.5101   19.7677   22.4608 C   0  0  0  0  0  0  0  0  0  0  0  0
   17.9424   18.8447   22.2835 H   0  0  0  0  0  0  0  0  0  0  0  0
   17.7669   20.5757   22.5033 H   0  0  0  0  0  0  0  0  0  0  0  0
   19.2390   19.6806   23.8230 C   0  0  0  0  0  0  0  0  0  0  0  0
   19.9361   18.8334   23.8120 H   0  0  0  0  0  0  0  0  0  0  0  0
   19.8388   20.5882   23.9760 H   0  0  0  0  0  0  0  0  0  0  0  0
   18.2424   19.5154   24.9952 C   0  0  0  0  0  0  0  0  0  0  0  0
   17.6595   18.5938   24.8589 H   0  0  0  0  0  0  0  0  0  0  0  0
   17.5217   20.3446   24.9768 H   0  0  0  0  0  0  0  0  0  0  0  0
   18.9323   19.4893   26.3793 C   0  0  0  0  0  0  0  0  0  0  0  0
   19.4972   20.4193   26.5276 H   0  0  0  0  0  0  0  0  0  0  0  0
   18.1615   19.4613   27.1610 H   0  0  0  0  0  0  0  0  0  0  0  0
   19.8701   18.2801   26.5541 C   0  0  0  0  0  0  0  0  0  0  0  0
   20.6694   18.3204   25.8097 H   0  0  0  0  0  0  0  0  0  0  0  0
   19.3078   17.3541   26.4069 H   0  0  0  0  0  0  0  0  0  0  0  0
   20.5141   18.2236   27.9242 N   0  3  0  0  0  0  0  0  0  0  0  0
   19.8155   18.1562   28.6718 H   0  0  0  0  0  0  0  0  0  0  0  0
   21.0805   19.0569   28.1145 H   0  0  0  0  0  0  0  0  0  0  0  0
   21.1342   17.4119   28.0206 H   0  0  0  0  0  0  0  0  0  0  0  0
  1  2  1  0  0  0  0
  1  3  1  0  0  0  0
  1  4  1  0  0  0  0
  1  5  1  0  0  0  0
  5  6  1  0  0  0  0
  5  7  1  0  0  0  0
  5  8  1  0  0  0  0
  8  9  1  0  0  0  0
  8 10  1  0  0  0  0
  8 11  1  0  0  0  0
 11 12  1  0  0  0  0
 11 13  1  0  0  0  0
 11 14  1  0  0  0  0
 14 15  1  0  0  0  0
 14 16  1  0  0  0  0
 14 17  1  0  0  0  0
 17 18  1  0  0  0  0
 17 19  1  0  0  0  0
 17 20  1  0  0  0  0
 20 21  1  0  0  0  0
 20 22  1  0  0  0  0
 20 23  1  0  0  0  0
 23 24  1  0  0  0  0
 23 25  1  0  0  0  0
 23 26  1  0  0  0  0
 26 27  1  0  0  0  0
 26 28  1  0  0  0  0
 26 29  1  0  0  0  0
M  END
> <VM2 Rank>
123

> <Conf_Id>
691

> <Probability>
0.25

> <Sum Probability>
88.72

> <Delta G>
1.815

> <G>
59.961

> <E>
22.240

> <-TS>
37.721

> <U+W>
-1.905

> <U>
49.868

> <W>
-51.773

> <W(PB)>
-54.278

> <W(SA)>
2.505

> <Valence>
3.839

> <Coulomb>
45.179

> <VdW>
0.851

> <VdW6>
-9.167

> <VdW12>
10.018

> <Bond>
0.248

> <Angle>
1.166

> <Pdih>
2.425

> <Idih>
0.000

> <Tether>
0.000

$$$$
VeraChem MOL file


 29 28  0  0  0  0  0  0  0  0999 V2000     
   21.0165   18.0401   20.9645 C   0  0  0  0  0  0  0  0  0  0  0  0
   21.6291   18.8824   21.3091 H   0  0  0  0  0  0  0  0  0  0  0  0
   21.0693   17.2445   21.7190 H   0  0  0  0  0  0  0  0  0  0  0  0
   21.4704   17.6580   20.0410 H   0  0  0  0  0  0  0  0  0  0  0  0
   19.5535   18.4690   20.7108 C   0  0  0  0  0  0  0  0  0  0  0  0
   19.0112   17.6278   20.2569 H   0  0  0  0  0  0  0  0  0  0  0  0
   19.5294   19.2840   19.9741 H   0  0  0  0  0  0  0  0  0  0  0  0
   18.8107   18.9030   21.9971 C   0  0  0  0  0  0  0  0  0  0  0  0
   17.7564   19.0858   21.7482 H   0  0  0  0  0  0  0  0  0  0  0  0
   18.8218   18.0721   22.7147 H   0  0  0  0  0  0  0  0  0  0  0  0
   19.4048   20.1771   22.6485 C   0  0  0  0  0  0  0  0  0  0  0  0
   19.4859   20.9637   21.8859 H   0  0  0  0  0  0  0  0  0  0  0  0
   20.4282   19.9840   22.9934 H   0  0  0  0  0  0  0  0  0  0  0  0
   18.5542   20.7228   23.8245 C   0  0  0  0  0  0  0  0  0  0  0  0
   19.0293   21.6357   24.2093 H   0  0  0  0  0  0  0  0  0  0  0  0
   17.5733   21.0345   23.4398 H   0  0  0  0  0  0  0  0  0  0  0  0
   18.3370   19.7350   24.9999 C   0  0  0  0  0  0  0  0  0  0  0  0
   17.7519   18.8699   24.6604 H   0  0  0  0  0  0  0  0  0  0  0  0
   17.7222   20.2340   25.7618 H   0  0  0  0  0  0  0  0  0  0  0  0
   19.6525   19.2518   25.6540 C   0  0  0  0  0  0  0  0  0  0  0  0
   20.2463   18.6807   24.9290 H   0  0  0  0  0  0  0  0  0  0  0  0
   20.2550   20.1185   25.9565 H   0  0  0  0  0  0  0  0  0  0  0  0
   19.3753   18.3671   26.8818 C   0  0  0  0  0  0  0  0  0  0  0  0
   18.7886   17.4945   26.5820 H   0  0  0  0  0  0  0  0  0  0  0  0
   18.7997   18.9318   27.6202 H   0  0  0  0  0  0  0  0  0  0  0  0
   20.6396   17.8722   27.5538 N   0  3  0  0  0  0  0  0  0  0  0  0
   21.2144   17.3088   26.9185 H   0  0  0  0  0  0  0  0  0  0  0  0
   20.4325   17.2854   28.3696 H   0  0  0  0  0  0  0  0  0  0  0  0
   21.2246   18.6469   27.8840 H   0  0  0  0  0  0  0  0  0  0  0  0
  1  2  1  0  0  0  0
  1  3  1  0  0  0  0
  1  4  1  0  0  0  0
  1  5  1  0  0  0  0
  5  6  1  0  0  0  0
  5  7  1  0  0  0  0
  5  8  1  0  0  0  0
  8  9  1  0  0  0  0
  8 10  1  0  0  0  0
  8 11  1  0  0  0  0
 11 12  1  0  0  0  0
 11 13  1  0  0  0  0
 11 14  1  0  0  0  0
 14 15  1  0  0  0  0
 14 16  1  0  0  0  0
 14 17  1  0  0  0  0
 17 18  1  0  0  0  0
 17 19  1  0  0  0  0
 17 20  1  0  0  0  0
 20 21  1  0  0  0  0
 20 22  1  0  0  0  0
 20 23  1  0  0  0  0
 23 24  1  0  0  0  0
 23 25  1  0  0  0  0
 23 26  1  0  0  0  0
 26 27  1  0  0  0  0
 26 28  1  0  0  0  0
 26 29  1  0  0  0  0
M  END
> <VM2 Rank>
124

> <Conf_Id>
2960

> <Probability>
0.25

> <Sum Probability>
88.97

> <Delta G>
1.818

> <G>
59.965

> <E>
22.199

> <-TS>
37.766

> <U+W>
-1.945

> <U>
50.163

> <W>
-52.109

> <W(PB)>
-54.574

> <W(SA)>
2.466

> <Valence>
4.032

> <Coulomb>
45.327

> <VdW>
0.804

> <VdW6>
-9.391

> <VdW12>
10.195

> <Bond>
0.264

> <Angle>
1.252

> <Pdih>
2.516

> <Idih>
0.000

> <Tether>
0.000

$$$$
VeraChem MOL file


 29 28  0  0  0  0  0  0  0  0999 V2000     
   21.3571   18.9971   20.9854 C   0  0  0  0  0  0  0  0  0  0  0  0
   21.2949   17.9444   21.2876 H   0  0  0  0  0  0  0  0  0  0  0  0
   21.9631   19.0428   20.0713 H   0  0  0  0  0  0  0  0  0  0  0  0
   21.8901   19.5498   21.7699 H   0  0  0  0  0  0  0  0  0  0  0  0
   19.9558   19.5993   20.7358 C   0  0  0  0  0  0  0  0  0  0  0  0
   19.4325   19.0128   19.9678 H   0  0  0  0  0  0  0  0  0  0  0  0
   20.0732   20.6111   20.3233 H   0  0  0  0  0  0  0  0  0  0  0  0
   19.0880   19.6816   22.0144 C   0  0  0  0  0  0  0  0  0  0  0  0
   19.6114   20.2896   22.7639 H   0  0  0  0  0  0  0  0  0  0  0  0
   18.1587   20.2159   21.7734 H   0  0  0  0  0  0  0  0  0  0  0  0
   18.7346   18.2942   22.6065 C   0  0  0  0  0  0  0  0  0  0  0  0
   19.6450   17.7836   22.9443 H   0  0  0  0  0  0  0  0  0  0  0  0
   18.3114   17.6640   21.8123 H   0  0  0  0  0  0  0  0  0  0  0  0
   17.7140   18.3624   23.7718 C   0  0  0  0  0  0  0  0  0  0  0  0
   16.7622   18.7558   23.3890 H   0  0  0  0  0  0  0  0  0  0  0  0
   17.5003   17.3403   24.1135 H   0  0  0  0  0  0  0  0  0  0  0  0
   18.1530   19.2179   24.9883 C   0  0  0  0  0  0  0  0  0  0  0  0
   17.3504   19.1898   25.7384 H   0  0  0  0  0  0  0  0  0  0  0  0
   18.2508   20.2706   24.6915 H   0  0  0  0  0  0  0  0  0  0  0  0
   19.4686   18.7351   25.6426 C   0  0  0  0  0  0  0  0  0  0  0  0
   19.3837   17.6714   25.9019 H   0  0  0  0  0  0  0  0  0  0  0  0
   20.2999   18.8308   24.9326 H   0  0  0  0  0  0  0  0  0  0  0  0
   19.7951   19.5464   26.9084 C   0  0  0  0  0  0  0  0  0  0  0  0
   18.9816   19.4437   27.6317 H   0  0  0  0  0  0  0  0  0  0  0  0
   19.8961   20.6044   26.6517 H   0  0  0  0  0  0  0  0  0  0  0  0
   21.0779   19.1040   27.5819 N   0  3  0  0  0  0  0  0  0  0  0  0
   21.8885   19.2021   26.9616 H   0  0  0  0  0  0  0  0  0  0  0  0
   21.0370   18.1216   27.8729 H   0  0  0  0  0  0  0  0  0  0  0  0
   21.2765   19.6569   28.4231 H   0  0  0  0  0  0  0  0  0  0  0  0
  1  2  1  0  0  0  0
  1  3  1  0  0  0  0
  1  4  1  0  0  0  0
  1  5  1  0  0  0  0
  5  6  1  0  0  0  0
  5  7  1  0  0  0  0
  5  8  1  0  0  0  0
  8  9  1  0  0  0  0
  8 10  1  0  0  0  0
  8 11  1  0  0  0  0
 11 12  1  0  0  0  0
 11 13  1  0  0  0  0
 11 14  1  0  0  0  0
 14 15  1  0  0  0  0
 14 16  1  0  0  0  0
 14 17  1  0  0  0  0
 17 18  1  0  0  0  0
 17 19  1  0  0  0  0
 17 20  1  0  0  0  0
 20 21  1  0  0  0  0
 20 22  1  0  0  0  0
 20 23  1  0  0  0  0
 23 24  1  0  0  0  0
 23 25  1  0  0  0  0
 23 26  1  0  0  0  0
 26 27  1  0  0  0  0
 26 28  1  0  0  0  0
 26 29  1  0  0  0  0
M  END
> <VM2 Rank>
125

> <Conf_Id>
2635

> <Probability>
0.25

> <Sum Probability>
89.22

> <Delta G>
1.822

> <G>
59.968

> <E>
22.203

> <-TS>
37.765

> <U+W>
-1.942

> <U>
50.163

> <W>
-52.104

> <W(PB)>
-54.562

> <W(SA)>
2.458

> <Valence>
4.032

> <Coulomb>
45.327

> <VdW>
0.804

> <VdW6>
-9.390

> <VdW12>
10.195

> <Bond>
0.264

> <Angle>
1.252

> <Pdih>
2.516

> <Idih>
0.000

> <Tether>
0.000

$$$$
VeraChem MOL file


 29 28  0  0  0  0  0  0  0  0999 V2000     
   19.0330   18.2239   19.7546 C   0  0  0  0  0  0  0  0  0  0  0  0
   18.9187   18.2317   18.6629 H   0  0  0  0  0  0  0  0  0  0  0  0
   19.5132   17.2775   20.0354 H   0  0  0  0  0  0  0  0  0  0  0  0
   18.0270   18.2423   20.1920 H   0  0  0  0  0  0  0  0  0  0  0  0
   19.8753   19.4334   20.2191 C   0  0  0  0  0  0  0  0  0  0  0  0
   19.3616   20.3668   19.9496 H   0  0  0  0  0  0  0  0  0  0  0  0
   20.8264   19.4359   19.6686 H   0  0  0  0  0  0  0  0  0  0  0  0
   20.1791   19.4222   21.7366 C   0  0  0  0  0  0  0  0  0  0  0  0
   20.7194   18.4999   21.9863 H   0  0  0  0  0  0  0  0  0  0  0  0
   20.8605   20.2539   21.9626 H   0  0  0  0  0  0  0  0  0  0  0  0
   18.9102   19.5527   22.6167 C   0  0  0  0  0  0  0  0  0  0  0  0
   18.2758   18.6645   22.4971 H   0  0  0  0  0  0  0  0  0  0  0  0
   18.3172   20.4073   22.2632 H   0  0  0  0  0  0  0  0  0  0  0  0
   19.2187   19.7587   24.1201 C   0  0  0  0  0  0  0  0  0  0  0  0
   19.8413   20.6550   24.2478 H   0  0  0  0  0  0  0  0  0  0  0  0
   18.2719   19.9649   24.6363 H   0  0  0  0  0  0  0  0  0  0  0  0
   19.9137   18.5407   24.7799 C   0  0  0  0  0  0  0  0  0  0  0  0
   20.8740   18.3503   24.2834 H   0  0  0  0  0  0  0  0  0  0  0  0
   19.3022   17.6397   24.6328 H   0  0  0  0  0  0  0  0  0  0  0  0
   20.1820   18.7406   26.2901 C   0  0  0  0  0  0  0  0  0  0  0  0
   20.7666   17.8891   26.6630 H   0  0  0  0  0  0  0  0  0  0  0  0
   20.8001   19.6359   26.4398 H   0  0  0  0  0  0  0  0  0  0  0  0
   18.8874   18.8599   27.1160 C   0  0  0  0  0  0  0  0  0  0  0  0
   18.2719   17.9688   26.9661 H   0  0  0  0  0  0  0  0  0  0  0  0
   18.3169   19.7324   26.7878 H   0  0  0  0  0  0  0  0  0  0  0  0
   19.1447   19.0059   28.6018 N   0  3  0  0  0  0  0  0  0  0  0  0
   19.6552   18.2019   28.9817 H   0  0  0  0  0  0  0  0  0  0  0  0
   18.2709   19.0836   29.1339 H   0  0  0  0  0  0  0  0  0  0  0  0
   19.6986   19.8426   28.8129 H   0  0  0  0  0  0  0  0  0  0  0  0
  1  2  1  0  0  0  0
  1  3  1  0  0  0  0
  1  4  1  0  0  0  0
  1  5  1  0  0  0  0
  5  6  1  0  0  0  0
  5  7  1  0  0  0  0
  5  8  1  0  0  0  0
  8  9  1  0  0  0  0
  8 10  1  0  0  0  0
  8 11  1  0  0  0  0
 11 12  1  0  0  0  0
 11 13  1  0  0  0  0
 11 14  1  0  0  0  0
 14 15  1  0  0  0  0
 14 16  1  0  0  0  0
 14 17  1  0  0  0  0
 17 18  1  0  0  0  0
 17 19  1  0  0  0  0
 17 20  1  0  0  0  0
 20 21  1  0  0  0  0
 20 22  1  0  0  0  0
 20 23  1  0  0  0  0
 23 24  1  0  0  0  0
 23 25  1  0  0  0  0
 23 26  1  0  0  0  0
 26 27  1  0  0  0  0
 26 28  1  0  0  0  0
 26 29  1  0  0  0  0
M  END
> <VM2 Rank>
126

> <Conf_Id>
338

> <Probability>
0.24

> <Sum Probability>
89.47

> <Delta G>
1.834

> <G>
59.980

> <E>
22.482

> <-TS>
37.498

> <U+W>
-1.662

> <U>
49.778

> <W>
-51.441

> <W(PB)>
-53.961

> <W(SA)>
2.520

> <Valence>
3.946

> <Coulomb>
44.784

> <VdW>
1.049

> <VdW6>
-8.795

> <VdW12>
9.844

> <Bond>
0.248

> <Angle>
1.005

> <Pdih>
2.693

> <Idih>
0.000

> <Tether>
0.000

$$$$
VeraChem MOL file


 29 28  0  0  0  0  0  0  0  0999 V2000     
   20.2856   18.7600   19.5910 C   0  0  0  0  0  0  0  0  0  0  0  0
   20.8529   17.8458   19.8089 H   0  0  0  0  0  0  0  0  0  0  0  0
   20.0986   18.7892   18.5097 H   0  0  0  0  0  0  0  0  0  0  0  0
   20.9150   19.6233   19.8393 H   0  0  0  0  0  0  0  0  0  0  0  0
   18.9513   18.7852   20.3707 C   0  0  0  0  0  0  0  0  0  0  0  0
   18.3080   17.9777   19.9939 H   0  0  0  0  0  0  0  0  0  0  0  0
   18.4190   19.7240   20.1634 H   0  0  0  0  0  0  0  0  0  0  0  0
   19.1247   18.6076   21.8986 C   0  0  0  0  0  0  0  0  0  0  0  0
   18.1266   18.5020   22.3425 H   0  0  0  0  0  0  0  0  0  0  0  0
   19.6555   17.6671   22.1004 H   0  0  0  0  0  0  0  0  0  0  0  0
   19.8708   19.7855   22.5754 C   0  0  0  0  0  0  0  0  0  0  0  0
   19.3391   20.7258   22.3752 H   0  0  0  0  0  0  0  0  0  0  0  0
   20.8669   19.8924   22.1272 H   0  0  0  0  0  0  0  0  0  0  0  0
   20.0514   19.6063   24.1029 C   0  0  0  0  0  0  0  0  0  0  0  0
   20.5891   18.6683   24.2958 H   0  0  0  0  0  0  0  0  0  0  0  0
   20.6974   20.4147   24.4723 H   0  0  0  0  0  0  0  0  0  0  0  0
   18.7174   19.6292   24.8914 C   0  0  0  0  0  0  0  0  0  0  0  0
   18.1020   18.7612   24.6206 H   0  0  0  0  0  0  0  0  0  0  0  0
   18.1433   20.5215   24.6060 H   0  0  0  0  0  0  0  0  0  0  0  0
   18.9235   19.6408   26.4241 C   0  0  0  0  0  0  0  0  0  0  0  0
   19.5067   20.5258   26.7117 H   0  0  0  0  0  0  0  0  0  0  0  0
   17.9457   19.7354   26.9150 H   0  0  0  0  0  0  0  0  0  0  0  0
   19.6246   18.3695   26.9378 C   0  0  0  0  0  0  0  0  0  0  0  0
   20.6171   18.2865   26.4873 H   0  0  0  0  0  0  0  0  0  0  0  0
   19.0426   17.4883   26.6547 H   0  0  0  0  0  0  0  0  0  0  0  0
   19.7947   18.3540   28.4431 N   0  3  0  0  0  0  0  0  0  0  0  0
   20.2632   17.4998   28.7649 H   0  0  0  0  0  0  0  0  0  0  0  0
   18.8933   18.4017   28.9296 H   0  0  0  0  0  0  0  0  0  0  0  0
   20.3575   19.1456   28.7718 H   0  0  0  0  0  0  0  0  0  0  0  0
  1  2  1  0  0  0  0
  1  3  1  0  0  0  0
  1  4  1  0  0  0  0
  1  5  1  0  0  0  0
  5  6  1  0  0  0  0
  5  7  1  0  0  0  0
  5  8  1  0  0  0  0
  8  9  1  0  0  0  0
  8 10  1  0  0  0  0
  8 11  1  0  0  0  0
 11 12  1  0  0  0  0
 11 13  1  0  0  0  0
 11 14  1  0  0  0  0
 14 15  1  0  0  0  0
 14 16  1  0  0  0  0
 14 17  1  0  0  0  0
 17 18  1  0  0  0  0
 17 19  1  0  0  0  0
 17 20  1  0  0  0  0
 20 21  1  0  0  0  0
 20 22  1  0  0  0  0
 20 23  1  0  0  0  0
 23 24  1  0  0  0  0
 23 25  1  0  0  0  0
 23 26  1  0  0  0  0
 26 27  1  0  0  0  0
 26 28  1  0  0  0  0
 26 29  1  0  0  0  0
M  END
> <VM2 Rank>
127

> <Conf_Id>
2272

> <Probability>
0.24

> <Sum Probability>
89.71

> <Delta G>
1.842

> <G>
59.988

> <E>
22.533

> <-TS>
37.455

> <U+W>
-1.612

> <U>
49.932

> <W>
-51.543

> <W(PB)>
-54.068

> <W(SA)>
2.525

> <Valence>
3.987

> <Coulomb>
44.891

> <VdW>
1.054

> <VdW6>
-8.768

> <VdW12>
9.822

> <Bond>
0.251

> <Angle>
1.043

> <Pdih>
2.693

> <Idih>
0.000

> <Tether>
0.000

$$$$
VeraChem MOL file


 29 28  0  0  0  0  0  0  0  0999 V2000     
   20.7106   18.6488   19.8739 C   0  0  0  0  0  0  0  0  0  0  0  0
   20.8284   17.5801   20.0956 H   0  0  0  0  0  0  0  0  0  0  0  0
   20.0360   18.7475   19.0135 H   0  0  0  0  0  0  0  0  0  0  0  0
   21.6921   19.0423   19.5792 H   0  0  0  0  0  0  0  0  0  0  0  0
   20.1633   19.4117   21.0988 C   0  0  0  0  0  0  0  0  0  0  0  0
   20.0841   20.4808   20.8574 H   0  0  0  0  0  0  0  0  0  0  0  0
   20.8824   19.3231   21.9240 H   0  0  0  0  0  0  0  0  0  0  0  0
   18.7815   18.8715   21.5360 C   0  0  0  0  0  0  0  0  0  0  0  0
   18.0999   18.8975   20.6747 H   0  0  0  0  0  0  0  0  0  0  0  0
   18.8682   17.8139   21.8177 H   0  0  0  0  0  0  0  0  0  0  0  0
   18.1355   19.6788   22.6918 C   0  0  0  0  0  0  0  0  0  0  0  0
   17.1525   19.2439   22.9188 H   0  0  0  0  0  0  0  0  0  0  0  0
   17.9371   20.7012   22.3418 H   0  0  0  0  0  0  0  0  0  0  0  0
   18.9651   19.7548   23.9999 C   0  0  0  0  0  0  0  0  0  0  0  0
   19.9043   20.2934   23.8173 H   0  0  0  0  0  0  0  0  0  0  0  0
   18.4036   20.3647   24.7196 H   0  0  0  0  0  0  0  0  0  0  0  0
   19.2681   18.3684   24.6226 C   0  0  0  0  0  0  0  0  0  0  0  0
   19.8562   17.7683   23.9161 H   0  0  0  0  0  0  0  0  0  0  0  0
   18.3289   17.8233   24.7899 H   0  0  0  0  0  0  0  0  0  0  0  0
   20.0561   18.4594   25.9505 C   0  0  0  0  0  0  0  0  0  0  0  0
   20.3248   17.4451   26.2745 H   0  0  0  0  0  0  0  0  0  0  0  0
   20.9994   18.9965   25.7839 H   0  0  0  0  0  0  0  0  0  0  0  0
   19.2576   19.1489   27.0726 C   0  0  0  0  0  0  0  0  0  0  0  0
   18.3181   18.6145   27.2374 H   0  0  0  0  0  0  0  0  0  0  0  0
   19.0237   20.1767   26.7840 H   0  0  0  0  0  0  0  0  0  0  0  0
   20.0061   19.1956   28.3889 N   0  3  0  0  0  0  0  0  0  0  0  0
   20.8899   19.7092   28.3075 H   0  0  0  0  0  0  0  0  0  0  0  0
   20.2330   18.2565   28.7326 H   0  0  0  0  0  0  0  0  0  0  0  0
   19.4579   19.6580   29.1227 H   0  0  0  0  0  0  0  0  0  0  0  0
  1  2  1  0  0  0  0
  1  3  1  0  0  0  0
  1  4  1  0  0  0  0
  1  5  1  0  0  0  0
  5  6  1  0  0  0  0
  5  7  1  0  0  0  0
  5  8  1  0  0  0  0
  8  9  1  0  0  0  0
  8 10  1  0  0  0  0
  8 11  1  0  0  0  0
 11 12  1  0  0  0  0
 11 13  1  0  0  0  0
 11 14  1  0  0  0  0
 14 15  1  0  0  0  0
 14 16  1  0  0  0  0
 14 17  1  0  0  0  0
 17 18  1  0  0  0  0
 17 19  1  0  0  0  0
 17 20  1  0  0  0  0
 20 21  1  0  0  0  0
 20 22  1  0  0  0  0
 20 23  1  0  0  0  0
 23 24  1  0  0  0  0
 23 25  1  0  0  0  0
 23 26  1  0  0  0  0
 26 27  1  0  0  0  0
 26 28  1  0  0  0  0
 26 29  1  0  0  0  0
M  END
> <VM2 Rank>
128

> <Conf_Id>
2939

> <Probability>
0.23

> <Sum Probability>
89.94

> <Delta G>
1.858

> <G>
60.004

> <E>
22.285

> <-TS>
37.719

> <U+W>
-1.860

> <U>
49.829

> <W>
-51.689

> <W(PB)>
-54.187

> <W(SA)>
2.497

> <Valence>
3.921

> <Coulomb>
45.037

> <VdW>
0.871

> <VdW6>
-9.187

> <VdW12>
10.057

> <Bond>
0.258

> <Angle>
1.253

> <Pdih>
2.410

> <Idih>
0.000

> <Tether>
0.000

$$$$
VeraChem MOL file


 29 28  0  0  0  0  0  0  0  0999 V2000     
   21.2398   18.8155   20.9644 C   0  0  0  0  0  0  0  0  0  0  0  0
   21.4567   18.8810   22.0379 H   0  0  0  0  0  0  0  0  0  0  0  0
   21.2902   17.7602   20.6664 H   0  0  0  0  0  0  0  0  0  0  0  0
   22.0354   19.3535   20.4330 H   0  0  0  0  0  0  0  0  0  0  0  0
   19.8586   19.4218   20.6283 C   0  0  0  0  0  0  0  0  0  0  0  0
   19.7377   19.4429   19.5363 H   0  0  0  0  0  0  0  0  0  0  0  0
   19.8250   20.4699   20.9545 H   0  0  0  0  0  0  0  0  0  0  0  0
   18.6735   18.6324   21.2404 C   0  0  0  0  0  0  0  0  0  0  0  0
   17.7331   19.1078   20.9292 H   0  0  0  0  0  0  0  0  0  0  0  0
   18.6575   17.6229   20.8072 H   0  0  0  0  0  0  0  0  0  0  0  0
   18.6894   18.5102   22.7859 C   0  0  0  0  0  0  0  0  0  0  0  0
   19.5684   17.9325   23.0977 H   0  0  0  0  0  0  0  0  0  0  0  0
   17.8140   17.9231   23.0957 H   0  0  0  0  0  0  0  0  0  0  0  0
   18.6621   19.8789   23.5116 C   0  0  0  0  0  0  0  0  0  0  0  0
   19.5862   20.4341   23.3031 H   0  0  0  0  0  0  0  0  0  0  0  0
   17.8387   20.4825   23.1057 H   0  0  0  0  0  0  0  0  0  0  0  0
   18.4764   19.7599   25.0440 C   0  0  0  0  0  0  0  0  0  0  0  0
   17.5418   19.2246   25.2619 H   0  0  0  0  0  0  0  0  0  0  0  0
   18.3573   20.7700   25.4603 H   0  0  0  0  0  0  0  0  0  0  0  0
   19.6573   19.0593   25.7558 C   0  0  0  0  0  0  0  0  0  0  0  0
   19.7433   18.0208   25.4121 H   0  0  0  0  0  0  0  0  0  0  0  0
   20.5972   19.5653   25.4980 H   0  0  0  0  0  0  0  0  0  0  0  0
   19.4745   19.0678   27.2836 C   0  0  0  0  0  0  0  0  0  0  0  0
   18.5477   18.5506   27.5463 H   0  0  0  0  0  0  0  0  0  0  0  0
   19.4064   20.0990   27.6405 H   0  0  0  0  0  0  0  0  0  0  0  0
   20.6124   18.3922   28.0210 N   0  3  0  0  0  0  0  0  0  0  0  0
   20.7124   17.4083   27.7499 H   0  0  0  0  0  0  0  0  0  0  0  0
   20.4710   18.4093   29.0371 H   0  0  0  0  0  0  0  0  0  0  0  0
   21.5116   18.8494   27.8368 H   0  0  0  0  0  0  0  0  0  0  0  0
  1  2  1  0  0  0  0
  1  3  1  0  0  0  0
  1  4  1  0  0  0  0
  1  5  1  0  0  0  0
  5  6  1  0  0  0  0
  5  7  1  0  0  0  0
  5  8  1  0  0  0  0
  8  9  1  0  0  0  0
  8 10  1  0  0  0  0
  8 11  1  0  0  0  0
 11 12  1  0  0  0  0
 11 13  1  0  0  0  0
 11 14  1  0  0  0  0
 14 15  1  0  0  0  0
 14 16  1  0  0  0  0
 14 17  1  0  0  0  0
 17 18  1  0  0  0  0
 17 19  1  0  0  0  0
 17 20  1  0  0  0  0
 20 21  1  0  0  0  0
 20 22  1  0  0  0  0
 20 23  1  0  0  0  0
 23 24  1  0  0  0  0
 23 25  1  0  0  0  0
 23 26  1  0  0  0  0
 26 27  1  0  0  0  0
 26 28  1  0  0  0  0
 26 29  1  0  0  0  0
M  END
> <VM2 Rank>
129

> <Conf_Id>
904

> <Probability>
0.22

> <Sum Probability>
90.16

> <Delta G>
1.884

> <G>
60.030

> <E>
22.293

> <-TS>
37.738

> <U+W>
-1.852

> <U>
49.942

> <W>
-51.794

> <W(PB)>
-54.236

> <W(SA)>
2.442

> <Valence>
4.040

> <Coulomb>
45.040

> <VdW>
0.862

> <VdW6>
-9.281

> <VdW12>
10.143

> <Bond>
0.263

> <Angle>
1.239

> <Pdih>
2.539

> <Idih>
0.000

> <Tether>
0.000

$$$$
VeraChem MOL file


 29 28  0  0  0  0  0  0  0  0999 V2000     
   19.6976   18.3845   19.4836 C   0  0  0  0  0  0  0  0  0  0  0  0
   19.1710   17.5078   19.8803 H   0  0  0  0  0  0  0  0  0  0  0  0
   19.4078   18.4937   18.4305 H   0  0  0  0  0  0  0  0  0  0  0  0
   20.7761   18.1825   19.5156 H   0  0  0  0  0  0  0  0  0  0  0  0
   19.3483   19.6651   20.2755 C   0  0  0  0  0  0  0  0  0  0  0  0
   18.2613   19.8261   20.2585 H   0  0  0  0  0  0  0  0  0  0  0  0
   19.7948   20.5286   19.7630 H   0  0  0  0  0  0  0  0  0  0  0  0
   19.8519   19.6438   21.7391 C   0  0  0  0  0  0  0  0  0  0  0  0
   20.9387   19.4834   21.7504 H   0  0  0  0  0  0  0  0  0  0  0  0
   19.6806   20.6385   22.1695 H   0  0  0  0  0  0  0  0  0  0  0  0
   19.1554   18.5713   22.6152 C   0  0  0  0  0  0  0  0  0  0  0  0
   19.3226   17.5793   22.1764 H   0  0  0  0  0  0  0  0  0  0  0  0
   18.0688   18.7334   22.6075 H   0  0  0  0  0  0  0  0  0  0  0  0
   19.6648   18.5368   24.0774 C   0  0  0  0  0  0  0  0  0  0  0  0
   19.2348   17.6518   24.5647 H   0  0  0  0  0  0  0  0  0  0  0  0
   20.7541   18.3932   24.0835 H   0  0  0  0  0  0  0  0  0  0  0  0
   19.2982   19.8027   24.8935 C   0  0  0  0  0  0  0  0  0  0  0  0
   18.2112   19.9608   24.8652 H   0  0  0  0  0  0  0  0  0  0  0  0
   19.7542   20.6869   24.4303 H   0  0  0  0  0  0  0  0  0  0  0  0
   19.7704   19.7326   26.3649 C   0  0  0  0  0  0  0  0  0  0  0  0
   20.8576   19.5810   26.3970 H   0  0  0  0  0  0  0  0  0  0  0  0
   19.5734   20.6991   26.8476 H   0  0  0  0  0  0  0  0  0  0  0  0
   19.0676   18.6203   27.1657 C   0  0  0  0  0  0  0  0  0  0  0  0
   19.2939   17.6461   26.7251 H   0  0  0  0  0  0  0  0  0  0  0  0
   17.9852   18.7709   27.1326 H   0  0  0  0  0  0  0  0  0  0  0  0
   19.4899   18.5810   28.6201 N   0  3  0  0  0  0  0  0  0  0  0  0
   19.2785   19.4606   29.1029 H   0  0  0  0  0  0  0  0  0  0  0  0
   20.4968   18.4157   28.7209 H   0  0  0  0  0  0  0  0  0  0  0  0
   19.0111   17.8344   29.1358 H   0  0  0  0  0  0  0  0  0  0  0  0
  1  2  1  0  0  0  0
  1  3  1  0  0  0  0
  1  4  1  0  0  0  0
  1  5  1  0  0  0  0
  5  6  1  0  0  0  0
  5  7  1  0  0  0  0
  5  8  1  0  0  0  0
  8  9  1  0  0  0  0
  8 10  1  0  0  0  0
  8 11  1  0  0  0  0
 11 12  1  0  0  0  0
 11 13  1  0  0  0  0
 11 14  1  0  0  0  0
 14 15  1  0  0  0  0
 14 16  1  0  0  0  0
 14 17  1  0  0  0  0
 17 18  1  0  0  0  0
 17 19  1  0  0  0  0
 17 20  1  0  0  0  0
 20 21  1  0  0  0  0
 20 22  1  0  0  0  0
 20 23  1  0  0  0  0
 23 24  1  0  0  0  0
 23 25  1  0  0  0  0
 23 26  1  0  0  0  0
 26 27  1  0  0  0  0
 26 28  1  0  0  0  0
 26 29  1  0  0  0  0
M  END
> <VM2 Rank>
130

> <Conf_Id>
2104

> <Probability>
0.22

> <Sum Probability>
90.39

> <Delta G>
1.890

> <G>
60.037

> <E>
22.639

> <-TS>
37.397

> <U+W>
-1.505

> <U>
49.966

> <W>
-51.472

> <W(PB)>
-53.950

> <W(SA)>
2.479

> <Valence>
4.059

> <Coulomb>
44.783

> <VdW>
1.124

> <VdW6>
-8.699

> <VdW12>
9.823

> <Bond>
0.258

> <Angle>
1.106

> <Pdih>
2.695

> <Idih>
0.000

> <Tether>
0.000

$$$$
VeraChem MOL file


 29 28  0  0  0  0  0  0  0  0999 V2000     
   20.8271   19.9847   20.3016 C   0  0  0  0  0  0  0  0  0  0  0  0
   21.3407   19.1691   19.7759 H   0  0  0  0  0  0  0  0  0  0  0  0
   20.5356   20.7354   19.5556 H   0  0  0  0  0  0  0  0  0  0  0  0
   21.5433   20.4529   20.9893 H   0  0  0  0  0  0  0  0  0  0  0  0
   19.5895   19.4626   21.0614 C   0  0  0  0  0  0  0  0  0  0  0  0
   18.8785   19.0273   20.3455 H   0  0  0  0  0  0  0  0  0  0  0  0
   19.0811   20.3100   21.5402 H   0  0  0  0  0  0  0  0  0  0  0  0
   19.9759   18.4047   22.1215 C   0  0  0  0  0  0  0  0  0  0  0  0
   20.5395   17.5987   21.6318 H   0  0  0  0  0  0  0  0  0  0  0  0
   20.6608   18.8481   22.8562 H   0  0  0  0  0  0  0  0  0  0  0  0
   18.7556   17.7779   22.8438 C   0  0  0  0  0  0  0  0  0  0  0  0
   19.1113   17.0007   23.5331 H   0  0  0  0  0  0  0  0  0  0  0  0
   18.1370   17.2522   22.1034 H   0  0  0  0  0  0  0  0  0  0  0  0
   17.8567   18.7796   23.6178 C   0  0  0  0  0  0  0  0  0  0  0  0
   17.3527   19.4432   22.9026 H   0  0  0  0  0  0  0  0  0  0  0  0
   17.0528   18.2181   24.1133 H   0  0  0  0  0  0  0  0  0  0  0  0
   18.5888   19.6451   24.6754 C   0  0  0  0  0  0  0  0  0  0  0  0
   17.8560   20.3213   25.1373 H   0  0  0  0  0  0  0  0  0  0  0  0
   19.3286   20.2918   24.1849 H   0  0  0  0  0  0  0  0  0  0  0  0
   19.2741   18.8144   25.7852 C   0  0  0  0  0  0  0  0  0  0  0  0
   18.5393   18.1459   26.2531 H   0  0  0  0  0  0  0  0  0  0  0  0
   20.0588   18.1813   25.3523 H   0  0  0  0  0  0  0  0  0  0  0  0
   19.8975   19.7222   26.8597 C   0  0  0  0  0  0  0  0  0  0  0  0
   19.1208   20.3450   27.3115 H   0  0  0  0  0  0  0  0  0  0  0  0
   20.6416   20.3787   26.4005 H   0  0  0  0  0  0  0  0  0  0  0  0
   20.5788   18.9468   27.9686 N   0  3  0  0  0  0  0  0  0  0  0  0
   21.3402   18.3598   27.6122 H   0  0  0  0  0  0  0  0  0  0  0  0
   19.9245   18.3282   28.4593 H   0  0  0  0  0  0  0  0  0  0  0  0
   20.9868   19.5702   28.6740 H   0  0  0  0  0  0  0  0  0  0  0  0
  1  2  1  0  0  0  0
  1  3  1  0  0  0  0
  1  4  1  0  0  0  0
  1  5  1  0  0  0  0
  5  6  1  0  0  0  0
  5  7  1  0  0  0  0
  5  8  1  0  0  0  0
  8  9  1  0  0  0  0
  8 10  1  0  0  0  0
  8 11  1  0  0  0  0
 11 12  1  0  0  0  0
 11 13  1  0  0  0  0
 11 14  1  0  0  0  0
 14 15  1  0  0  0  0
 14 16  1  0  0  0  0
 14 17  1  0  0  0  0
 17 18  1  0  0  0  0
 17 19  1  0  0  0  0
 17 20  1  0  0  0  0
 20 21  1  0  0  0  0
 20 22  1  0  0  0  0
 20 23  1  0  0  0  0
 23 24  1  0  0  0  0
 23 25  1  0  0  0  0
 23 26  1  0  0  0  0
 26 27  1  0  0  0  0
 26 28  1  0  0  0  0
 26 29  1  0  0  0  0
M  END
> <VM2 Rank>
131

> <Conf_Id>
2647

> <Probability>
0.22

> <Sum Probability>
90.60

> <Delta G>
1.905

> <G>
60.051

> <E>
22.076

> <-TS>
37.976

> <U+W>
-2.069

> <U>
49.925

> <W>
-51.994

> <W(PB)>
-54.446

> <W(SA)>
2.451

> <Valence>
4.020

> <Coulomb>
45.239

> <VdW>
0.667

> <VdW6>
-9.637

> <VdW12>
10.304

> <Bond>
0.272

> <Angle>
1.402

> <Pdih>
2.346

> <Idih>
0.000

> <Tether>
0.000

$$$$
VeraChem MOL file


 29 28  0  0  0  0  0  0  0  0999 V2000     
   19.9917   17.6374   20.2496 C   0  0  0  0  0  0  0  0  0  0  0  0
   20.9124   17.9651   19.7495 H   0  0  0  0  0  0  0  0  0  0  0  0
   20.2413   16.7954   20.9083 H   0  0  0  0  0  0  0  0  0  0  0  0
   19.3022   17.2696   19.4787 H   0  0  0  0  0  0  0  0  0  0  0  0
   19.3514   18.7934   21.0467 C   0  0  0  0  0  0  0  0  0  0  0  0
   18.4152   18.4395   21.4986 H   0  0  0  0  0  0  0  0  0  0  0  0
   19.0852   19.6077   20.3585 H   0  0  0  0  0  0  0  0  0  0  0  0
   20.3040   19.3266   22.1422 C   0  0  0  0  0  0  0  0  0  0  0  0
   20.5446   18.5218   22.8492 H   0  0  0  0  0  0  0  0  0  0  0  0
   21.2569   19.6141   21.6769 H   0  0  0  0  0  0  0  0  0  0  0  0
   19.7437   20.5542   22.9057 C   0  0  0  0  0  0  0  0  0  0  0  0
   19.6066   21.3811   22.1955 H   0  0  0  0  0  0  0  0  0  0  0  0
   20.5005   20.9041   23.6202 H   0  0  0  0  0  0  0  0  0  0  0  0
   18.4033   20.3156   23.6520 C   0  0  0  0  0  0  0  0  0  0  0  0
   18.1278   21.2385   24.1807 H   0  0  0  0  0  0  0  0  0  0  0  0
   17.6036   20.1484   22.9183 H   0  0  0  0  0  0  0  0  0  0  0  0
   18.4092   19.1411   24.6641 C   0  0  0  0  0  0  0  0  0  0  0  0
   18.5810   18.1927   24.1379 H   0  0  0  0  0  0  0  0  0  0  0  0
   17.4077   19.0622   25.1093 H   0  0  0  0  0  0  0  0  0  0  0  0
   19.4496   19.3074   25.7961 C   0  0  0  0  0  0  0  0  0  0  0  0
   20.4639   19.3190   25.3774 H   0  0  0  0  0  0  0  0  0  0  0  0
   19.2959   20.2706   26.3005 H   0  0  0  0  0  0  0  0  0  0  0  0
   19.3444   18.1681   26.8248 C   0  0  0  0  0  0  0  0  0  0  0  0
   19.5129   17.2081   26.3294 H   0  0  0  0  0  0  0  0  0  0  0  0
   18.3426   18.1587   27.2626 H   0  0  0  0  0  0  0  0  0  0  0  0
   20.3467   18.2942   27.9538 N   0  3  0  0  0  0  0  0  0  0  0  0
   20.2235   19.1669   28.4778 H   0  0  0  0  0  0  0  0  0  0  0  0
   21.3127   18.2818   27.6101 H   0  0  0  0  0  0  0  0  0  0  0  0
   20.2592   17.5258   28.6281 H   0  0  0  0  0  0  0  0  0  0  0  0
  1  2  1  0  0  0  0
  1  3  1  0  0  0  0
  1  4  1  0  0  0  0
  1  5  1  0  0  0  0
  5  6  1  0  0  0  0
  5  7  1  0  0  0  0
  5  8  1  0  0  0  0
  8  9  1  0  0  0  0
  8 10  1  0  0  0  0
  8 11  1  0  0  0  0
 11 12  1  0  0  0  0
 11 13  1  0  0  0  0
 11 14  1  0  0  0  0
 14 15  1  0  0  0  0
 14 16  1  0  0  0  0
 14 17  1  0  0  0  0
 17 18  1  0  0  0  0
 17 19  1  0  0  0  0
 17 20  1  0  0  0  0
 20 21  1  0  0  0  0
 20 22  1  0  0  0  0
 20 23  1  0  0  0  0
 23 24  1  0  0  0  0
 23 25  1  0  0  0  0
 23 26  1  0  0  0  0
 26 27  1  0  0  0  0
 26 28  1  0  0  0  0
 26 29  1  0  0  0  0
M  END
> <VM2 Rank>
132

> <Conf_Id>
1155

> <Probability>
0.20

> <Sum Probability>
90.81

> <Delta G>
1.943

> <G>
60.089

> <E>
22.113

> <-TS>
37.976

> <U+W>
-2.031

> <U>
49.926

> <W>
-51.957

> <W(PB)>
-54.404

> <W(SA)>
2.447

> <Valence>
4.020

> <Coulomb>
45.239

> <VdW>
0.667

> <VdW6>
-9.638

> <VdW12>
10.305

> <Bond>
0.272

> <Angle>
1.402

> <Pdih>
2.346

> <Idih>
0.000

> <Tether>
0.000

$$$$
VeraChem MOL file


 29 28  0  0  0  0  0  0  0  0999 V2000     
   20.7260   19.2824   20.2706 C   0  0  0  0  0  0  0  0  0  0  0  0
   21.0684   18.3409   20.7177 H   0  0  0  0  0  0  0  0  0  0  0  0
   20.1681   19.0457   19.3554 H   0  0  0  0  0  0  0  0  0  0  0  0
   21.6168   19.8556   19.9828 H   0  0  0  0  0  0  0  0  0  0  0  0
   19.8555   20.0934   21.2568 C   0  0  0  0  0  0  0  0  0  0  0  0
   19.6284   21.0701   20.8075 H   0  0  0  0  0  0  0  0  0  0  0  0
   20.4294   20.3074   22.1683 H   0  0  0  0  0  0  0  0  0  0  0  0
   18.5209   19.3927   21.6166 C   0  0  0  0  0  0  0  0  0  0  0  0
   17.9368   20.0527   22.2716 H   0  0  0  0  0  0  0  0  0  0  0  0
   17.9220   19.2815   20.7024 H   0  0  0  0  0  0  0  0  0  0  0  0
   18.6658   17.9989   22.2850 C   0  0  0  0  0  0  0  0  0  0  0  0
   19.0911   17.2921   21.5601 H   0  0  0  0  0  0  0  0  0  0  0  0
   17.6628   17.6150   22.5163 H   0  0  0  0  0  0  0  0  0  0  0  0
   19.5238   17.9695   23.5760 C   0  0  0  0  0  0  0  0  0  0  0  0
   19.5672   16.9332   23.9383 H   0  0  0  0  0  0  0  0  0  0  0  0
   20.5593   18.2517   23.3439 H   0  0  0  0  0  0  0  0  0  0  0  0
   18.9736   18.8750   24.7036 C   0  0  0  0  0  0  0  0  0  0  0  0
   17.9257   18.6137   24.9062 H   0  0  0  0  0  0  0  0  0  0  0  0
   18.9844   19.9243   24.3803 H   0  0  0  0  0  0  0  0  0  0  0  0
   19.7987   18.7392   26.0020 C   0  0  0  0  0  0  0  0  0  0  0  0
   19.7858   17.6949   26.3415 H   0  0  0  0  0  0  0  0  0  0  0  0
   20.8466   19.0008   25.8028 H   0  0  0  0  0  0  0  0  0  0  0  0
   19.2477   19.6460   27.1162 C   0  0  0  0  0  0  0  0  0  0  0  0
   18.2092   19.3781   27.3291 H   0  0  0  0  0  0  0  0  0  0  0  0
   19.2742   20.6889   26.7892 H   0  0  0  0  0  0  0  0  0  0  0  0
   20.0319   19.5410   28.4081 N   0  3  0  0  0  0  0  0  0  0  0  0
   20.0231   18.5868   28.7836 H   0  0  0  0  0  0  0  0  0  0  0  0
   19.6485   20.1526   29.1373 H   0  0  0  0  0  0  0  0  0  0  0  0
   21.0142   19.8066   28.2813 H   0  0  0  0  0  0  0  0  0  0  0  0
  1  2  1  0  0  0  0
  1  3  1  0  0  0  0
  1  4  1  0  0  0  0
  1  5  1  0  0  0  0
  5  6  1  0  0  0  0
  5  7  1  0  0  0  0
  5  8  1  0  0  0  0
  8  9  1  0  0  0  0
  8 10  1  0  0  0  0
  8 11  1  0  0  0  0
 11 12  1  0  0  0  0
 11 13  1  0  0  0  0
 11 14  1  0  0  0  0
 14 15  1  0  0  0  0
 14 16  1  0  0  0  0
 14 17  1  0  0  0  0
 17 18  1  0  0  0  0
 17 19  1  0  0  0  0
 17 20  1  0  0  0  0
 20 21  1  0  0  0  0
 20 22  1  0  0  0  0
 20 23  1  0  0  0  0
 23 24  1  0  0  0  0
 23 25  1  0  0  0  0
 23 26  1  0  0  0  0
 26 27  1  0  0  0  0
 26 28  1  0  0  0  0
 26 29  1  0  0  0  0
M  END
> <VM2 Rank>
133

> <Conf_Id>
1281

> <Probability>
0.20

> <Sum Probability>
91.01

> <Delta G>
1.943

> <G>
60.090

> <E>
22.133

> <-TS>
37.957

> <U+W>
-2.012

> <U>
49.551

> <W>
-51.563

> <W(PB)>
-54.038

> <W(SA)>
2.475

> <Valence>
3.990

> <Coulomb>
44.826

> <VdW>
0.734

> <VdW6>
-9.509

> <VdW12>
10.243

> <Bond>
0.268

> <Angle>
1.374

> <Pdih>
2.348

> <Idih>
0.000

> <Tether>
0.000

$$$$
VeraChem MOL file


 29 28  0  0  0  0  0  0  0  0999 V2000     
   21.0401   18.2554   20.9514 C   0  0  0  0  0  0  0  0  0  0  0  0
   21.3240   17.3574   20.3877 H   0  0  0  0  0  0  0  0  0  0  0  0
   21.7503   19.0521   20.6949 H   0  0  0  0  0  0  0  0  0  0  0  0
   21.1517   18.0248   22.0182 H   0  0  0  0  0  0  0  0  0  0  0  0
   19.5915   18.6725   20.6114 C   0  0  0  0  0  0  0  0  0  0  0  0
   18.8984   17.8696   20.8962 H   0  0  0  0  0  0  0  0  0  0  0  0
   19.4997   18.7761   19.5213 H   0  0  0  0  0  0  0  0  0  0  0  0
   19.1636   20.0081   21.2713 C   0  0  0  0  0  0  0  0  0  0  0  0
   19.7954   20.8167   20.8788 H   0  0  0  0  0  0  0  0  0  0  0  0
   18.1389   20.2469   20.9549 H   0  0  0  0  0  0  0  0  0  0  0  0
   19.2315   20.0311   22.8201 C   0  0  0  0  0  0  0  0  0  0  0  0
   18.9199   21.0263   23.1654 H   0  0  0  0  0  0  0  0  0  0  0  0
   20.2733   19.9101   23.1420 H   0  0  0  0  0  0  0  0  0  0  0  0
   18.3351   18.9601   23.4911 C   0  0  0  0  0  0  0  0  0  0  0  0
   17.3214   19.0293   23.0731 H   0  0  0  0  0  0  0  0  0  0  0  0
   18.7033   17.9546   23.2477 H   0  0  0  0  0  0  0  0  0  0  0  0
   18.2445   19.1087   25.0295 C   0  0  0  0  0  0  0  0  0  0  0  0
   17.5082   18.3854   25.4069 H   0  0  0  0  0  0  0  0  0  0  0  0
   17.8553   20.1049   25.2816 H   0  0  0  0  0  0  0  0  0  0  0  0
   19.5923   18.8768   25.7518 C   0  0  0  0  0  0  0  0  0  0  0  0
   20.0047   17.9015   25.4609 H   0  0  0  0  0  0  0  0  0  0  0  0
   20.3199   19.6400   25.4485 H   0  0  0  0  0  0  0  0  0  0  0  0
   19.4236   18.9251   27.2804 C   0  0  0  0  0  0  0  0  0  0  0  0
   18.7145   18.1554   27.5972 H   0  0  0  0  0  0  0  0  0  0  0  0
   19.0281   19.9005   27.5765 H   0  0  0  0  0  0  0  0  0  0  0  0
   20.7220   18.7003   28.0280 N   0  3  0  0  0  0  0  0  0  0  0  0
   21.4247   19.4097   27.7947 H   0  0  0  0  0  0  0  0  0  0  0  0
   21.1328   17.7857   27.8131 H   0  0  0  0  0  0  0  0  0  0  0  0
   20.5871   18.7361   29.0445 H   0  0  0  0  0  0  0  0  0  0  0  0
  1  2  1  0  0  0  0
  1  3  1  0  0  0  0
  1  4  1  0  0  0  0
  1  5  1  0  0  0  0
  5  6  1  0  0  0  0
  5  7  1  0  0  0  0
  5  8  1  0  0  0  0
  8  9  1  0  0  0  0
  8 10  1  0  0  0  0
  8 11  1  0  0  0  0
 11 12  1  0  0  0  0
 11 13  1  0  0  0  0
 11 14  1  0  0  0  0
 14 15  1  0  0  0  0
 14 16  1  0  0  0  0
 14 17  1  0  0  0  0
 17 18  1  0  0  0  0
 17 19  1  0  0  0  0
 17 20  1  0  0  0  0
 20 21  1  0  0  0  0
 20 22  1  0  0  0  0
 20 23  1  0  0  0  0
 23 24  1  0  0  0  0
 23 25  1  0  0  0  0
 23 26  1  0  0  0  0
 26 27  1  0  0  0  0
 26 28  1  0  0  0  0
 26 29  1  0  0  0  0
M  END
> <VM2 Rank>
134

> <Conf_Id>
2648

> <Probability>
0.20

> <Sum Probability>
91.21

> <Delta G>
1.959

> <G>
60.105

> <E>
22.368

> <-TS>
37.737

> <U+W>
-1.777

> <U>
49.942

> <W>
-51.718

> <W(PB)>
-54.192

> <W(SA)>
2.474

> <Valence>
4.040

> <Coulomb>
45.040

> <VdW>
0.862

> <VdW6>
-9.281

> <VdW12>
10.143

> <Bond>
0.263

> <Angle>
1.239

> <Pdih>
2.539

> <Idih>
0.000

> <Tether>
0.000

$$$$
VeraChem MOL file


 29 28  0  0  0  0  0  0  0  0999 V2000     
   20.2319   19.3122   19.7916 C   0  0  0  0  0  0  0  0  0  0  0  0
   19.2448   19.1561   19.3373 H   0  0  0  0  0  0  0  0  0  0  0  0
   20.8627   19.8265   19.0552 H   0  0  0  0  0  0  0  0  0  0  0  0
   20.6825   18.3304   19.9820 H   0  0  0  0  0  0  0  0  0  0  0  0
   20.1216   20.1488   21.0865 C   0  0  0  0  0  0  0  0  0  0  0  0
   19.7876   21.1622   20.8236 H   0  0  0  0  0  0  0  0  0  0  0  0
   21.1160   20.2612   21.5406 H   0  0  0  0  0  0  0  0  0  0  0  0
   19.1364   19.5565   22.1230 C   0  0  0  0  0  0  0  0  0  0  0  0
   19.0256   20.2833   22.9379 H   0  0  0  0  0  0  0  0  0  0  0  0
   18.1434   19.4480   21.6658 H   0  0  0  0  0  0  0  0  0  0  0  0
   19.5967   18.1954   22.7038 C   0  0  0  0  0  0  0  0  0  0  0  0
   20.5909   18.3017   23.1570 H   0  0  0  0  0  0  0  0  0  0  0  0
   19.7136   17.4714   21.8873 H   0  0  0  0  0  0  0  0  0  0  0  0
   18.6055   17.5920   23.7329 C   0  0  0  0  0  0  0  0  0  0  0  0
   17.6512   17.3861   23.2288 H   0  0  0  0  0  0  0  0  0  0  0  0
   18.9892   16.6151   24.0582 H   0  0  0  0  0  0  0  0  0  0  0  0
   18.3287   18.4626   24.9860 C   0  0  0  0  0  0  0  0  0  0  0  0
   17.6238   17.9220   25.6328 H   0  0  0  0  0  0  0  0  0  0  0  0
   17.8176   19.3899   24.6952 H   0  0  0  0  0  0  0  0  0  0  0  0
   19.5996   18.7988   25.8005 C   0  0  0  0  0  0  0  0  0  0  0  0
   20.1310   17.8722   26.0554 H   0  0  0  0  0  0  0  0  0  0  0  0
   20.2831   19.4097   25.1973 H   0  0  0  0  0  0  0  0  0  0  0  0
   19.2523   19.5616   27.0907 C   0  0  0  0  0  0  0  0  0  0  0  0
   18.5859   18.9545   27.7094 H   0  0  0  0  0  0  0  0  0  0  0  0
   18.7368   20.4927   26.8404 H   0  0  0  0  0  0  0  0  0  0  0  0
   20.4714   19.9103   27.9199 N   0  3  0  0  0  0  0  0  0  0  0  0
   20.9871   19.0731   28.2109 H   0  0  0  0  0  0  0  0  0  0  0  0
   20.2178   20.4175   28.7750 H   0  0  0  0  0  0  0  0  0  0  0  0
   21.1275   20.5051   27.4030 H   0  0  0  0  0  0  0  0  0  0  0  0
  1  2  1  0  0  0  0
  1  3  1  0  0  0  0
  1  4  1  0  0  0  0
  1  5  1  0  0  0  0
  5  6  1  0  0  0  0
  5  7  1  0  0  0  0
  5  8  1  0  0  0  0
  8  9  1  0  0  0  0
  8 10  1  0  0  0  0
  8 11  1  0  0  0  0
 11 12  1  0  0  0  0
 11 13  1  0  0  0  0
 11 14  1  0  0  0  0
 14 15  1  0  0  0  0
 14 16  1  0  0  0  0
 14 17  1  0  0  0  0
 17 18  1  0  0  0  0
 17 19  1  0  0  0  0
 17 20  1  0  0  0  0
 20 21  1  0  0  0  0
 20 22  1  0  0  0  0
 20 23  1  0  0  0  0
 23 24  1  0  0  0  0
 23 25  1  0  0  0  0
 23 26  1  0  0  0  0
 26 27  1  0  0  0  0
 26 28  1  0  0  0  0
 26 29  1  0  0  0  0
M  END
> <VM2 Rank>
135

> <Conf_Id>
1645

> <Probability>
0.20

> <Sum Probability>
91.40

> <Delta G>
1.961

> <G>
60.107

> <E>
22.397

> <-TS>
37.710

> <U+W>
-1.747

> <U>
50.232

> <W>
-51.980

> <W(PB)>
-54.439

> <W(SA)>
2.459

> <Valence>
4.148

> <Coulomb>
45.153

> <VdW>
0.932

> <VdW6>
-9.217

> <VdW12>
10.149

> <Bond>
0.273

> <Angle>
1.395

> <Pdih>
2.481

> <Idih>
0.000

> <Tether>
0.000

$$$$
VeraChem MOL file


 29 28  0  0  0  0  0  0  0  0999 V2000     
   20.3615   19.2225   19.4853 C   0  0  0  0  0  0  0  0  0  0  0  0
   20.5584   18.1915   19.1636 H   0  0  0  0  0  0  0  0  0  0  0  0
   19.8721   19.7469   18.6543 H   0  0  0  0  0  0  0  0  0  0  0  0
   21.3258   19.7127   19.6721 H   0  0  0  0  0  0  0  0  0  0  0  0
   19.4721   19.2505   20.7464 C   0  0  0  0  0  0  0  0  0  0  0  0
   18.5052   18.7796   20.5205 H   0  0  0  0  0  0  0  0  0  0  0  0
   19.2640   20.2955   21.0109 H   0  0  0  0  0  0  0  0  0  0  0  0
   20.1441   18.5205   21.9334 C   0  0  0  0  0  0  0  0  0  0  0  0
   20.4191   17.5053   21.6157 H   0  0  0  0  0  0  0  0  0  0  0  0
   21.0838   19.0259   22.1959 H   0  0  0  0  0  0  0  0  0  0  0  0
   19.2439   18.4124   23.1888 C   0  0  0  0  0  0  0  0  0  0  0  0
   19.7504   17.7590   23.9107 H   0  0  0  0  0  0  0  0  0  0  0  0
   18.3024   17.9118   22.9245 H   0  0  0  0  0  0  0  0  0  0  0  0
   18.9422   19.7794   23.8540 C   0  0  0  0  0  0  0  0  0  0  0  0
   19.8839   20.2810   24.1136 H   0  0  0  0  0  0  0  0  0  0  0  0
   18.4388   20.4348   23.1319 H   0  0  0  0  0  0  0  0  0  0  0  0
   18.0352   19.6722   25.1075 C   0  0  0  0  0  0  0  0  0  0  0  0
   17.0618   19.2563   24.8130 H   0  0  0  0  0  0  0  0  0  0  0  0
   17.8300   20.6857   25.4793 H   0  0  0  0  0  0  0  0  0  0  0  0
   18.6146   18.8240   26.2670 C   0  0  0  0  0  0  0  0  0  0  0  0
   17.9108   18.8502   27.1095 H   0  0  0  0  0  0  0  0  0  0  0  0
   18.6898   17.7721   25.9638 H   0  0  0  0  0  0  0  0  0  0  0  0
   19.9895   19.3269   26.7444 C   0  0  0  0  0  0  0  0  0  0  0  0
   19.9110   20.3715   27.0573 H   0  0  0  0  0  0  0  0  0  0  0  0
   20.7097   19.2655   25.9243 H   0  0  0  0  0  0  0  0  0  0  0  0
   20.5409   18.5294   27.9084 N   0  3  0  0  0  0  0  0  0  0  0  0
   19.9218   18.5685   28.7249 H   0  0  0  0  0  0  0  0  0  0  0  0
   21.4565   18.8800   28.2106 H   0  0  0  0  0  0  0  0  0  0  0  0
   20.6636   17.5399   27.6693 H   0  0  0  0  0  0  0  0  0  0  0  0
  1  2  1  0  0  0  0
  1  3  1  0  0  0  0
  1  4  1  0  0  0  0
  1  5  1  0  0  0  0
  5  6  1  0  0  0  0
  5  7  1  0  0  0  0
  5  8  1  0  0  0  0
  8  9  1  0  0  0  0
  8 10  1  0  0  0  0
  8 11  1  0  0  0  0
 11 12  1  0  0  0  0
 11 13  1  0  0  0  0
 11 14  1  0  0  0  0
 14 15  1  0  0  0  0
 14 16  1  0  0  0  0
 14 17  1  0  0  0  0
 17 18  1  0  0  0  0
 17 19  1  0  0  0  0
 17 20  1  0  0  0  0
 20 21  1  0  0  0  0
 20 22  1  0  0  0  0
 20 23  1  0  0  0  0
 23 24  1  0  0  0  0
 23 25  1  0  0  0  0
 23 26  1  0  0  0  0
 26 27  1  0  0  0  0
 26 28  1  0  0  0  0
 26 29  1  0  0  0  0
M  END
> <VM2 Rank>
136

> <Conf_Id>
257

> <Probability>
0.19

> <Sum Probability>
91.60

> <Delta G>
1.973

> <G>
60.119

> <E>
22.544

> <-TS>
37.576

> <U+W>
-1.601

> <U>
50.254

> <W>
-51.855

> <W(PB)>
-54.370

> <W(SA)>
2.515

> <Valence>
3.959

> <Coulomb>
45.374

> <VdW>
0.921

> <VdW6>
-9.108

> <VdW12>
10.028

> <Bond>
0.261

> <Angle>
1.234

> <Pdih>
2.465

> <Idih>
0.000

> <Tether>
0.000

$$$$
VeraChem MOL file


 29 28  0  0  0  0  0  0  0  0999 V2000     
   20.1391   19.6220   19.5114 C   0  0  0  0  0  0  0  0  0  0  0  0
   20.2790   20.6177   19.9496 H   0  0  0  0  0  0  0  0  0  0  0  0
   21.1021   19.0958   19.5366 H   0  0  0  0  0  0  0  0  0  0  0  0
   19.8607   19.7619   18.4588 H   0  0  0  0  0  0  0  0  0  0  0  0
   19.0479   18.8200   20.2565 C   0  0  0  0  0  0  0  0  0  0  0  0
   18.8558   17.8896   19.7041 H   0  0  0  0  0  0  0  0  0  0  0  0
   18.1039   19.3827   20.2480 H   0  0  0  0  0  0  0  0  0  0  0  0
   19.4304   18.4608   21.7128 C   0  0  0  0  0  0  0  0  0  0  0  0
   18.6633   17.7817   22.1056 H   0  0  0  0  0  0  0  0  0  0  0  0
   20.3741   17.8982   21.7156 H   0  0  0  0  0  0  0  0  0  0  0  0
   19.5550   19.6965   22.6403 C   0  0  0  0  0  0  0  0  0  0  0  0
   18.6102   20.2571   22.6415 H   0  0  0  0  0  0  0  0  0  0  0  0
   20.3170   20.3767   22.2388 H   0  0  0  0  0  0  0  0  0  0  0  0
   19.9512   19.3439   24.0954 C   0  0  0  0  0  0  0  0  0  0  0  0
   20.8866   18.7674   24.0918 H   0  0  0  0  0  0  0  0  0  0  0  0
   20.1694   20.2815   24.6233 H   0  0  0  0  0  0  0  0  0  0  0  0
   18.8565   18.5623   24.8658 C   0  0  0  0  0  0  0  0  0  0  0  0
   18.6584   17.6080   24.3615 H   0  0  0  0  0  0  0  0  0  0  0  0
   17.9142   19.1271   24.8469 H   0  0  0  0  0  0  0  0  0  0  0  0
   19.2465   18.2600   26.3319 C   0  0  0  0  0  0  0  0  0  0  0  0
   18.4769   17.6165   26.7788 H   0  0  0  0  0  0  0  0  0  0  0  0
   20.1848   17.6899   26.3543 H   0  0  0  0  0  0  0  0  0  0  0  0
   19.3925   19.5333   27.1862 C   0  0  0  0  0  0  0  0  0  0  0  0
   18.4586   20.1012   27.1628 H   0  0  0  0  0  0  0  0  0  0  0  0
   20.1891   20.1625   26.7812 H   0  0  0  0  0  0  0  0  0  0  0  0
   19.7249   19.2392   28.6347 N   0  3  0  0  0  0  0  0  0  0  0  0
   18.9991   18.6721   29.0854 H   0  0  0  0  0  0  0  0  0  0  0  0
   19.8177   20.0992   29.1865 H   0  0  0  0  0  0  0  0  0  0  0  0
   20.6088   18.7278   28.7274 H   0  0  0  0  0  0  0  0  0  0  0  0
  1  2  1  0  0  0  0
  1  3  1  0  0  0  0
  1  4  1  0  0  0  0
  1  5  1  0  0  0  0
  5  6  1  0  0  0  0
  5  7  1  0  0  0  0
  5  8  1  0  0  0  0
  8  9  1  0  0  0  0
  8 10  1  0  0  0  0
  8 11  1  0  0  0  0
 11 12  1  0  0  0  0
 11 13  1  0  0  0  0
 11 14  1  0  0  0  0
 14 15  1  0  0  0  0
 14 16  1  0  0  0  0
 14 17  1  0  0  0  0
 17 18  1  0  0  0  0
 17 19  1  0  0  0  0
 17 20  1  0  0  0  0
 20 21  1  0  0  0  0
 20 22  1  0  0  0  0
 20 23  1  0  0  0  0
 23 24  1  0  0  0  0
 23 25  1  0  0  0  0
 23 26  1  0  0  0  0
 26 27  1  0  0  0  0
 26 28  1  0  0  0  0
 26 29  1  0  0  0  0
M  END
> <VM2 Rank>
137

> <Conf_Id>
292

> <Probability>
0.19

> <Sum Probability>
91.79

> <Delta G>
1.974

> <G>
60.121

> <E>
22.724

> <-TS>
37.397

> <U+W>
-1.421

> <U>
49.967

> <W>
-51.387

> <W(PB)>
-53.926

> <W(SA)>
2.539

> <Valence>
4.059

> <Coulomb>
44.783

> <VdW>
1.124

> <VdW6>
-8.699

> <VdW12>
9.823

> <Bond>
0.258

> <Angle>
1.106

> <Pdih>
2.695

> <Idih>
0.000

> <Tether>
0.000

$$$$
VeraChem MOL file


 29 28  0  0  0  0  0  0  0  0999 V2000     
   19.9620   18.5547   19.7745 C   0  0  0  0  0  0  0  0  0  0  0  0
   20.1363   17.7872   19.0093 H   0  0  0  0  0  0  0  0  0  0  0  0
   19.3021   19.3172   19.3408 H   0  0  0  0  0  0  0  0  0  0  0  0
   20.9289   19.0223   19.9974 H   0  0  0  0  0  0  0  0  0  0  0  0
   19.3295   17.9253   21.0366 C   0  0  0  0  0  0  0  0  0  0  0  0
   20.0227   17.1919   21.4717 H   0  0  0  0  0  0  0  0  0  0  0  0
   18.4340   17.3624   20.7384 H   0  0  0  0  0  0  0  0  0  0  0  0
   18.9258   18.9651   22.1097 C   0  0  0  0  0  0  0  0  0  0  0  0
   18.2313   19.6948   21.6713 H   0  0  0  0  0  0  0  0  0  0  0  0
   18.3691   18.4401   22.8965 H   0  0  0  0  0  0  0  0  0  0  0  0
   20.1343   19.7046   22.7376 C   0  0  0  0  0  0  0  0  0  0  0  0
   20.6941   20.2234   21.9489 H   0  0  0  0  0  0  0  0  0  0  0  0
   20.8311   18.9760   23.1722 H   0  0  0  0  0  0  0  0  0  0  0  0
   19.7331   20.7572   23.8036 C   0  0  0  0  0  0  0  0  0  0  0  0
   20.6430   21.2580   24.1619 H   0  0  0  0  0  0  0  0  0  0  0  0
   19.1308   21.5396   23.3215 H   0  0  0  0  0  0  0  0  0  0  0  0
   18.9506   20.2086   25.0250 C   0  0  0  0  0  0  0  0  0  0  0  0
   17.9728   19.8252   24.7049 H   0  0  0  0  0  0  0  0  0  0  0  0
   18.7368   21.0469   25.7025 H   0  0  0  0  0  0  0  0  0  0  0  0
   19.7116   19.1131   25.8076 C   0  0  0  0  0  0  0  0  0  0  0  0
   19.8638   18.2322   25.1712 H   0  0  0  0  0  0  0  0  0  0  0  0
   20.7052   19.4845   26.0916 H   0  0  0  0  0  0  0  0  0  0  0  0
   18.9422   18.6910   27.0714 C   0  0  0  0  0  0  0  0  0  0  0  0
   17.9579   18.3057   26.7917 H   0  0  0  0  0  0  0  0  0  0  0  0
   18.8004   19.5576   27.7228 H   0  0  0  0  0  0  0  0  0  0  0  0
   19.6550   17.6183   27.8691 N   0  3  0  0  0  0  0  0  0  0  0  0
   20.5794   17.9291   28.1858 H   0  0  0  0  0  0  0  0  0  0  0  0
   19.7951   16.7637   27.3200 H   0  0  0  0  0  0  0  0  0  0  0  0
   19.1259   17.3521   28.7069 H   0  0  0  0  0  0  0  0  0  0  0  0
  1  2  1  0  0  0  0
  1  3  1  0  0  0  0
  1  4  1  0  0  0  0
  1  5  1  0  0  0  0
  5  6  1  0  0  0  0
  5  7  1  0  0  0  0
  5  8  1  0  0  0  0
  8  9  1  0  0  0  0
  8 10  1  0  0  0  0
  8 11  1  0  0  0  0
 11 12  1  0  0  0  0
 11 13  1  0  0  0  0
 11 14  1  0  0  0  0
 14 15  1  0  0  0  0
 14 16  1  0  0  0  0
 14 17  1  0  0  0  0
 17 18  1  0  0  0  0
 17 19  1  0  0  0  0
 17 20  1  0  0  0  0
 20 21  1  0  0  0  0
 20 22  1  0  0  0  0
 20 23  1  0  0  0  0
 23 24  1  0  0  0  0
 23 25  1  0  0  0  0
 23 26  1  0  0  0  0
 26 27  1  0  0  0  0
 26 28  1  0  0  0  0
 26 29  1  0  0  0  0
M  END
> <VM2 Rank>
138

> <Conf_Id>
1041

> <Probability>
0.17

> <Sum Probability>
91.96

> <Delta G>
2.039

> <G>
60.185

> <E>
22.476

> <-TS>
37.709

> <U+W>
-1.669

> <U>
50.232

> <W>
-51.900

> <W(PB)>
-54.358

> <W(SA)>
2.458

> <Valence>
4.148

> <Coulomb>
45.153

> <VdW>
0.932

> <VdW6>
-9.217

> <VdW12>
10.148

> <Bond>
0.273

> <Angle>
1.395

> <Pdih>
2.481

> <Idih>
0.000

> <Tether>
0.000

$$$$
VeraChem MOL file


 29 28  0  0  0  0  0  0  0  0999 V2000     
   18.6997   18.4726   20.0530 C   0  0  0  0  0  0  0  0  0  0  0  0
   18.0028   18.2918   20.8810 H   0  0  0  0  0  0  0  0  0  0  0  0
   18.1093   18.8130   19.1926 H   0  0  0  0  0  0  0  0  0  0  0  0
   19.1689   17.5178   19.7826 H   0  0  0  0  0  0  0  0  0  0  0  0
   19.7643   19.5272   20.4303 C   0  0  0  0  0  0  0  0  0  0  0  0
   19.2715   20.4655   20.7173 H   0  0  0  0  0  0  0  0  0  0  0  0
   20.3600   19.7630   19.5375 H   0  0  0  0  0  0  0  0  0  0  0  0
   20.7251   19.0597   21.5534 C   0  0  0  0  0  0  0  0  0  0  0  0
   21.3023   18.1991   21.1882 H   0  0  0  0  0  0  0  0  0  0  0  0
   21.4595   19.8543   21.7443 H   0  0  0  0  0  0  0  0  0  0  0  0
   20.0469   18.6682   22.8921 C   0  0  0  0  0  0  0  0  0  0  0  0
   20.8327   18.3258   23.5771 H   0  0  0  0  0  0  0  0  0  0  0  0
   19.3833   17.8072   22.7378 H   0  0  0  0  0  0  0  0  0  0  0  0
   19.2570   19.8286   23.5491 C   0  0  0  0  0  0  0  0  0  0  0  0
   19.9226   20.6882   23.7074 H   0  0  0  0  0  0  0  0  0  0  0  0
   18.4706   20.1679   22.8627 H   0  0  0  0  0  0  0  0  0  0  0  0
   18.5838   19.4388   24.8881 C   0  0  0  0  0  0  0  0  0  0  0  0
   17.9202   18.5773   24.7300 H   0  0  0  0  0  0  0  0  0  0  0  0
   17.9390   20.2696   25.2071 H   0  0  0  0  0  0  0  0  0  0  0  0
   19.5886   19.1234   26.0211 C   0  0  0  0  0  0  0  0  0  0  0  0
   20.1861   18.2402   25.7633 H   0  0  0  0  0  0  0  0  0  0  0  0
   20.2857   19.9633   26.1415 H   0  0  0  0  0  0  0  0  0  0  0  0
   18.8649   18.8650   27.3542 C   0  0  0  0  0  0  0  0  0  0  0  0
   18.1813   18.0189   27.2440 H   0  0  0  0  0  0  0  0  0  0  0  0
   18.2804   19.7460   27.6327 H   0  0  0  0  0  0  0  0  0  0  0  0
   19.8137   18.5544   28.4937 N   0  3  0  0  0  0  0  0  0  0  0  0
   20.3755   17.7174   28.3056 H   0  0  0  0  0  0  0  0  0  0  0  0
   19.3114   18.3860   29.3723 H   0  0  0  0  0  0  0  0  0  0  0  0
   20.4679   19.3249   28.6666 H   0  0  0  0  0  0  0  0  0  0  0  0
  1  2  1  0  0  0  0
  1  3  1  0  0  0  0
  1  4  1  0  0  0  0
  1  5  1  0  0  0  0
  5  6  1  0  0  0  0
  5  7  1  0  0  0  0
  5  8  1  0  0  0  0
  8  9  1  0  0  0  0
  8 10  1  0  0  0  0
  8 11  1  0  0  0  0
 11 12  1  0  0  0  0
 11 13  1  0  0  0  0
 11 14  1  0  0  0  0
 14 15  1  0  0  0  0
 14 16  1  0  0  0  0
 14 17  1  0  0  0  0
 17 18  1  0  0  0  0
 17 19  1  0  0  0  0
 17 20  1  0  0  0  0
 20 21  1  0  0  0  0
 20 22  1  0  0  0  0
 20 23  1  0  0  0  0
 23 24  1  0  0  0  0
 23 25  1  0  0  0  0
 23 26  1  0  0  0  0
 26 27  1  0  0  0  0
 26 28  1  0  0  0  0
 26 29  1  0  0  0  0
M  END
> <VM2 Rank>
139

> <Conf_Id>
2009

> <Probability>
0.17

> <Sum Probability>
92.13

> <Delta G>
2.059

> <G>
60.205

> <E>
22.535

> <-TS>
37.670

> <U+W>
-1.610

> <U>
49.922

> <W>
-51.532

> <W(PB)>
-53.995

> <W(SA)>
2.463

> <Valence>
4.160

> <Coulomb>
44.771

> <VdW>
0.992

> <VdW6>
-9.113

> <VdW12>
10.105

> <Bond>
0.273

> <Angle>
1.388

> <Pdih>
2.499

> <Idih>
0.000

> <Tether>
0.000

$$$$
VeraChem MOL file


 29 28  0  0  0  0  0  0  0  0999 V2000     
   19.7106   18.2348   19.6968 C   0  0  0  0  0  0  0  0  0  0  0  0
   19.0623   18.0148   18.8387 H   0  0  0  0  0  0  0  0  0  0  0  0
   20.5250   18.8825   19.3467 H   0  0  0  0  0  0  0  0  0  0  0  0
   20.1493   17.2885   20.0392 H   0  0  0  0  0  0  0  0  0  0  0  0
   18.9079   18.9147   20.8260 C   0  0  0  0  0  0  0  0  0  0  0  0
   18.0816   18.2581   21.1325 H   0  0  0  0  0  0  0  0  0  0  0  0
   18.4533   19.8395   20.4440 H   0  0  0  0  0  0  0  0  0  0  0  0
   19.7981   19.2361   22.0466 C   0  0  0  0  0  0  0  0  0  0  0  0
   20.2533   18.3066   22.4126 H   0  0  0  0  0  0  0  0  0  0  0  0
   20.6212   19.8946   21.7368 H   0  0  0  0  0  0  0  0  0  0  0  0
   18.9936   19.9132   23.1817 C   0  0  0  0  0  0  0  0  0  0  0  0
   18.1921   19.2433   23.5198 H   0  0  0  0  0  0  0  0  0  0  0  0
   18.4925   20.8052   22.7811 H   0  0  0  0  0  0  0  0  0  0  0  0
   19.8676   20.3455   24.3871 C   0  0  0  0  0  0  0  0  0  0  0  0
   20.5981   21.0921   24.0463 H   0  0  0  0  0  0  0  0  0  0  0  0
   19.2317   20.8662   25.1155 H   0  0  0  0  0  0  0  0  0  0  0  0
   20.6291   19.1949   25.0987 C   0  0  0  0  0  0  0  0  0  0  0  0
   21.1942   19.6154   25.9412 H   0  0  0  0  0  0  0  0  0  0  0  0
   21.3865   18.7814   24.4197 H   0  0  0  0  0  0  0  0  0  0  0  0
   19.7298   18.0406   25.6129 C   0  0  0  0  0  0  0  0  0  0  0  0
   19.2840   17.5125   24.7603 H   0  0  0  0  0  0  0  0  0  0  0  0
   20.3531   17.3005   26.1319 H   0  0  0  0  0  0  0  0  0  0  0  0
   18.6018   18.5018   26.5572 C   0  0  0  0  0  0  0  0  0  0  0  0
   17.9928   17.6405   26.8448 H   0  0  0  0  0  0  0  0  0  0  0  0
   17.9573   19.2171   26.0397 H   0  0  0  0  0  0  0  0  0  0  0  0
   19.1055   19.1564   27.8279 N   0  3  0  0  0  0  0  0  0  0  0  0
   19.6947   18.5202   28.3750 H   0  0  0  0  0  0  0  0  0  0  0  0
   18.3345   19.4509   28.4371 H   0  0  0  0  0  0  0  0  0  0  0  0
   19.6662   19.9899   27.6250 H   0  0  0  0  0  0  0  0  0  0  0  0
  1  2  1  0  0  0  0
  1  3  1  0  0  0  0
  1  4  1  0  0  0  0
  1  5  1  0  0  0  0
  5  6  1  0  0  0  0
  5  7  1  0  0  0  0
  5  8  1  0  0  0  0
  8  9  1  0  0  0  0
  8 10  1  0  0  0  0
  8 11  1  0  0  0  0
 11 12  1  0  0  0  0
 11 13  1  0  0  0  0
 11 14  1  0  0  0  0
 14 15  1  0  0  0  0
 14 16  1  0  0  0  0
 14 17  1  0  0  0  0
 17 18  1  0  0  0  0
 17 19  1  0  0  0  0
 17 20  1  0  0  0  0
 20 21  1  0  0  0  0
 20 22  1  0  0  0  0
 20 23  1  0  0  0  0
 23 24  1  0  0  0  0
 23 25  1  0  0  0  0
 23 26  1  0  0  0  0
 26 27  1  0  0  0  0
 26 28  1  0  0  0  0
 26 29  1  0  0  0  0
M  END
> <VM2 Rank>
140

> <Conf_Id>
447

> <Probability>
0.16

> <Sum Probability>
92.29

> <Delta G>
2.072

> <G>
60.218

> <E>
22.147

> <-TS>
38.071

> <U+W>
-1.998

> <U>
50.057

> <W>
-52.054

> <W(PB)>
-54.498

> <W(SA)>
2.444

> <Valence>
3.893

> <Coulomb>
45.518

> <VdW>
0.646

> <VdW6>
-10.245

> <VdW12>
10.891

> <Bond>
0.281

> <Angle>
1.301

> <Pdih>
2.310

> <Idih>
0.000

> <Tether>
0.000

$$$$
VeraChem MOL file


 29 28  0  0  0  0  0  0  0  0999 V2000     
   20.3808   17.7828   20.6077 C   0  0  0  0  0  0  0  0  0  0  0  0
   20.5659   17.3902   19.5995 H   0  0  0  0  0  0  0  0  0  0  0  0
   21.2895   18.3063   20.9299 H   0  0  0  0  0  0  0  0  0  0  0  0
   20.2203   16.9277   21.2771 H   0  0  0  0  0  0  0  0  0  0  0  0
   19.1548   18.7238   20.6049 C   0  0  0  0  0  0  0  0  0  0  0  0
   18.3001   18.1912   20.1650 H   0  0  0  0  0  0  0  0  0  0  0  0
   19.3508   19.5846   19.9505 H   0  0  0  0  0  0  0  0  0  0  0  0
   18.7590   19.2183   22.0168 C   0  0  0  0  0  0  0  0  0  0  0  0
   17.8232   19.7886   21.9388 H   0  0  0  0  0  0  0  0  0  0  0  0
   18.5424   18.3499   22.6528 H   0  0  0  0  0  0  0  0  0  0  0  0
   19.8396   20.1082   22.6808 C   0  0  0  0  0  0  0  0  0  0  0  0
   20.1224   20.9077   21.9825 H   0  0  0  0  0  0  0  0  0  0  0  0
   20.7525   19.5263   22.8587 H   0  0  0  0  0  0  0  0  0  0  0  0
   19.3720   20.7615   24.0070 C   0  0  0  0  0  0  0  0  0  0  0  0
   20.1854   21.3887   24.3971 H   0  0  0  0  0  0  0  0  0  0  0  0
   18.5416   21.4478   23.7912 H   0  0  0  0  0  0  0  0  0  0  0  0
   18.9243   19.7727   25.1146 C   0  0  0  0  0  0  0  0  0  0  0  0
   18.0353   19.2183   24.7856 H   0  0  0  0  0  0  0  0  0  0  0  0
   18.6073   20.3611   25.9856 H   0  0  0  0  0  0  0  0  0  0  0  0
   20.0323   18.7776   25.5413 C   0  0  0  0  0  0  0  0  0  0  0  0
   20.3223   18.1562   24.6848 H   0  0  0  0  0  0  0  0  0  0  0  0
   20.9315   19.3257   25.8523 H   0  0  0  0  0  0  0  0  0  0  0  0
   19.5824   17.8392   26.6776 C   0  0  0  0  0  0  0  0  0  0  0  0
   20.3653   17.1001   26.8683 H   0  0  0  0  0  0  0  0  0  0  0  0
   18.6759   17.3064   26.3780 H   0  0  0  0  0  0  0  0  0  0  0  0
   19.2987   18.5539   27.9842 N   0  3  0  0  0  0  0  0  0  0  0  0
   18.5443   19.2403   27.8851 H   0  0  0  0  0  0  0  0  0  0  0  0
   20.1230   19.0567   28.3293 H   0  0  0  0  0  0  0  0  0  0  0  0
   19.0153   17.8999   28.7222 H   0  0  0  0  0  0  0  0  0  0  0  0
  1  2  1  0  0  0  0
  1  3  1  0  0  0  0
  1  4  1  0  0  0  0
  1  5  1  0  0  0  0
  5  6  1  0  0  0  0
  5  7  1  0  0  0  0
  5  8  1  0  0  0  0
  8  9  1  0  0  0  0
  8 10  1  0  0  0  0
  8 11  1  0  0  0  0
 11 12  1  0  0  0  0
 11 13  1  0  0  0  0
 11 14  1  0  0  0  0
 14 15  1  0  0  0  0
 14 16  1  0  0  0  0
 14 17  1  0  0  0  0
 17 18  1  0  0  0  0
 17 19  1  0  0  0  0
 17 20  1  0  0  0  0
 20 21  1  0  0  0  0
 20 22  1  0  0  0  0
 20 23  1  0  0  0  0
 23 24  1  0  0  0  0
 23 25  1  0  0  0  0
 23 26  1  0  0  0  0
 26 27  1  0  0  0  0
 26 28  1  0  0  0  0
 26 29  1  0  0  0  0
M  END
> <VM2 Rank>
141

> <Conf_Id>
2320

> <Probability>
0.16

> <Sum Probability>
92.45

> <Delta G>
2.089

> <G>
60.235

> <E>
22.373

> <-TS>
37.862

> <U+W>
-1.772

> <U>
50.269

> <W>
-52.041

> <W(PB)>
-54.457

> <W(SA)>
2.416

> <Valence>
4.158

> <Coulomb>
45.150

> <VdW>
0.961

> <VdW6>
-9.873

> <VdW12>
10.835

> <Bond>
0.290

> <Angle>
1.330

> <Pdih>
2.538

> <Idih>
0.000

> <Tether>
0.000

$$$$
VeraChem MOL file


 29 28  0  0  0  0  0  0  0  0999 V2000     
   19.2278   19.8307   19.9549 C   0  0  0  0  0  0  0  0  0  0  0  0
   20.2738   19.7852   19.6248 H   0  0  0  0  0  0  0  0  0  0  0  0
   18.6023   19.9932   19.0676 H   0  0  0  0  0  0  0  0  0  0  0  0
   19.1101   20.7058   20.6060 H   0  0  0  0  0  0  0  0  0  0  0  0
   18.8156   18.5273   20.6758 C   0  0  0  0  0  0  0  0  0  0  0  0
   18.8337   17.7011   19.9514 H   0  0  0  0  0  0  0  0  0  0  0  0
   17.7760   18.6097   21.0224 H   0  0  0  0  0  0  0  0  0  0  0  0
   19.7368   18.1649   21.8655 C   0  0  0  0  0  0  0  0  0  0  0  0
   19.4403   17.1784   22.2481 H   0  0  0  0  0  0  0  0  0  0  0  0
   20.7711   18.0606   21.5098 H   0  0  0  0  0  0  0  0  0  0  0  0
   19.6830   19.1918   23.0217 C   0  0  0  0  0  0  0  0  0  0  0  0
   18.6383   19.3325   23.3280 H   0  0  0  0  0  0  0  0  0  0  0  0
   20.0502   20.1661   22.6736 H   0  0  0  0  0  0  0  0  0  0  0  0
   20.5308   18.7342   24.2325 C   0  0  0  0  0  0  0  0  0  0  0  0
   20.1417   17.7826   24.6184 H   0  0  0  0  0  0  0  0  0  0  0  0
   21.5553   18.5274   23.8932 H   0  0  0  0  0  0  0  0  0  0  0  0
   20.5963   19.7825   25.3730 C   0  0  0  0  0  0  0  0  0  0  0  0
   21.0783   20.6944   24.9944 H   0  0  0  0  0  0  0  0  0  0  0  0
   21.2573   19.4043   26.1643 H   0  0  0  0  0  0  0  0  0  0  0  0
   19.2247   20.1620   25.9903 C   0  0  0  0  0  0  0  0  0  0  0  0
   19.3838   20.8682   26.8160 H   0  0  0  0  0  0  0  0  0  0  0  0
   18.6219   20.7007   25.2481 H   0  0  0  0  0  0  0  0  0  0  0  0
   18.4160   18.9556   26.5074 C   0  0  0  0  0  0  0  0  0  0  0  0
   18.2212   18.2624   25.6849 H   0  0  0  0  0  0  0  0  0  0  0  0
   17.4545   19.3015   26.8962 H   0  0  0  0  0  0  0  0  0  0  0  0
   19.1129   18.1890   27.6138 N   0  3  0  0  0  0  0  0  0  0  0  0
   20.0151   17.8159   27.3023 H   0  0  0  0  0  0  0  0  0  0  0  0
   18.5522   17.3939   27.9389 H   0  0  0  0  0  0  0  0  0  0  0  0
   19.2953   18.7820   28.4300 H   0  0  0  0  0  0  0  0  0  0  0  0
  1  2  1  0  0  0  0
  1  3  1  0  0  0  0
  1  4  1  0  0  0  0
  1  5  1  0  0  0  0
  5  6  1  0  0  0  0
  5  7  1  0  0  0  0
  5  8  1  0  0  0  0
  8  9  1  0  0  0  0
  8 10  1  0  0  0  0
  8 11  1  0  0  0  0
 11 12  1  0  0  0  0
 11 13  1  0  0  0  0
 11 14  1  0  0  0  0
 14 15  1  0  0  0  0
 14 16  1  0  0  0  0
 14 17  1  0  0  0  0
 17 18  1  0  0  0  0
 17 19  1  0  0  0  0
 17 20  1  0  0  0  0
 20 21  1  0  0  0  0
 20 22  1  0  0  0  0
 20 23  1  0  0  0  0
 23 24  1  0  0  0  0
 23 25  1  0  0  0  0
 23 26  1  0  0  0  0
 26 27  1  0  0  0  0
 26 28  1  0  0  0  0
 26 29  1  0  0  0  0
M  END
> <VM2 Rank>
142

> <Conf_Id>
2613

> <Probability>
0.16

> <Sum Probability>
92.61

> <Delta G>
2.091

> <G>
60.237

> <E>
22.388

> <-TS>
37.849

> <U+W>
-1.757

> <U>
50.237

> <W>
-51.994

> <W(PB)>
-54.461

> <W(SA)>
2.466

> <Valence>
3.943

> <Coulomb>
45.443

> <VdW>
0.851

> <VdW6>
-9.878

> <VdW12>
10.728

> <Bond>
0.271

> <Angle>
1.194

> <Pdih>
2.478

> <Idih>
0.000

> <Tether>
0.000

$$$$
VeraChem MOL file


 29 28  0  0  0  0  0  0  0  0999 V2000     
   20.0903   19.8098   20.1833 C   0  0  0  0  0  0  0  0  0  0  0  0
   19.7962   19.1411   19.3640 H   0  0  0  0  0  0  0  0  0  0  0  0
   20.2924   20.7995   19.7537 H   0  0  0  0  0  0  0  0  0  0  0  0
   21.0290   19.4368   20.6113 H   0  0  0  0  0  0  0  0  0  0  0  0
   18.9778   19.9002   21.2519 C   0  0  0  0  0  0  0  0  0  0  0  0
   18.0953   20.3781   20.8044 H   0  0  0  0  0  0  0  0  0  0  0  0
   19.2989   20.5634   22.0662 H   0  0  0  0  0  0  0  0  0  0  0  0
   18.5581   18.5205   21.8193 C   0  0  0  0  0  0  0  0  0  0  0  0
   17.7294   18.6623   22.5254 H   0  0  0  0  0  0  0  0  0  0  0  0
   18.1468   17.9122   21.0021 H   0  0  0  0  0  0  0  0  0  0  0  0
   19.6932   17.7174   22.5101 C   0  0  0  0  0  0  0  0  0  0  0  0
   20.4381   17.4236   21.7586 H   0  0  0  0  0  0  0  0  0  0  0  0
   19.2743   16.7765   22.8924 H   0  0  0  0  0  0  0  0  0  0  0  0
   20.4138   18.4530   23.6691 C   0  0  0  0  0  0  0  0  0  0  0  0
   21.2015   17.7941   24.0597 H   0  0  0  0  0  0  0  0  0  0  0  0
   20.9282   19.3436   23.2846 H   0  0  0  0  0  0  0  0  0  0  0  0
   19.4700   18.8515   24.8286 C   0  0  0  0  0  0  0  0  0  0  0  0
   18.9291   17.9614   25.1763 H   0  0  0  0  0  0  0  0  0  0  0  0
   18.7166   19.5648   24.4690 H   0  0  0  0  0  0  0  0  0  0  0  0
   20.2469   19.4888   26.0046 C   0  0  0  0  0  0  0  0  0  0  0  0
   20.9809   18.7752   26.4020 H   0  0  0  0  0  0  0  0  0  0  0  0
   20.8165   20.3530   25.6377 H   0  0  0  0  0  0  0  0  0  0  0  0
   19.3215   19.9617   27.1420 C   0  0  0  0  0  0  0  0  0  0  0  0
   18.5860   20.6684   26.7485 H   0  0  0  0  0  0  0  0  0  0  0  0
   19.9152   20.4752   27.9032 H   0  0  0  0  0  0  0  0  0  0  0  0
   18.5724   18.8351   27.8261 N   0  3  0  0  0  0  0  0  0  0  0  0
   17.9660   18.3310   27.1716 H   0  0  0  0  0  0  0  0  0  0  0  0
   17.9747   19.1808   28.5849 H   0  0  0  0  0  0  0  0  0  0  0  0
   19.2123   18.1478   28.2376 H   0  0  0  0  0  0  0  0  0  0  0  0
  1  2  1  0  0  0  0
  1  3  1  0  0  0  0
  1  4  1  0  0  0  0
  1  5  1  0  0  0  0
  5  6  1  0  0  0  0
  5  7  1  0  0  0  0
  5  8  1  0  0  0  0
  8  9  1  0  0  0  0
  8 10  1  0  0  0  0
  8 11  1  0  0  0  0
 11 12  1  0  0  0  0
 11 13  1  0  0  0  0
 11 14  1  0  0  0  0
 14 15  1  0  0  0  0
 14 16  1  0  0  0  0
 14 17  1  0  0  0  0
 17 18  1  0  0  0  0
 17 19  1  0  0  0  0
 17 20  1  0  0  0  0
 20 21  1  0  0  0  0
 20 22  1  0  0  0  0
 20 23  1  0  0  0  0
 23 24  1  0  0  0  0
 23 25  1  0  0  0  0
 23 26  1  0  0  0  0
 26 27  1  0  0  0  0
 26 28  1  0  0  0  0
 26 29  1  0  0  0  0
M  END
> <VM2 Rank>
143

> <Conf_Id>
611

> <Probability>
0.15

> <Sum Probability>
92.76

> <Delta G>
2.106

> <G>
60.252

> <E>
22.189

> <-TS>
38.064

> <U+W>
-1.956

> <U>
50.133

> <W>
-52.089

> <W(PB)>
-54.534

> <W(SA)>
2.445

> <Valence>
4.088

> <Coulomb>
45.212

> <VdW>
0.833

> <VdW6>
-10.051

> <VdW12>
10.884

> <Bond>
0.287

> <Angle>
1.409

> <Pdih>
2.391

> <Idih>
0.000

> <Tether>
0.000

$$$$
VeraChem MOL file


 29 28  0  0  0  0  0  0  0  0999 V2000     
   20.8101   20.0557   20.6169 C   0  0  0  0  0  0  0  0  0  0  0  0
   21.7474   19.5780   20.9306 H   0  0  0  0  0  0  0  0  0  0  0  0
   20.9912   20.5499   19.6536 H   0  0  0  0  0  0  0  0  0  0  0  0
   20.5608   20.8366   21.3459 H   0  0  0  0  0  0  0  0  0  0  0  0
   19.6734   19.0168   20.4862 C   0  0  0  0  0  0  0  0  0  0  0  0
   19.9136   18.3316   19.6611 H   0  0  0  0  0  0  0  0  0  0  0  0
   18.7402   19.5235   20.2033 H   0  0  0  0  0  0  0  0  0  0  0  0
   19.4486   18.1853   21.7721 C   0  0  0  0  0  0  0  0  0  0  0  0
   18.7085   17.4026   21.5556 H   0  0  0  0  0  0  0  0  0  0  0  0
   20.3788   17.6657   22.0402 H   0  0  0  0  0  0  0  0  0  0  0  0
   18.9570   19.0281   22.9731 C   0  0  0  0  0  0  0  0  0  0  0  0
   18.0524   19.5819   22.6870 H   0  0  0  0  0  0  0  0  0  0  0  0
   19.7200   19.7716   23.2340 H   0  0  0  0  0  0  0  0  0  0  0  0
   18.6534   18.1440   24.2062 C   0  0  0  0  0  0  0  0  0  0  0  0
   17.9355   17.3634   23.9189 H   0  0  0  0  0  0  0  0  0  0  0  0
   19.5655   17.6171   24.5165 H   0  0  0  0  0  0  0  0  0  0  0  0
   18.0622   18.9332   25.4028 C   0  0  0  0  0  0  0  0  0  0  0  0
   17.8257   18.2272   26.2102 H   0  0  0  0  0  0  0  0  0  0  0  0
   17.1014   19.3732   25.1023 H   0  0  0  0  0  0  0  0  0  0  0  0
   18.9747   20.0579   25.9587 C   0  0  0  0  0  0  0  0  0  0  0  0
   19.0704   20.8581   25.2136 H   0  0  0  0  0  0  0  0  0  0  0  0
   18.4902   20.5174   26.8304 H   0  0  0  0  0  0  0  0  0  0  0  0
   20.3845   19.5795   26.3592 C   0  0  0  0  0  0  0  0  0  0  0  0
   20.9725   20.4321   26.7095 H   0  0  0  0  0  0  0  0  0  0  0  0
   20.8897   19.1519   25.4892 H   0  0  0  0  0  0  0  0  0  0  0  0
   20.3801   18.5376   27.4600 N   0  3  0  0  0  0  0  0  0  0  0  0
   19.9445   18.8930   28.3174 H   0  0  0  0  0  0  0  0  0  0  0  0
   21.3300   18.2390   27.7067 H   0  0  0  0  0  0  0  0  0  0  0  0
   19.8616   17.6986   27.1818 H   0  0  0  0  0  0  0  0  0  0  0  0
  1  2  1  0  0  0  0
  1  3  1  0  0  0  0
  1  4  1  0  0  0  0
  1  5  1  0  0  0  0
  5  6  1  0  0  0  0
  5  7  1  0  0  0  0
  5  8  1  0  0  0  0
  8  9  1  0  0  0  0
  8 10  1  0  0  0  0
  8 11  1  0  0  0  0
 11 12  1  0  0  0  0
 11 13  1  0  0  0  0
 11 14  1  0  0  0  0
 14 15  1  0  0  0  0
 14 16  1  0  0  0  0
 14 17  1  0  0  0  0
 17 18  1  0  0  0  0
 17 19  1  0  0  0  0
 17 20  1  0  0  0  0
 20 21  1  0  0  0  0
 20 22  1  0  0  0  0
 20 23  1  0  0  0  0
 23 24  1  0  0  0  0
 23 25  1  0  0  0  0
 23 26  1  0  0  0  0
 26 27  1  0  0  0  0
 26 28  1  0  0  0  0
 26 29  1  0  0  0  0
M  END
> <VM2 Rank>
144

> <Conf_Id>
2967

> <Probability>
0.15

> <Sum Probability>
92.92

> <Delta G>
2.108

> <G>
60.254

> <E>
22.406

> <-TS>
37.848

> <U+W>
-1.739

> <U>
50.314

> <W>
-52.053

> <W(PB)>
-54.516

> <W(SA)>
2.463

> <Valence>
3.941

> <Coulomb>
45.534

> <VdW>
0.839

> <VdW6>
-9.918

> <VdW12>
10.757

> <Bond>
0.274

> <Angle>
1.197

> <Pdih>
2.470

> <Idih>
0.000

> <Tether>
0.000

$$$$
VeraChem MOL file


 29 28  0  0  0  0  0  0  0  0999 V2000     
   20.2400   19.7218   19.7301 C   0  0  0  0  0  0  0  0  0  0  0  0
   21.1731   20.1635   20.1036 H   0  0  0  0  0  0  0  0  0  0  0  0
   20.4669   18.7198   19.3431 H   0  0  0  0  0  0  0  0  0  0  0  0
   19.8887   20.3358   18.8908 H   0  0  0  0  0  0  0  0  0  0  0  0
   19.1724   19.6577   20.8428 C   0  0  0  0  0  0  0  0  0  0  0  0
   18.2412   19.2442   20.4308 H   0  0  0  0  0  0  0  0  0  0  0  0
   18.9426   20.6759   21.1868 H   0  0  0  0  0  0  0  0  0  0  0  0
   19.6421   18.7979   22.0369 C   0  0  0  0  0  0  0  0  0  0  0  0
   19.8683   17.7804   21.6895 H   0  0  0  0  0  0  0  0  0  0  0  0
   20.5770   19.2154   22.4330 H   0  0  0  0  0  0  0  0  0  0  0  0
   18.5748   18.7370   23.1555 C   0  0  0  0  0  0  0  0  0  0  0  0
   17.6286   18.3789   22.7269 H   0  0  0  0  0  0  0  0  0  0  0  0
   18.3720   19.7486   23.5312 H   0  0  0  0  0  0  0  0  0  0  0  0
   18.9621   17.8024   24.3303 C   0  0  0  0  0  0  0  0  0  0  0  0
   18.1300   17.7721   25.0464 H   0  0  0  0  0  0  0  0  0  0  0  0
   19.0614   16.7764   23.9499 H   0  0  0  0  0  0  0  0  0  0  0  0
   20.2692   18.1839   25.0762 C   0  0  0  0  0  0  0  0  0  0  0  0
   21.1269   18.0523   24.4034 H   0  0  0  0  0  0  0  0  0  0  0  0
   20.4295   17.4680   25.8934 H   0  0  0  0  0  0  0  0  0  0  0  0
   20.2942   19.6254   25.6482 C   0  0  0  0  0  0  0  0  0  0  0  0
   21.2375   19.7840   26.1873 H   0  0  0  0  0  0  0  0  0  0  0  0
   20.2944   20.3494   24.8234 H   0  0  0  0  0  0  0  0  0  0  0  0
   19.1152   19.9436   26.5892 C   0  0  0  0  0  0  0  0  0  0  0  0
   18.1711   19.8174   26.0529 H   0  0  0  0  0  0  0  0  0  0  0  0
   19.1833   20.9838   26.9191 H   0  0  0  0  0  0  0  0  0  0  0  0
   19.0741   19.0684   27.8259 N   0  3  0  0  0  0  0  0  0  0  0  0
   18.2818   19.3035   28.4336 H   0  0  0  0  0  0  0  0  0  0  0  0
   19.9248   19.1672   28.3894 H   0  0  0  0  0  0  0  0  0  0  0  0
   18.9851   18.0770   27.5823 H   0  0  0  0  0  0  0  0  0  0  0  0
  1  2  1  0  0  0  0
  1  3  1  0  0  0  0
  1  4  1  0  0  0  0
  1  5  1  0  0  0  0
  5  6  1  0  0  0  0
  5  7  1  0  0  0  0
  5  8  1  0  0  0  0
  8  9  1  0  0  0  0
  8 10  1  0  0  0  0
  8 11  1  0  0  0  0
 11 12  1  0  0  0  0
 11 13  1  0  0  0  0
 11 14  1  0  0  0  0
 14 15  1  0  0  0  0
 14 16  1  0  0  0  0
 14 17  1  0  0  0  0
 17 18  1  0  0  0  0
 17 19  1  0  0  0  0
 17 20  1  0  0  0  0
 20 21  1  0  0  0  0
 20 22  1  0  0  0  0
 20 23  1  0  0  0  0
 23 24  1  0  0  0  0
 23 25  1  0  0  0  0
 23 26  1  0  0  0  0
 26 27  1  0  0  0  0
 26 28  1  0  0  0  0
 26 29  1  0  0  0  0
M  END
> <VM2 Rank>
145

> <Conf_Id>
593

> <Probability>
0.15

> <Sum Probability>
93.07

> <Delta G>
2.114

> <G>
60.260

> <E>
22.188

> <-TS>
38.071

> <U+W>
-1.956

> <U>
50.057

> <W>
-52.013

> <W(PB)>
-54.451

> <W(SA)>
2.439

> <Valence>
3.892

> <Coulomb>
45.518

> <VdW>
0.646

> <VdW6>
-10.245

> <VdW12>
10.892

> <Bond>
0.281

> <Angle>
1.301

> <Pdih>
2.310

> <Idih>
0.000

> <Tether>
0.000

$$$$
VeraChem MOL file


 29 28  0  0  0  0  0  0  0  0999 V2000     
   20.1029   18.2629   20.2790 C   0  0  0  0  0  0  0  0  0  0  0  0
   19.8690   17.4837   21.0151 H   0  0  0  0  0  0  0  0  0  0  0  0
   19.2763   18.3157   19.5587 H   0  0  0  0  0  0  0  0  0  0  0  0
   21.0025   17.9455   19.7360 H   0  0  0  0  0  0  0  0  0  0  0  0
   20.3353   19.6312   20.9585 C   0  0  0  0  0  0  0  0  0  0  0  0
   20.6810   20.3482   20.2009 H   0  0  0  0  0  0  0  0  0  0  0  0
   21.1519   19.5489   21.6882 H   0  0  0  0  0  0  0  0  0  0  0  0
   19.0658   20.2055   21.6376 C   0  0  0  0  0  0  0  0  0  0  0  0
   19.3080   21.1874   22.0670 H   0  0  0  0  0  0  0  0  0  0  0  0
   18.3058   20.3939   20.8669 H   0  0  0  0  0  0  0  0  0  0  0  0
   18.4430   19.3126   22.7416 C   0  0  0  0  0  0  0  0  0  0  0  0
   18.0912   18.3685   22.3050 H   0  0  0  0  0  0  0  0  0  0  0  0
   17.5479   19.8177   23.1298 H   0  0  0  0  0  0  0  0  0  0  0  0
   19.4060   19.0200   23.9168 C   0  0  0  0  0  0  0  0  0  0  0  0
   20.2698   18.4461   23.5565 H   0  0  0  0  0  0  0  0  0  0  0  0
   19.7930   19.9692   24.3102 H   0  0  0  0  0  0  0  0  0  0  0  0
   18.7063   18.2246   25.0446 C   0  0  0  0  0  0  0  0  0  0  0  0
   18.2803   17.3033   24.6238 H   0  0  0  0  0  0  0  0  0  0  0  0
   17.8578   18.8019   25.4356 H   0  0  0  0  0  0  0  0  0  0  0  0
   19.6614   17.8415   26.2027 C   0  0  0  0  0  0  0  0  0  0  0  0
   19.1119   17.2472   26.9447 H   0  0  0  0  0  0  0  0  0  0  0  0
   20.4558   17.1896   25.8158 H   0  0  0  0  0  0  0  0  0  0  0  0
   20.3120   19.0500   26.9057 C   0  0  0  0  0  0  0  0  0  0  0  0
   20.9013   19.6237   26.1857 H   0  0  0  0  0  0  0  0  0  0  0  0
   20.9862   18.6945   27.6896 H   0  0  0  0  0  0  0  0  0  0  0  0
   19.3113   19.9895   27.5486 N   0  3  0  0  0  0  0  0  0  0  0  0
   18.7445   19.5133   28.2579 H   0  0  0  0  0  0  0  0  0  0  0  0
   18.6652   20.3819   26.8566 H   0  0  0  0  0  0  0  0  0  0  0  0
   19.7732   20.7790   28.0131 H   0  0  0  0  0  0  0  0  0  0  0  0
  1  2  1  0  0  0  0
  1  3  1  0  0  0  0
  1  4  1  0  0  0  0
  1  5  1  0  0  0  0
  5  6  1  0  0  0  0
  5  7  1  0  0  0  0
  5  8  1  0  0  0  0
  8  9  1  0  0  0  0
  8 10  1  0  0  0  0
  8 11  1  0  0  0  0
 11 12  1  0  0  0  0
 11 13  1  0  0  0  0
 11 14  1  0  0  0  0
 14 15  1  0  0  0  0
 14 16  1  0  0  0  0
 14 17  1  0  0  0  0
 17 18  1  0  0  0  0
 17 19  1  0  0  0  0
 17 20  1  0  0  0  0
 20 21  1  0  0  0  0
 20 22  1  0  0  0  0
 20 23  1  0  0  0  0
 23 24  1  0  0  0  0
 23 25  1  0  0  0  0
 23 26  1  0  0  0  0
 26 27  1  0  0  0  0
 26 28  1  0  0  0  0
 26 29  1  0  0  0  0
M  END
> <VM2 Rank>
146

> <Conf_Id>
2445

> <Probability>
0.15

> <Sum Probability>
93.22

> <Delta G>
2.121

> <G>
60.268

> <E>
22.361

> <-TS>
37.907

> <U+W>
-1.784

> <U>
50.249

> <W>
-52.032

> <W(PB)>
-54.481

> <W(SA)>
2.449

> <Valence>
3.924

> <Coulomb>
45.456

> <VdW>
0.869

> <VdW6>
-9.872

> <VdW12>
10.741

> <Bond>
0.270

> <Angle>
1.270

> <Pdih>
2.384

> <Idih>
0.000

> <Tether>
0.000

$$$$
VeraChem MOL file


 29 28  0  0  0  0  0  0  0  0999 V2000     
   19.9290   17.5808   20.5617 C   0  0  0  0  0  0  0  0  0  0  0  0
   19.2321   17.1049   21.2627 H   0  0  0  0  0  0  0  0  0  0  0  0
   19.7708   17.1219   19.5772 H   0  0  0  0  0  0  0  0  0  0  0  0
   20.9528   17.3462   20.8809 H   0  0  0  0  0  0  0  0  0  0  0  0
   19.7061   19.1084   20.4882 C   0  0  0  0  0  0  0  0  0  0  0  0
   18.6666   19.3168   20.1988 H   0  0  0  0  0  0  0  0  0  0  0  0
   20.3366   19.5198   19.6877 H   0  0  0  0  0  0  0  0  0  0  0  0
   20.0389   19.8433   21.8091 C   0  0  0  0  0  0  0  0  0  0  0  0
   21.0843   19.6473   22.0845 H   0  0  0  0  0  0  0  0  0  0  0  0
   19.9627   20.9253   21.6343 H   0  0  0  0  0  0  0  0  0  0  0  0
   19.1085   19.4537   22.9826 C   0  0  0  0  0  0  0  0  0  0  0  0
   19.2266   18.3858   23.2031 H   0  0  0  0  0  0  0  0  0  0  0  0
   18.0616   19.6077   22.6876 H   0  0  0  0  0  0  0  0  0  0  0  0
   19.4143   20.2812   24.2539 C   0  0  0  0  0  0  0  0  0  0  0  0
   20.4498   20.1006   24.5719 H   0  0  0  0  0  0  0  0  0  0  0  0
   19.3551   21.3504   24.0079 H   0  0  0  0  0  0  0  0  0  0  0  0
   18.4407   19.9962   25.4266 C   0  0  0  0  0  0  0  0  0  0  0  0
   17.4223   20.2745   25.1225 H   0  0  0  0  0  0  0  0  0  0  0  0
   18.6920   20.6602   26.2646 H   0  0  0  0  0  0  0  0  0  0  0  0
   18.4295   18.5270   25.9245 C   0  0  0  0  0  0  0  0  0  0  0  0
   17.7515   18.4427   26.7841 H   0  0  0  0  0  0  0  0  0  0  0  0
   18.0087   17.8766   25.1470 H   0  0  0  0  0  0  0  0  0  0  0  0
   19.8188   17.9909   26.3236 C   0  0  0  0  0  0  0  0  0  0  0  0
   20.4928   18.0372   25.4642 H   0  0  0  0  0  0  0  0  0  0  0  0
   19.7310   16.9455   26.6315 H   0  0  0  0  0  0  0  0  0  0  0  0
   20.4581   18.7566   27.4648 N   0  3  0  0  0  0  0  0  0  0  0  0
   20.5902   19.7447   27.2274 H   0  0  0  0  0  0  0  0  0  0  0  0
   21.3795   18.3779   27.7096 H   0  0  0  0  0  0  0  0  0  0  0  0
   19.8840   18.7227   28.3135 H   0  0  0  0  0  0  0  0  0  0  0  0
  1  2  1  0  0  0  0
  1  3  1  0  0  0  0
  1  4  1  0  0  0  0
  1  5  1  0  0  0  0
  5  6  1  0  0  0  0
  5  7  1  0  0  0  0
  5  8  1  0  0  0  0
  8  9  1  0  0  0  0
  8 10  1  0  0  0  0
  8 11  1  0  0  0  0
 11 12  1  0  0  0  0
 11 13  1  0  0  0  0
 11 14  1  0  0  0  0
 14 15  1  0  0  0  0
 14 16  1  0  0  0  0
 14 17  1  0  0  0  0
 17 18  1  0  0  0  0
 17 19  1  0  0  0  0
 17 20  1  0  0  0  0
 20 21  1  0  0  0  0
 20 22  1  0  0  0  0
 20 23  1  0  0  0  0
 23 24  1  0  0  0  0
 23 25  1  0  0  0  0
 23 26  1  0  0  0  0
 26 27  1  0  0  0  0
 26 28  1  0  0  0  0
 26 29  1  0  0  0  0
M  END
> <VM2 Rank>
147

> <Conf_Id>
311

> <Probability>
0.15

> <Sum Probability>
93.37

> <Delta G>
2.122

> <G>
60.268

> <E>
22.419

> <-TS>
37.849

> <U+W>
-1.725

> <U>
50.314

> <W>
-52.039

> <W(PB)>
-54.487

> <W(SA)>
2.448

> <Valence>
3.941

> <Coulomb>
45.534

> <VdW>
0.839

> <VdW6>
-9.918

> <VdW12>
10.757

> <Bond>
0.274

> <Angle>
1.197

> <Pdih>
2.470

> <Idih>
0.000

> <Tether>
0.000

$$$$
VeraChem MOL file


 29 28  0  0  0  0  0  0  0  0999 V2000     
   19.2993   20.1611   20.0904 C   0  0  0  0  0  0  0  0  0  0  0  0
   18.8609   20.7080   20.9345 H   0  0  0  0  0  0  0  0  0  0  0  0
   20.2691   20.6161   19.8512 H   0  0  0  0  0  0  0  0  0  0  0  0
   18.6384   20.3032   19.2256 H   0  0  0  0  0  0  0  0  0  0  0  0
   19.4556   18.6575   20.4110 C   0  0  0  0  0  0  0  0  0  0  0  0
   19.7817   18.1343   19.5013 H   0  0  0  0  0  0  0  0  0  0  0  0
   18.4775   18.2294   20.6676 H   0  0  0  0  0  0  0  0  0  0  0  0
   20.4803   18.3701   21.5381 C   0  0  0  0  0  0  0  0  0  0  0  0
   20.5466   17.2836   21.6874 H   0  0  0  0  0  0  0  0  0  0  0  0
   21.4759   18.6877   21.1990 H   0  0  0  0  0  0  0  0  0  0  0  0
   20.1819   19.0484   22.9005 C   0  0  0  0  0  0  0  0  0  0  0  0
   20.2121   20.1403   22.7895 H   0  0  0  0  0  0  0  0  0  0  0  0
   20.9980   18.7913   23.5875 H   0  0  0  0  0  0  0  0  0  0  0  0
   18.8280   18.6213   23.5221 C   0  0  0  0  0  0  0  0  0  0  0  0
   18.0135   18.8816   22.8339 H   0  0  0  0  0  0  0  0  0  0  0  0
   18.8000   17.5290   23.6368 H   0  0  0  0  0  0  0  0  0  0  0  0
   18.5326   19.2948   24.8849 C   0  0  0  0  0  0  0  0  0  0  0  0
   17.5038   19.0451   25.1796 H   0  0  0  0  0  0  0  0  0  0  0  0
   18.5636   20.3872   24.7705 H   0  0  0  0  0  0  0  0  0  0  0  0
   19.4951   18.8602   26.0152 C   0  0  0  0  0  0  0  0  0  0  0  0
   19.5044   17.7649   26.0923 H   0  0  0  0  0  0  0  0  0  0  0  0
   20.5194   19.1780   25.7844 H   0  0  0  0  0  0  0  0  0  0  0  0
   19.0777   19.4639   27.3677 C   0  0  0  0  0  0  0  0  0  0  0  0
   18.0645   19.1388   27.6191 H   0  0  0  0  0  0  0  0  0  0  0  0
   19.0826   20.5552   27.3009 H   0  0  0  0  0  0  0  0  0  0  0  0
   19.9936   19.0608   28.5051 N   0  3  0  0  0  0  0  0  0  0  0  0
   19.6976   19.4732   29.3968 H   0  0  0  0  0  0  0  0  0  0  0  0
   20.9600   19.3626   28.3426 H   0  0  0  0  0  0  0  0  0  0  0  0
   20.0127   18.0442   28.6379 H   0  0  0  0  0  0  0  0  0  0  0  0
  1  2  1  0  0  0  0
  1  3  1  0  0  0  0
  1  4  1  0  0  0  0
  1  5  1  0  0  0  0
  5  6  1  0  0  0  0
  5  7  1  0  0  0  0
  5  8  1  0  0  0  0
  8  9  1  0  0  0  0
  8 10  1  0  0  0  0
  8 11  1  0  0  0  0
 11 12  1  0  0  0  0
 11 13  1  0  0  0  0
 11 14  1  0  0  0  0
 14 15  1  0  0  0  0
 14 16  1  0  0  0  0
 14 17  1  0  0  0  0
 17 18  1  0  0  0  0
 17 19  1  0  0  0  0
 17 20  1  0  0  0  0
 20 21  1  0  0  0  0
 20 22  1  0  0  0  0
 20 23  1  0  0  0  0
 23 24  1  0  0  0  0
 23 25  1  0  0  0  0
 23 26  1  0  0  0  0
 26 27  1  0  0  0  0
 26 28  1  0  0  0  0
 26 29  1  0  0  0  0
M  END
> <VM2 Rank>
148

> <Conf_Id>
2275

> <Probability>
0.15

> <Sum Probability>
93.52

> <Delta G>
2.139

> <G>
60.286

> <E>
22.615

> <-TS>
37.671

> <U+W>
-1.530

> <U>
49.922

> <W>
-51.451

> <W(PB)>
-53.951

> <W(SA)>
2.500

> <Valence>
4.160

> <Coulomb>
44.771

> <VdW>
0.992

> <VdW6>
-9.113

> <VdW12>
10.105

> <Bond>
0.273

> <Angle>
1.388

> <Pdih>
2.499

> <Idih>
0.000

> <Tether>
0.000

$$$$
VeraChem MOL file


 29 28  0  0  0  0  0  0  0  0999 V2000     
   20.5186   19.4279   20.3052 C   0  0  0  0  0  0  0  0  0  0  0  0
   19.8552   19.9385   19.5951 H   0  0  0  0  0  0  0  0  0  0  0  0
   20.8198   20.1495   21.0749 H   0  0  0  0  0  0  0  0  0  0  0  0
   21.4238   19.1261   19.7627 H   0  0  0  0  0  0  0  0  0  0  0  0
   19.8235   18.1956   20.9266 C   0  0  0  0  0  0  0  0  0  0  0  0
   20.4976   17.7140   21.6475 H   0  0  0  0  0  0  0  0  0  0  0  0
   19.6486   17.4523   20.1363 H   0  0  0  0  0  0  0  0  0  0  0  0
   18.4674   18.5273   21.6000 C   0  0  0  0  0  0  0  0  0  0  0  0
   17.7706   18.8928   20.8332 H   0  0  0  0  0  0  0  0  0  0  0  0
   18.0279   17.5976   21.9868 H   0  0  0  0  0  0  0  0  0  0  0  0
   18.5341   19.5683   22.7473 C   0  0  0  0  0  0  0  0  0  0  0  0
   17.5159   19.7281   23.1276 H   0  0  0  0  0  0  0  0  0  0  0  0
   18.8649   20.5384   22.3534 H   0  0  0  0  0  0  0  0  0  0  0  0
   19.4483   19.1391   23.9195 C   0  0  0  0  0  0  0  0  0  0  0  0
   19.1422   18.1444   24.2694 H   0  0  0  0  0  0  0  0  0  0  0  0
   20.4854   19.0511   23.5701 H   0  0  0  0  0  0  0  0  0  0  0  0
   19.3932   20.1522   25.0877 C   0  0  0  0  0  0  0  0  0  0  0  0
   18.3654   20.2264   25.4675 H   0  0  0  0  0  0  0  0  0  0  0  0
   19.6516   21.1511   24.7099 H   0  0  0  0  0  0  0  0  0  0  0  0
   20.3589   19.7989   26.2464 C   0  0  0  0  0  0  0  0  0  0  0  0
   21.3920   19.8166   25.8745 H   0  0  0  0  0  0  0  0  0  0  0  0
   20.2984   20.5766   27.0192 H   0  0  0  0  0  0  0  0  0  0  0  0
   20.0892   18.4244   26.8915 C   0  0  0  0  0  0  0  0  0  0  0  0
   20.8251   18.2422   27.6793 H   0  0  0  0  0  0  0  0  0  0  0  0
   20.1933   17.6366   26.1411 H   0  0  0  0  0  0  0  0  0  0  0  0
   18.7109   18.3044   27.5107 N   0  3  0  0  0  0  0  0  0  0  0  0
   17.9721   18.4367   26.8129 H   0  0  0  0  0  0  0  0  0  0  0  0
   18.5627   19.0030   28.2463 H   0  0  0  0  0  0  0  0  0  0  0  0
   18.5632   17.3830   27.9369 H   0  0  0  0  0  0  0  0  0  0  0  0
  1  2  1  0  0  0  0
  1  3  1  0  0  0  0
  1  4  1  0  0  0  0
  1  5  1  0  0  0  0
  5  6  1  0  0  0  0
  5  7  1  0  0  0  0
  5  8  1  0  0  0  0
  8  9  1  0  0  0  0
  8 10  1  0  0  0  0
  8 11  1  0  0  0  0
 11 12  1  0  0  0  0
 11 13  1  0  0  0  0
 11 14  1  0  0  0  0
 14 15  1  0  0  0  0
 14 16  1  0  0  0  0
 14 17  1  0  0  0  0
 17 18  1  0  0  0  0
 17 19  1  0  0  0  0
 17 20  1  0  0  0  0
 20 21  1  0  0  0  0
 20 22  1  0  0  0  0
 20 23  1  0  0  0  0
 23 24  1  0  0  0  0
 23 25  1  0  0  0  0
 23 26  1  0  0  0  0
 26 27  1  0  0  0  0
 26 28  1  0  0  0  0
 26 29  1  0  0  0  0
M  END
> <VM2 Rank>
149

> <Conf_Id>
2443

> <Probability>
0.14

> <Sum Probability>
93.66

> <Delta G>
2.146

> <G>
60.292

> <E>
22.385

> <-TS>
37.907

> <U+W>
-1.759

> <U>
50.249

> <W>
-52.008

> <W(PB)>
-54.457

> <W(SA)>
2.449

> <Valence>
3.924

> <Coulomb>
45.456

> <VdW>
0.869

> <VdW6>
-9.872

> <VdW12>
10.741

> <Bond>
0.270

> <Angle>
1.270

> <Pdih>
2.384

> <Idih>
0.000

> <Tether>
0.000

$$$$
VeraChem MOL file


 29 28  0  0  0  0  0  0  0  0999 V2000     
   19.5331   18.2432   20.1482 C   0  0  0  0  0  0  0  0  0  0  0  0
   19.0712   17.3661   19.6769 H   0  0  0  0  0  0  0  0  0  0  0  0
   19.7387   18.9793   19.3603 H   0  0  0  0  0  0  0  0  0  0  0  0
   20.4904   17.9226   20.5775 H   0  0  0  0  0  0  0  0  0  0  0  0
   18.5982   18.8330   21.2280 C   0  0  0  0  0  0  0  0  0  0  0  0
   18.4171   18.0843   22.0107 H   0  0  0  0  0  0  0  0  0  0  0  0
   17.6185   19.0377   20.7743 H   0  0  0  0  0  0  0  0  0  0  0  0
   19.1357   20.1441   21.8555 C   0  0  0  0  0  0  0  0  0  0  0  0
   19.2122   20.9073   21.0690 H   0  0  0  0  0  0  0  0  0  0  0  0
   18.3935   20.5294   22.5671 H   0  0  0  0  0  0  0  0  0  0  0  0
   20.5130   20.0222   22.5615 C   0  0  0  0  0  0  0  0  0  0  0  0
   20.7768   21.0003   22.9867 H   0  0  0  0  0  0  0  0  0  0  0  0
   21.2867   19.8094   21.8119 H   0  0  0  0  0  0  0  0  0  0  0  0
   20.5911   18.9517   23.6803 C   0  0  0  0  0  0  0  0  0  0  0  0
   20.4332   17.9524   23.2536 H   0  0  0  0  0  0  0  0  0  0  0  0
   21.6124   18.9493   24.0855 H   0  0  0  0  0  0  0  0  0  0  0  0
   19.5914   19.1929   24.8363 C   0  0  0  0  0  0  0  0  0  0  0  0
   18.5620   19.1303   24.4593 H   0  0  0  0  0  0  0  0  0  0  0  0
   19.7290   20.2099   25.2265 H   0  0  0  0  0  0  0  0  0  0  0  0
   19.7750   18.1622   25.9750 C   0  0  0  0  0  0  0  0  0  0  0  0
   19.6762   17.1478   25.5662 H   0  0  0  0  0  0  0  0  0  0  0  0
   20.7890   18.2358   26.3900 H   0  0  0  0  0  0  0  0  0  0  0  0
   18.7429   18.3352   27.1058 C   0  0  0  0  0  0  0  0  0  0  0  0
   18.8683   17.5325   27.8376 H   0  0  0  0  0  0  0  0  0  0  0  0
   17.7319   18.2677   26.6951 H   0  0  0  0  0  0  0  0  0  0  0  0
   18.8637   19.6535   27.8444 N   0  3  0  0  0  0  0  0  0  0  0  0
   19.7880   19.7656   28.2738 H   0  0  0  0  0  0  0  0  0  0  0  0
   18.1713   19.7330   28.5973 H   0  0  0  0  0  0  0  0  0  0  0  0
   18.7209   20.4527   27.2190 H   0  0  0  0  0  0  0  0  0  0  0  0
  1  2  1  0  0  0  0
  1  3  1  0  0  0  0
  1  4  1  0  0  0  0
  1  5  1  0  0  0  0
  5  6  1  0  0  0  0
  5  7  1  0  0  0  0
  5  8  1  0  0  0  0
  8  9  1  0  0  0  0
  8 10  1  0  0  0  0
  8 11  1  0  0  0  0
 11 12  1  0  0  0  0
 11 13  1  0  0  0  0
 11 14  1  0  0  0  0
 14 15  1  0  0  0  0
 14 16  1  0  0  0  0
 14 17  1  0  0  0  0
 17 18  1  0  0  0  0
 17 19  1  0  0  0  0
 17 20  1  0  0  0  0
 20 21  1  0  0  0  0
 20 22  1  0  0  0  0
 20 23  1  0  0  0  0
 23 24  1  0  0  0  0
 23 25  1  0  0  0  0
 23 26  1  0  0  0  0
 26 27  1  0  0  0  0
 26 28  1  0  0  0  0
 26 29  1  0  0  0  0
M  END
> <VM2 Rank>
150

> <Conf_Id>
607

> <Probability>
0.14

> <Sum Probability>
93.80

> <Delta G>
2.158

> <G>
60.304

> <E>
22.241

> <-TS>
38.063

> <U+W>
-1.903

> <U>
50.133

> <W>
-52.037

> <W(PB)>
-54.489

> <W(SA)>
2.453

> <Valence>
4.088

> <Coulomb>
45.212

> <VdW>
0.833

> <VdW6>
-10.050

> <VdW12>
10.884

> <Bond>
0.287

> <Angle>
1.409

> <Pdih>
2.391

> <Idih>
0.000

> <Tether>
0.000

$$$$
VeraChem MOL file


 29 28  0  0  0  0  0  0  0  0999 V2000     
   20.6300   18.6880   20.3896 C   0  0  0  0  0  0  0  0  0  0  0  0
   21.0100   19.6556   20.7402 H   0  0  0  0  0  0  0  0  0  0  0  0
   21.4956   18.0747   20.1077 H   0  0  0  0  0  0  0  0  0  0  0  0
   20.0315   18.8606   19.4858 H   0  0  0  0  0  0  0  0  0  0  0  0
   19.7959   17.9790   21.4802 C   0  0  0  0  0  0  0  0  0  0  0  0
   20.4108   17.8282   22.3775 H   0  0  0  0  0  0  0  0  0  0  0  0
   19.5300   16.9738   21.1246 H   0  0  0  0  0  0  0  0  0  0  0  0
   18.4931   18.7349   21.8446 C   0  0  0  0  0  0  0  0  0  0  0  0
   17.8518   18.7841   20.9539 H   0  0  0  0  0  0  0  0  0  0  0  0
   17.9305   18.1430   22.5785 H   0  0  0  0  0  0  0  0  0  0  0  0
   18.6950   20.1751   22.3881 C   0  0  0  0  0  0  0  0  0  0  0  0
   17.7115   20.5973   22.6363 H   0  0  0  0  0  0  0  0  0  0  0  0
   19.0944   20.8116   21.5873 H   0  0  0  0  0  0  0  0  0  0  0  0
   19.6181   20.2921   23.6283 C   0  0  0  0  0  0  0  0  0  0  0  0
   20.6356   19.9710   23.3694 H   0  0  0  0  0  0  0  0  0  0  0  0
   19.6966   21.3535   23.9010 H   0  0  0  0  0  0  0  0  0  0  0  0
   19.1118   19.4929   24.8527 C   0  0  0  0  0  0  0  0  0  0  0  0
   19.0865   18.4234   24.6094 H   0  0  0  0  0  0  0  0  0  0  0  0
   18.0810   19.7936   25.0859 H   0  0  0  0  0  0  0  0  0  0  0  0
   20.0080   19.7186   26.0931 C   0  0  0  0  0  0  0  0  0  0  0  0
   21.0356   19.3962   25.8784 H   0  0  0  0  0  0  0  0  0  0  0  0
   20.0565   20.7926   26.3165 H   0  0  0  0  0  0  0  0  0  0  0  0
   19.4889   18.9839   27.3441 C   0  0  0  0  0  0  0  0  0  0  0  0
   18.4628   19.2967   27.5554 H   0  0  0  0  0  0  0  0  0  0  0  0
   20.1103   19.2485   28.2040 H   0  0  0  0  0  0  0  0  0  0  0  0
   19.5032   17.4735   27.2144 N   0  3  0  0  0  0  0  0  0  0  0  0
   18.9075   17.1535   26.4445 H   0  0  0  0  0  0  0  0  0  0  0  0
   19.1644   17.0152   28.0675 H   0  0  0  0  0  0  0  0  0  0  0  0
   20.4477   17.1160   27.0369 H   0  0  0  0  0  0  0  0  0  0  0  0
  1  2  1  0  0  0  0
  1  3  1  0  0  0  0
  1  4  1  0  0  0  0
  1  5  1  0  0  0  0
  5  6  1  0  0  0  0
  5  7  1  0  0  0  0
  5  8  1  0  0  0  0
  8  9  1  0  0  0  0
  8 10  1  0  0  0  0
  8 11  1  0  0  0  0
 11 12  1  0  0  0  0
 11 13  1  0  0  0  0
 11 14  1  0  0  0  0
 14 15  1  0  0  0  0
 14 16  1  0  0  0  0
 14 17  1  0  0  0  0
 17 18  1  0  0  0  0
 17 19  1  0  0  0  0
 17 20  1  0  0  0  0
 20 21  1  0  0  0  0
 20 22  1  0  0  0  0
 20 23  1  0  0  0  0
 23 24  1  0  0  0  0
 23 25  1  0  0  0  0
 23 26  1  0  0  0  0
 26 27  1  0  0  0  0
 26 28  1  0  0  0  0
 26 29  1  0  0  0  0
M  END
> <VM2 Rank>
151

> <Conf_Id>
960

> <Probability>
0.14

> <Sum Probability>
93.94

> <Delta G>
2.169

> <G>
60.316

> <E>
22.250

> <-TS>
38.066

> <U+W>
-1.895

> <U>
50.557

> <W>
-52.451

> <W(PB)>
-54.892

> <W(SA)>
2.440

> <Valence>
4.083

> <Coulomb>
45.658

> <VdW>
0.816

> <VdW6>
-10.084

> <VdW12>
10.900

> <Bond>
0.289

> <Angle>
1.408

> <Pdih>
2.386

> <Idih>
0.000

> <Tether>
0.000

$$$$
VeraChem MOL file


 29 28  0  0  0  0  0  0  0  0999 V2000     
   21.1266   19.2860   20.8010 C   0  0  0  0  0  0  0  0  0  0  0  0
   21.9166   18.7369   20.2725 H   0  0  0  0  0  0  0  0  0  0  0  0
   21.0874   20.3015   20.3859 H   0  0  0  0  0  0  0  0  0  0  0  0
   21.4217   19.3560   21.8554 H   0  0  0  0  0  0  0  0  0  0  0  0
   19.7677   18.5679   20.6403 C   0  0  0  0  0  0  0  0  0  0  0  0
   19.8251   17.5637   21.0813 H   0  0  0  0  0  0  0  0  0  0  0  0
   19.5726   18.4153   19.5697 H   0  0  0  0  0  0  0  0  0  0  0  0
   18.5794   19.3535   21.2511 C   0  0  0  0  0  0  0  0  0  0  0  0
   18.4680   20.3046   20.7125 H   0  0  0  0  0  0  0  0  0  0  0  0
   17.6525   18.7933   21.0665 H   0  0  0  0  0  0  0  0  0  0  0  0
   18.6949   19.6515   22.7682 C   0  0  0  0  0  0  0  0  0  0  0  0
   17.8067   20.2190   23.0779 H   0  0  0  0  0  0  0  0  0  0  0  0
   19.5538   20.3102   22.9463 H   0  0  0  0  0  0  0  0  0  0  0  0
   18.8077   18.3747   23.6389 C   0  0  0  0  0  0  0  0  0  0  0  0
   18.0013   17.6818   23.3619 H   0  0  0  0  0  0  0  0  0  0  0  0
   19.7508   17.8548   23.4247 H   0  0  0  0  0  0  0  0  0  0  0  0
   18.7156   18.6533   25.1591 C   0  0  0  0  0  0  0  0  0  0  0  0
   18.6780   17.6883   25.6815 H   0  0  0  0  0  0  0  0  0  0  0  0
   17.7683   19.1630   25.3834 H   0  0  0  0  0  0  0  0  0  0  0  0
   19.9003   19.4888   25.7056 C   0  0  0  0  0  0  0  0  0  0  0  0
   20.8517   18.9976   25.4619 H   0  0  0  0  0  0  0  0  0  0  0  0
   19.9191   20.4709   25.2170 H   0  0  0  0  0  0  0  0  0  0  0  0
   19.8142   19.7168   27.2270 C   0  0  0  0  0  0  0  0  0  0  0  0
   18.8597   20.1887   27.4752 H   0  0  0  0  0  0  0  0  0  0  0  0
   20.6183   20.3891   27.5386 H   0  0  0  0  0  0  0  0  0  0  0  0
   19.9376   18.4455   28.0438 N   0  3  0  0  0  0  0  0  0  0  0  0
   20.8274   17.9666   27.8700 H   0  0  0  0  0  0  0  0  0  0  0  0
   19.1882   17.7811   27.8269 H   0  0  0  0  0  0  0  0  0  0  0  0
   19.8900   18.6340   29.0511 H   0  0  0  0  0  0  0  0  0  0  0  0
  1  2  1  0  0  0  0
  1  3  1  0  0  0  0
  1  4  1  0  0  0  0
  1  5  1  0  0  0  0
  5  6  1  0  0  0  0
  5  7  1  0  0  0  0
  5  8  1  0  0  0  0
  8  9  1  0  0  0  0
  8 10  1  0  0  0  0
  8 11  1  0  0  0  0
 11 12  1  0  0  0  0
 11 13  1  0  0  0  0
 11 14  1  0  0  0  0
 14 15  1  0  0  0  0
 14 16  1  0  0  0  0
 14 17  1  0  0  0  0
 17 18  1  0  0  0  0
 17 19  1  0  0  0  0
 17 20  1  0  0  0  0
 20 21  1  0  0  0  0
 20 22  1  0  0  0  0
 20 23  1  0  0  0  0
 23 24  1  0  0  0  0
 23 25  1  0  0  0  0
 23 26  1  0  0  0  0
 26 27  1  0  0  0  0
 26 28  1  0  0  0  0
 26 29  1  0  0  0  0
M  END
> <VM2 Rank>
152

> <Conf_Id>
1370

> <Probability>
0.14

> <Sum Probability>
94.08

> <Delta G>
2.184

> <G>
60.331

> <E>
22.508

> <-TS>
37.822

> <U+W>
-1.636

> <U>
50.199

> <W>
-51.835

> <W(PB)>
-54.265

> <W(SA)>
2.430

> <Valence>
4.164

> <Coulomb>
45.026

> <VdW>
1.009

> <VdW6>
-9.773

> <VdW12>
10.783

> <Bond>
0.289

> <Angle>
1.298

> <Pdih>
2.577

> <Idih>
0.000

> <Tether>
0.000

$$$$
VeraChem MOL file


 29 28  0  0  0  0  0  0  0  0999 V2000     
   20.6574   17.9691   20.7714 C   0  0  0  0  0  0  0  0  0  0  0  0
   19.9910   17.2244   20.3171 H   0  0  0  0  0  0  0  0  0  0  0  0
   21.6239   17.9158   20.2540 H   0  0  0  0  0  0  0  0  0  0  0  0
   20.8268   17.6866   21.8180 H   0  0  0  0  0  0  0  0  0  0  0  0
   20.0606   19.3901   20.6587 C   0  0  0  0  0  0  0  0  0  0  0  0
   20.0210   19.6740   19.5978 H   0  0  0  0  0  0  0  0  0  0  0  0
   20.7336   20.1135   21.1382 H   0  0  0  0  0  0  0  0  0  0  0  0
   18.6347   19.5090   21.2546 C   0  0  0  0  0  0  0  0  0  0  0  0
   18.2733   20.5357   21.1054 H   0  0  0  0  0  0  0  0  0  0  0  0
   17.9549   18.8647   20.6803 H   0  0  0  0  0  0  0  0  0  0  0  0
   18.5145   19.1451   22.7569 C   0  0  0  0  0  0  0  0  0  0  0  0
   18.7612   18.0854   22.8966 H   0  0  0  0  0  0  0  0  0  0  0  0
   17.4632   19.2549   23.0564 H   0  0  0  0  0  0  0  0  0  0  0  0
   19.3965   20.0276   23.6758 C   0  0  0  0  0  0  0  0  0  0  0  0
   20.4589   19.8424   23.4691 H   0  0  0  0  0  0  0  0  0  0  0  0
   19.2134   21.0844   23.4380 H   0  0  0  0  0  0  0  0  0  0  0  0
   19.1276   19.8098   25.1850 C   0  0  0  0  0  0  0  0  0  0  0  0
   18.0683   20.0047   25.4022 H   0  0  0  0  0  0  0  0  0  0  0  0
   19.7008   20.5599   25.7457 H   0  0  0  0  0  0  0  0  0  0  0  0
   19.5103   18.3928   25.6811 C   0  0  0  0  0  0  0  0  0  0  0  0
   18.9115   17.6400   25.1536 H   0  0  0  0  0  0  0  0  0  0  0  0
   20.5615   18.1818   25.4439 H   0  0  0  0  0  0  0  0  0  0  0  0
   19.2777   18.2103   27.1933 C   0  0  0  0  0  0  0  0  0  0  0  0
   19.4718   17.1695   27.4666 H   0  0  0  0  0  0  0  0  0  0  0  0
   18.2362   18.4381   27.4358 H   0  0  0  0  0  0  0  0  0  0  0  0
   20.1647   19.0842   28.0582 N   0  3  0  0  0  0  0  0  0  0  0  0
   19.9942   18.9284   29.0578 H   0  0  0  0  0  0  0  0  0  0  0  0
   20.0067   20.0806   27.8784 H   0  0  0  0  0  0  0  0  0  0  0  0
   21.1594   18.8997   27.8913 H   0  0  0  0  0  0  0  0  0  0  0  0
  1  2  1  0  0  0  0
  1  3  1  0  0  0  0
  1  4  1  0  0  0  0
  1  5  1  0  0  0  0
  5  6  1  0  0  0  0
  5  7  1  0  0  0  0
  5  8  1  0  0  0  0
  8  9  1  0  0  0  0
  8 10  1  0  0  0  0
  8 11  1  0  0  0  0
 11 12  1  0  0  0  0
 11 13  1  0  0  0  0
 11 14  1  0  0  0  0
 14 15  1  0  0  0  0
 14 16  1  0  0  0  0
 14 17  1  0  0  0  0
 17 18  1  0  0  0  0
 17 19  1  0  0  0  0
 17 20  1  0  0  0  0
 20 21  1  0  0  0  0
 20 22  1  0  0  0  0
 20 23  1  0  0  0  0
 23 24  1  0  0  0  0
 23 25  1  0  0  0  0
 23 26  1  0  0  0  0
 26 27  1  0  0  0  0
 26 28  1  0  0  0  0
 26 29  1  0  0  0  0
M  END
> <VM2 Rank>
153

> <Conf_Id>
696

> <Probability>
0.13

> <Sum Probability>
94.21

> <Delta G>
2.191

> <G>
60.337

> <E>
22.515

> <-TS>
37.823

> <U+W>
-1.630

> <U>
50.198

> <W>
-51.828

> <W(PB)>
-54.256

> <W(SA)>
2.428

> <Valence>
4.164

> <Coulomb>
45.026

> <VdW>
1.009

> <VdW6>
-9.773

> <VdW12>
10.782

> <Bond>
0.289

> <Angle>
1.298

> <Pdih>
2.577

> <Idih>
0.000

> <Tether>
0.000

$$$$
VeraChem MOL file


 29 28  0  0  0  0  0  0  0  0999 V2000     
   20.8566   19.5879   20.3847 C   0  0  0  0  0  0  0  0  0  0  0  0
   21.0627   20.3429   19.6151 H   0  0  0  0  0  0  0  0  0  0  0  0
   21.2557   19.9664   21.3340 H   0  0  0  0  0  0  0  0  0  0  0  0
   21.4074   18.6766   20.1181 H   0  0  0  0  0  0  0  0  0  0  0  0
   19.3392   19.3117   20.4795 C   0  0  0  0  0  0  0  0  0  0  0  0
   18.9640   19.0528   19.4796 H   0  0  0  0  0  0  0  0  0  0  0  0
   18.8122   20.2309   20.7678 H   0  0  0  0  0  0  0  0  0  0  0  0
   18.9813   18.1596   21.4529 C   0  0  0  0  0  0  0  0  0  0  0  0
   17.8923   18.0147   21.4445 H   0  0  0  0  0  0  0  0  0  0  0  0
   19.4114   17.2252   21.0669 H   0  0  0  0  0  0  0  0  0  0  0  0
   19.4525   18.3530   22.9178 C   0  0  0  0  0  0  0  0  0  0  0  0
   20.5488   18.3983   22.9555 H   0  0  0  0  0  0  0  0  0  0  0  0
   19.1670   17.4561   23.4820 H   0  0  0  0  0  0  0  0  0  0  0  0
   18.8514   19.6072   23.6016 C   0  0  0  0  0  0  0  0  0  0  0  0
   19.1414   20.5034   23.0381 H   0  0  0  0  0  0  0  0  0  0  0  0
   17.7544   19.5599   23.5660 H   0  0  0  0  0  0  0  0  0  0  0  0
   19.3167   19.7946   25.0665 C   0  0  0  0  0  0  0  0  0  0  0  0
   18.9518   20.7673   25.4247 H   0  0  0  0  0  0  0  0  0  0  0  0
   20.4133   19.8458   25.0947 H   0  0  0  0  0  0  0  0  0  0  0  0
   18.8105   18.6869   26.0240 C   0  0  0  0  0  0  0  0  0  0  0  0
   17.7229   18.5808   25.9157 H   0  0  0  0  0  0  0  0  0  0  0  0
   19.2502   17.7175   25.7581 H   0  0  0  0  0  0  0  0  0  0  0  0
   19.1261   18.9934   27.5005 C   0  0  0  0  0  0  0  0  0  0  0  0
   18.6817   18.2216   28.1349 H   0  0  0  0  0  0  0  0  0  0  0  0
   18.6895   19.9566   27.7780 H   0  0  0  0  0  0  0  0  0  0  0  0
   20.6098   19.0437   27.8074 N   0  3  0  0  0  0  0  0  0  0  0  0
   21.0737   18.1558   27.5894 H   0  0  0  0  0  0  0  0  0  0  0  0
   20.7871   19.2397   28.7988 H   0  0  0  0  0  0  0  0  0  0  0  0
   21.0836   19.7743   27.2670 H   0  0  0  0  0  0  0  0  0  0  0  0
  1  2  1  0  0  0  0
  1  3  1  0  0  0  0
  1  4  1  0  0  0  0
  1  5  1  0  0  0  0
  5  6  1  0  0  0  0
  5  7  1  0  0  0  0
  5  8  1  0  0  0  0
  8  9  1  0  0  0  0
  8 10  1  0  0  0  0
  8 11  1  0  0  0  0
 11 12  1  0  0  0  0
 11 13  1  0  0  0  0
 11 14  1  0  0  0  0
 14 15  1  0  0  0  0
 14 16  1  0  0  0  0
 14 17  1  0  0  0  0
 17 18  1  0  0  0  0
 17 19  1  0  0  0  0
 17 20  1  0  0  0  0
 20 21  1  0  0  0  0
 20 22  1  0  0  0  0
 20 23  1  0  0  0  0
 23 24  1  0  0  0  0
 23 25  1  0  0  0  0
 23 26  1  0  0  0  0
 26 27  1  0  0  0  0
 26 28  1  0  0  0  0
 26 29  1  0  0  0  0
M  END
> <VM2 Rank>
154

> <Conf_Id>
1339

> <Probability>
0.12

> <Sum Probability>
94.33

> <Delta G>
2.235

> <G>
60.381

> <E>
22.593

> <-TS>
37.789

> <U+W>
-1.552

> <U>
50.446

> <W>
-51.998

> <W(PB)>
-54.455

> <W(SA)>
2.457

> <Valence>
4.249

> <Coulomb>
45.120

> <VdW>
1.076

> <VdW6>
-9.657

> <VdW12>
10.734

> <Bond>
0.293

> <Angle>
1.397

> <Pdih>
2.559

> <Idih>
0.000

> <Tether>
0.000

$$$$
VeraChem MOL file


 29 28  0  0  0  0  0  0  0  0999 V2000     
   20.9957   17.9932   21.0989 C   0  0  0  0  0  0  0  0  0  0  0  0
   20.6102   17.1635   21.7043 H   0  0  0  0  0  0  0  0  0  0  0  0
   21.4345   17.5622   20.1897 H   0  0  0  0  0  0  0  0  0  0  0  0
   21.8011   18.4841   21.6604 H   0  0  0  0  0  0  0  0  0  0  0  0
   19.8787   18.9979   20.7364 C   0  0  0  0  0  0  0  0  0  0  0  0
   19.0724   18.4775   20.2010 H   0  0  0  0  0  0  0  0  0  0  0  0
   20.2841   19.7407   20.0352 H   0  0  0  0  0  0  0  0  0  0  0  0
   19.2990   19.7390   21.9649 C   0  0  0  0  0  0  0  0  0  0  0  0
   20.1102   20.2731   22.4770 H   0  0  0  0  0  0  0  0  0  0  0  0
   18.5958   20.5058   21.6121 H   0  0  0  0  0  0  0  0  0  0  0  0
   18.5677   18.8014   22.9582 C   0  0  0  0  0  0  0  0  0  0  0  0
   19.2744   18.0821   23.3903 H   0  0  0  0  0  0  0  0  0  0  0  0
   17.8270   18.2056   22.4076 H   0  0  0  0  0  0  0  0  0  0  0  0
   17.8377   19.5600   24.0962 C   0  0  0  0  0  0  0  0  0  0  0  0
   17.0556   20.1940   23.6565 H   0  0  0  0  0  0  0  0  0  0  0  0
   17.3077   18.8312   24.7241 H   0  0  0  0  0  0  0  0  0  0  0  0
   18.7482   20.4436   24.9910 C   0  0  0  0  0  0  0  0  0  0  0  0
   18.1303   20.8986   25.7774 H   0  0  0  0  0  0  0  0  0  0  0  0
   19.1407   21.2825   24.4011 H   0  0  0  0  0  0  0  0  0  0  0  0
   19.9304   19.6948   25.6547 C   0  0  0  0  0  0  0  0  0  0  0  0
   20.6277   19.3377   24.8860 H   0  0  0  0  0  0  0  0  0  0  0  0
   20.4938   20.4025   26.2771 H   0  0  0  0  0  0  0  0  0  0  0  0
   19.4695   18.5126   26.5268 C   0  0  0  0  0  0  0  0  0  0  0  0
   18.9374   17.7843   25.9093 H   0  0  0  0  0  0  0  0  0  0  0  0
   18.7871   18.8714   27.3020 H   0  0  0  0  0  0  0  0  0  0  0  0
   20.6170   17.7956   27.2079 N   0  3  0  0  0  0  0  0  0  0  0  0
   21.2829   17.4106   26.5300 H   0  0  0  0  0  0  0  0  0  0  0  0
   20.2886   17.0122   27.7833 H   0  0  0  0  0  0  0  0  0  0  0  0
   21.1434   18.4208   27.8272 H   0  0  0  0  0  0  0  0  0  0  0  0
  1  2  1  0  0  0  0
  1  3  1  0  0  0  0
  1  4  1  0  0  0  0
  1  5  1  0  0  0  0
  5  6  1  0  0  0  0
  5  7  1  0  0  0  0
  5  8  1  0  0  0  0
  8  9  1  0  0  0  0
  8 10  1  0  0  0  0
  8 11  1  0  0  0  0
 11 12  1  0  0  0  0
 11 13  1  0  0  0  0
 11 14  1  0  0  0  0
 14 15  1  0  0  0  0
 14 16  1  0  0  0  0
 14 17  1  0  0  0  0
 17 18  1  0  0  0  0
 17 19  1  0  0  0  0
 17 20  1  0  0  0  0
 20 21  1  0  0  0  0
 20 22  1  0  0  0  0
 20 23  1  0  0  0  0
 23 24  1  0  0  0  0
 23 25  1  0  0  0  0
 23 26  1  0  0  0  0
 26 27  1  0  0  0  0
 26 28  1  0  0  0  0
 26 29  1  0  0  0  0
M  END
> <VM2 Rank>
155

> <Conf_Id>
965

> <Probability>
0.12

> <Sum Probability>
94.46

> <Delta G>
2.237

> <G>
60.383

> <E>
22.374

> <-TS>
38.009

> <U+W>
-1.771

> <U>
50.712

> <W>
-52.482

> <W(PB)>
-54.901

> <W(SA)>
2.418

> <Valence>
4.258

> <Coulomb>
45.781

> <VdW>
0.673

> <VdW6>
-10.326

> <VdW12>
10.999

> <Bond>
0.292

> <Angle>
1.417

> <Pdih>
2.549

> <Idih>
0.000

> <Tether>
0.000

$$$$
VeraChem MOL file


 29 28  0  0  0  0  0  0  0  0999 V2000     
   20.8541   18.0061   20.9022 C   0  0  0  0  0  0  0  0  0  0  0  0
   21.3610   17.7806   19.9551 H   0  0  0  0  0  0  0  0  0  0  0  0
   21.5879   17.8946   21.7109 H   0  0  0  0  0  0  0  0  0  0  0  0
   20.0690   17.2530   21.0436 H   0  0  0  0  0  0  0  0  0  0  0  0
   20.2697   19.4366   20.8756 C   0  0  0  0  0  0  0  0  0  0  0  0
   19.5189   19.5148   20.0769 H   0  0  0  0  0  0  0  0  0  0  0  0
   21.0710   20.1420   20.6147 H   0  0  0  0  0  0  0  0  0  0  0  0
   19.6469   19.8689   22.2246 C   0  0  0  0  0  0  0  0  0  0  0  0
   20.4133   19.8084   23.0083 H   0  0  0  0  0  0  0  0  0  0  0  0
   19.3564   20.9261   22.1537 H   0  0  0  0  0  0  0  0  0  0  0  0
   18.4077   19.0296   22.6254 C   0  0  0  0  0  0  0  0  0  0  0  0
   18.6974   17.9855   22.7971 H   0  0  0  0  0  0  0  0  0  0  0  0
   17.7002   19.0133   21.7851 H   0  0  0  0  0  0  0  0  0  0  0  0
   17.6699   19.5763   23.8747 C   0  0  0  0  0  0  0  0  0  0  0  0
   17.2731   20.5750   23.6457 H   0  0  0  0  0  0  0  0  0  0  0  0
   16.7938   18.9434   24.0720 H   0  0  0  0  0  0  0  0  0  0  0  0
   18.5276   19.6643   25.1634 C   0  0  0  0  0  0  0  0  0  0  0  0
   17.8983   20.0627   25.9712 H   0  0  0  0  0  0  0  0  0  0  0  0
   19.3347   20.3942   25.0208 H   0  0  0  0  0  0  0  0  0  0  0  0
   19.1136   18.3013   25.6084 C   0  0  0  0  0  0  0  0  0  0  0  0
   18.3046   17.5616   25.6731 H   0  0  0  0  0  0  0  0  0  0  0  0
   19.8242   17.9271   24.8605 H   0  0  0  0  0  0  0  0  0  0  0  0
   19.8166   18.3783   26.9770 C   0  0  0  0  0  0  0  0  0  0  0  0
   20.1390   17.3774   27.2765 H   0  0  0  0  0  0  0  0  0  0  0  0
   19.1170   18.7512   27.7298 H   0  0  0  0  0  0  0  0  0  0  0  0
   21.0378   19.2765   26.9839 N   0  3  0  0  0  0  0  0  0  0  0  0
   20.7979   20.2433   26.7434 H   0  0  0  0  0  0  0  0  0  0  0  0
   21.7450   18.9621   26.3115 H   0  0  0  0  0  0  0  0  0  0  0  0
   21.4884   19.2986   27.9053 H   0  0  0  0  0  0  0  0  0  0  0  0
  1  2  1  0  0  0  0
  1  3  1  0  0  0  0
  1  4  1  0  0  0  0
  1  5  1  0  0  0  0
  5  6  1  0  0  0  0
  5  7  1  0  0  0  0
  5  8  1  0  0  0  0
  8  9  1  0  0  0  0
  8 10  1  0  0  0  0
  8 11  1  0  0  0  0
 11 12  1  0  0  0  0
 11 13  1  0  0  0  0
 11 14  1  0  0  0  0
 14 15  1  0  0  0  0
 14 16  1  0  0  0  0
 14 17  1  0  0  0  0
 17 18  1  0  0  0  0
 17 19  1  0  0  0  0
 17 20  1  0  0  0  0
 20 21  1  0  0  0  0
 20 22  1  0  0  0  0
 20 23  1  0  0  0  0
 23 24  1  0  0  0  0
 23 25  1  0  0  0  0
 23 26  1  0  0  0  0
 26 27  1  0  0  0  0
 26 28  1  0  0  0  0
 26 29  1  0  0  0  0
M  END
> <VM2 Rank>
156

> <Conf_Id>
1372

> <Probability>
0.12

> <Sum Probability>
94.58

> <Delta G>
2.248

> <G>
60.394

> <E>
22.520

> <-TS>
37.874

> <U+W>
-1.624

> <U>
50.862

> <W>
-52.486

> <W(PB)>
-54.909

> <W(SA)>
2.422

> <Valence>
4.116

> <Coulomb>
45.896

> <VdW>
0.851

> <VdW6>
-9.985

> <VdW12>
10.835

> <Bond>
0.285

> <Angle>
1.253

> <Pdih>
2.578

> <Idih>
0.000

> <Tether>
0.000

$$$$
VeraChem MOL file


 29 28  0  0  0  0  0  0  0  0999 V2000     
   20.6565   18.7622   20.3913 C   0  0  0  0  0  0  0  0  0  0  0  0
   20.0964   19.0427   19.4899 H   0  0  0  0  0  0  0  0  0  0  0  0
   21.7188   18.7010   20.1218 H   0  0  0  0  0  0  0  0  0  0  0  0
   20.3344   17.7592   20.6979 H   0  0  0  0  0  0  0  0  0  0  0  0
   20.4428   19.7949   21.5208 C   0  0  0  0  0  0  0  0  0  0  0  0
   20.8770   20.7550   21.2092 H   0  0  0  0  0  0  0  0  0  0  0  0
   21.0018   19.4875   22.4147 H   0  0  0  0  0  0  0  0  0  0  0  0
   18.9504   20.0187   21.8733 C   0  0  0  0  0  0  0  0  0  0  0  0
   18.8781   20.8032   22.6380 H   0  0  0  0  0  0  0  0  0  0  0  0
   18.4350   20.4211   20.9905 H   0  0  0  0  0  0  0  0  0  0  0  0
   18.1890   18.7548   22.3564 C   0  0  0  0  0  0  0  0  0  0  0  0
   18.1076   18.0416   21.5255 H   0  0  0  0  0  0  0  0  0  0  0  0
   17.1567   19.0397   22.6015 H   0  0  0  0  0  0  0  0  0  0  0  0
   18.8128   18.0317   23.5778 C   0  0  0  0  0  0  0  0  0  0  0  0
   18.1991   17.1498   23.8070 H   0  0  0  0  0  0  0  0  0  0  0  0
   19.8080   17.6476   23.3174 H   0  0  0  0  0  0  0  0  0  0  0  0
   18.9083   18.9217   24.8399 C   0  0  0  0  0  0  0  0  0  0  0  0
   17.9162   19.3310   25.0757 H   0  0  0  0  0  0  0  0  0  0  0  0
   19.5679   19.7752   24.6395 H   0  0  0  0  0  0  0  0  0  0  0  0
   19.4429   18.1316   26.0576 C   0  0  0  0  0  0  0  0  0  0  0  0
   18.7988   17.2606   26.2375 H   0  0  0  0  0  0  0  0  0  0  0  0
   20.4459   17.7404   25.8412 H   0  0  0  0  0  0  0  0  0  0  0  0
   19.4872   18.9785   27.3439 C   0  0  0  0  0  0  0  0  0  0  0  0
   19.7896   18.3470   28.1837 H   0  0  0  0  0  0  0  0  0  0  0  0
   18.4913   19.3762   27.5574 H   0  0  0  0  0  0  0  0  0  0  0  0
   20.4543   20.1439   27.2740 N   0  3  0  0  0  0  0  0  0  0  0  0
   21.4146   19.8311   27.0973 H   0  0  0  0  0  0  0  0  0  0  0  0
   20.4693   20.6788   28.1494 H   0  0  0  0  0  0  0  0  0  0  0  0
   20.2054   20.7987   26.5260 H   0  0  0  0  0  0  0  0  0  0  0  0
  1  2  1  0  0  0  0
  1  3  1  0  0  0  0
  1  4  1  0  0  0  0
  1  5  1  0  0  0  0
  5  6  1  0  0  0  0
  5  7  1  0  0  0  0
  5  8  1  0  0  0  0
  8  9  1  0  0  0  0
  8 10  1  0  0  0  0
  8 11  1  0  0  0  0
 11 12  1  0  0  0  0
 11 13  1  0  0  0  0
 11 14  1  0  0  0  0
 14 15  1  0  0  0  0
 14 16  1  0  0  0  0
 14 17  1  0  0  0  0
 17 18  1  0  0  0  0
 17 19  1  0  0  0  0
 17 20  1  0  0  0  0
 20 21  1  0  0  0  0
 20 22  1  0  0  0  0
 20 23  1  0  0  0  0
 23 24  1  0  0  0  0
 23 25  1  0  0  0  0
 23 26  1  0  0  0  0
 26 27  1  0  0  0  0
 26 28  1  0  0  0  0
 26 29  1  0  0  0  0
M  END
> <VM2 Rank>
157

> <Conf_Id>
2237

> <Probability>
0.12

> <Sum Probability>
94.70

> <Delta G>
2.249

> <G>
60.395

> <E>
22.329

> <-TS>
38.066

> <U+W>
-1.815

> <U>
50.557

> <W>
-52.372

> <W(PB)>
-54.828

> <W(SA)>
2.456

> <Valence>
4.083

> <Coulomb>
45.658

> <VdW>
0.816

> <VdW6>
-10.085

> <VdW12>
10.901

> <Bond>
0.289

> <Angle>
1.408

> <Pdih>
2.386

> <Idih>
0.000

> <Tether>
0.000

$$$$
VeraChem MOL file


 29 28  0  0  0  0  0  0  0  0999 V2000     
   21.2537   19.1279   20.9272 C   0  0  0  0  0  0  0  0  0  0  0  0
   21.8813   18.7185   21.7294 H   0  0  0  0  0  0  0  0  0  0  0  0
   21.8025   19.0194   19.9828 H   0  0  0  0  0  0  0  0  0  0  0  0
   21.1193   20.2013   21.1092 H   0  0  0  0  0  0  0  0  0  0  0  0
   19.8972   18.3910   20.8522 C   0  0  0  0  0  0  0  0  0  0  0  0
   20.0760   17.3490   20.5523 H   0  0  0  0  0  0  0  0  0  0  0  0
   19.2773   18.8366   20.0617 H   0  0  0  0  0  0  0  0  0  0  0  0
   19.1223   18.3967   22.1916 C   0  0  0  0  0  0  0  0  0  0  0  0
   18.2300   17.7651   22.0830 H   0  0  0  0  0  0  0  0  0  0  0  0
   19.7433   17.9281   22.9663 H   0  0  0  0  0  0  0  0  0  0  0  0
   18.6871   19.8136   22.6428 C   0  0  0  0  0  0  0  0  0  0  0  0
   18.1611   20.3068   21.8140 H   0  0  0  0  0  0  0  0  0  0  0  0
   19.5691   20.4318   22.8517 H   0  0  0  0  0  0  0  0  0  0  0  0
   17.7523   19.8074   23.8798 C   0  0  0  0  0  0  0  0  0  0  0  0
   17.4708   20.8432   24.1144 H   0  0  0  0  0  0  0  0  0  0  0  0
   16.8168   19.2945   23.6171 H   0  0  0  0  0  0  0  0  0  0  0  0
   18.3430   19.1461   25.1518 C   0  0  0  0  0  0  0  0  0  0  0  0
   18.5090   18.0768   24.9690 H   0  0  0  0  0  0  0  0  0  0  0  0
   17.5922   19.2036   25.9520 H   0  0  0  0  0  0  0  0  0  0  0  0
   19.6522   19.8129   25.6421 C   0  0  0  0  0  0  0  0  0  0  0  0
   20.4499   19.6829   24.8997 H   0  0  0  0  0  0  0  0  0  0  0  0
   19.4922   20.8941   25.7475 H   0  0  0  0  0  0  0  0  0  0  0  0
   20.1289   19.2548   26.9966 C   0  0  0  0  0  0  0  0  0  0  0  0
   19.3406   19.3788   27.7439 H   0  0  0  0  0  0  0  0  0  0  0  0
   21.0072   19.8137   27.3309 H   0  0  0  0  0  0  0  0  0  0  0  0
   20.5071   17.7875   26.9507 N   0  3  0  0  0  0  0  0  0  0  0  0
   20.8293   17.4491   27.8641 H   0  0  0  0  0  0  0  0  0  0  0  0
   21.2632   17.6103   26.2814 H   0  0  0  0  0  0  0  0  0  0  0  0
   19.7135   17.2005   26.6756 H   0  0  0  0  0  0  0  0  0  0  0  0
  1  2  1  0  0  0  0
  1  3  1  0  0  0  0
  1  4  1  0  0  0  0
  1  5  1  0  0  0  0
  5  6  1  0  0  0  0
  5  7  1  0  0  0  0
  5  8  1  0  0  0  0
  8  9  1  0  0  0  0
  8 10  1  0  0  0  0
  8 11  1  0  0  0  0
 11 12  1  0  0  0  0
 11 13  1  0  0  0  0
 11 14  1  0  0  0  0
 14 15  1  0  0  0  0
 14 16  1  0  0  0  0
 14 17  1  0  0  0  0
 17 18  1  0  0  0  0
 17 19  1  0  0  0  0
 17 20  1  0  0  0  0
 20 21  1  0  0  0  0
 20 22  1  0  0  0  0
 20 23  1  0  0  0  0
 23 24  1  0  0  0  0
 23 25  1  0  0  0  0
 23 26  1  0  0  0  0
 26 27  1  0  0  0  0
 26 28  1  0  0  0  0
 26 29  1  0  0  0  0
M  END
> <VM2 Rank>
158

> <Conf_Id>
2587

> <Probability>
0.12

> <Sum Probability>
94.82

> <Delta G>
2.250

> <G>
60.396

> <E>
22.521

> <-TS>
37.875

> <U+W>
-1.623

> <U>
50.862

> <W>
-52.485

> <W(PB)>
-54.915

> <W(SA)>
2.430

> <Valence>
4.116

> <Coulomb>
45.895

> <VdW>
0.851

> <VdW6>
-9.985

> <VdW12>
10.835

> <Bond>
0.285

> <Angle>
1.253

> <Pdih>
2.578

> <Idih>
0.000

> <Tether>
0.000

$$$$
VeraChem MOL file


 29 28  0  0  0  0  0  0  0  0999 V2000     
   20.8610   19.2263   20.0872 C   0  0  0  0  0  0  0  0  0  0  0  0
   21.2521   20.0888   20.6411 H   0  0  0  0  0  0  0  0  0  0  0  0
   21.4152   18.3334   20.4044 H   0  0  0  0  0  0  0  0  0  0  0  0
   21.0733   19.3932   19.0233 H   0  0  0  0  0  0  0  0  0  0  0  0
   19.3429   19.0477   20.3145 C   0  0  0  0  0  0  0  0  0  0  0  0
   18.9767   18.2497   19.6535 H   0  0  0  0  0  0  0  0  0  0  0  0
   18.8140   19.9629   20.0138 H   0  0  0  0  0  0  0  0  0  0  0  0
   18.9799   18.6890   21.7756 C   0  0  0  0  0  0  0  0  0  0  0  0
   17.9021   18.4822   21.8270 H   0  0  0  0  0  0  0  0  0  0  0  0
   19.4897   17.7570   22.0522 H   0  0  0  0  0  0  0  0  0  0  0  0
   19.3302   19.8097   22.7869 C   0  0  0  0  0  0  0  0  0  0  0  0
   18.9201   20.7611   22.4211 H   0  0  0  0  0  0  0  0  0  0  0  0
   20.4188   19.9418   22.8406 H   0  0  0  0  0  0  0  0  0  0  0  0
   18.7775   19.5532   24.2104 C   0  0  0  0  0  0  0  0  0  0  0  0
   18.9659   20.4503   24.8146 H   0  0  0  0  0  0  0  0  0  0  0  0
   17.6861   19.4353   24.1652 H   0  0  0  0  0  0  0  0  0  0  0  0
   19.4083   18.3191   24.9040 C   0  0  0  0  0  0  0  0  0  0  0  0
   20.5013   18.4222   24.9238 H   0  0  0  0  0  0  0  0  0  0  0  0
   19.1966   17.4178   24.3144 H   0  0  0  0  0  0  0  0  0  0  0  0
   18.8740   18.0883   26.3401 C   0  0  0  0  0  0  0  0  0  0  0  0
   17.7911   17.9110   26.2990 H   0  0  0  0  0  0  0  0  0  0  0  0
   19.3187   17.1710   26.7485 H   0  0  0  0  0  0  0  0  0  0  0  0
   19.1481   19.2548   27.3110 C   0  0  0  0  0  0  0  0  0  0  0  0
   18.7241   19.0186   28.2907 H   0  0  0  0  0  0  0  0  0  0  0  0
   18.6660   20.1641   26.9435 H   0  0  0  0  0  0  0  0  0  0  0  0
   20.6221   19.5499   27.5053 N   0  3  0  0  0  0  0  0  0  0  0  0
   21.1262   18.7386   27.8777 H   0  0  0  0  0  0  0  0  0  0  0  0
   20.7727   20.3245   28.1609 H   0  0  0  0  0  0  0  0  0  0  0  0
   21.0735   19.8091   26.6225 H   0  0  0  0  0  0  0  0  0  0  0  0
  1  2  1  0  0  0  0
  1  3  1  0  0  0  0
  1  4  1  0  0  0  0
  1  5  1  0  0  0  0
  5  6  1  0  0  0  0
  5  7  1  0  0  0  0
  5  8  1  0  0  0  0
  8  9  1  0  0  0  0
  8 10  1  0  0  0  0
  8 11  1  0  0  0  0
 11 12  1  0  0  0  0
 11 13  1  0  0  0  0
 11 14  1  0  0  0  0
 14 15  1  0  0  0  0
 14 16  1  0  0  0  0
 14 17  1  0  0  0  0
 17 18  1  0  0  0  0
 17 19  1  0  0  0  0
 17 20  1  0  0  0  0
 20 21  1  0  0  0  0
 20 22  1  0  0  0  0
 20 23  1  0  0  0  0
 23 24  1  0  0  0  0
 23 25  1  0  0  0  0
 23 26  1  0  0  0  0
 26 27  1  0  0  0  0
 26 28  1  0  0  0  0
 26 29  1  0  0  0  0
M  END
> <VM2 Rank>
159

> <Conf_Id>
2297

> <Probability>
0.12

> <Sum Probability>
94.94

> <Delta G>
2.253

> <G>
60.399

> <E>
22.715

> <-TS>
37.684

> <U+W>
-1.430

> <U>
50.438

> <W>
-51.868

> <W(PB)>
-54.345

> <W(SA)>
2.477

> <Valence>
4.026

> <Coulomb>
45.352

> <VdW>
1.061

> <VdW6>
-9.537

> <VdW12>
10.598

> <Bond>
0.273

> <Angle>
1.127

> <Pdih>
2.625

> <Idih>
0.000

> <Tether>
0.000

$$$$
VeraChem MOL file


 29 28  0  0  0  0  0  0  0  0999 V2000     
   20.5192   19.4415   19.8543 C   0  0  0  0  0  0  0  0  0  0  0  0
   20.7522   20.4161   19.4060 H   0  0  0  0  0  0  0  0  0  0  0  0
   21.4674   18.9622   20.1309 H   0  0  0  0  0  0  0  0  0  0  0  0
   20.0353   18.8244   19.0860 H   0  0  0  0  0  0  0  0  0  0  0  0
   19.6050   19.6129   21.0857 C   0  0  0  0  0  0  0  0  0  0  0  0
   18.6782   20.1208   20.7845 H   0  0  0  0  0  0  0  0  0  0  0  0
   20.1054   20.2664   21.8126 H   0  0  0  0  0  0  0  0  0  0  0  0
   19.2661   18.2520   21.7380 C   0  0  0  0  0  0  0  0  0  0  0  0
   18.8377   17.5879   20.9747 H   0  0  0  0  0  0  0  0  0  0  0  0
   20.1884   17.7626   22.0773 H   0  0  0  0  0  0  0  0  0  0  0  0
   18.2576   18.3587   22.9112 C   0  0  0  0  0  0  0  0  0  0  0  0
   18.0564   17.3493   23.2956 H   0  0  0  0  0  0  0  0  0  0  0  0
   17.2988   18.7273   22.5214 H   0  0  0  0  0  0  0  0  0  0  0  0
   18.6957   19.2669   24.0894 C   0  0  0  0  0  0  0  0  0  0  0  0
   18.7874   20.3062   23.7478 H   0  0  0  0  0  0  0  0  0  0  0  0
   17.8885   19.2650   24.8334 H   0  0  0  0  0  0  0  0  0  0  0  0
   20.0186   18.8170   24.7596 C   0  0  0  0  0  0  0  0  0  0  0  0
   20.8319   18.8482   24.0230 H   0  0  0  0  0  0  0  0  0  0  0  0
   19.9355   17.7702   25.0803 H   0  0  0  0  0  0  0  0  0  0  0  0
   20.4267   19.7070   25.9605 C   0  0  0  0  0  0  0  0  0  0  0  0
   21.3958   19.3675   26.3495 H   0  0  0  0  0  0  0  0  0  0  0  0
   20.5811   20.7367   25.6115 H   0  0  0  0  0  0  0  0  0  0  0  0
   19.4008   19.7231   27.1118 C   0  0  0  0  0  0  0  0  0  0  0  0
   18.4446   20.1103   26.7510 H   0  0  0  0  0  0  0  0  0  0  0  0
   19.7568   20.3852   27.9058 H   0  0  0  0  0  0  0  0  0  0  0  0
   19.1542   18.3589   27.7246 N   0  3  0  0  0  0  0  0  0  0  0  0
   20.0142   17.9537   28.1086 H   0  0  0  0  0  0  0  0  0  0  0  0
   18.7886   17.6965   27.0333 H   0  0  0  0  0  0  0  0  0  0  0  0
   18.4739   18.4025   28.4912 H   0  0  0  0  0  0  0  0  0  0  0  0
  1  2  1  0  0  0  0
  1  3  1  0  0  0  0
  1  4  1  0  0  0  0
  1  5  1  0  0  0  0
  5  6  1  0  0  0  0
  5  7  1  0  0  0  0
  5  8  1  0  0  0  0
  8  9  1  0  0  0  0
  8 10  1  0  0  0  0
  8 11  1  0  0  0  0
 11 12  1  0  0  0  0
 11 13  1  0  0  0  0
 11 14  1  0  0  0  0
 14 15  1  0  0  0  0
 14 16  1  0  0  0  0
 14 17  1  0  0  0  0
 17 18  1  0  0  0  0
 17 19  1  0  0  0  0
 17 20  1  0  0  0  0
 20 21  1  0  0  0  0
 20 22  1  0  0  0  0
 20 23  1  0  0  0  0
 23 24  1  0  0  0  0
 23 25  1  0  0  0  0
 23 26  1  0  0  0  0
 26 27  1  0  0  0  0
 26 28  1  0  0  0  0
 26 29  1  0  0  0  0
M  END
> <VM2 Rank>
160

> <Conf_Id>
989

> <Probability>
0.12

> <Sum Probability>
95.06

> <Delta G>
2.268

> <G>
60.415

> <E>
22.506

> <-TS>
37.909

> <U+W>
-1.638

> <U>
50.350

> <W>
-51.989

> <W(PB)>
-54.421

> <W(SA)>
2.433

> <Valence>
4.001

> <Coulomb>
45.464

> <VdW>
0.885

> <VdW6>
-9.931

> <VdW12>
10.816

> <Bond>
0.283

> <Angle>
1.376

> <Pdih>
2.342

> <Idih>
0.000

> <Tether>
0.000

$$$$
VeraChem MOL file


 29 28  0  0  0  0  0  0  0  0999 V2000     
   21.3687   19.0410   21.1216 C   0  0  0  0  0  0  0  0  0  0  0  0
   21.6748   18.1298   21.6517 H   0  0  0  0  0  0  0  0  0  0  0  0
   21.9937   19.1334   20.2240 H   0  0  0  0  0  0  0  0  0  0  0  0
   21.5859   19.9028   21.7648 H   0  0  0  0  0  0  0  0  0  0  0  0
   19.8733   18.9834   20.7357 C   0  0  0  0  0  0  0  0  0  0  0  0
   19.7278   18.1801   20.0000 H   0  0  0  0  0  0  0  0  0  0  0  0
   19.5847   19.9170   20.2329 H   0  0  0  0  0  0  0  0  0  0  0  0
   18.9387   18.7273   21.9422 C   0  0  0  0  0  0  0  0  0  0  0  0
   17.9142   18.5920   21.5694 H   0  0  0  0  0  0  0  0  0  0  0  0
   19.2227   17.7811   22.4210 H   0  0  0  0  0  0  0  0  0  0  0  0
   18.9506   19.8757   22.9821 C   0  0  0  0  0  0  0  0  0  0  0  0
   18.7608   20.8269   22.4661 H   0  0  0  0  0  0  0  0  0  0  0  0
   19.9467   19.9688   23.4322 H   0  0  0  0  0  0  0  0  0  0  0  0
   17.8896   19.7048   24.0994 C   0  0  0  0  0  0  0  0  0  0  0  0
   17.9305   20.5789   24.7631 H   0  0  0  0  0  0  0  0  0  0  0  0
   16.8890   19.7256   23.6460 H   0  0  0  0  0  0  0  0  0  0  0  0
   18.0242   18.4100   24.9456 C   0  0  0  0  0  0  0  0  0  0  0  0
   17.8068   17.5360   24.3173 H   0  0  0  0  0  0  0  0  0  0  0  0
   17.2466   18.4169   25.7218 H   0  0  0  0  0  0  0  0  0  0  0  0
   19.4041   18.2164   25.6218 C   0  0  0  0  0  0  0  0  0  0  0  0
   19.3848   17.2879   26.2075 H   0  0  0  0  0  0  0  0  0  0  0  0
   20.1811   18.0830   24.8582 H   0  0  0  0  0  0  0  0  0  0  0  0
   19.7811   19.3882   26.5468 C   0  0  0  0  0  0  0  0  0  0  0  0
   19.0144   19.5108   27.3165 H   0  0  0  0  0  0  0  0  0  0  0  0
   19.8379   20.3127   25.9663 H   0  0  0  0  0  0  0  0  0  0  0  0
   21.1136   19.1911   27.2399 N   0  3  0  0  0  0  0  0  0  0  0  0
   21.8827   19.0954   26.5687 H   0  0  0  0  0  0  0  0  0  0  0  0
   21.1176   18.3500   27.8263 H   0  0  0  0  0  0  0  0  0  0  0  0
   21.3458   19.9821   27.8506 H   0  0  0  0  0  0  0  0  0  0  0  0
  1  2  1  0  0  0  0
  1  3  1  0  0  0  0
  1  4  1  0  0  0  0
  1  5  1  0  0  0  0
  5  6  1  0  0  0  0
  5  7  1  0  0  0  0
  5  8  1  0  0  0  0
  8  9  1  0  0  0  0
  8 10  1  0  0  0  0
  8 11  1  0  0  0  0
 11 12  1  0  0  0  0
 11 13  1  0  0  0  0
 11 14  1  0  0  0  0
 14 15  1  0  0  0  0
 14 16  1  0  0  0  0
 14 17  1  0  0  0  0
 17 18  1  0  0  0  0
 17 19  1  0  0  0  0
 17 20  1  0  0  0  0
 20 21  1  0  0  0  0
 20 22  1  0  0  0  0
 20 23  1  0  0  0  0
 23 24  1  0  0  0  0
 23 25  1  0  0  0  0
 23 26  1  0  0  0  0
 26 27  1  0  0  0  0
 26 28  1  0  0  0  0
 26 29  1  0  0  0  0
M  END
> <VM2 Rank>
161

> <Conf_Id>
992

> <Probability>
0.12

> <Sum Probability>
95.18

> <Delta G>
2.269

> <G>
60.416

> <E>
22.407

> <-TS>
38.009

> <U+W>
-1.738

> <U>
50.711

> <W>
-52.448

> <W(PB)>
-54.900

> <W(SA)>
2.452

> <Valence>
4.258

> <Coulomb>
45.780

> <VdW>
0.673

> <VdW6>
-10.324

> <VdW12>
10.997

> <Bond>
0.292

> <Angle>
1.417

> <Pdih>
2.549

> <Idih>
0.000

> <Tether>
0.000

$$$$
VeraChem MOL file


 29 28  0  0  0  0  0  0  0  0999 V2000     
   20.1016   18.2703   19.8278 C   0  0  0  0  0  0  0  0  0  0  0  0
   20.1272   19.0843   19.0916 H   0  0  0  0  0  0  0  0  0  0  0  0
   21.1353   18.0311   20.1096 H   0  0  0  0  0  0  0  0  0  0  0  0
   19.6724   17.3866   19.3381 H   0  0  0  0  0  0  0  0  0  0  0  0
   19.2678   18.6665   21.0646 C   0  0  0  0  0  0  0  0  0  0  0  0
   19.2324   17.8156   21.7578 H   0  0  0  0  0  0  0  0  0  0  0  0
   18.2329   18.8712   20.7568 H   0  0  0  0  0  0  0  0  0  0  0  0
   19.8562   19.9080   21.7750 C   0  0  0  0  0  0  0  0  0  0  0  0
   20.8754   19.6903   22.1203 H   0  0  0  0  0  0  0  0  0  0  0  0
   19.9548   20.7231   21.0448 H   0  0  0  0  0  0  0  0  0  0  0  0
   18.9909   20.4164   22.9572 C   0  0  0  0  0  0  0  0  0  0  0  0
   18.0205   20.7525   22.5668 H   0  0  0  0  0  0  0  0  0  0  0  0
   19.4676   21.3094   23.3841 H   0  0  0  0  0  0  0  0  0  0  0  0
   18.7398   19.3898   24.0922 C   0  0  0  0  0  0  0  0  0  0  0  0
   18.1050   19.8719   24.8470 H   0  0  0  0  0  0  0  0  0  0  0  0
   18.1588   18.5410   23.7084 H   0  0  0  0  0  0  0  0  0  0  0  0
   20.0396   18.8754   24.7610 C   0  0  0  0  0  0  0  0  0  0  0  0
   20.6323   19.7255   25.1241 H   0  0  0  0  0  0  0  0  0  0  0  0
   20.6605   18.3665   24.0124 H   0  0  0  0  0  0  0  0  0  0  0  0
   19.7764   17.8811   25.9198 C   0  0  0  0  0  0  0  0  0  0  0  0
   19.2504   17.0003   25.5282 H   0  0  0  0  0  0  0  0  0  0  0  0
   20.7364   17.5162   26.3084 H   0  0  0  0  0  0  0  0  0  0  0  0
   18.9549   18.4713   27.0839 C   0  0  0  0  0  0  0  0  0  0  0  0
   18.8012   17.7025   27.8460 H   0  0  0  0  0  0  0  0  0  0  0  0
   17.9743   18.7899   26.7214 H   0  0  0  0  0  0  0  0  0  0  0  0
   19.6168   19.6591   27.7535 N   0  3  0  0  0  0  0  0  0  0  0  0
   19.0511   20.0249   28.5271 H   0  0  0  0  0  0  0  0  0  0  0  0
   19.7619   20.4301   27.0941 H   0  0  0  0  0  0  0  0  0  0  0  0
   20.5338   19.4143   28.1412 H   0  0  0  0  0  0  0  0  0  0  0  0
  1  2  1  0  0  0  0
  1  3  1  0  0  0  0
  1  4  1  0  0  0  0
  1  5  1  0  0  0  0
  5  6  1  0  0  0  0
  5  7  1  0  0  0  0
  5  8  1  0  0  0  0
  8  9  1  0  0  0  0
  8 10  1  0  0  0  0
  8 11  1  0  0  0  0
 11 12  1  0  0  0  0
 11 13  1  0  0  0  0
 11 14  1  0  0  0  0
 14 15  1  0  0  0  0
 14 16  1  0  0  0  0
 14 17  1  0  0  0  0
 17 18  1  0  0  0  0
 17 19  1  0  0  0  0
 17 20  1  0  0  0  0
 20 21  1  0  0  0  0
 20 22  1  0  0  0  0
 20 23  1  0  0  0  0
 23 24  1  0  0  0  0
 23 25  1  0  0  0  0
 23 26  1  0  0  0  0
 26 27  1  0  0  0  0
 26 28  1  0  0  0  0
 26 29  1  0  0  0  0
M  END
> <VM2 Rank>
162

> <Conf_Id>
318

> <Probability>
0.11

> <Sum Probability>
95.29

> <Delta G>
2.284

> <G>
60.430

> <E>
22.522

> <-TS>
37.908

> <U+W>
-1.622

> <U>
50.350

> <W>
-51.973

> <W(PB)>
-54.438

> <W(SA)>
2.465

> <Valence>
4.001

> <Coulomb>
45.464

> <VdW>
0.885

> <VdW6>
-9.931

> <VdW12>
10.816

> <Bond>
0.283

> <Angle>
1.376

> <Pdih>
2.343

> <Idih>
0.000

> <Tether>
0.000

$$$$
VeraChem MOL file


 29 28  0  0  0  0  0  0  0  0999 V2000     
   20.2501   19.2980   19.8737 C   0  0  0  0  0  0  0  0  0  0  0  0
   19.7384   20.2600   20.0015 H   0  0  0  0  0  0  0  0  0  0  0  0
   21.2848   19.4093   20.2229 H   0  0  0  0  0  0  0  0  0  0  0  0
   20.2799   19.0801   18.7983 H   0  0  0  0  0  0  0  0  0  0  0  0
   19.5257   18.1650   20.6353 C   0  0  0  0  0  0  0  0  0  0  0  0
   20.0029   17.2074   20.3843 H   0  0  0  0  0  0  0  0  0  0  0  0
   18.4861   18.0912   20.2866 H   0  0  0  0  0  0  0  0  0  0  0  0
   19.5511   18.3456   22.1721 C   0  0  0  0  0  0  0  0  0  0  0  0
   19.1088   17.4532   22.6357 H   0  0  0  0  0  0  0  0  0  0  0  0
   20.5947   18.3881   22.5106 H   0  0  0  0  0  0  0  0  0  0  0  0
   18.7825   19.6016   22.6547 C   0  0  0  0  0  0  0  0  0  0  0  0
   17.7803   19.6029   22.2047 H   0  0  0  0  0  0  0  0  0  0  0  0
   19.2840   20.5107   22.2975 H   0  0  0  0  0  0  0  0  0  0  0  0
   18.6303   19.6757   24.1935 C   0  0  0  0  0  0  0  0  0  0  0  0
   17.9874   20.5322   24.4389 H   0  0  0  0  0  0  0  0  0  0  0  0
   18.1015   18.7808   24.5477 H   0  0  0  0  0  0  0  0  0  0  0  0
   19.9806   19.8289   24.9379 C   0  0  0  0  0  0  0  0  0  0  0  0
   20.5356   20.6737   24.5073 H   0  0  0  0  0  0  0  0  0  0  0  0
   20.6040   18.9400   24.7792 H   0  0  0  0  0  0  0  0  0  0  0  0
   19.8095   20.0747   26.4579 C   0  0  0  0  0  0  0  0  0  0  0  0
   20.7976   20.2093   26.9176 H   0  0  0  0  0  0  0  0  0  0  0  0
   19.2685   21.0175   26.6136 H   0  0  0  0  0  0  0  0  0  0  0  0
   19.0590   18.9464   27.1940 C   0  0  0  0  0  0  0  0  0  0  0  0
   18.0564   18.8337   26.7735 H   0  0  0  0  0  0  0  0  0  0  0  0
   18.9567   19.2075   28.2508 H   0  0  0  0  0  0  0  0  0  0  0  0
   19.7551   17.6023   27.1158 N   0  3  0  0  0  0  0  0  0  0  0  0
   19.8557   17.2865   26.1461 H   0  0  0  0  0  0  0  0  0  0  0  0
   19.2360   16.8744   27.6191 H   0  0  0  0  0  0  0  0  0  0  0  0
   20.6952   17.6371   27.5236 H   0  0  0  0  0  0  0  0  0  0  0  0
  1  2  1  0  0  0  0
  1  3  1  0  0  0  0
  1  4  1  0  0  0  0
  1  5  1  0  0  0  0
  5  6  1  0  0  0  0
  5  7  1  0  0  0  0
  5  8  1  0  0  0  0
  8  9  1  0  0  0  0
  8 10  1  0  0  0  0
  8 11  1  0  0  0  0
 11 12  1  0  0  0  0
 11 13  1  0  0  0  0
 11 14  1  0  0  0  0
 14 15  1  0  0  0  0
 14 16  1  0  0  0  0
 14 17  1  0  0  0  0
 17 18  1  0  0  0  0
 17 19  1  0  0  0  0
 17 20  1  0  0  0  0
 20 21  1  0  0  0  0
 20 22  1  0  0  0  0
 20 23  1  0  0  0  0
 23 24  1  0  0  0  0
 23 25  1  0  0  0  0
 23 26  1  0  0  0  0
 26 27  1  0  0  0  0
 26 28  1  0  0  0  0
 26 29  1  0  0  0  0
M  END
> <VM2 Rank>
163

> <Conf_Id>
2898

> <Probability>
0.11

> <Sum Probability>
95.40

> <Delta G>
2.292

> <G>
60.438

> <E>
22.718

> <-TS>
37.720

> <U+W>
-1.427

> <U>
50.719

> <W>
-52.145

> <W(PB)>
-54.613

> <W(SA)>
2.468

> <Valence>
3.960

> <Coulomb>
45.809

> <VdW>
0.951

> <VdW6>
-9.643

> <VdW12>
10.593

> <Bond>
0.266

> <Angle>
1.045

> <Pdih>
2.649

> <Idih>
0.000

> <Tether>
0.000

$$$$
VeraChem MOL file


 29 28  0  0  0  0  0  0  0  0999 V2000     
   20.3827   18.7644   19.5636 C   0  0  0  0  0  0  0  0  0  0  0  0
   21.4327   18.5344   19.7870 H   0  0  0  0  0  0  0  0  0  0  0  0
   20.0288   18.0373   18.8212 H   0  0  0  0  0  0  0  0  0  0  0  0
   20.3409   19.7611   19.1054 H   0  0  0  0  0  0  0  0  0  0  0  0
   19.5183   18.7036   20.8408 C   0  0  0  0  0  0  0  0  0  0  0  0
   19.5526   17.6833   21.2445 H   0  0  0  0  0  0  0  0  0  0  0  0
   18.4704   18.9092   20.5812 H   0  0  0  0  0  0  0  0  0  0  0  0
   20.0018   19.7176   21.9044 C   0  0  0  0  0  0  0  0  0  0  0  0
   21.0308   19.4775   22.2053 H   0  0  0  0  0  0  0  0  0  0  0  0
   20.0393   20.7175   21.4503 H   0  0  0  0  0  0  0  0  0  0  0  0
   19.0959   19.7845   23.1586 C   0  0  0  0  0  0  0  0  0  0  0  0
   18.0664   20.0210   22.8568 H   0  0  0  0  0  0  0  0  0  0  0  0
   19.4381   20.6243   23.7768 H   0  0  0  0  0  0  0  0  0  0  0  0
   19.1093   18.4844   24.0020 C   0  0  0  0  0  0  0  0  0  0  0  0
   18.7643   17.6447   23.3854 H   0  0  0  0  0  0  0  0  0  0  0  0
   20.1400   18.2436   24.2939 H   0  0  0  0  0  0  0  0  0  0  0  0
   18.2029   18.5530   25.2585 C   0  0  0  0  0  0  0  0  0  0  0  0
   18.2168   17.5747   25.7574 H   0  0  0  0  0  0  0  0  0  0  0  0
   17.1626   18.7095   24.9418 H   0  0  0  0  0  0  0  0  0  0  0  0
   18.5840   19.6525   26.2846 C   0  0  0  0  0  0  0  0  0  0  0  0
   18.3954   20.6435   25.8526 H   0  0  0  0  0  0  0  0  0  0  0  0
   17.9213   19.5764   27.1568 H   0  0  0  0  0  0  0  0  0  0  0  0
   20.0496   19.5863   26.7582 C   0  0  0  0  0  0  0  0  0  0  0  0
   20.2454   20.4081   27.4522 H   0  0  0  0  0  0  0  0  0  0  0  0
   20.7194   19.6973   25.9014 H   0  0  0  0  0  0  0  0  0  0  0  0
   20.3996   18.2916   27.4644 N   0  3  0  0  0  0  0  0  0  0  0  0
   19.8227   18.1467   28.2995 H   0  0  0  0  0  0  0  0  0  0  0  0
   21.3790   18.2758   27.7691 H   0  0  0  0  0  0  0  0  0  0  0  0
   20.2590   17.4804   26.8542 H   0  0  0  0  0  0  0  0  0  0  0  0
  1  2  1  0  0  0  0
  1  3  1  0  0  0  0
  1  4  1  0  0  0  0
  1  5  1  0  0  0  0
  5  6  1  0  0  0  0
  5  7  1  0  0  0  0
  5  8  1  0  0  0  0
  8  9  1  0  0  0  0
  8 10  1  0  0  0  0
  8 11  1  0  0  0  0
 11 12  1  0  0  0  0
 11 13  1  0  0  0  0
 11 14  1  0  0  0  0
 14 15  1  0  0  0  0
 14 16  1  0  0  0  0
 14 17  1  0  0  0  0
 17 18  1  0  0  0  0
 17 19  1  0  0  0  0
 17 20  1  0  0  0  0
 20 21  1  0  0  0  0
 20 22  1  0  0  0  0
 20 23  1  0  0  0  0
 23 24  1  0  0  0  0
 23 25  1  0  0  0  0
 23 26  1  0  0  0  0
 26 27  1  0  0  0  0
 26 28  1  0  0  0  0
 26 29  1  0  0  0  0
M  END
> <VM2 Rank>
164

> <Conf_Id>
2574

> <Probability>
0.11

> <Sum Probability>
95.51

> <Delta G>
2.309

> <G>
60.455

> <E>
22.661

> <-TS>
37.794

> <U+W>
-1.483

> <U>
50.507

> <W>
-51.991

> <W(PB)>
-54.450

> <W(SA)>
2.459

> <Valence>
4.059

> <Coulomb>
45.540

> <VdW>
0.908

> <VdW6>
-9.839

> <VdW12>
10.747

> <Bond>
0.285

> <Angle>
1.295

> <Pdih>
2.479

> <Idih>
0.000

> <Tether>
0.000

$$$$
VeraChem MOL file


 29 28  0  0  0  0  0  0  0  0999 V2000     
   20.2424   19.5239   19.6516 C   0  0  0  0  0  0  0  0  0  0  0  0
   20.7964   18.5822   19.5454 H   0  0  0  0  0  0  0  0  0  0  0  0
   20.0386   19.9088   18.6439 H   0  0  0  0  0  0  0  0  0  0  0  0
   20.8913   20.2504   20.1559 H   0  0  0  0  0  0  0  0  0  0  0  0
   18.9214   19.3076   20.4243 C   0  0  0  0  0  0  0  0  0  0  0  0
   18.2575   18.6767   19.8168 H   0  0  0  0  0  0  0  0  0  0  0  0
   18.4031   20.2687   20.5483 H   0  0  0  0  0  0  0  0  0  0  0  0
   19.1157   18.6353   21.8051 C   0  0  0  0  0  0  0  0  0  0  0  0
   18.1228   18.4001   22.2087 H   0  0  0  0  0  0  0  0  0  0  0  0
   19.6336   17.6751   21.6755 H   0  0  0  0  0  0  0  0  0  0  0  0
   19.8924   19.5168   22.8162 C   0  0  0  0  0  0  0  0  0  0  0  0
   19.3724   20.4753   22.9497 H   0  0  0  0  0  0  0  0  0  0  0  0
   20.8810   19.7567   22.4043 H   0  0  0  0  0  0  0  0  0  0  0  0
   20.1023   18.8432   24.1949 C   0  0  0  0  0  0  0  0  0  0  0  0
   20.6063   17.8765   24.0586 H   0  0  0  0  0  0  0  0  0  0  0  0
   20.7911   19.4704   24.7759 H   0  0  0  0  0  0  0  0  0  0  0  0
   18.7899   18.6417   24.9947 C   0  0  0  0  0  0  0  0  0  0  0  0
   18.1116   17.9876   24.4324 H   0  0  0  0  0  0  0  0  0  0  0  0
   18.2692   19.6024   25.1026 H   0  0  0  0  0  0  0  0  0  0  0  0
   19.0183   18.0062   26.3894 C   0  0  0  0  0  0  0  0  0  0  0  0
   18.0473   17.8400   26.8745 H   0  0  0  0  0  0  0  0  0  0  0  0
   19.4717   17.0139   26.2649 H   0  0  0  0  0  0  0  0  0  0  0  0
   19.9111   18.8442   27.3272 C   0  0  0  0  0  0  0  0  0  0  0  0
   20.9002   18.9727   26.8804 H   0  0  0  0  0  0  0  0  0  0  0  0
   20.0343   18.3173   28.2773 H   0  0  0  0  0  0  0  0  0  0  0  0
   19.3505   20.2191   27.6315 N   0  3  0  0  0  0  0  0  0  0  0  0
   19.2392   20.7772   26.7792 H   0  0  0  0  0  0  0  0  0  0  0  0
   19.9617   20.7490   28.2625 H   0  0  0  0  0  0  0  0  0  0  0  0
   18.4306   20.1635   28.0807 H   0  0  0  0  0  0  0  0  0  0  0  0
  1  2  1  0  0  0  0
  1  3  1  0  0  0  0
  1  4  1  0  0  0  0
  1  5  1  0  0  0  0
  5  6  1  0  0  0  0
  5  7  1  0  0  0  0
  5  8  1  0  0  0  0
  8  9  1  0  0  0  0
  8 10  1  0  0  0  0
  8 11  1  0  0  0  0
 11 12  1  0  0  0  0
 11 13  1  0  0  0  0
 11 14  1  0  0  0  0
 14 15  1  0  0  0  0
 14 16  1  0  0  0  0
 14 17  1  0  0  0  0
 17 18  1  0  0  0  0
 17 19  1  0  0  0  0
 17 20  1  0  0  0  0
 20 21  1  0  0  0  0
 20 22  1  0  0  0  0
 20 23  1  0  0  0  0
 23 24  1  0  0  0  0
 23 25  1  0  0  0  0
 23 26  1  0  0  0  0
 26 27  1  0  0  0  0
 26 28  1  0  0  0  0
 26 29  1  0  0  0  0
M  END
> <VM2 Rank>
165

> <Conf_Id>
1274

> <Probability>
0.11

> <Sum Probability>
95.62

> <Delta G>
2.312

> <G>
60.458

> <E>
22.874

> <-TS>
37.584

> <U+W>
-1.270

> <U>
50.585

> <W>
-51.856

> <W(PB)>
-54.327

> <W(SA)>
2.471

> <Valence>
4.139

> <Coulomb>
45.307

> <VdW>
1.139

> <VdW6>
-9.438

> <VdW12>
10.577

> <Bond>
0.283

> <Angle>
1.231

> <Pdih>
2.625

> <Idih>
0.000

> <Tether>
0.000

$$$$
VeraChem MOL file


 29 28  0  0  0  0  0  0  0  0999 V2000     
   21.0700   18.8060   20.3034 C   0  0  0  0  0  0  0  0  0  0  0  0
   21.5938   19.5659   19.7091 H   0  0  0  0  0  0  0  0  0  0  0  0
   21.8095   18.3128   20.9477 H   0  0  0  0  0  0  0  0  0  0  0  0
   20.6656   18.0563   19.6107 H   0  0  0  0  0  0  0  0  0  0  0  0
   19.9461   19.4499   21.1423 C   0  0  0  0  0  0  0  0  0  0  0  0
   19.2387   19.9605   20.4741 H   0  0  0  0  0  0  0  0  0  0  0  0
   20.3825   20.2197   21.7925 H   0  0  0  0  0  0  0  0  0  0  0  0
   19.1948   18.3980   21.9916 C   0  0  0  0  0  0  0  0  0  0  0  0
   18.8222   17.6049   21.3288 H   0  0  0  0  0  0  0  0  0  0  0  0
   19.8946   17.9095   22.6823 H   0  0  0  0  0  0  0  0  0  0  0  0
   17.9929   18.9816   22.7782 C   0  0  0  0  0  0  0  0  0  0  0  0
   17.4820   18.1646   23.3045 H   0  0  0  0  0  0  0  0  0  0  0  0
   17.2575   19.3735   22.0621 H   0  0  0  0  0  0  0  0  0  0  0  0
   18.3452   20.1054   23.7900 C   0  0  0  0  0  0  0  0  0  0  0  0
   18.6784   20.9960   23.2409 H   0  0  0  0  0  0  0  0  0  0  0  0
   17.4263   20.4088   24.3103 H   0  0  0  0  0  0  0  0  0  0  0  0
   19.4197   19.7364   24.8452 C   0  0  0  0  0  0  0  0  0  0  0  0
   19.5954   20.6194   25.4735 H   0  0  0  0  0  0  0  0  0  0  0  0
   20.3756   19.5235   24.3486 H   0  0  0  0  0  0  0  0  0  0  0  0
   19.0179   18.5389   25.7421 C   0  0  0  0  0  0  0  0  0  0  0  0
   18.0571   18.7423   26.2332 H   0  0  0  0  0  0  0  0  0  0  0  0
   18.8720   17.6447   25.1234 H   0  0  0  0  0  0  0  0  0  0  0  0
   20.0819   18.2119   26.8075 C   0  0  0  0  0  0  0  0  0  0  0  0
   21.0440   18.0269   26.3223 H   0  0  0  0  0  0  0  0  0  0  0  0
   19.7903   17.3050   27.3441 H   0  0  0  0  0  0  0  0  0  0  0  0
   20.2756   19.3099   27.8347 N   0  3  0  0  0  0  0  0  0  0  0  0
   20.5864   20.1847   27.4008 H   0  0  0  0  0  0  0  0  0  0  0  0
   20.9796   19.0553   28.5361 H   0  0  0  0  0  0  0  0  0  0  0  0
   19.4078   19.5141   28.3412 H   0  0  0  0  0  0  0  0  0  0  0  0
  1  2  1  0  0  0  0
  1  3  1  0  0  0  0
  1  4  1  0  0  0  0
  1  5  1  0  0  0  0
  5  6  1  0  0  0  0
  5  7  1  0  0  0  0
  5  8  1  0  0  0  0
  8  9  1  0  0  0  0
  8 10  1  0  0  0  0
  8 11  1  0  0  0  0
 11 12  1  0  0  0  0
 11 13  1  0  0  0  0
 11 14  1  0  0  0  0
 14 15  1  0  0  0  0
 14 16  1  0  0  0  0
 14 17  1  0  0  0  0
 17 18  1  0  0  0  0
 17 19  1  0  0  0  0
 17 20  1  0  0  0  0
 20 21  1  0  0  0  0
 20 22  1  0  0  0  0
 20 23  1  0  0  0  0
 23 24  1  0  0  0  0
 23 25  1  0  0  0  0
 23 26  1  0  0  0  0
 26 27  1  0  0  0  0
 26 28  1  0  0  0  0
 26 29  1  0  0  0  0
M  END
> <VM2 Rank>
166

> <Conf_Id>
1048

> <Probability>
0.11

> <Sum Probability>
95.73

> <Delta G>
2.320

> <G>
60.466

> <E>
22.390

> <-TS>
38.076

> <U+W>
-1.754

> <U>
50.241

> <W>
-51.996

> <W(PB)>
-54.449

> <W(SA)>
2.453

> <Valence>
4.143

> <Coulomb>
45.288

> <VdW>
0.811

> <VdW6>
-10.141

> <VdW12>
10.952

> <Bond>
0.297

> <Angle>
1.473

> <Pdih>
2.372

> <Idih>
0.000

> <Tether>
0.000

$$$$
VeraChem MOL file


 29 28  0  0  0  0  0  0  0  0999 V2000     
   21.0783   19.2853   20.8156 C   0  0  0  0  0  0  0  0  0  0  0  0
   21.3537   18.3925   21.3907 H   0  0  0  0  0  0  0  0  0  0  0  0
   20.7755   18.9664   19.8098 H   0  0  0  0  0  0  0  0  0  0  0  0
   21.9785   19.9052   20.7152 H   0  0  0  0  0  0  0  0  0  0  0  0
   19.9486   20.0791   21.5094 C   0  0  0  0  0  0  0  0  0  0  0  0
   19.7832   21.0149   20.9575 H   0  0  0  0  0  0  0  0  0  0  0  0
   20.2691   20.3764   22.5168 H   0  0  0  0  0  0  0  0  0  0  0  0
   18.6083   19.3043   21.5808 C   0  0  0  0  0  0  0  0  0  0  0  0
   17.8460   19.9518   22.0340 H   0  0  0  0  0  0  0  0  0  0  0  0
   18.2575   19.1089   20.5582 H   0  0  0  0  0  0  0  0  0  0  0  0
   18.6641   17.9569   22.3501 C   0  0  0  0  0  0  0  0  0  0  0  0
   19.2921   17.2480   21.7943 H   0  0  0  0  0  0  0  0  0  0  0  0
   17.6582   17.5154   22.3579 H   0  0  0  0  0  0  0  0  0  0  0  0
   19.1828   18.0501   23.8080 C   0  0  0  0  0  0  0  0  0  0  0  0
   19.1927   17.0386   24.2368 H   0  0  0  0  0  0  0  0  0  0  0  0
   20.2268   18.3882   23.8058 H   0  0  0  0  0  0  0  0  0  0  0  0
   18.3225   18.9714   24.7089 C   0  0  0  0  0  0  0  0  0  0  0  0
   17.2701   18.6635   24.6397 H   0  0  0  0  0  0  0  0  0  0  0  0
   18.3698   20.0064   24.3451 H   0  0  0  0  0  0  0  0  0  0  0  0
   18.7547   18.9380   26.1933 C   0  0  0  0  0  0  0  0  0  0  0  0
   18.0537   19.5440   26.7826 H   0  0  0  0  0  0  0  0  0  0  0  0
   18.6822   17.9114   26.5763 H   0  0  0  0  0  0  0  0  0  0  0  0
   20.1839   19.4710   26.4063 C   0  0  0  0  0  0  0  0  0  0  0  0
   20.2554   20.4939   26.0269 H   0  0  0  0  0  0  0  0  0  0  0  0
   20.8964   18.8492   25.8583 H   0  0  0  0  0  0  0  0  0  0  0  0
   20.6008   19.4820   27.8627 N   0  3  0  0  0  0  0  0  0  0  0  0
   19.9856   20.0732   28.4314 H   0  0  0  0  0  0  0  0  0  0  0  0
   21.5547   19.8399   27.9834 H   0  0  0  0  0  0  0  0  0  0  0  0
   20.5799   18.5423   28.2727 H   0  0  0  0  0  0  0  0  0  0  0  0
  1  2  1  0  0  0  0
  1  3  1  0  0  0  0
  1  4  1  0  0  0  0
  1  5  1  0  0  0  0
  5  6  1  0  0  0  0
  5  7  1  0  0  0  0
  5  8  1  0  0  0  0
  8  9  1  0  0  0  0
  8 10  1  0  0  0  0
  8 11  1  0  0  0  0
 11 12  1  0  0  0  0
 11 13  1  0  0  0  0
 11 14  1  0  0  0  0
 14 15  1  0  0  0  0
 14 16  1  0  0  0  0
 14 17  1  0  0  0  0
 17 18  1  0  0  0  0
 17 19  1  0  0  0  0
 17 20  1  0  0  0  0
 20 21  1  0  0  0  0
 20 22  1  0  0  0  0
 20 23  1  0  0  0  0
 23 24  1  0  0  0  0
 23 25  1  0  0  0  0
 23 26  1  0  0  0  0
 26 27  1  0  0  0  0
 26 28  1  0  0  0  0
 26 29  1  0  0  0  0
M  END
> <VM2 Rank>
167

> <Conf_Id>
994

> <Probability>
0.11

> <Sum Probability>
95.84

> <Delta G>
2.329

> <G>
60.475

> <E>
22.408

> <-TS>
38.067

> <U+W>
-1.736

> <U>
50.365

> <W>
-52.102

> <W(PB)>
-54.540

> <W(SA)>
2.438

> <Valence>
4.264

> <Coulomb>
45.392

> <VdW>
0.709

> <VdW6>
-10.225

> <VdW12>
10.935

> <Bond>
0.291

> <Angle>
1.460

> <Pdih>
2.514

> <Idih>
0.000

> <Tether>
0.000

$$$$
VeraChem MOL file


 29 28  0  0  0  0  0  0  0  0999 V2000     
   19.3880   18.9337   19.6481 C   0  0  0  0  0  0  0  0  0  0  0  0
   20.2504   19.5692   19.4084 H   0  0  0  0  0  0  0  0  0  0  0  0
   19.7515   17.9158   19.8350 H   0  0  0  0  0  0  0  0  0  0  0  0
   18.7429   18.8949   18.7608 H   0  0  0  0  0  0  0  0  0  0  0  0
   18.6069   19.4908   20.8599 C   0  0  0  0  0  0  0  0  0  0  0  0
   17.7709   18.8197   21.1019 H   0  0  0  0  0  0  0  0  0  0  0  0
   18.1568   20.4525   20.5768 H   0  0  0  0  0  0  0  0  0  0  0  0
   19.4858   19.7064   22.1156 C   0  0  0  0  0  0  0  0  0  0  0  0
   20.3188   20.3793   21.8700 H   0  0  0  0  0  0  0  0  0  0  0  0
   18.8785   20.2255   22.8681 H   0  0  0  0  0  0  0  0  0  0  0  0
   20.0373   18.3885   22.7163 C   0  0  0  0  0  0  0  0  0  0  0  0
   20.6375   17.8665   21.9603 H   0  0  0  0  0  0  0  0  0  0  0  0
   19.2060   17.7138   22.9588 H   0  0  0  0  0  0  0  0  0  0  0  0
   20.9316   18.6012   23.9656 C   0  0  0  0  0  0  0  0  0  0  0  0
   21.3059   17.6236   24.2994 H   0  0  0  0  0  0  0  0  0  0  0  0
   21.8198   19.1772   23.6717 H   0  0  0  0  0  0  0  0  0  0  0  0
   20.2528   19.3124   25.1651 C   0  0  0  0  0  0  0  0  0  0  0  0
   19.9877   20.3421   24.8912 H   0  0  0  0  0  0  0  0  0  0  0  0
   20.9941   19.3976   25.9706 H   0  0  0  0  0  0  0  0  0  0  0  0
   18.9995   18.5728   25.6962 C   0  0  0  0  0  0  0  0  0  0  0  0
   18.2365   18.5250   24.9092 H   0  0  0  0  0  0  0  0  0  0  0  0
   19.2543   17.5359   25.9522 H   0  0  0  0  0  0  0  0  0  0  0  0
   18.3746   19.2672   26.9215 C   0  0  0  0  0  0  0  0  0  0  0  0
   17.4440   18.7598   27.1899 H   0  0  0  0  0  0  0  0  0  0  0  0
   18.1380   20.3059   26.6753 H   0  0  0  0  0  0  0  0  0  0  0  0
   19.2675   19.2650   28.1467 N   0  3  0  0  0  0  0  0  0  0  0  0
   19.5070   18.3125   28.4410 H   0  0  0  0  0  0  0  0  0  0  0  0
   18.8168   19.7220   28.9471 H   0  0  0  0  0  0  0  0  0  0  0  0
   20.1483   19.7598   27.9751 H   0  0  0  0  0  0  0  0  0  0  0  0
  1  2  1  0  0  0  0
  1  3  1  0  0  0  0
  1  4  1  0  0  0  0
  1  5  1  0  0  0  0
  5  6  1  0  0  0  0
  5  7  1  0  0  0  0
  5  8  1  0  0  0  0
  8  9  1  0  0  0  0
  8 10  1  0  0  0  0
  8 11  1  0  0  0  0
 11 12  1  0  0  0  0
 11 13  1  0  0  0  0
 11 14  1  0  0  0  0
 14 15  1  0  0  0  0
 14 16  1  0  0  0  0
 14 17  1  0  0  0  0
 17 18  1  0  0  0  0
 17 19  1  0  0  0  0
 17 20  1  0  0  0  0
 20 21  1  0  0  0  0
 20 22  1  0  0  0  0
 20 23  1  0  0  0  0
 23 24  1  0  0  0  0
 23 25  1  0  0  0  0
 23 26  1  0  0  0  0
 26 27  1  0  0  0  0
 26 28  1  0  0  0  0
 26 29  1  0  0  0  0
M  END
> <VM2 Rank>
168

> <Conf_Id>
2244

> <Probability>
0.10

> <Sum Probability>
95.94

> <Delta G>
2.343

> <G>
60.490

> <E>
22.684

> <-TS>
37.806

> <U+W>
-1.461

> <U>
50.427

> <W>
-51.888

> <W(PB)>
-54.336

> <W(SA)>
2.448

> <Valence>
4.273

> <Coulomb>
45.070

> <VdW>
1.084

> <VdW6>
-9.708

> <VdW12>
10.793

> <Bond>
0.299

> <Angle>
1.475

> <Pdih>
2.499

> <Idih>
0.000

> <Tether>
0.000

$$$$
VeraChem MOL file


 29 28  0  0  0  0  0  0  0  0999 V2000     
   20.2628   17.9225   20.3473 C   0  0  0  0  0  0  0  0  0  0  0  0
   21.2695   18.2899   20.1094 H   0  0  0  0  0  0  0  0  0  0  0  0
   20.3191   17.3395   21.2751 H   0  0  0  0  0  0  0  0  0  0  0  0
   19.9559   17.2388   19.5454 H   0  0  0  0  0  0  0  0  0  0  0  0
   19.2608   19.0920   20.4746 C   0  0  0  0  0  0  0  0  0  0  0  0
   18.2673   18.7026   20.7336 H   0  0  0  0  0  0  0  0  0  0  0  0
   19.1480   19.5693   19.4912 H   0  0  0  0  0  0  0  0  0  0  0  0
   19.6983   20.1709   21.4980 C   0  0  0  0  0  0  0  0  0  0  0  0
   20.6277   20.6373   21.1433 H   0  0  0  0  0  0  0  0  0  0  0  0
   18.9465   20.9720   21.5109 H   0  0  0  0  0  0  0  0  0  0  0  0
   19.9204   19.6651   22.9472 C   0  0  0  0  0  0  0  0  0  0  0  0
   20.2582   20.5171   23.5506 H   0  0  0  0  0  0  0  0  0  0  0  0
   20.7405   18.9356   22.9674 H   0  0  0  0  0  0  0  0  0  0  0  0
   18.6522   19.0473   23.5890 C   0  0  0  0  0  0  0  0  0  0  0  0
   17.8327   19.7788   23.5707 H   0  0  0  0  0  0  0  0  0  0  0  0
   18.3184   18.1928   22.9864 H   0  0  0  0  0  0  0  0  0  0  0  0
   18.8734   18.5502   25.0387 C   0  0  0  0  0  0  0  0  0  0  0  0
   19.6906   17.8166   25.0495 H   0  0  0  0  0  0  0  0  0  0  0  0
   17.9710   18.0136   25.3630 H   0  0  0  0  0  0  0  0  0  0  0  0
   19.1673   19.6895   26.0465 C   0  0  0  0  0  0  0  0  0  0  0  0
   20.1242   20.1729   25.8131 H   0  0  0  0  0  0  0  0  0  0  0  0
   18.3928   20.4629   25.9579 H   0  0  0  0  0  0  0  0  0  0  0  0
   19.1974   19.1943   27.5050 C   0  0  0  0  0  0  0  0  0  0  0  0
   18.2467   18.7132   27.7502 H   0  0  0  0  0  0  0  0  0  0  0  0
   19.3314   20.0473   28.1758 H   0  0  0  0  0  0  0  0  0  0  0  0
   20.3114   18.2060   27.7887 N   0  3  0  0  0  0  0  0  0  0  0  0
   20.2250   17.3625   27.2130 H   0  0  0  0  0  0  0  0  0  0  0  0
   20.3111   17.9028   28.7688 H   0  0  0  0  0  0  0  0  0  0  0  0
   21.2349   18.6092   27.5996 H   0  0  0  0  0  0  0  0  0  0  0  0
  1  2  1  0  0  0  0
  1  3  1  0  0  0  0
  1  4  1  0  0  0  0
  1  5  1  0  0  0  0
  5  6  1  0  0  0  0
  5  7  1  0  0  0  0
  5  8  1  0  0  0  0
  8  9  1  0  0  0  0
  8 10  1  0  0  0  0
  8 11  1  0  0  0  0
 11 12  1  0  0  0  0
 11 13  1  0  0  0  0
 11 14  1  0  0  0  0
 14 15  1  0  0  0  0
 14 16  1  0  0  0  0
 14 17  1  0  0  0  0
 17 18  1  0  0  0  0
 17 19  1  0  0  0  0
 17 20  1  0  0  0  0
 20 21  1  0  0  0  0
 20 22  1  0  0  0  0
 20 23  1  0  0  0  0
 23 24  1  0  0  0  0
 23 25  1  0  0  0  0
 23 26  1  0  0  0  0
 26 27  1  0  0  0  0
 26 28  1  0  0  0  0
 26 29  1  0  0  0  0
M  END
> <VM2 Rank>
169

> <Conf_Id>
1000

> <Probability>
0.10

> <Sum Probability>
96.04

> <Delta G>
2.343

> <G>
60.490

> <E>
22.701

> <-TS>
37.788

> <U+W>
-1.443

> <U>
50.446

> <W>
-51.889

> <W(PB)>
-54.352

> <W(SA)>
2.463

> <Valence>
4.249

> <Coulomb>
45.120

> <VdW>
1.076

> <VdW6>
-9.657

> <VdW12>
10.734

> <Bond>
0.293

> <Angle>
1.397

> <Pdih>
2.559

> <Idih>
0.000

> <Tether>
0.000

$$$$
VeraChem MOL file


 29 28  0  0  0  0  0  0  0  0999 V2000     
   21.3150   19.2246   20.6375 C   0  0  0  0  0  0  0  0  0  0  0  0
   22.0946   19.1001   21.4002 H   0  0  0  0  0  0  0  0  0  0  0  0
   21.3006   18.3223   20.0123 H   0  0  0  0  0  0  0  0  0  0  0  0
   21.5992   20.0717   19.9998 H   0  0  0  0  0  0  0  0  0  0  0  0
   19.9375   19.4708   21.2883 C   0  0  0  0  0  0  0  0  0  0  0  0
   19.1842   19.6215   20.5025 H   0  0  0  0  0  0  0  0  0  0  0  0
   19.9795   20.4002   21.8716 H   0  0  0  0  0  0  0  0  0  0  0  0
   19.5164   18.2906   22.1949 C   0  0  0  0  0  0  0  0  0  0  0  0
   19.5427   17.3627   21.6071 H   0  0  0  0  0  0  0  0  0  0  0  0
   20.2524   18.1589   22.9988 H   0  0  0  0  0  0  0  0  0  0  0  0
   18.0959   18.4477   22.7960 C   0  0  0  0  0  0  0  0  0  0  0  0
   17.8545   17.5474   23.3766 H   0  0  0  0  0  0  0  0  0  0  0  0
   17.3648   18.4730   21.9763 H   0  0  0  0  0  0  0  0  0  0  0  0
   17.8868   19.7036   23.6846 C   0  0  0  0  0  0  0  0  0  0  0  0
   17.9445   20.6048   23.0599 H   0  0  0  0  0  0  0  0  0  0  0  0
   16.8619   19.6862   24.0801 H   0  0  0  0  0  0  0  0  0  0  0  0
   18.8785   19.8481   24.8673 C   0  0  0  0  0  0  0  0  0  0  0  0
   18.6408   20.7748   25.4076 H   0  0  0  0  0  0  0  0  0  0  0  0
   19.8977   19.9753   24.4809 H   0  0  0  0  0  0  0  0  0  0  0  0
   18.8278   18.6605   25.8602 C   0  0  0  0  0  0  0  0  0  0  0  0
   17.7912   18.5037   26.1864 H   0  0  0  0  0  0  0  0  0  0  0  0
   19.1461   17.7338   25.3663 H   0  0  0  0  0  0  0  0  0  0  0  0
   19.7026   18.8942   27.1066 C   0  0  0  0  0  0  0  0  0  0  0  0
   19.5659   18.0657   27.8069 H   0  0  0  0  0  0  0  0  0  0  0  0
   19.3940   19.8171   27.6052 H   0  0  0  0  0  0  0  0  0  0  0  0
   21.1836   18.9979   26.7997 N   0  3  0  0  0  0  0  0  0  0  0  0
   21.5394   18.1473   26.3513 H   0  0  0  0  0  0  0  0  0  0  0  0
   21.7387   19.1437   27.6501 H   0  0  0  0  0  0  0  0  0  0  0  0
   21.3859   19.7810   26.1706 H   0  0  0  0  0  0  0  0  0  0  0  0
  1  2  1  0  0  0  0
  1  3  1  0  0  0  0
  1  4  1  0  0  0  0
  1  5  1  0  0  0  0
  5  6  1  0  0  0  0
  5  7  1  0  0  0  0
  5  8  1  0  0  0  0
  8  9  1  0  0  0  0
  8 10  1  0  0  0  0
  8 11  1  0  0  0  0
 11 12  1  0  0  0  0
 11 13  1  0  0  0  0
 11 14  1  0  0  0  0
 14 15  1  0  0  0  0
 14 16  1  0  0  0  0
 14 17  1  0  0  0  0
 17 18  1  0  0  0  0
 17 19  1  0  0  0  0
 17 20  1  0  0  0  0
 20 21  1  0  0  0  0
 20 22  1  0  0  0  0
 20 23  1  0  0  0  0
 23 24  1  0  0  0  0
 23 25  1  0  0  0  0
 23 26  1  0  0  0  0
 26 27  1  0  0  0  0
 26 28  1  0  0  0  0
 26 29  1  0  0  0  0
M  END
> <VM2 Rank>
170

> <Conf_Id>
628

> <Probability>
0.10

> <Sum Probability>
96.15

> <Delta G>
2.356

> <G>
60.502

> <E>
22.412

> <-TS>
38.090

> <U+W>
-1.732

> <U>
50.850

> <W>
-52.582

> <W(PB)>
-55.016

> <W(SA)>
2.433

> <Valence>
4.103

> <Coulomb>
46.056

> <VdW>
0.692

> <VdW6>
-10.267

> <VdW12>
10.959

> <Bond>
0.293

> <Angle>
1.410

> <Pdih>
2.400

> <Idih>
0.000

> <Tether>
0.000

$$$$
VeraChem MOL file


 29 28  0  0  0  0  0  0  0  0999 V2000     
   20.2369   18.3777   19.9011 C   0  0  0  0  0  0  0  0  0  0  0  0
   21.0021   19.0689   19.5245 H   0  0  0  0  0  0  0  0  0  0  0  0
   20.7444   17.4894   20.2994 H   0  0  0  0  0  0  0  0  0  0  0  0
   19.6209   18.0606   19.0496 H   0  0  0  0  0  0  0  0  0  0  0  0
   19.3659   19.0500   20.9832 C   0  0  0  0  0  0  0  0  0  0  0  0
   18.5896   18.3435   21.3059 H   0  0  0  0  0  0  0  0  0  0  0  0
   18.8480   19.9163   20.5485 H   0  0  0  0  0  0  0  0  0  0  0  0
   20.2122   19.5026   22.1961 C   0  0  0  0  0  0  0  0  0  0  0  0
   20.7015   18.6320   22.6522 H   0  0  0  0  0  0  0  0  0  0  0  0
   21.0231   20.1536   21.8417 H   0  0  0  0  0  0  0  0  0  0  0  0
   19.3979   20.2755   23.2654 C   0  0  0  0  0  0  0  0  0  0  0  0
   18.9959   21.1916   22.8113 H   0  0  0  0  0  0  0  0  0  0  0  0
   20.0808   20.6145   24.0556 H   0  0  0  0  0  0  0  0  0  0  0  0
   18.2256   19.4835   23.9043 C   0  0  0  0  0  0  0  0  0  0  0  0
   17.7342   20.1231   24.6497 H   0  0  0  0  0  0  0  0  0  0  0  0
   17.4594   19.2904   23.1419 H   0  0  0  0  0  0  0  0  0  0  0  0
   18.6228   18.1367   24.5662 C   0  0  0  0  0  0  0  0  0  0  0  0
   18.9727   17.4374   23.7953 H   0  0  0  0  0  0  0  0  0  0  0  0
   17.7215   17.6779   24.9955 H   0  0  0  0  0  0  0  0  0  0  0  0
   19.7004   18.2517   25.6726 C   0  0  0  0  0  0  0  0  0  0  0  0
   19.8995   17.2512   26.0789 H   0  0  0  0  0  0  0  0  0  0  0  0
   20.6462   18.6033   25.2411 H   0  0  0  0  0  0  0  0  0  0  0  0
   19.2753   19.1860   26.8202 C   0  0  0  0  0  0  0  0  0  0  0  0
   18.3398   18.8282   27.2586 H   0  0  0  0  0  0  0  0  0  0  0  0
   19.1110   20.1949   26.4328 H   0  0  0  0  0  0  0  0  0  0  0  0
   20.3071   19.2743   27.9259 N   0  3  0  0  0  0  0  0  0  0  0  0
   20.4880   18.3597   28.3526 H   0  0  0  0  0  0  0  0  0  0  0  0
   20.0047   19.9012   28.6797 H   0  0  0  0  0  0  0  0  0  0  0  0
   21.2051   19.6306   27.5825 H   0  0  0  0  0  0  0  0  0  0  0  0
  1  2  1  0  0  0  0
  1  3  1  0  0  0  0
  1  4  1  0  0  0  0
  1  5  1  0  0  0  0
  5  6  1  0  0  0  0
  5  7  1  0  0  0  0
  5  8  1  0  0  0  0
  8  9  1  0  0  0  0
  8 10  1  0  0  0  0
  8 11  1  0  0  0  0
 11 12  1  0  0  0  0
 11 13  1  0  0  0  0
 11 14  1  0  0  0  0
 14 15  1  0  0  0  0
 14 16  1  0  0  0  0
 14 17  1  0  0  0  0
 17 18  1  0  0  0  0
 17 19  1  0  0  0  0
 17 20  1  0  0  0  0
 20 21  1  0  0  0  0
 20 22  1  0  0  0  0
 20 23  1  0  0  0  0
 23 24  1  0  0  0  0
 23 25  1  0  0  0  0
 23 26  1  0  0  0  0
 26 27  1  0  0  0  0
 26 28  1  0  0  0  0
 26 29  1  0  0  0  0
M  END
> <VM2 Rank>
171

> <Conf_Id>
492

> <Probability>
0.10

> <Sum Probability>
96.25

> <Delta G>
2.358

> <G>
60.504

> <E>
22.318

> <-TS>
38.186

> <U+W>
-1.827

> <U>
50.384

> <W>
-52.210

> <W(PB)>
-54.659

> <W(SA)>
2.448

> <Valence>
4.249

> <Coulomb>
45.544

> <VdW>
0.592

> <VdW6>
-10.475

> <VdW12>
11.067

> <Bond>
0.300

> <Angle>
1.566

> <Pdih>
2.383

> <Idih>
0.000

> <Tether>
0.000

$$$$
VeraChem MOL file


 29 28  0  0  0  0  0  0  0  0999 V2000     
   20.8448   17.9040   20.6086 C   0  0  0  0  0  0  0  0  0  0  0  0
   21.5167   17.4776   21.3648 H   0  0  0  0  0  0  0  0  0  0  0  0
   20.5388   17.0939   19.9340 H   0  0  0  0  0  0  0  0  0  0  0  0
   21.4129   18.6361   20.0199 H   0  0  0  0  0  0  0  0  0  0  0  0
   19.6125   18.5583   21.2682 C   0  0  0  0  0  0  0  0  0  0  0  0
   19.0494   17.7894   21.8136 H   0  0  0  0  0  0  0  0  0  0  0  0
   18.9448   18.9487   20.4876 H   0  0  0  0  0  0  0  0  0  0  0  0
   20.0191   19.7021   22.2265 C   0  0  0  0  0  0  0  0  0  0  0  0
   20.6613   19.3073   23.0246 H   0  0  0  0  0  0  0  0  0  0  0  0
   20.6341   20.4270   21.6756 H   0  0  0  0  0  0  0  0  0  0  0  0
   18.8105   20.4543   22.8408 C   0  0  0  0  0  0  0  0  0  0  0  0
   18.2396   20.9292   22.0311 H   0  0  0  0  0  0  0  0  0  0  0  0
   19.1841   21.2807   23.4599 H   0  0  0  0  0  0  0  0  0  0  0  0
   17.8423   19.5792   23.6817 C   0  0  0  0  0  0  0  0  0  0  0  0
   17.0536   20.2246   24.0921 H   0  0  0  0  0  0  0  0  0  0  0  0
   17.3263   18.8700   23.0210 H   0  0  0  0  0  0  0  0  0  0  0  0
   18.5027   18.7937   24.8436 C   0  0  0  0  0  0  0  0  0  0  0  0
   19.2176   18.0665   24.4381 H   0  0  0  0  0  0  0  0  0  0  0  0
   17.7253   18.2051   25.3501 H   0  0  0  0  0  0  0  0  0  0  0  0
   19.1999   19.7055   25.8835 C   0  0  0  0  0  0  0  0  0  0  0  0
   20.0391   20.2414   25.4223 H   0  0  0  0  0  0  0  0  0  0  0  0
   18.4910   20.4689   26.2305 H   0  0  0  0  0  0  0  0  0  0  0  0
   19.7128   18.9223   27.1070 C   0  0  0  0  0  0  0  0  0  0  0  0
   18.8836   18.3830   27.5729 H   0  0  0  0  0  0  0  0  0  0  0  0
   20.1205   19.6221   27.8415 H   0  0  0  0  0  0  0  0  0  0  0  0
   20.7994   17.9186   26.7750 N   0  3  0  0  0  0  0  0  0  0  0  0
   20.4701   17.2095   26.1125 H   0  0  0  0  0  0  0  0  0  0  0  0
   21.1256   17.4211   27.6109 H   0  0  0  0  0  0  0  0  0  0  0  0
   21.6187   18.3700   26.3557 H   0  0  0  0  0  0  0  0  0  0  0  0
  1  2  1  0  0  0  0
  1  3  1  0  0  0  0
  1  4  1  0  0  0  0
  1  5  1  0  0  0  0
  5  6  1  0  0  0  0
  5  7  1  0  0  0  0
  5  8  1  0  0  0  0
  8  9  1  0  0  0  0
  8 10  1  0  0  0  0
  8 11  1  0  0  0  0
 11 12  1  0  0  0  0
 11 13  1  0  0  0  0
 11 14  1  0  0  0  0
 14 15  1  0  0  0  0
 14 16  1  0  0  0  0
 14 17  1  0  0  0  0
 17 18  1  0  0  0  0
 17 19  1  0  0  0  0
 17 20  1  0  0  0  0
 20 21  1  0  0  0  0
 20 22  1  0  0  0  0
 20 23  1  0  0  0  0
 23 24  1  0  0  0  0
 23 25  1  0  0  0  0
 23 26  1  0  0  0  0
 26 27  1  0  0  0  0
 26 28  1  0  0  0  0
 26 29  1  0  0  0  0
M  END
> <VM2 Rank>
172

> <Conf_Id>
120

> <Probability>
0.10

> <Sum Probability>
96.35

> <Delta G>
2.358

> <G>
60.504

> <E>
22.414

> <-TS>
38.091

> <U+W>
-1.731

> <U>
50.851

> <W>
-52.582

> <W(PB)>
-54.998

> <W(SA)>
2.416

> <Valence>
4.102

> <Coulomb>
46.057

> <VdW>
0.692

> <VdW6>
-10.268

> <VdW12>
10.960

> <Bond>
0.293

> <Angle>
1.409

> <Pdih>
2.400

> <Idih>
0.000

> <Tether>
0.000

$$$$
VeraChem MOL file


 29 28  0  0  0  0  0  0  0  0999 V2000     
   21.4118   19.2300   21.7070 C   0  0  0  0  0  0  0  0  0  0  0  0
   22.1760   19.9488   21.3841 H   0  0  0  0  0  0  0  0  0  0  0  0
   21.3952   19.2362   22.8038 H   0  0  0  0  0  0  0  0  0  0  0  0
   21.7256   18.2326   21.3728 H   0  0  0  0  0  0  0  0  0  0  0  0
   20.0332   19.6045   21.1174 C   0  0  0  0  0  0  0  0  0  0  0  0
   20.1296   19.7027   20.0272 H   0  0  0  0  0  0  0  0  0  0  0  0
   19.7311   20.5953   21.4823 H   0  0  0  0  0  0  0  0  0  0  0  0
   18.9278   18.5615   21.4224 C   0  0  0  0  0  0  0  0  0  0  0  0
   17.9923   18.8874   20.9472 H   0  0  0  0  0  0  0  0  0  0  0  0
   19.1944   17.6108   20.9405 H   0  0  0  0  0  0  0  0  0  0  0  0
   18.6647   18.2991   22.9274 C   0  0  0  0  0  0  0  0  0  0  0  0
   19.5631   17.8663   23.3847 H   0  0  0  0  0  0  0  0  0  0  0  0
   17.8807   17.5345   23.0147 H   0  0  0  0  0  0  0  0  0  0  0  0
   18.2237   19.5644   23.7051 C   0  0  0  0  0  0  0  0  0  0  0  0
   19.0307   20.3081   23.7041 H   0  0  0  0  0  0  0  0  0  0  0  0
   17.3794   20.0309   23.1792 H   0  0  0  0  0  0  0  0  0  0  0  0
   17.7912   19.2713   25.1648 C   0  0  0  0  0  0  0  0  0  0  0  0
   16.9121   18.6122   25.1553 H   0  0  0  0  0  0  0  0  0  0  0  0
   17.4598   20.2104   25.6292 H   0  0  0  0  0  0  0  0  0  0  0  0
   18.8891   18.6334   26.0521 C   0  0  0  0  0  0  0  0  0  0  0  0
   18.4908   18.4991   27.0665 H   0  0  0  0  0  0  0  0  0  0  0  0
   19.1340   17.6294   25.6829 H   0  0  0  0  0  0  0  0  0  0  0  0
   20.1689   19.4870   26.1221 C   0  0  0  0  0  0  0  0  0  0  0  0
   19.9270   20.4822   26.5048 H   0  0  0  0  0  0  0  0  0  0  0  0
   20.5943   19.5963   25.1211 H   0  0  0  0  0  0  0  0  0  0  0  0
   21.2337   18.8868   27.0168 N   0  3  0  0  0  0  0  0  0  0  0  0
   20.9055   18.7823   27.9826 H   0  0  0  0  0  0  0  0  0  0  0  0
   22.0771   19.4701   27.0494 H   0  0  0  0  0  0  0  0  0  0  0  0
   21.5244   17.9579   26.6945 H   0  0  0  0  0  0  0  0  0  0  0  0
  1  2  1  0  0  0  0
  1  3  1  0  0  0  0
  1  4  1  0  0  0  0
  1  5  1  0  0  0  0
  5  6  1  0  0  0  0
  5  7  1  0  0  0  0
  5  8  1  0  0  0  0
  8  9  1  0  0  0  0
  8 10  1  0  0  0  0
  8 11  1  0  0  0  0
 11 12  1  0  0  0  0
 11 13  1  0  0  0  0
 11 14  1  0  0  0  0
 14 15  1  0  0  0  0
 14 16  1  0  0  0  0
 14 17  1  0  0  0  0
 17 18  1  0  0  0  0
 17 19  1  0  0  0  0
 17 20  1  0  0  0  0
 20 21  1  0  0  0  0
 20 22  1  0  0  0  0
 20 23  1  0  0  0  0
 23 24  1  0  0  0  0
 23 25  1  0  0  0  0
 23 26  1  0  0  0  0
 26 27  1  0  0  0  0
 26 28  1  0  0  0  0
 26 29  1  0  0  0  0
M  END
> <VM2 Rank>
173

> <Conf_Id>
1995

> <Probability>
0.10

> <Sum Probability>
96.45

> <Delta G>
2.366

> <G>
60.512

> <E>
22.462

> <-TS>
38.051

> <U+W>
-1.683

> <U>
50.969

> <W>
-52.651

> <W(PB)>
-55.059

> <W(SA)>
2.407

> <Valence>
4.229

> <Coulomb>
46.141

> <VdW>
0.598

> <VdW6>
-10.517

> <VdW12>
11.115

> <Bond>
0.292

> <Angle>
1.459

> <Pdih>
2.478

> <Idih>
0.000

> <Tether>
0.000

$$$$
VeraChem MOL file


 29 28  0  0  0  0  0  0  0  0999 V2000     
   19.7908   20.2887   20.2060 C   0  0  0  0  0  0  0  0  0  0  0  0
   20.5212   20.6855   19.4892 H   0  0  0  0  0  0  0  0  0  0  0  0
   18.7903   20.4174   19.7732 H   0  0  0  0  0  0  0  0  0  0  0  0
   19.8542   20.9000   21.1149 H   0  0  0  0  0  0  0  0  0  0  0  0
   20.0791   18.8002   20.5048 C   0  0  0  0  0  0  0  0  0  0  0  0
   21.0749   18.6986   20.9560 H   0  0  0  0  0  0  0  0  0  0  0  0
   20.1242   18.2513   19.5538 H   0  0  0  0  0  0  0  0  0  0  0  0
   19.0096   18.1335   21.4074 C   0  0  0  0  0  0  0  0  0  0  0  0
   18.0498   18.1294   20.8728 H   0  0  0  0  0  0  0  0  0  0  0  0
   19.2770   17.0778   21.5521 H   0  0  0  0  0  0  0  0  0  0  0  0
   18.8002   18.7948   22.7945 C   0  0  0  0  0  0  0  0  0  0  0  0
   17.9978   18.2491   23.3065 H   0  0  0  0  0  0  0  0  0  0  0  0
   18.4347   19.8223   22.6679 H   0  0  0  0  0  0  0  0  0  0  0  0
   20.0730   18.7958   23.6790 C   0  0  0  0  0  0  0  0  0  0  0  0
   20.4358   17.7671   23.8097 H   0  0  0  0  0  0  0  0  0  0  0  0
   20.8726   19.3431   23.1634 H   0  0  0  0  0  0  0  0  0  0  0  0
   19.8651   19.4538   25.0654 C   0  0  0  0  0  0  0  0  0  0  0  0
   19.4860   20.4768   24.9340 H   0  0  0  0  0  0  0  0  0  0  0  0
   20.8471   19.5485   25.5474 H   0  0  0  0  0  0  0  0  0  0  0  0
   18.9135   18.6587   25.9946 C   0  0  0  0  0  0  0  0  0  0  0  0
   17.9156   18.5987   25.5435 H   0  0  0  0  0  0  0  0  0  0  0  0
   19.2715   17.6266   26.1062 H   0  0  0  0  0  0  0  0  0  0  0  0
   18.7661   19.3045   27.3858 C   0  0  0  0  0  0  0  0  0  0  0  0
   18.0125   18.7589   27.9602 H   0  0  0  0  0  0  0  0  0  0  0  0
   18.4295   20.3391   27.2777 H   0  0  0  0  0  0  0  0  0  0  0  0
   20.0466   19.3080   28.1974 N   0  3  0  0  0  0  0  0  0  0  0  0
   20.7899   19.8375   27.7313 H   0  0  0  0  0  0  0  0  0  0  0  0
   20.4016   18.3586   28.3520 H   0  0  0  0  0  0  0  0  0  0  0  0
   19.9103   19.7315   29.1219 H   0  0  0  0  0  0  0  0  0  0  0  0
  1  2  1  0  0  0  0
  1  3  1  0  0  0  0
  1  4  1  0  0  0  0
  1  5  1  0  0  0  0
  5  6  1  0  0  0  0
  5  7  1  0  0  0  0
  5  8  1  0  0  0  0
  8  9  1  0  0  0  0
  8 10  1  0  0  0  0
  8 11  1  0  0  0  0
 11 12  1  0  0  0  0
 11 13  1  0  0  0  0
 11 14  1  0  0  0  0
 14 15  1  0  0  0  0
 14 16  1  0  0  0  0
 14 17  1  0  0  0  0
 17 18  1  0  0  0  0
 17 19  1  0  0  0  0
 17 20  1  0  0  0  0
 20 21  1  0  0  0  0
 20 22  1  0  0  0  0
 20 23  1  0  0  0  0
 23 24  1  0  0  0  0
 23 25  1  0  0  0  0
 23 26  1  0  0  0  0
 26 27  1  0  0  0  0
 26 28  1  0  0  0  0
 26 29  1  0  0  0  0
M  END
> <VM2 Rank>
174

> <Conf_Id>
1352

> <Probability>
0.10

> <Sum Probability>
96.55

> <Delta G>
2.369

> <G>
60.515

> <E>
22.770

> <-TS>
37.745

> <U+W>
-1.374

> <U>
50.320

> <W>
-51.694

> <W(PB)>
-54.161

> <W(SA)>
2.467

> <Valence>
4.288

> <Coulomb>
44.897

> <VdW>
1.135

> <VdW6>
-9.608

> <VdW12>
10.743

> <Bond>
0.299

> <Angle>
1.449

> <Pdih>
2.540

> <Idih>
0.000

> <Tether>
0.000

$$$$
VeraChem MOL file


 29 28  0  0  0  0  0  0  0  0999 V2000     
   20.4099   19.1029   19.7893 C   0  0  0  0  0  0  0  0  0  0  0  0
   20.2520   20.1812   19.9140 H   0  0  0  0  0  0  0  0  0  0  0  0
   21.4428   18.8700   20.0789 H   0  0  0  0  0  0  0  0  0  0  0  0
   20.3016   18.8759   18.7208 H   0  0  0  0  0  0  0  0  0  0  0  0
   19.4003   18.2798   20.6212 C   0  0  0  0  0  0  0  0  0  0  0  0
   19.5149   17.2176   20.3635 H   0  0  0  0  0  0  0  0  0  0  0  0
   18.3750   18.5557   20.3380 H   0  0  0  0  0  0  0  0  0  0  0  0
   19.5826   18.4406   22.1499 C   0  0  0  0  0  0  0  0  0  0  0  0
   18.9199   17.7208   22.6470 H   0  0  0  0  0  0  0  0  0  0  0  0
   20.6084   18.1622   22.4278 H   0  0  0  0  0  0  0  0  0  0  0  0
   19.2715   19.8704   22.6608 C   0  0  0  0  0  0  0  0  0  0  0  0
   18.2453   20.1485   22.3843 H   0  0  0  0  0  0  0  0  0  0  0  0
   19.9321   20.5889   22.1588 H   0  0  0  0  0  0  0  0  0  0  0  0
   19.4604   20.0354   24.1888 C   0  0  0  0  0  0  0  0  0  0  0  0
   20.4888   19.7592   24.4574 H   0  0  0  0  0  0  0  0  0  0  0  0
   19.3512   21.0999   24.4384 H   0  0  0  0  0  0  0  0  0  0  0  0
   18.4487   19.2168   25.0302 C   0  0  0  0  0  0  0  0  0  0  0  0
   18.6054   18.1423   24.8738 H   0  0  0  0  0  0  0  0  0  0  0  0
   17.4301   19.4330   24.6798 H   0  0  0  0  0  0  0  0  0  0  0  0
   18.5264   19.5328   26.5448 C   0  0  0  0  0  0  0  0  0  0  0  0
   18.2715   20.5884   26.7081 H   0  0  0  0  0  0  0  0  0  0  0  0
   17.7648   18.9481   27.0775 H   0  0  0  0  0  0  0  0  0  0  0  0
   19.9074   19.2549   27.1723 C   0  0  0  0  0  0  0  0  0  0  0  0
   19.8870   19.5278   28.2308 H   0  0  0  0  0  0  0  0  0  0  0  0
   20.6675   19.8660   26.6786 H   0  0  0  0  0  0  0  0  0  0  0  0
   20.3367   17.8043   27.0777 N   0  3  0  0  0  0  0  0  0  0  0  0
   19.6742   17.1806   27.5502 H   0  0  0  0  0  0  0  0  0  0  0  0
   21.2548   17.6497   27.5085 H   0  0  0  0  0  0  0  0  0  0  0  0
   20.4038   17.4946   26.1031 H   0  0  0  0  0  0  0  0  0  0  0  0
  1  2  1  0  0  0  0
  1  3  1  0  0  0  0
  1  4  1  0  0  0  0
  1  5  1  0  0  0  0
  5  6  1  0  0  0  0
  5  7  1  0  0  0  0
  5  8  1  0  0  0  0
  8  9  1  0  0  0  0
  8 10  1  0  0  0  0
  8 11  1  0  0  0  0
 11 12  1  0  0  0  0
 11 13  1  0  0  0  0
 11 14  1  0  0  0  0
 14 15  1  0  0  0  0
 14 16  1  0  0  0  0
 14 17  1  0  0  0  0
 17 18  1  0  0  0  0
 17 19  1  0  0  0  0
 17 20  1  0  0  0  0
 20 21  1  0  0  0  0
 20 22  1  0  0  0  0
 20 23  1  0  0  0  0
 23 24  1  0  0  0  0
 23 25  1  0  0  0  0
 23 26  1  0  0  0  0
 26 27  1  0  0  0  0
 26 28  1  0  0  0  0
 26 29  1  0  0  0  0
M  END
> <VM2 Rank>
175

> <Conf_Id>
703

> <Probability>
0.10

> <Sum Probability>
96.64

> <Delta G>
2.389

> <G>
60.535

> <E>
22.891

> <-TS>
37.644

> <U+W>
-1.254

> <U>
50.887

> <W>
-52.141

> <W(PB)>
-54.601

> <W(SA)>
2.460

> <Valence>
4.062

> <Coulomb>
45.799

> <VdW>
1.026

> <VdW6>
-9.553

> <VdW12>
10.580

> <Bond>
0.275

> <Angle>
1.140

> <Pdih>
2.648

> <Idih>
0.000

> <Tether>
0.000

$$$$
VeraChem MOL file


 29 28  0  0  0  0  0  0  0  0999 V2000     
   20.6205   18.0000   20.7865 C   0  0  0  0  0  0  0  0  0  0  0  0
   21.3899   18.4942   21.3927 H   0  0  0  0  0  0  0  0  0  0  0  0
   20.9278   16.9553   20.6488 H   0  0  0  0  0  0  0  0  0  0  0  0
   20.6013   18.4781   19.7986 H   0  0  0  0  0  0  0  0  0  0  0  0
   19.2336   18.0717   21.4643 C   0  0  0  0  0  0  0  0  0  0  0  0
   19.2800   17.5990   22.4545 H   0  0  0  0  0  0  0  0  0  0  0  0
   18.5220   17.4738   20.8782 H   0  0  0  0  0  0  0  0  0  0  0  0
   18.6835   19.5155   21.5855 C   0  0  0  0  0  0  0  0  0  0  0  0
   18.5495   19.9290   20.5765 H   0  0  0  0  0  0  0  0  0  0  0  0
   17.6773   19.4779   22.0234 H   0  0  0  0  0  0  0  0  0  0  0  0
   19.5673   20.4926   22.4068 C   0  0  0  0  0  0  0  0  0  0  0  0
   19.0667   21.4697   22.4464 H   0  0  0  0  0  0  0  0  0  0  0  0
   20.5098   20.6666   21.8708 H   0  0  0  0  0  0  0  0  0  0  0  0
   19.8898   20.0349   23.8524 C   0  0  0  0  0  0  0  0  0  0  0  0
   20.4852   19.1136   23.8220 H   0  0  0  0  0  0  0  0  0  0  0  0
   20.5305   20.7945   24.3208 H   0  0  0  0  0  0  0  0  0  0  0  0
   18.6282   19.8296   24.7280 C   0  0  0  0  0  0  0  0  0  0  0  0
   18.0161   19.0129   24.3229 H   0  0  0  0  0  0  0  0  0  0  0  0
   18.0081   20.7356   24.6859 H   0  0  0  0  0  0  0  0  0  0  0  0
   18.9632   19.5236   26.2064 C   0  0  0  0  0  0  0  0  0  0  0  0
   19.5500   20.3491   26.6308 H   0  0  0  0  0  0  0  0  0  0  0  0
   18.0287   19.4739   26.7809 H   0  0  0  0  0  0  0  0  0  0  0  0
   19.7312   18.1998   26.3781 C   0  0  0  0  0  0  0  0  0  0  0  0
   20.6841   18.2528   25.8453 H   0  0  0  0  0  0  0  0  0  0  0  0
   19.1460   17.3777   25.9574 H   0  0  0  0  0  0  0  0  0  0  0  0
   20.0267   17.8703   27.8269 N   0  3  0  0  0  0  0  0  0  0  0  0
   20.5982   18.5948   28.2742 H   0  0  0  0  0  0  0  0  0  0  0  0
   20.5382   16.9859   27.9200 H   0  0  0  0  0  0  0  0  0  0  0  0
   19.1682   17.7786   28.3802 H   0  0  0  0  0  0  0  0  0  0  0  0
  1  2  1  0  0  0  0
  1  3  1  0  0  0  0
  1  4  1  0  0  0  0
  1  5  1  0  0  0  0
  5  6  1  0  0  0  0
  5  7  1  0  0  0  0
  5  8  1  0  0  0  0
  8  9  1  0  0  0  0
  8 10  1  0  0  0  0
  8 11  1  0  0  0  0
 11 12  1  0  0  0  0
 11 13  1  0  0  0  0
 11 14  1  0  0  0  0
 14 15  1  0  0  0  0
 14 16  1  0  0  0  0
 14 17  1  0  0  0  0
 17 18  1  0  0  0  0
 17 19  1  0  0  0  0
 17 20  1  0  0  0  0
 20 21  1  0  0  0  0
 20 22  1  0  0  0  0
 20 23  1  0  0  0  0
 23 24  1  0  0  0  0
 23 25  1  0  0  0  0
 23 26  1  0  0  0  0
 26 27  1  0  0  0  0
 26 28  1  0  0  0  0
 26 29  1  0  0  0  0
M  END
> <VM2 Rank>
176

> <Conf_Id>
976

> <Probability>
0.09

> <Sum Probability>
96.74

> <Delta G>
2.399

> <G>
60.545

> <E>
22.479

> <-TS>
38.066

> <U+W>
-1.666

> <U>
50.365

> <W>
-52.031

> <W(PB)>
-54.487

> <W(SA)>
2.456

> <Valence>
4.264

> <Coulomb>
45.392

> <VdW>
0.709

> <VdW6>
-10.225

> <VdW12>
10.934

> <Bond>
0.291

> <Angle>
1.460

> <Pdih>
2.514

> <Idih>
0.000

> <Tether>
0.000

$$$$
VeraChem MOL file


 29 28  0  0  0  0  0  0  0  0999 V2000     
   18.9961   18.0614   20.1563 C   0  0  0  0  0  0  0  0  0  0  0  0
   18.6457   17.5124   21.0393 H   0  0  0  0  0  0  0  0  0  0  0  0
   18.1460   18.6119   19.7330 H   0  0  0  0  0  0  0  0  0  0  0  0
   19.3206   17.3208   19.4140 H   0  0  0  0  0  0  0  0  0  0  0  0
   20.1568   19.0184   20.5096 C   0  0  0  0  0  0  0  0  0  0  0  0
   20.5523   19.4521   19.5806 H   0  0  0  0  0  0  0  0  0  0  0  0
   20.9858   18.4491   20.9503 H   0  0  0  0  0  0  0  0  0  0  0  0
   19.7377   20.1749   21.4530 C   0  0  0  0  0  0  0  0  0  0  0  0
   20.6106   20.8166   21.6355 H   0  0  0  0  0  0  0  0  0  0  0  0
   19.0045   20.8064   20.9327 H   0  0  0  0  0  0  0  0  0  0  0  0
   19.1379   19.7408   22.8158 C   0  0  0  0  0  0  0  0  0  0  0  0
   18.2067   19.1821   22.6538 H   0  0  0  0  0  0  0  0  0  0  0  0
   18.8543   20.6502   23.3602 H   0  0  0  0  0  0  0  0  0  0  0  0
   20.1107   18.9002   23.6814 C   0  0  0  0  0  0  0  0  0  0  0  0
   20.3914   17.9917   23.1332 H   0  0  0  0  0  0  0  0  0  0  0  0
   21.0402   19.4616   23.8478 H   0  0  0  0  0  0  0  0  0  0  0  0
   19.5138   18.4674   25.0434 C   0  0  0  0  0  0  0  0  0  0  0  0
   20.2080   17.7545   25.5075 H   0  0  0  0  0  0  0  0  0  0  0  0
   18.5756   17.9204   24.8767 H   0  0  0  0  0  0  0  0  0  0  0  0
   19.2656   19.6474   26.0165 C   0  0  0  0  0  0  0  0  0  0  0  0
   20.1935   20.2157   26.1640 H   0  0  0  0  0  0  0  0  0  0  0  0
   18.5366   20.3423   25.5822 H   0  0  0  0  0  0  0  0  0  0  0  0
   18.7234   19.1856   27.3830 C   0  0  0  0  0  0  0  0  0  0  0  0
   17.8105   18.6015   27.2386 H   0  0  0  0  0  0  0  0  0  0  0  0
   18.4758   20.0614   27.9890 H   0  0  0  0  0  0  0  0  0  0  0  0
   19.7021   18.3418   28.1760 N   0  3  0  0  0  0  0  0  0  0  0  0
   19.9505   17.4808   27.6789 H   0  0  0  0  0  0  0  0  0  0  0  0
   19.3156   18.0635   29.0847 H   0  0  0  0  0  0  0  0  0  0  0  0
   20.5747   18.8466   28.3632 H   0  0  0  0  0  0  0  0  0  0  0  0
  1  2  1  0  0  0  0
  1  3  1  0  0  0  0
  1  4  1  0  0  0  0
  1  5  1  0  0  0  0
  5  6  1  0  0  0  0
  5  7  1  0  0  0  0
  5  8  1  0  0  0  0
  8  9  1  0  0  0  0
  8 10  1  0  0  0  0
  8 11  1  0  0  0  0
 11 12  1  0  0  0  0
 11 13  1  0  0  0  0
 11 14  1  0  0  0  0
 14 15  1  0  0  0  0
 14 16  1  0  0  0  0
 14 17  1  0  0  0  0
 17 18  1  0  0  0  0
 17 19  1  0  0  0  0
 17 20  1  0  0  0  0
 20 21  1  0  0  0  0
 20 22  1  0  0  0  0
 20 23  1  0  0  0  0
 23 24  1  0  0  0  0
 23 25  1  0  0  0  0
 23 26  1  0  0  0  0
 26 27  1  0  0  0  0
 26 28  1  0  0  0  0
 26 29  1  0  0  0  0
M  END
> <VM2 Rank>
177

> <Conf_Id>
535

> <Probability>
0.09

> <Sum Probability>
96.83

> <Delta G>
2.401

> <G>
60.548

> <E>
22.804

> <-TS>
37.744

> <U+W>
-1.341

> <U>
50.320

> <W>
-51.661

> <W(PB)>
-54.113

> <W(SA)>
2.453

> <Valence>
4.288

> <Coulomb>
44.897

> <VdW>
1.135

> <VdW6>
-9.608

> <VdW12>
10.743

> <Bond>
0.299

> <Angle>
1.449

> <Pdih>
2.539

> <Idih>
0.000

> <Tether>
0.000

$$$$
VeraChem MOL file


 29 28  0  0  0  0  0  0  0  0999 V2000     
   20.9013   17.7966   21.6748 C   0  0  0  0  0  0  0  0  0  0  0  0
   20.8690   17.7588   22.7706 H   0  0  0  0  0  0  0  0  0  0  0  0
   21.0441   16.7703   21.3129 H   0  0  0  0  0  0  0  0  0  0  0  0
   21.7794   18.3838   21.3761 H   0  0  0  0  0  0  0  0  0  0  0  0
   19.6046   18.4012   21.0904 C   0  0  0  0  0  0  0  0  0  0  0  0
   18.7393   17.8106   21.4199 H   0  0  0  0  0  0  0  0  0  0  0  0
   19.6326   18.3074   19.9959 H   0  0  0  0  0  0  0  0  0  0  0  0
   19.4025   19.8949   21.4520 C   0  0  0  0  0  0  0  0  0  0  0  0
   20.2166   20.4815   21.0045 H   0  0  0  0  0  0  0  0  0  0  0  0
   18.4783   20.2524   20.9776 H   0  0  0  0  0  0  0  0  0  0  0  0
   19.3433   20.2046   22.9699 C   0  0  0  0  0  0  0  0  0  0  0  0
   19.2175   21.2883   23.0985 H   0  0  0  0  0  0  0  0  0  0  0  0
   20.3066   19.9539   23.4312 H   0  0  0  0  0  0  0  0  0  0  0  0
   18.1912   19.4728   23.7030 C   0  0  0  0  0  0  0  0  0  0  0  0
   17.2495   19.6659   23.1711 H   0  0  0  0  0  0  0  0  0  0  0  0
   18.3468   18.3874   23.6612 H   0  0  0  0  0  0  0  0  0  0  0  0
   18.0206   19.9152   25.1791 C   0  0  0  0  0  0  0  0  0  0  0  0
   17.1639   19.3793   25.6106 H   0  0  0  0  0  0  0  0  0  0  0  0
   17.7559   20.9812   25.2081 H   0  0  0  0  0  0  0  0  0  0  0  0
   19.2620   19.6802   26.0754 C   0  0  0  0  0  0  0  0  0  0  0  0
   20.0914   20.3172   25.7428 H   0  0  0  0  0  0  0  0  0  0  0  0
   19.0239   19.9959   27.0999 H   0  0  0  0  0  0  0  0  0  0  0  0
   19.7134   18.2080   26.0937 C   0  0  0  0  0  0  0  0  0  0  0  0
   19.9881   17.8941   25.0834 H   0  0  0  0  0  0  0  0  0  0  0  0
   18.8917   17.5755   26.4403 H   0  0  0  0  0  0  0  0  0  0  0  0
   20.9051   17.9644   26.9965 N   0  3  0  0  0  0  0  0  0  0  0  0
   21.7219   18.5125   26.7071 H   0  0  0  0  0  0  0  0  0  0  0  0
   21.1896   16.9787   26.9943 H   0  0  0  0  0  0  0  0  0  0  0  0
   20.7031   18.2146   27.9702 H   0  0  0  0  0  0  0  0  0  0  0  0
  1  2  1  0  0  0  0
  1  3  1  0  0  0  0
  1  4  1  0  0  0  0
  1  5  1  0  0  0  0
  5  6  1  0  0  0  0
  5  7  1  0  0  0  0
  5  8  1  0  0  0  0
  8  9  1  0  0  0  0
  8 10  1  0  0  0  0
  8 11  1  0  0  0  0
 11 12  1  0  0  0  0
 11 13  1  0  0  0  0
 11 14  1  0  0  0  0
 14 15  1  0  0  0  0
 14 16  1  0  0  0  0
 14 17  1  0  0  0  0
 17 18  1  0  0  0  0
 17 19  1  0  0  0  0
 17 20  1  0  0  0  0
 20 21  1  0  0  0  0
 20 22  1  0  0  0  0
 20 23  1  0  0  0  0
 23 24  1  0  0  0  0
 23 25  1  0  0  0  0
 23 26  1  0  0  0  0
 26 27  1  0  0  0  0
 26 28  1  0  0  0  0
 26 29  1  0  0  0  0
M  END
> <VM2 Rank>
178

> <Conf_Id>
1992

> <Probability>
0.09

> <Sum Probability>
96.93

> <Delta G>
2.404

> <G>
60.550

> <E>
22.499

> <-TS>
38.051

> <U+W>
-1.645

> <U>
50.968

> <W>
-52.614

> <W(PB)>
-55.012

> <W(SA)>
2.399

> <Valence>
4.230

> <Coulomb>
46.141

> <VdW>
0.598

> <VdW6>
-10.517

> <VdW12>
11.114

> <Bond>
0.292

> <Angle>
1.459

> <Pdih>
2.478

> <Idih>
0.000

> <Tether>
0.000

$$$$
VeraChem MOL file


 29 28  0  0  0  0  0  0  0  0999 V2000     
   20.5548   19.2704   19.9211 C   0  0  0  0  0  0  0  0  0  0  0  0
   20.7168   18.2668   19.5067 H   0  0  0  0  0  0  0  0  0  0  0  0
   20.2895   19.9385   19.0915 H   0  0  0  0  0  0  0  0  0  0  0  0
   21.5036   19.6219   20.3471 H   0  0  0  0  0  0  0  0  0  0  0  0
   19.4396   19.2571   20.9878 C   0  0  0  0  0  0  0  0  0  0  0  0
   18.4972   18.9306   20.5265 H   0  0  0  0  0  0  0  0  0  0  0  0
   19.2795   20.2817   21.3491 H   0  0  0  0  0  0  0  0  0  0  0  0
   19.7927   18.3243   22.1699 C   0  0  0  0  0  0  0  0  0  0  0  0
   20.0151   17.3220   21.7787 H   0  0  0  0  0  0  0  0  0  0  0  0
   20.7154   18.6712   22.6531 H   0  0  0  0  0  0  0  0  0  0  0  0
   18.6582   18.1979   23.2191 C   0  0  0  0  0  0  0  0  0  0  0  0
   18.9623   17.4728   23.9856 H   0  0  0  0  0  0  0  0  0  0  0  0
   17.7744   17.7605   22.7348 H   0  0  0  0  0  0  0  0  0  0  0  0
   18.2408   19.5263   23.9053 C   0  0  0  0  0  0  0  0  0  0  0  0
   17.7796   20.1899   23.1620 H   0  0  0  0  0  0  0  0  0  0  0  0
   17.4454   19.3120   24.6316 H   0  0  0  0  0  0  0  0  0  0  0  0
   19.3900   20.2919   24.6144 C   0  0  0  0  0  0  0  0  0  0  0  0
   18.9751   21.1994   25.0742 H   0  0  0  0  0  0  0  0  0  0  0  0
   20.1138   20.6430   23.8669 H   0  0  0  0  0  0  0  0  0  0  0  0
   20.1371   19.4784   25.7000 C   0  0  0  0  0  0  0  0  0  0  0  0
   20.6544   18.6260   25.2416 H   0  0  0  0  0  0  0  0  0  0  0  0
   20.9175   20.1113   26.1428 H   0  0  0  0  0  0  0  0  0  0  0  0
   19.2012   18.9779   26.8155 C   0  0  0  0  0  0  0  0  0  0  0  0
   18.4421   18.3159   26.3906 H   0  0  0  0  0  0  0  0  0  0  0  0
   18.6958   19.8283   27.2809 H   0  0  0  0  0  0  0  0  0  0  0  0
   19.9296   18.2138   27.9020 N   0  3  0  0  0  0  0  0  0  0  0  0
   20.4055   17.3844   27.5320 H   0  0  0  0  0  0  0  0  0  0  0  0
   19.2886   17.8894   28.6345 H   0  0  0  0  0  0  0  0  0  0  0  0
   20.6415   18.7907   28.3621 H   0  0  0  0  0  0  0  0  0  0  0  0
  1  2  1  0  0  0  0
  1  3  1  0  0  0  0
  1  4  1  0  0  0  0
  1  5  1  0  0  0  0
  5  6  1  0  0  0  0
  5  7  1  0  0  0  0
  5  8  1  0  0  0  0
  8  9  1  0  0  0  0
  8 10  1  0  0  0  0
  8 11  1  0  0  0  0
 11 12  1  0  0  0  0
 11 13  1  0  0  0  0
 11 14  1  0  0  0  0
 14 15  1  0  0  0  0
 14 16  1  0  0  0  0
 14 17  1  0  0  0  0
 17 18  1  0  0  0  0
 17 19  1  0  0  0  0
 17 20  1  0  0  0  0
 20 21  1  0  0  0  0
 20 22  1  0  0  0  0
 20 23  1  0  0  0  0
 23 24  1  0  0  0  0
 23 25  1  0  0  0  0
 23 26  1  0  0  0  0
 26 27  1  0  0  0  0
 26 28  1  0  0  0  0
 26 29  1  0  0  0  0
M  END
> <VM2 Rank>
179

> <Conf_Id>
104

> <Probability>
0.09

> <Sum Probability>
97.02

> <Delta G>
2.406

> <G>
60.552

> <E>
22.366

> <-TS>
38.186

> <U+W>
-1.778

> <U>
50.384

> <W>
-52.162

> <W(PB)>
-54.621

> <W(SA)>
2.459

> <Valence>
4.248

> <Coulomb>
45.544

> <VdW>
0.592

> <VdW6>
-10.476

> <VdW12>
11.067

> <Bond>
0.300

> <Angle>
1.566

> <Pdih>
2.382

> <Idih>
0.000

> <Tether>
0.000

$$$$
VeraChem MOL file


 29 28  0  0  0  0  0  0  0  0999 V2000     
   20.2664   18.3618   20.0392 C   0  0  0  0  0  0  0  0  0  0  0  0
   20.1646   17.3743   20.5058 H   0  0  0  0  0  0  0  0  0  0  0  0
   19.3379   18.5843   19.4973 H   0  0  0  0  0  0  0  0  0  0  0  0
   21.0773   18.2957   19.3024 H   0  0  0  0  0  0  0  0  0  0  0  0
   20.5751   19.4566   21.0855 C   0  0  0  0  0  0  0  0  0  0  0  0
   20.7941   20.3958   20.5586 H   0  0  0  0  0  0  0  0  0  0  0  0
   21.4881   19.1940   21.6378 H   0  0  0  0  0  0  0  0  0  0  0  0
   19.4152   19.7058   22.0796 C   0  0  0  0  0  0  0  0  0  0  0  0
   19.6741   20.5806   22.6897 H   0  0  0  0  0  0  0  0  0  0  0  0
   18.5060   19.9729   21.5238 H   0  0  0  0  0  0  0  0  0  0  0  0
   19.1262   18.4970   23.0052 C   0  0  0  0  0  0  0  0  0  0  0  0
   20.0377   18.2201   23.5508 H   0  0  0  0  0  0  0  0  0  0  0  0
   18.8632   17.6245   22.3936 H   0  0  0  0  0  0  0  0  0  0  0  0
   17.9648   18.7447   24.0025 C   0  0  0  0  0  0  0  0  0  0  0  0
   17.0414   18.9239   23.4347 H   0  0  0  0  0  0  0  0  0  0  0  0
   17.7861   17.8223   24.5714 H   0  0  0  0  0  0  0  0  0  0  0  0
   18.1753   19.9226   24.9920 C   0  0  0  0  0  0  0  0  0  0  0  0
   17.3119   19.9676   25.6701 H   0  0  0  0  0  0  0  0  0  0  0  0
   18.1670   20.8727   24.4416 H   0  0  0  0  0  0  0  0  0  0  0  0
   19.4701   19.8377   25.8374 C   0  0  0  0  0  0  0  0  0  0  0  0
   20.3497   19.9157   25.1857 H   0  0  0  0  0  0  0  0  0  0  0  0
   19.5096   20.7021   26.5134 H   0  0  0  0  0  0  0  0  0  0  0  0
   19.5522   18.5439   26.6682 C   0  0  0  0  0  0  0  0  0  0  0  0
   19.5492   17.6772   26.0020 H   0  0  0  0  0  0  0  0  0  0  0  0
   18.6833   18.4746   27.3281 H   0  0  0  0  0  0  0  0  0  0  0  0
   20.7988   18.4680   27.5254 N   0  3  0  0  0  0  0  0  0  0  0  0
   20.8487   19.2427   28.1953 H   0  0  0  0  0  0  0  0  0  0  0  0
   21.6536   18.5017   26.9602 H   0  0  0  0  0  0  0  0  0  0  0  0
   20.8341   17.5992   28.0701 H   0  0  0  0  0  0  0  0  0  0  0  0
  1  2  1  0  0  0  0
  1  3  1  0  0  0  0
  1  4  1  0  0  0  0
  1  5  1  0  0  0  0
  5  6  1  0  0  0  0
  5  7  1  0  0  0  0
  5  8  1  0  0  0  0
  8  9  1  0  0  0  0
  8 10  1  0  0  0  0
  8 11  1  0  0  0  0
 11 12  1  0  0  0  0
 11 13  1  0  0  0  0
 11 14  1  0  0  0  0
 14 15  1  0  0  0  0
 14 16  1  0  0  0  0
 14 17  1  0  0  0  0
 17 18  1  0  0  0  0
 17 19  1  0  0  0  0
 17 20  1  0  0  0  0
 20 21  1  0  0  0  0
 20 22  1  0  0  0  0
 20 23  1  0  0  0  0
 23 24  1  0  0  0  0
 23 25  1  0  0  0  0
 23 26  1  0  0  0  0
 26 27  1  0  0  0  0
 26 28  1  0  0  0  0
 26 29  1  0  0  0  0
M  END
> <VM2 Rank>
180

> <Conf_Id>
1313

> <Probability>
0.09

> <Sum Probability>
97.11

> <Delta G>
2.419

> <G>
60.566

> <E>
22.604

> <-TS>
37.961

> <U+W>
-1.540

> <U>
50.750

> <W>
-52.290

> <W(PB)>
-54.732

> <W(SA)>
2.442

> <Valence>
4.370

> <Coulomb>
45.571

> <VdW>
0.809

> <VdW6>
-10.135

> <VdW12>
10.944

> <Bond>
0.300

> <Angle>
1.544

> <Pdih>
2.526

> <Idih>
0.000

> <Tether>
0.000

$$$$
VeraChem MOL file


 29 28  0  0  0  0  0  0  0  0999 V2000     
   19.8122   19.5345   19.8241 C   0  0  0  0  0  0  0  0  0  0  0  0
   18.7184   19.4562   19.8463 H   0  0  0  0  0  0  0  0  0  0  0  0
   20.0746   20.2574   19.0408 H   0  0  0  0  0  0  0  0  0  0  0  0
   20.2217   18.5590   19.5313 H   0  0  0  0  0  0  0  0  0  0  0  0
   20.3784   19.9878   21.1890 C   0  0  0  0  0  0  0  0  0  0  0  0
   19.9277   20.9480   21.4764 H   0  0  0  0  0  0  0  0  0  0  0  0
   21.4557   20.1748   21.0788 H   0  0  0  0  0  0  0  0  0  0  0  0
   20.1692   18.9517   22.3198 C   0  0  0  0  0  0  0  0  0  0  0  0
   20.6231   17.9943   22.0294 H   0  0  0  0  0  0  0  0  0  0  0  0
   20.7183   19.3008   23.2036 H   0  0  0  0  0  0  0  0  0  0  0  0
   18.6799   18.7342   22.6893 C   0  0  0  0  0  0  0  0  0  0  0  0
   18.1306   18.3921   21.8029 H   0  0  0  0  0  0  0  0  0  0  0  0
   18.2245   19.6912   22.9757 H   0  0  0  0  0  0  0  0  0  0  0  0
   18.4651   17.6867   23.8126 C   0  0  0  0  0  0  0  0  0  0  0  0
   17.3856   17.5659   23.9780 H   0  0  0  0  0  0  0  0  0  0  0  0
   18.8255   16.7098   23.4619 H   0  0  0  0  0  0  0  0  0  0  0  0
   19.1453   18.0115   25.1677 C   0  0  0  0  0  0  0  0  0  0  0  0
   20.2360   17.9960   25.0480 H   0  0  0  0  0  0  0  0  0  0  0  0
   18.9082   17.2046   25.8750 H   0  0  0  0  0  0  0  0  0  0  0  0
   18.6938   19.3619   25.7771 C   0  0  0  0  0  0  0  0  0  0  0  0
   19.0089   20.1955   25.1366 H   0  0  0  0  0  0  0  0  0  0  0  0
   17.5970   19.3932   25.8192 H   0  0  0  0  0  0  0  0  0  0  0  0
   19.2443   19.5829   27.1988 C   0  0  0  0  0  0  0  0  0  0  0  0
   18.9362   18.7569   27.8455 H   0  0  0  0  0  0  0  0  0  0  0  0
   18.8320   20.5091   27.6081 H   0  0  0  0  0  0  0  0  0  0  0  0
   20.7557   19.6868   27.2566 N   0  3  0  0  0  0  0  0  0  0  0  0
   21.1056   20.4631   26.6856 H   0  0  0  0  0  0  0  0  0  0  0  0
   21.2072   18.8319   26.9171 H   0  0  0  0  0  0  0  0  0  0  0  0
   21.0898   19.8437   28.2138 H   0  0  0  0  0  0  0  0  0  0  0  0
  1  2  1  0  0  0  0
  1  3  1  0  0  0  0
  1  4  1  0  0  0  0
  1  5  1  0  0  0  0
  5  6  1  0  0  0  0
  5  7  1  0  0  0  0
  5  8  1  0  0  0  0
  8  9  1  0  0  0  0
  8 10  1  0  0  0  0
  8 11  1  0  0  0  0
 11 12  1  0  0  0  0
 11 13  1  0  0  0  0
 11 14  1  0  0  0  0
 14 15  1  0  0  0  0
 14 16  1  0  0  0  0
 14 17  1  0  0  0  0
 17 18  1  0  0  0  0
 17 19  1  0  0  0  0
 17 20  1  0  0  0  0
 20 21  1  0  0  0  0
 20 22  1  0  0  0  0
 20 23  1  0  0  0  0
 23 24  1  0  0  0  0
 23 25  1  0  0  0  0
 23 26  1  0  0  0  0
 26 27  1  0  0  0  0
 26 28  1  0  0  0  0
 26 29  1  0  0  0  0
M  END
> <VM2 Rank>
181

> <Conf_Id>
258

> <Probability>
0.09

> <Sum Probability>
97.20

> <Delta G>
2.424

> <G>
60.570

> <E>
22.750

> <-TS>
37.821

> <U+W>
-1.395

> <U>
50.985

> <W>
-52.380

> <W(PB)>
-54.815

> <W(SA)>
2.435

> <Valence>
4.232

> <Coulomb>
45.770

> <VdW>
0.982

> <VdW6>
-9.806

> <VdW12>
10.788

> <Bond>
0.294

> <Angle>
1.395

> <Pdih>
2.544

> <Idih>
0.000

> <Tether>
0.000

$$$$
VeraChem MOL file


 29 28  0  0  0  0  0  0  0  0999 V2000     
   19.4957   18.6461   19.8044 C   0  0  0  0  0  0  0  0  0  0  0  0
   20.4334   19.1543   19.5446 H   0  0  0  0  0  0  0  0  0  0  0  0
   19.2534   17.9518   18.9894 H   0  0  0  0  0  0  0  0  0  0  0  0
   18.6970   19.3968   19.8451 H   0  0  0  0  0  0  0  0  0  0  0  0
   19.6291   17.8835   21.1420 C   0  0  0  0  0  0  0  0  0  0  0  0
   20.3475   17.0625   21.0093 H   0  0  0  0  0  0  0  0  0  0  0  0
   18.6692   17.4134   21.3976 H   0  0  0  0  0  0  0  0  0  0  0  0
   20.1056   18.7730   22.3157 C   0  0  0  0  0  0  0  0  0  0  0  0
   20.2982   18.1209   23.1772 H   0  0  0  0  0  0  0  0  0  0  0  0
   21.0663   19.2389   22.0571 H   0  0  0  0  0  0  0  0  0  0  0  0
   19.0836   19.8676   22.7146 C   0  0  0  0  0  0  0  0  0  0  0  0
   18.1220   19.4031   22.9692 H   0  0  0  0  0  0  0  0  0  0  0  0
   18.8864   20.5146   21.8503 H   0  0  0  0  0  0  0  0  0  0  0  0
   19.5630   20.7697   23.8815 C   0  0  0  0  0  0  0  0  0  0  0  0
   20.4644   21.3122   23.5647 H   0  0  0  0  0  0  0  0  0  0  0  0
   18.8003   21.5386   24.0667 H   0  0  0  0  0  0  0  0  0  0  0  0
   19.8659   20.0348   25.2129 C   0  0  0  0  0  0  0  0  0  0  0  0
   20.1818   20.7812   25.9549 H   0  0  0  0  0  0  0  0  0  0  0  0
   20.7226   19.3625   25.0785 H   0  0  0  0  0  0  0  0  0  0  0  0
   18.6541   19.2504   25.7745 C   0  0  0  0  0  0  0  0  0  0  0  0
   17.7837   19.9174   25.8307 H   0  0  0  0  0  0  0  0  0  0  0  0
   18.3809   18.4313   25.0971 H   0  0  0  0  0  0  0  0  0  0  0  0
   18.9211   18.6753   27.1785 C   0  0  0  0  0  0  0  0  0  0  0  0
   18.0105   18.2025   27.5565 H   0  0  0  0  0  0  0  0  0  0  0  0
   19.1948   19.4838   27.8616 H   0  0  0  0  0  0  0  0  0  0  0  0
   20.0259   17.6377   27.2110 N   0  3  0  0  0  0  0  0  0  0  0  0
   20.1722   17.2673   28.1565 H   0  0  0  0  0  0  0  0  0  0  0  0
   20.9208   18.0278   26.8993 H   0  0  0  0  0  0  0  0  0  0  0  0
   19.8149   16.8383   26.6048 H   0  0  0  0  0  0  0  0  0  0  0  0
  1  2  1  0  0  0  0
  1  3  1  0  0  0  0
  1  4  1  0  0  0  0
  1  5  1  0  0  0  0
  5  6  1  0  0  0  0
  5  7  1  0  0  0  0
  5  8  1  0  0  0  0
  8  9  1  0  0  0  0
  8 10  1  0  0  0  0
  8 11  1  0  0  0  0
 11 12  1  0  0  0  0
 11 13  1  0  0  0  0
 11 14  1  0  0  0  0
 14 15  1  0  0  0  0
 14 16  1  0  0  0  0
 14 17  1  0  0  0  0
 17 18  1  0  0  0  0
 17 19  1  0  0  0  0
 17 20  1  0  0  0  0
 20 21  1  0  0  0  0
 20 22  1  0  0  0  0
 20 23  1  0  0  0  0
 23 24  1  0  0  0  0
 23 25  1  0  0  0  0
 23 26  1  0  0  0  0
 26 27  1  0  0  0  0
 26 28  1  0  0  0  0
 26 29  1  0  0  0  0
M  END
> <VM2 Rank>
182

> <Conf_Id>
2908

> <Probability>
0.09

> <Sum Probability>
97.29

> <Delta G>
2.428

> <G>
60.574

> <E>
22.753

> <-TS>
37.821

> <U+W>
-1.391

> <U>
50.985

> <W>
-52.376

> <W(PB)>
-54.823

> <W(SA)>
2.447

> <Valence>
4.232

> <Coulomb>
45.770

> <VdW>
0.983

> <VdW6>
-9.806

> <VdW12>
10.788

> <Bond>
0.294

> <Angle>
1.395

> <Pdih>
2.544

> <Idih>
0.000

> <Tether>
0.000

$$$$
VeraChem MOL file


 29 28  0  0  0  0  0  0  0  0999 V2000     
   21.1833   18.5243   21.1157 C   0  0  0  0  0  0  0  0  0  0  0  0
   21.2003   18.0175   22.0886 H   0  0  0  0  0  0  0  0  0  0  0  0
   20.8824   17.7949   20.3525 H   0  0  0  0  0  0  0  0  0  0  0  0
   22.2095   18.8426   20.8909 H   0  0  0  0  0  0  0  0  0  0  0  0
   20.2297   19.7402   21.1278 C   0  0  0  0  0  0  0  0  0  0  0  0
   20.3358   20.2823   20.1778 H   0  0  0  0  0  0  0  0  0  0  0  0
   20.5381   20.4454   21.9111 H   0  0  0  0  0  0  0  0  0  0  0  0
   18.7398   19.3537   21.3107 C   0  0  0  0  0  0  0  0  0  0  0  0
   18.1312   20.2680   21.2820 H   0  0  0  0  0  0  0  0  0  0  0  0
   18.4209   18.7533   20.4477 H   0  0  0  0  0  0  0  0  0  0  0  0
   18.4118   18.5709   22.6084 C   0  0  0  0  0  0  0  0  0  0  0  0
   18.9257   17.6005   22.5999 H   0  0  0  0  0  0  0  0  0  0  0  0
   17.3370   18.3432   22.6112 H   0  0  0  0  0  0  0  0  0  0  0  0
   18.7676   19.3409   23.9023 C   0  0  0  0  0  0  0  0  0  0  0  0
   19.8499   19.5167   23.9378 H   0  0  0  0  0  0  0  0  0  0  0  0
   18.2827   20.3267   23.8872 H   0  0  0  0  0  0  0  0  0  0  0  0
   18.3265   18.5674   25.1678 C   0  0  0  0  0  0  0  0  0  0  0  0
   18.8222   17.5878   25.1955 H   0  0  0  0  0  0  0  0  0  0  0  0
   17.2488   18.3622   25.1073 H   0  0  0  0  0  0  0  0  0  0  0  0
   18.6076   19.3380   26.4821 C   0  0  0  0  0  0  0  0  0  0  0  0
   18.0371   20.2763   26.4803 H   0  0  0  0  0  0  0  0  0  0  0  0
   18.2324   18.7534   27.3326 H   0  0  0  0  0  0  0  0  0  0  0  0
   20.0969   19.6651   26.7128 C   0  0  0  0  0  0  0  0  0  0  0  0
   20.2053   20.2260   27.6450 H   0  0  0  0  0  0  0  0  0  0  0  0
   20.4697   20.2889   25.8963 H   0  0  0  0  0  0  0  0  0  0  0  0
   20.9808   18.4374   26.8074 N   0  3  0  0  0  0  0  0  0  0  0  0
   21.9631   18.6863   26.9671 H   0  0  0  0  0  0  0  0  0  0  0  0
   20.9454   17.8810   25.9476 H   0  0  0  0  0  0  0  0  0  0  0  0
   20.6972   17.8239   27.5784 H   0  0  0  0  0  0  0  0  0  0  0  0
  1  2  1  0  0  0  0
  1  3  1  0  0  0  0
  1  4  1  0  0  0  0
  1  5  1  0  0  0  0
  5  6  1  0  0  0  0
  5  7  1  0  0  0  0
  5  8  1  0  0  0  0
  8  9  1  0  0  0  0
  8 10  1  0  0  0  0
  8 11  1  0  0  0  0
 11 12  1  0  0  0  0
 11 13  1  0  0  0  0
 11 14  1  0  0  0  0
 14 15  1  0  0  0  0
 14 16  1  0  0  0  0
 14 17  1  0  0  0  0
 17 18  1  0  0  0  0
 17 19  1  0  0  0  0
 17 20  1  0  0  0  0
 20 21  1  0  0  0  0
 20 22  1  0  0  0  0
 20 23  1  0  0  0  0
 23 24  1  0  0  0  0
 23 25  1  0  0  0  0
 23 26  1  0  0  0  0
 26 27  1  0  0  0  0
 26 28  1  0  0  0  0
 26 29  1  0  0  0  0
M  END
> <VM2 Rank>
183

> <Conf_Id>
319

> <Probability>
0.09

> <Sum Probability>
97.38

> <Delta G>
2.446

> <G>
60.592

> <E>
22.682

> <-TS>
37.910

> <U+W>
-1.462

> <U>
50.684

> <W>
-52.146

> <W(PB)>
-54.567

> <W(SA)>
2.421

> <Valence>
3.913

> <Coulomb>
45.942

> <VdW>
0.829

> <VdW6>
-9.954

> <VdW12>
10.783

> <Bond>
0.272

> <Angle>
1.273

> <Pdih>
2.367

> <Idih>
0.000

> <Tether>
0.000

$$$$
VeraChem MOL file


 29 28  0  0  0  0  0  0  0  0999 V2000     
   20.5860   19.2582   20.0594 C   0  0  0  0  0  0  0  0  0  0  0  0
   19.7338   19.6943   19.5223 H   0  0  0  0  0  0  0  0  0  0  0  0
   21.1247   20.0682   20.5663 H   0  0  0  0  0  0  0  0  0  0  0  0
   21.2666   18.8260   19.3146 H   0  0  0  0  0  0  0  0  0  0  0  0
   20.1183   18.1743   21.0570 C   0  0  0  0  0  0  0  0  0  0  0  0
   20.9838   17.7786   21.6065 H   0  0  0  0  0  0  0  0  0  0  0  0
   19.7019   17.3299   20.4902 H   0  0  0  0  0  0  0  0  0  0  0  0
   19.0479   18.6752   22.0566 C   0  0  0  0  0  0  0  0  0  0  0  0
   18.1826   19.0651   21.5035 H   0  0  0  0  0  0  0  0  0  0  0  0
   18.6870   17.8104   22.6279 H   0  0  0  0  0  0  0  0  0  0  0  0
   19.5748   19.7568   23.0333 C   0  0  0  0  0  0  0  0  0  0  0  0
   19.9310   20.6226   22.4605 H   0  0  0  0  0  0  0  0  0  0  0  0
   20.4484   19.3735   23.5765 H   0  0  0  0  0  0  0  0  0  0  0  0
   18.5043   20.2595   24.0363 C   0  0  0  0  0  0  0  0  0  0  0  0
   18.9406   21.0638   24.6438 H   0  0  0  0  0  0  0  0  0  0  0  0
   17.6835   20.7269   23.4750 H   0  0  0  0  0  0  0  0  0  0  0  0
   17.9091   19.1756   24.9754 C   0  0  0  0  0  0  0  0  0  0  0  0
   17.3099   18.4674   24.3880 H   0  0  0  0  0  0  0  0  0  0  0  0
   17.2021   19.6596   25.6633 H   0  0  0  0  0  0  0  0  0  0  0  0
   18.9541   18.3895   25.8050 C   0  0  0  0  0  0  0  0  0  0  0  0
   18.4289   17.6688   26.4457 H   0  0  0  0  0  0  0  0  0  0  0  0
   19.5955   17.7990   25.1383 H   0  0  0  0  0  0  0  0  0  0  0  0
   19.8238   19.3060   26.6851 C   0  0  0  0  0  0  0  0  0  0  0  0
   19.1851   19.8826   27.3595 H   0  0  0  0  0  0  0  0  0  0  0  0
   20.3786   20.0051   26.0538 H   0  0  0  0  0  0  0  0  0  0  0  0
   20.8257   18.5429   27.5268 N   0  3  0  0  0  0  0  0  0  0  0  0
   21.4747   17.9990   26.9486 H   0  0  0  0  0  0  0  0  0  0  0  0
   20.3654   17.8852   28.1647 H   0  0  0  0  0  0  0  0  0  0  0  0
   21.3945   19.1713   28.1049 H   0  0  0  0  0  0  0  0  0  0  0  0
  1  2  1  0  0  0  0
  1  3  1  0  0  0  0
  1  4  1  0  0  0  0
  1  5  1  0  0  0  0
  5  6  1  0  0  0  0
  5  7  1  0  0  0  0
  5  8  1  0  0  0  0
  8  9  1  0  0  0  0
  8 10  1  0  0  0  0
  8 11  1  0  0  0  0
 11 12  1  0  0  0  0
 11 13  1  0  0  0  0
 11 14  1  0  0  0  0
 14 15  1  0  0  0  0
 14 16  1  0  0  0  0
 14 17  1  0  0  0  0
 17 18  1  0  0  0  0
 17 19  1  0  0  0  0
 17 20  1  0  0  0  0
 20 21  1  0  0  0  0
 20 22  1  0  0  0  0
 20 23  1  0  0  0  0
 23 24  1  0  0  0  0
 23 25  1  0  0  0  0
 23 26  1  0  0  0  0
 26 27  1  0  0  0  0
 26 28  1  0  0  0  0
 26 29  1  0  0  0  0
M  END
> <VM2 Rank>
184

> <Conf_Id>
2191

> <Probability>
0.08

> <Sum Probability>
97.46

> <Delta G>
2.462

> <G>
60.609

> <E>
22.647

> <-TS>
37.962

> <U+W>
-1.498

> <U>
50.750

> <W>
-52.248

> <W(PB)>
-54.725

> <W(SA)>
2.476

> <Valence>
4.370

> <Coulomb>
45.572

> <VdW>
0.809

> <VdW6>
-10.136

> <VdW12>
10.944

> <Bond>
0.300

> <Angle>
1.545

> <Pdih>
2.526

> <Idih>
0.000

> <Tether>
0.000

$$$$
VeraChem MOL file


 29 28  0  0  0  0  0  0  0  0999 V2000     
   20.6503   18.4098   20.3816 C   0  0  0  0  0  0  0  0  0  0  0  0
   20.6424   17.5529   21.0668 H   0  0  0  0  0  0  0  0  0  0  0  0
   20.0130   18.1679   19.5212 H   0  0  0  0  0  0  0  0  0  0  0  0
   21.6779   18.5316   20.0155 H   0  0  0  0  0  0  0  0  0  0  0  0
   20.1688   19.6996   21.0833 C   0  0  0  0  0  0  0  0  0  0  0  0
   20.2960   20.5459   20.3940 H   0  0  0  0  0  0  0  0  0  0  0  0
   20.8129   19.9149   21.9463 H   0  0  0  0  0  0  0  0  0  0  0  0
   18.6845   19.6406   21.5247 C   0  0  0  0  0  0  0  0  0  0  0  0
   18.4028   20.6084   21.9600 H   0  0  0  0  0  0  0  0  0  0  0  0
   18.0544   19.5265   20.6319 H   0  0  0  0  0  0  0  0  0  0  0  0
   18.3366   18.5036   22.5231 C   0  0  0  0  0  0  0  0  0  0  0  0
   18.4457   17.5344   22.0186 H   0  0  0  0  0  0  0  0  0  0  0  0
   17.2725   18.5804   22.7852 H   0  0  0  0  0  0  0  0  0  0  0  0
   19.1741   18.4850   23.8280 C   0  0  0  0  0  0  0  0  0  0  0  0
   18.8524   17.6204   24.4232 H   0  0  0  0  0  0  0  0  0  0  0  0
   20.2320   18.3117   23.5909 H   0  0  0  0  0  0  0  0  0  0  0  0
   19.0304   19.7763   24.6725 C   0  0  0  0  0  0  0  0  0  0  0  0
   17.9706   19.9533   24.9024 H   0  0  0  0  0  0  0  0  0  0  0  0
   19.3709   20.6395   24.0861 H   0  0  0  0  0  0  0  0  0  0  0  0
   19.8440   19.7341   25.9873 C   0  0  0  0  0  0  0  0  0  0  0  0
   20.9053   19.5675   25.7593 H   0  0  0  0  0  0  0  0  0  0  0  0
   19.7779   20.7144   26.4778 H   0  0  0  0  0  0  0  0  0  0  0  0
   19.3467   18.6508   26.9626 C   0  0  0  0  0  0  0  0  0  0  0  0
   19.4511   17.6637   26.5051 H   0  0  0  0  0  0  0  0  0  0  0  0
   18.2899   18.8163   27.1886 H   0  0  0  0  0  0  0  0  0  0  0  0
   20.1086   18.6383   28.2719 N   0  3  0  0  0  0  0  0  0  0  0  0
   20.0282   19.5316   28.7688 H   0  0  0  0  0  0  0  0  0  0  0  0
   21.1084   18.4604   28.1301 H   0  0  0  0  0  0  0  0  0  0  0  0
   19.7625   17.9107   28.9071 H   0  0  0  0  0  0  0  0  0  0  0  0
  1  2  1  0  0  0  0
  1  3  1  0  0  0  0
  1  4  1  0  0  0  0
  1  5  1  0  0  0  0
  5  6  1  0  0  0  0
  5  7  1  0  0  0  0
  5  8  1  0  0  0  0
  8  9  1  0  0  0  0
  8 10  1  0  0  0  0
  8 11  1  0  0  0  0
 11 12  1  0  0  0  0
 11 13  1  0  0  0  0
 11 14  1  0  0  0  0
 14 15  1  0  0  0  0
 14 16  1  0  0  0  0
 14 17  1  0  0  0  0
 17 18  1  0  0  0  0
 17 19  1  0  0  0  0
 17 20  1  0  0  0  0
 20 21  1  0  0  0  0
 20 22  1  0  0  0  0
 20 23  1  0  0  0  0
 23 24  1  0  0  0  0
 23 25  1  0  0  0  0
 23 26  1  0  0  0  0
 26 27  1  0  0  0  0
 26 28  1  0  0  0  0
 26 29  1  0  0  0  0
M  END
> <VM2 Rank>
185

> <Conf_Id>
1497

> <Probability>
0.08

> <Sum Probability>
97.54

> <Delta G>
2.510

> <G>
60.656

> <E>
22.607

> <-TS>
38.048

> <U+W>
-1.537

> <U>
50.224

> <W>
-51.761

> <W(PB)>
-54.216

> <W(SA)>
2.455

> <Valence>
4.334

> <Coulomb>
45.055

> <VdW>
0.835

> <VdW6>
-10.075

> <VdW12>
10.910

> <Bond>
0.297

> <Angle>
1.541

> <Pdih>
2.496

> <Idih>
0.000

> <Tether>
0.000

$$$$
VeraChem MOL file


 29 28  0  0  0  0  0  0  0  0999 V2000     
   20.8482   18.9655   20.3941 C   0  0  0  0  0  0  0  0  0  0  0  0
   21.3736   19.6067   21.1126 H   0  0  0  0  0  0  0  0  0  0  0  0
   21.5729   18.2366   20.0089 H   0  0  0  0  0  0  0  0  0  0  0  0
   20.5192   19.5894   19.5530 H   0  0  0  0  0  0  0  0  0  0  0  0
   19.6503   18.2432   21.0507 C   0  0  0  0  0  0  0  0  0  0  0  0
   20.0014   17.6355   21.8954 H   0  0  0  0  0  0  0  0  0  0  0  0
   19.2240   17.5349   20.3267 H   0  0  0  0  0  0  0  0  0  0  0  0
   18.5308   19.2089   21.5150 C   0  0  0  0  0  0  0  0  0  0  0  0
   18.1271   19.7307   20.6365 H   0  0  0  0  0  0  0  0  0  0  0  0
   17.6951   18.6203   21.9156 H   0  0  0  0  0  0  0  0  0  0  0  0
   18.9653   20.2694   22.5626 C   0  0  0  0  0  0  0  0  0  0  0  0
   18.0883   20.8718   22.8363 H   0  0  0  0  0  0  0  0  0  0  0  0
   19.6692   20.9709   22.0953 H   0  0  0  0  0  0  0  0  0  0  0  0
   19.6077   19.7031   23.8552 C   0  0  0  0  0  0  0  0  0  0  0  0
   20.5405   19.1782   23.6103 H   0  0  0  0  0  0  0  0  0  0  0  0
   19.8963   20.5521   24.4886 H   0  0  0  0  0  0  0  0  0  0  0  0
   18.6687   18.7608   24.6499 C   0  0  0  0  0  0  0  0  0  0  0  0
   18.3955   17.9006   24.0250 H   0  0  0  0  0  0  0  0  0  0  0  0
   17.7323   19.2842   24.8875 H   0  0  0  0  0  0  0  0  0  0  0  0
   19.3073   18.2274   25.9537 C   0  0  0  0  0  0  0  0  0  0  0  0
   18.6298   17.4910   26.4061 H   0  0  0  0  0  0  0  0  0  0  0  0
   20.2382   17.6947   25.7175 H   0  0  0  0  0  0  0  0  0  0  0  0
   19.5929   19.3416   26.9779 C   0  0  0  0  0  0  0  0  0  0  0  0
   18.6662   19.8724   27.2121 H   0  0  0  0  0  0  0  0  0  0  0  0
   20.3040   20.0578   26.5584 H   0  0  0  0  0  0  0  0  0  0  0  0
   20.1727   18.8181   28.2759 N   0  3  0  0  0  0  0  0  0  0  0  0
   19.5389   18.1578   28.7382 H   0  0  0  0  0  0  0  0  0  0  0  0
   20.3554   19.5748   28.9442 H   0  0  0  0  0  0  0  0  0  0  0  0
   21.0619   18.3295   28.1272 H   0  0  0  0  0  0  0  0  0  0  0  0
  1  2  1  0  0  0  0
  1  3  1  0  0  0  0
  1  4  1  0  0  0  0
  1  5  1  0  0  0  0
  5  6  1  0  0  0  0
  5  7  1  0  0  0  0
  5  8  1  0  0  0  0
  8  9  1  0  0  0  0
  8 10  1  0  0  0  0
  8 11  1  0  0  0  0
 11 12  1  0  0  0  0
 11 13  1  0  0  0  0
 11 14  1  0  0  0  0
 14 15  1  0  0  0  0
 14 16  1  0  0  0  0
 14 17  1  0  0  0  0
 17 18  1  0  0  0  0
 17 19  1  0  0  0  0
 17 20  1  0  0  0  0
 20 21  1  0  0  0  0
 20 22  1  0  0  0  0
 20 23  1  0  0  0  0
 23 24  1  0  0  0  0
 23 25  1  0  0  0  0
 23 26  1  0  0  0  0
 26 27  1  0  0  0  0
 26 28  1  0  0  0  0
 26 29  1  0  0  0  0
M  END
> <VM2 Rank>
186

> <Conf_Id>
223

> <Probability>
0.08

> <Sum Probability>
97.62

> <Delta G>
2.528

> <G>
60.674

> <E>
22.626

> <-TS>
38.048

> <U+W>
-1.518

> <U>
50.224

> <W>
-51.742

> <W(PB)>
-54.189

> <W(SA)>
2.447

> <Valence>
4.334

> <Coulomb>
45.055

> <VdW>
0.835

> <VdW6>
-10.075

> <VdW12>
10.910

> <Bond>
0.297

> <Angle>
1.541

> <Pdih>
2.496

> <Idih>
0.000

> <Tether>
0.000

$$$$
VeraChem MOL file


 29 28  0  0  0  0  0  0  0  0999 V2000     
   19.3779   19.2715   19.9474 C   0  0  0  0  0  0  0  0  0  0  0  0
   19.9363   20.1745   20.2236 H   0  0  0  0  0  0  0  0  0  0  0  0
   20.0699   18.5761   19.4551 H   0  0  0  0  0  0  0  0  0  0  0  0
   18.6166   19.5648   19.2131 H   0  0  0  0  0  0  0  0  0  0  0  0
   18.7164   18.6161   21.1806 C   0  0  0  0  0  0  0  0  0  0  0  0
   18.0808   17.7862   20.8418 H   0  0  0  0  0  0  0  0  0  0  0  0
   18.0415   19.3348   21.6642 H   0  0  0  0  0  0  0  0  0  0  0  0
   19.7395   18.0675   22.2073 C   0  0  0  0  0  0  0  0  0  0  0  0
   19.1962   17.5634   23.0174 H   0  0  0  0  0  0  0  0  0  0  0  0
   20.3407   17.2850   21.7243 H   0  0  0  0  0  0  0  0  0  0  0  0
   20.6993   19.1273   22.8116 C   0  0  0  0  0  0  0  0  0  0  0  0
   21.3511   19.5185   22.0194 H   0  0  0  0  0  0  0  0  0  0  0  0
   21.3753   18.6295   23.5191 H   0  0  0  0  0  0  0  0  0  0  0  0
   20.0030   20.3209   23.5190 C   0  0  0  0  0  0  0  0  0  0  0  0
   20.7761   20.9895   23.9218 H   0  0  0  0  0  0  0  0  0  0  0  0
   19.4585   20.9161   22.7740 H   0  0  0  0  0  0  0  0  0  0  0  0
   19.0290   19.9346   24.6618 C   0  0  0  0  0  0  0  0  0  0  0  0
   18.1943   19.3444   24.2610 H   0  0  0  0  0  0  0  0  0  0  0  0
   18.5831   20.8553   25.0628 H   0  0  0  0  0  0  0  0  0  0  0  0
   19.7079   19.1620   25.8167 C   0  0  0  0  0  0  0  0  0  0  0  0
   20.0978   18.2036   25.4513 H   0  0  0  0  0  0  0  0  0  0  0  0
   20.5635   19.7379   26.1937 H   0  0  0  0  0  0  0  0  0  0  0  0
   18.7223   18.8964   26.9679 C   0  0  0  0  0  0  0  0  0  0  0  0
   17.8764   18.3092   26.6002 H   0  0  0  0  0  0  0  0  0  0  0  0
   18.3410   19.8461   27.3527 H   0  0  0  0  0  0  0  0  0  0  0  0
   19.3488   18.1419   28.1226 N   0  3  0  0  0  0  0  0  0  0  0  0
   20.1366   18.6554   28.5313 H   0  0  0  0  0  0  0  0  0  0  0  0
   19.7039   17.2249   27.8319 H   0  0  0  0  0  0  0  0  0  0  0  0
   18.6756   17.9758   28.8789 H   0  0  0  0  0  0  0  0  0  0  0  0
  1  2  1  0  0  0  0
  1  3  1  0  0  0  0
  1  4  1  0  0  0  0
  1  5  1  0  0  0  0
  5  6  1  0  0  0  0
  5  7  1  0  0  0  0
  5  8  1  0  0  0  0
  8  9  1  0  0  0  0
  8 10  1  0  0  0  0
  8 11  1  0  0  0  0
 11 12  1  0  0  0  0
 11 13  1  0  0  0  0
 11 14  1  0  0  0  0
 14 15  1  0  0  0  0
 14 16  1  0  0  0  0
 14 17  1  0  0  0  0
 17 18  1  0  0  0  0
 17 19  1  0  0  0  0
 17 20  1  0  0  0  0
 20 21  1  0  0  0  0
 20 22  1  0  0  0  0
 20 23  1  0  0  0  0
 23 24  1  0  0  0  0
 23 25  1  0  0  0  0
 23 26  1  0  0  0  0
 26 27  1  0  0  0  0
 26 28  1  0  0  0  0
 26 29  1  0  0  0  0
M  END
> <VM2 Rank>
187

> <Conf_Id>
2115

> <Probability>
0.07

> <Sum Probability>
97.69

> <Delta G>
2.560

> <G>
60.706

> <E>
22.444

> <-TS>
38.262

> <U+W>
-1.700

> <U>
50.309

> <W>
-52.009

> <W(PB)>
-54.452

> <W(SA)>
2.443

> <Valence>
4.444

> <Coulomb>
45.192

> <VdW>
0.673

> <VdW6>
-10.457

> <VdW12>
11.130

> <Bond>
0.312

> <Angle>
1.703

> <Pdih>
2.429

> <Idih>
0.000

> <Tether>
0.000

$$$$
VeraChem MOL file


 29 28  0  0  0  0  0  0  0  0999 V2000     
   19.3237   19.1193   19.9440 C   0  0  0  0  0  0  0  0  0  0  0  0
   20.3062   19.2408   19.4699 H   0  0  0  0  0  0  0  0  0  0  0  0
   19.1829   18.0563   20.1761 H   0  0  0  0  0  0  0  0  0  0  0  0
   18.5585   19.4017   19.2094 H   0  0  0  0  0  0  0  0  0  0  0  0
   19.2070   19.9954   21.2115 C   0  0  0  0  0  0  0  0  0  0  0  0
   18.2232   19.8455   21.6756 H   0  0  0  0  0  0  0  0  0  0  0  0
   19.2427   21.0529   20.9150 H   0  0  0  0  0  0  0  0  0  0  0  0
   20.3323   19.7339   22.2445 C   0  0  0  0  0  0  0  0  0  0  0  0
   21.2992   19.9795   21.7845 H   0  0  0  0  0  0  0  0  0  0  0  0
   20.2178   20.4351   23.0816 H   0  0  0  0  0  0  0  0  0  0  0  0
   20.3990   18.2831   22.7928 C   0  0  0  0  0  0  0  0  0  0  0  0
   21.2275   18.2139   23.5098 H   0  0  0  0  0  0  0  0  0  0  0  0
   20.6686   17.6000   21.9765 H   0  0  0  0  0  0  0  0  0  0  0  0
   19.0957   17.7701   23.4621 C   0  0  0  0  0  0  0  0  0  0  0  0
   18.3082   17.6823   22.7019 H   0  0  0  0  0  0  0  0  0  0  0  0
   19.2675   16.7483   23.8272 H   0  0  0  0  0  0  0  0  0  0  0  0
   18.5682   18.6389   24.6329 C   0  0  0  0  0  0  0  0  0  0  0  0
   17.6355   18.1914   25.0033 H   0  0  0  0  0  0  0  0  0  0  0  0
   18.2991   19.6388   24.2676 H   0  0  0  0  0  0  0  0  0  0  0  0
   19.5660   18.7631   25.8078 C   0  0  0  0  0  0  0  0  0  0  0  0
   19.8606   17.7620   26.1496 H   0  0  0  0  0  0  0  0  0  0  0  0
   20.4785   19.2737   25.4752 H   0  0  0  0  0  0  0  0  0  0  0  0
   18.9532   19.5454   26.9823 C   0  0  0  0  0  0  0  0  0  0  0  0
   18.0526   19.0353   27.3346 H   0  0  0  0  0  0  0  0  0  0  0  0
   18.6731   20.5487   26.6501 H   0  0  0  0  0  0  0  0  0  0  0  0
   19.8990   19.6887   28.1571 N   0  3  0  0  0  0  0  0  0  0  0  0
   20.1801   18.7775   28.5341 H   0  0  0  0  0  0  0  0  0  0  0  0
   19.4711   20.2124   28.9287 H   0  0  0  0  0  0  0  0  0  0  0  0
   20.7573   20.1863   27.8979 H   0  0  0  0  0  0  0  0  0  0  0  0
  1  2  1  0  0  0  0
  1  3  1  0  0  0  0
  1  4  1  0  0  0  0
  1  5  1  0  0  0  0
  5  6  1  0  0  0  0
  5  7  1  0  0  0  0
  5  8  1  0  0  0  0
  8  9  1  0  0  0  0
  8 10  1  0  0  0  0
  8 11  1  0  0  0  0
 11 12  1  0  0  0  0
 11 13  1  0  0  0  0
 11 14  1  0  0  0  0
 14 15  1  0  0  0  0
 14 16  1  0  0  0  0
 14 17  1  0  0  0  0
 17 18  1  0  0  0  0
 17 19  1  0  0  0  0
 17 20  1  0  0  0  0
 20 21  1  0  0  0  0
 20 22  1  0  0  0  0
 20 23  1  0  0  0  0
 23 24  1  0  0  0  0
 23 25  1  0  0  0  0
 23 26  1  0  0  0  0
 26 27  1  0  0  0  0
 26 28  1  0  0  0  0
 26 29  1  0  0  0  0
M  END
> <VM2 Rank>
188

> <Conf_Id>
819

> <Probability>
0.07

> <Sum Probability>
97.76

> <Delta G>
2.578

> <G>
60.724

> <E>
22.463

> <-TS>
38.262

> <U+W>
-1.682

> <U>
50.309

> <W>
-51.991

> <W(PB)>
-54.442

> <W(SA)>
2.451

> <Valence>
4.444

> <Coulomb>
45.192

> <VdW>
0.673

> <VdW6>
-10.457

> <VdW12>
11.130

> <Bond>
0.312

> <Angle>
1.703

> <Pdih>
2.429

> <Idih>
0.000

> <Tether>
0.000

$$$$
VeraChem MOL file


 29 28  0  0  0  0  0  0  0  0999 V2000     
   20.9501   17.9682   21.5476 C   0  0  0  0  0  0  0  0  0  0  0  0
   20.4398   17.1605   21.0071 H   0  0  0  0  0  0  0  0  0  0  0  0
   22.0118   17.9400   21.2704 H   0  0  0  0  0  0  0  0  0  0  0  0
   20.8837   17.7588   22.6223 H   0  0  0  0  0  0  0  0  0  0  0  0
   20.3361   19.3431   21.1996 C   0  0  0  0  0  0  0  0  0  0  0  0
   20.5327   19.5602   20.1405 H   0  0  0  0  0  0  0  0  0  0  0  0
   20.8478   20.1316   21.7674 H   0  0  0  0  0  0  0  0  0  0  0  0
   18.8068   19.4150   21.4418 C   0  0  0  0  0  0  0  0  0  0  0  0
   18.4475   20.4096   21.1441 H   0  0  0  0  0  0  0  0  0  0  0  0
   18.3074   18.7019   20.7716 H   0  0  0  0  0  0  0  0  0  0  0  0
   18.3543   19.1299   22.8969 C   0  0  0  0  0  0  0  0  0  0  0  0
   18.6085   18.0962   23.1628 H   0  0  0  0  0  0  0  0  0  0  0  0
   17.2583   19.1935   22.9382 H   0  0  0  0  0  0  0  0  0  0  0  0
   18.9556   20.1128   23.9324 C   0  0  0  0  0  0  0  0  0  0  0  0
   20.0463   19.9992   23.9697 H   0  0  0  0  0  0  0  0  0  0  0  0
   18.7674   21.1425   23.5987 H   0  0  0  0  0  0  0  0  0  0  0  0
   18.3664   19.9426   25.3562 C   0  0  0  0  0  0  0  0  0  0  0  0
   17.2895   20.1580   25.3274 H   0  0  0  0  0  0  0  0  0  0  0  0
   18.8042   20.7050   26.0144 H   0  0  0  0  0  0  0  0  0  0  0  0
   18.5794   18.5404   25.9850 C   0  0  0  0  0  0  0  0  0  0  0  0
   18.1752   18.5377   27.0060 H   0  0  0  0  0  0  0  0  0  0  0  0
   17.9958   17.7948   25.4301 H   0  0  0  0  0  0  0  0  0  0  0  0
   20.0531   18.0893   26.0244 C   0  0  0  0  0  0  0  0  0  0  0  0
   20.4551   18.0544   25.0085 H   0  0  0  0  0  0  0  0  0  0  0  0
   20.1150   17.0841   26.4500 H   0  0  0  0  0  0  0  0  0  0  0  0
   20.9421   18.9968   26.8510 N   0  3  0  0  0  0  0  0  0  0  0  0
   21.9153   18.6725   26.8604 H   0  0  0  0  0  0  0  0  0  0  0  0
   20.6320   19.0452   27.8270 H   0  0  0  0  0  0  0  0  0  0  0  0
   20.9453   19.9544   26.4861 H   0  0  0  0  0  0  0  0  0  0  0  0
  1  2  1  0  0  0  0
  1  3  1  0  0  0  0
  1  4  1  0  0  0  0
  1  5  1  0  0  0  0
  5  6  1  0  0  0  0
  5  7  1  0  0  0  0
  5  8  1  0  0  0  0
  8  9  1  0  0  0  0
  8 10  1  0  0  0  0
  8 11  1  0  0  0  0
 11 12  1  0  0  0  0
 11 13  1  0  0  0  0
 11 14  1  0  0  0  0
 14 15  1  0  0  0  0
 14 16  1  0  0  0  0
 14 17  1  0  0  0  0
 17 18  1  0  0  0  0
 17 19  1  0  0  0  0
 17 20  1  0  0  0  0
 20 21  1  0  0  0  0
 20 22  1  0  0  0  0
 20 23  1  0  0  0  0
 23 24  1  0  0  0  0
 23 25  1  0  0  0  0
 23 26  1  0  0  0  0
 26 27  1  0  0  0  0
 26 28  1  0  0  0  0
 26 29  1  0  0  0  0
M  END
> <VM2 Rank>
189

> <Conf_Id>
1989

> <Probability>
0.06

> <Sum Probability>
97.82

> <Delta G>
2.696

> <G>
60.842

> <E>
22.582

> <-TS>
38.259

> <U+W>
-1.562

> <U>
51.080

> <W>
-52.642

> <W(PB)>
-54.975

> <W(SA)>
2.333

> <Valence>
4.343

> <Coulomb>
46.161

> <VdW>
0.575

> <VdW6>
-11.242

> <VdW12>
11.818

> <Bond>
0.317

> <Angle>
1.533

> <Pdih>
2.494

> <Idih>
0.000

> <Tether>
0.000

$$$$
VeraChem MOL file


 29 28  0  0  0  0  0  0  0  0999 V2000     
   21.3934   19.0260   20.8018 C   0  0  0  0  0  0  0  0  0  0  0  0
   21.7339   18.0415   21.1484 H   0  0  0  0  0  0  0  0  0  0  0  0
   21.0324   18.9195   19.7706 H   0  0  0  0  0  0  0  0  0  0  0  0
   22.2618   19.6973   20.7870 H   0  0  0  0  0  0  0  0  0  0  0  0
   20.2879   19.5856   21.7217 C   0  0  0  0  0  0  0  0  0  0  0  0
   19.9887   20.5821   21.3682 H   0  0  0  0  0  0  0  0  0  0  0  0
   20.6976   19.7156   22.7317 H   0  0  0  0  0  0  0  0  0  0  0  0
   19.0537   18.6541   21.7616 C   0  0  0  0  0  0  0  0  0  0  0  0
   18.7014   18.4862   20.7345 H   0  0  0  0  0  0  0  0  0  0  0  0
   19.3447   17.6669   22.1440 H   0  0  0  0  0  0  0  0  0  0  0  0
   17.8745   19.2206   22.5942 C   0  0  0  0  0  0  0  0  0  0  0  0
   17.0313   18.5188   22.5345 H   0  0  0  0  0  0  0  0  0  0  0  0
   17.5238   20.1510   22.1266 H   0  0  0  0  0  0  0  0  0  0  0  0
   18.1899   19.5013   24.0860 C   0  0  0  0  0  0  0  0  0  0  0  0
   18.9487   20.2904   24.1606 H   0  0  0  0  0  0  0  0  0  0  0  0
   17.2854   19.9074   24.5594 H   0  0  0  0  0  0  0  0  0  0  0  0
   18.6440   18.2427   24.8673 C   0  0  0  0  0  0  0  0  0  0  0  0
   19.5900   17.8644   24.4598 H   0  0  0  0  0  0  0  0  0  0  0  0
   17.9051   17.4429   24.7211 H   0  0  0  0  0  0  0  0  0  0  0  0
   18.8023   18.4980   26.3869 C   0  0  0  0  0  0  0  0  0  0  0  0
   17.8327   18.7970   26.8069 H   0  0  0  0  0  0  0  0  0  0  0  0
   19.0761   17.5594   26.8867 H   0  0  0  0  0  0  0  0  0  0  0  0
   19.8467   19.5782   26.7337 C   0  0  0  0  0  0  0  0  0  0  0  0
   19.8724   19.7241   27.8170 H   0  0  0  0  0  0  0  0  0  0  0  0
   19.5657   20.5272   26.2699 H   0  0  0  0  0  0  0  0  0  0  0  0
   21.2515   19.2315   26.2818 N   0  3  0  0  0  0  0  0  0  0  0  0
   21.2997   19.1036   25.2664 H   0  0  0  0  0  0  0  0  0  0  0  0
   21.5852   18.3636   26.7141 H   0  0  0  0  0  0  0  0  0  0  0  0
   21.9231   19.9669   26.5279 H   0  0  0  0  0  0  0  0  0  0  0  0
  1  2  1  0  0  0  0
  1  3  1  0  0  0  0
  1  4  1  0  0  0  0
  1  5  1  0  0  0  0
  5  6  1  0  0  0  0
  5  7  1  0  0  0  0
  5  8  1  0  0  0  0
  8  9  1  0  0  0  0
  8 10  1  0  0  0  0
  8 11  1  0  0  0  0
 11 12  1  0  0  0  0
 11 13  1  0  0  0  0
 11 14  1  0  0  0  0
 14 15  1  0  0  0  0
 14 16  1  0  0  0  0
 14 17  1  0  0  0  0
 17 18  1  0  0  0  0
 17 19  1  0  0  0  0
 17 20  1  0  0  0  0
 20 21  1  0  0  0  0
 20 22  1  0  0  0  0
 20 23  1  0  0  0  0
 23 24  1  0  0  0  0
 23 25  1  0  0  0  0
 23 26  1  0  0  0  0
 26 27  1  0  0  0  0
 26 28  1  0  0  0  0
 26 29  1  0  0  0  0
M  END
> <VM2 Rank>
190

> <Conf_Id>
1683

> <Probability>
0.06

> <Sum Probability>
97.87

> <Delta G>
2.701

> <G>
60.847

> <E>
22.946

> <-TS>
37.902

> <U+W>
-1.199

> <U>
51.250

> <W>
-52.449

> <W(PB)>
-54.846

> <W(SA)>
2.398

> <Valence>
3.914

> <Coulomb>
46.712

> <VdW>
0.624

> <VdW6>
-10.191

> <VdW12>
10.814

> <Bond>
0.276

> <Angle>
1.253

> <Pdih>
2.385

> <Idih>
0.000

> <Tether>
0.000

$$$$
VeraChem MOL file


 29 28  0  0  0  0  0  0  0  0999 V2000     
   20.4105   18.4502   19.3494 C   0  0  0  0  0  0  0  0  0  0  0  0
   21.3818   18.9582   19.4111 H   0  0  0  0  0  0  0  0  0  0  0  0
   20.5730   17.3789   19.5261 H   0  0  0  0  0  0  0  0  0  0  0  0
   20.0322   18.5694   18.3258 H   0  0  0  0  0  0  0  0  0  0  0  0
   19.4126   19.0357   20.3707 C   0  0  0  0  0  0  0  0  0  0  0  0
   18.4420   18.5316   20.2623 H   0  0  0  0  0  0  0  0  0  0  0  0
   19.2445   20.0987   20.1481 H   0  0  0  0  0  0  0  0  0  0  0  0
   19.9215   18.8808   21.8209 C   0  0  0  0  0  0  0  0  0  0  0  0
   20.0904   17.8169   22.0377 H   0  0  0  0  0  0  0  0  0  0  0  0
   20.8927   19.3844   21.9238 H   0  0  0  0  0  0  0  0  0  0  0  0
   18.9246   19.4659   22.8465 C   0  0  0  0  0  0  0  0  0  0  0  0
   17.9538   18.9614   22.7436 H   0  0  0  0  0  0  0  0  0  0  0  0
   18.7555   20.5292   22.6268 H   0  0  0  0  0  0  0  0  0  0  0  0
   19.4347   19.3122   24.2971 C   0  0  0  0  0  0  0  0  0  0  0  0
   19.6036   18.2474   24.4993 H   0  0  0  0  0  0  0  0  0  0  0  0
   20.4012   19.8248   24.4006 H   0  0  0  0  0  0  0  0  0  0  0  0
   18.4283   19.8868   25.3218 C   0  0  0  0  0  0  0  0  0  0  0  0
   17.5008   19.2983   25.2940 H   0  0  0  0  0  0  0  0  0  0  0  0
   18.1533   20.9062   25.0173 H   0  0  0  0  0  0  0  0  0  0  0  0
   18.9581   19.9458   26.7774 C   0  0  0  0  0  0  0  0  0  0  0  0
   19.8509   20.5827   26.8338 H   0  0  0  0  0  0  0  0  0  0  0  0
   18.1954   20.4410   27.3930 H   0  0  0  0  0  0  0  0  0  0  0  0
   19.2502   18.5690   27.4090 C   0  0  0  0  0  0  0  0  0  0  0  0
   18.4758   17.8546   27.1172 H   0  0  0  0  0  0  0  0  0  0  0  0
   19.2300   18.6654   28.4980 H   0  0  0  0  0  0  0  0  0  0  0  0
   20.6033   17.9915   27.0422 N   0  3  0  0  0  0  0  0  0  0  0  0
   21.3702   18.6003   27.3467 H   0  0  0  0  0  0  0  0  0  0  0  0
   20.7004   17.8651   26.0308 H   0  0  0  0  0  0  0  0  0  0  0  0
   20.7569   17.0759   27.4790 H   0  0  0  0  0  0  0  0  0  0  0  0
  1  2  1  0  0  0  0
  1  3  1  0  0  0  0
  1  4  1  0  0  0  0
  1  5  1  0  0  0  0
  5  6  1  0  0  0  0
  5  7  1  0  0  0  0
  5  8  1  0  0  0  0
  8  9  1  0  0  0  0
  8 10  1  0  0  0  0
  8 11  1  0  0  0  0
 11 12  1  0  0  0  0
 11 13  1  0  0  0  0
 11 14  1  0  0  0  0
 14 15  1  0  0  0  0
 14 16  1  0  0  0  0
 14 17  1  0  0  0  0
 17 18  1  0  0  0  0
 17 19  1  0  0  0  0
 17 20  1  0  0  0  0
 20 21  1  0  0  0  0
 20 22  1  0  0  0  0
 20 23  1  0  0  0  0
 23 24  1  0  0  0  0
 23 25  1  0  0  0  0
 23 26  1  0  0  0  0
 26 27  1  0  0  0  0
 26 28  1  0  0  0  0
 26 29  1  0  0  0  0
M  END
> <VM2 Rank>
191

> <Conf_Id>
1837

> <Probability>
0.05

> <Sum Probability>
97.93

> <Delta G>
2.740

> <G>
60.886

> <E>
23.547

> <-TS>
37.340

> <U+W>
-0.598

> <U>
51.316

> <W>
-51.913

> <W(PB)>
-54.442

> <W(SA)>
2.529

> <Valence>
4.173

> <Coulomb>
46.442

> <VdW>
0.700

> <VdW6>
-8.432

> <VdW12>
9.131

> <Bond>
0.203

> <Angle>
0.957

> <Pdih>
3.013

> <Idih>
0.000

> <Tether>
0.000

$$$$
VeraChem MOL file


 29 28  0  0  0  0  0  0  0  0999 V2000     
   20.6513   19.1266   19.3645 C   0  0  0  0  0  0  0  0  0  0  0  0
   21.0826   18.1174   19.3924 H   0  0  0  0  0  0  0  0  0  0  0  0
   20.2972   19.3137   18.3424 H   0  0  0  0  0  0  0  0  0  0  0  0
   21.4513   19.8465   19.5812 H   0  0  0  0  0  0  0  0  0  0  0  0
   19.4935   19.2630   20.3758 C   0  0  0  0  0  0  0  0  0  0  0  0
   18.6951   18.5548   20.1136 H   0  0  0  0  0  0  0  0  0  0  0  0
   19.0609   20.2706   20.3011 H   0  0  0  0  0  0  0  0  0  0  0  0
   19.9655   19.0042   21.8236 C   0  0  0  0  0  0  0  0  0  0  0  0
   20.3989   17.9969   21.8929 H   0  0  0  0  0  0  0  0  0  0  0  0
   20.7651   19.7129   22.0800 H   0  0  0  0  0  0  0  0  0  0  0  0
   18.8086   19.1401   22.8392 C   0  0  0  0  0  0  0  0  0  0  0  0
   18.0091   18.4323   22.5800 H   0  0  0  0  0  0  0  0  0  0  0  0
   18.3761   20.1479   22.7701 H   0  0  0  0  0  0  0  0  0  0  0  0
   19.2807   18.8795   24.2874 C   0  0  0  0  0  0  0  0  0  0  0  0
   19.7047   17.8682   24.3570 H   0  0  0  0  0  0  0  0  0  0  0  0
   20.0812   19.5894   24.5293 H   0  0  0  0  0  0  0  0  0  0  0  0
   18.1232   19.0296   25.3027 C   0  0  0  0  0  0  0  0  0  0  0  0
   17.2705   18.4261   24.9619 H   0  0  0  0  0  0  0  0  0  0  0  0
   17.7762   20.0722   25.3113 H   0  0  0  0  0  0  0  0  0  0  0  0
   18.4760   18.5916   26.7471 C   0  0  0  0  0  0  0  0  0  0  0  0
   17.5634   18.6656   27.3534 H   0  0  0  0  0  0  0  0  0  0  0  0
   18.7651   17.5324   26.7657 H   0  0  0  0  0  0  0  0  0  0  0  0
   19.5632   19.4481   27.4286 C   0  0  0  0  0  0  0  0  0  0  0  0
   19.4713   19.3432   28.5131 H   0  0  0  0  0  0  0  0  0  0  0  0
   19.4182   20.5020   27.1763 H   0  0  0  0  0  0  0  0  0  0  0  0
   20.9820   19.0552   27.0660 N   0  3  0  0  0  0  0  0  0  0  0  0
   21.1876   18.0875   27.3353 H   0  0  0  0  0  0  0  0  0  0  0  0
   21.6732   19.6499   27.5364 H   0  0  0  0  0  0  0  0  0  0  0  0
   21.1513   19.1317   26.0590 H   0  0  0  0  0  0  0  0  0  0  0  0
  1  2  1  0  0  0  0
  1  3  1  0  0  0  0
  1  4  1  0  0  0  0
  1  5  1  0  0  0  0
  5  6  1  0  0  0  0
  5  7  1  0  0  0  0
  5  8  1  0  0  0  0
  8  9  1  0  0  0  0
  8 10  1  0  0  0  0
  8 11  1  0  0  0  0
 11 12  1  0  0  0  0
 11 13  1  0  0  0  0
 11 14  1  0  0  0  0
 14 15  1  0  0  0  0
 14 16  1  0  0  0  0
 14 17  1  0  0  0  0
 17 18  1  0  0  0  0
 17 19  1  0  0  0  0
 17 20  1  0  0  0  0
 20 21  1  0  0  0  0
 20 22  1  0  0  0  0
 20 23  1  0  0  0  0
 23 24  1  0  0  0  0
 23 25  1  0  0  0  0
 23 26  1  0  0  0  0
 26 27  1  0  0  0  0
 26 28  1  0  0  0  0
 26 29  1  0  0  0  0
M  END
> <VM2 Rank>
192

> <Conf_Id>
210

> <Probability>
0.05

> <Sum Probability>
97.98

> <Delta G>
2.772

> <G>
60.919

> <E>
23.579

> <-TS>
37.340

> <U+W>
-0.566

> <U>
51.315

> <W>
-51.881

> <W(PB)>
-54.424

> <W(SA)>
2.542

> <Valence>
4.174

> <Coulomb>
46.442

> <VdW>
0.700

> <VdW6>
-8.431

> <VdW12>
9.131

> <Bond>
0.203

> <Angle>
0.957

> <Pdih>
3.013

> <Idih>
0.000

> <Tether>
0.000

$$$$
VeraChem MOL file


 29 28  0  0  0  0  0  0  0  0999 V2000     
   20.6258   19.2970   20.3375 C   0  0  0  0  0  0  0  0  0  0  0  0
   21.1346   20.1243   19.8261 H   0  0  0  0  0  0  0  0  0  0  0  0
   21.3405   18.8536   21.0418 H   0  0  0  0  0  0  0  0  0  0  0  0
   20.3718   18.5408   19.5835 H   0  0  0  0  0  0  0  0  0  0  0  0
   19.3590   19.8053   21.0619 C   0  0  0  0  0  0  0  0  0  0  0  0
   18.7252   20.3347   20.3370 H   0  0  0  0  0  0  0  0  0  0  0  0
   19.6383   20.5508   21.8185 H   0  0  0  0  0  0  0  0  0  0  0  0
   18.5261   18.6708   21.7105 C   0  0  0  0  0  0  0  0  0  0  0  0
   17.6184   19.1023   22.1525 H   0  0  0  0  0  0  0  0  0  0  0  0
   18.1739   17.9943   20.9197 H   0  0  0  0  0  0  0  0  0  0  0  0
   19.2740   17.8313   22.7814 C   0  0  0  0  0  0  0  0  0  0  0  0
   20.0729   17.2558   22.2953 H   0  0  0  0  0  0  0  0  0  0  0  0
   18.5796   17.0839   23.1888 H   0  0  0  0  0  0  0  0  0  0  0  0
   19.8841   18.6411   23.9545 C   0  0  0  0  0  0  0  0  0  0  0  0
   20.4071   17.9367   24.6143 H   0  0  0  0  0  0  0  0  0  0  0  0
   20.6528   19.3274   23.5756 H   0  0  0  0  0  0  0  0  0  0  0  0
   18.8319   19.4325   24.7717 C   0  0  0  0  0  0  0  0  0  0  0  0
   18.0543   18.7487   25.1370 H   0  0  0  0  0  0  0  0  0  0  0  0
   18.3237   20.1518   24.1165 H   0  0  0  0  0  0  0  0  0  0  0  0
   19.4464   20.2165   25.9584 C   0  0  0  0  0  0  0  0  0  0  0  0
   20.1659   20.9510   25.5728 H   0  0  0  0  0  0  0  0  0  0  0  0
   18.6573   20.7944   26.4576 H   0  0  0  0  0  0  0  0  0  0  0  0
   20.1557   19.3291   27.0014 C   0  0  0  0  0  0  0  0  0  0  0  0
   20.5737   19.9599   27.7905 H   0  0  0  0  0  0  0  0  0  0  0  0
   20.9789   18.7876   26.5287 H   0  0  0  0  0  0  0  0  0  0  0  0
   19.2411   18.3142   27.6577 N   0  3  0  0  0  0  0  0  0  0  0  0
   18.4601   18.7656   28.1448 H   0  0  0  0  0  0  0  0  0  0  0  0
   19.7387   17.7442   28.3505 H   0  0  0  0  0  0  0  0  0  0  0  0
   18.8385   17.6704   26.9694 H   0  0  0  0  0  0  0  0  0  0  0  0
  1  2  1  0  0  0  0
  1  3  1  0  0  0  0
  1  4  1  0  0  0  0
  1  5  1  0  0  0  0
  5  6  1  0  0  0  0
  5  7  1  0  0  0  0
  5  8  1  0  0  0  0
  8  9  1  0  0  0  0
  8 10  1  0  0  0  0
  8 11  1  0  0  0  0
 11 12  1  0  0  0  0
 11 13  1  0  0  0  0
 11 14  1  0  0  0  0
 14 15  1  0  0  0  0
 14 16  1  0  0  0  0
 14 17  1  0  0  0  0
 17 18  1  0  0  0  0
 17 19  1  0  0  0  0
 17 20  1  0  0  0  0
 20 21  1  0  0  0  0
 20 22  1  0  0  0  0
 20 23  1  0  0  0  0
 23 24  1  0  0  0  0
 23 25  1  0  0  0  0
 23 26  1  0  0  0  0
 26 27  1  0  0  0  0
 26 28  1  0  0  0  0
 26 29  1  0  0  0  0
M  END
> <VM2 Rank>
193

> <Conf_Id>
446

> <Probability>
0.05

> <Sum Probability>
98.03

> <Delta G>
2.802

> <G>
60.948

> <E>
22.710

> <-TS>
38.238

> <U+W>
-1.434

> <U>
50.732

> <W>
-52.166

> <W(PB)>
-54.557

> <W(SA)>
2.391

> <Valence>
4.413

> <Coulomb>
45.469

> <VdW>
0.849

> <VdW6>
-10.820

> <VdW12>
11.669

> <Bond>
0.322

> <Angle>
1.661

> <Pdih>
2.430

> <Idih>
0.000

> <Tether>
0.000

$$$$
VeraChem MOL file


 29 28  0  0  0  0  0  0  0  0999 V2000     
   19.7822   18.0604   19.5290 C   0  0  0  0  0  0  0  0  0  0  0  0
   19.1724   17.4232   18.8755 H   0  0  0  0  0  0  0  0  0  0  0  0
   19.9780   19.0002   18.9962 H   0  0  0  0  0  0  0  0  0  0  0  0
   20.7423   17.5540   19.6932 H   0  0  0  0  0  0  0  0  0  0  0  0
   19.0572   18.3217   20.8661 C   0  0  0  0  0  0  0  0  0  0  0  0
   18.8452   17.3626   21.3592 H   0  0  0  0  0  0  0  0  0  0  0  0
   18.0867   18.7977   20.6677 H   0  0  0  0  0  0  0  0  0  0  0  0
   19.8951   19.2172   21.8053 C   0  0  0  0  0  0  0  0  0  0  0  0
   20.8647   18.7381   21.9992 H   0  0  0  0  0  0  0  0  0  0  0  0
   20.1068   20.1732   21.3068 H   0  0  0  0  0  0  0  0  0  0  0  0
   19.1726   19.4812   23.1456 C   0  0  0  0  0  0  0  0  0  0  0  0
   18.9532   18.5222   23.6285 H   0  0  0  0  0  0  0  0  0  0  0  0
   18.2048   19.9626   22.9483 H   0  0  0  0  0  0  0  0  0  0  0  0
   20.0140   20.3836   24.0814 C   0  0  0  0  0  0  0  0  0  0  0  0
   20.9980   19.9312   24.2666 H   0  0  0  0  0  0  0  0  0  0  0  0
   20.2090   21.3293   23.5569 H   0  0  0  0  0  0  0  0  0  0  0  0
   19.3173   20.7109   25.4279 C   0  0  0  0  0  0  0  0  0  0  0  0
   18.2312   20.7952   25.2843 H   0  0  0  0  0  0  0  0  0  0  0  0
   19.6522   21.7061   25.7520 H   0  0  0  0  0  0  0  0  0  0  0  0
   19.6293   19.7181   26.5759 C   0  0  0  0  0  0  0  0  0  0  0  0
   20.7114   19.6999   26.7617 H   0  0  0  0  0  0  0  0  0  0  0  0
   19.1624   20.0915   27.4971 H   0  0  0  0  0  0  0  0  0  0  0  0
   19.1322   18.2860   26.3123 C   0  0  0  0  0  0  0  0  0  0  0  0
   19.6657   17.8636   25.4574 H   0  0  0  0  0  0  0  0  0  0  0  0
   18.0634   18.3026   26.0829 H   0  0  0  0  0  0  0  0  0  0  0  0
   19.3441   17.3589   27.4916 N   0  3  0  0  0  0  0  0  0  0  0  0
   20.3353   17.2806   27.7422 H   0  0  0  0  0  0  0  0  0  0  0  0
   19.0092   16.4093   27.2949 H   0  0  0  0  0  0  0  0  0  0  0  0
   18.8462   17.6841   28.3270 H   0  0  0  0  0  0  0  0  0  0  0  0
  1  2  1  0  0  0  0
  1  3  1  0  0  0  0
  1  4  1  0  0  0  0
  1  5  1  0  0  0  0
  5  6  1  0  0  0  0
  5  7  1  0  0  0  0
  5  8  1  0  0  0  0
  8  9  1  0  0  0  0
  8 10  1  0  0  0  0
  8 11  1  0  0  0  0
 11 12  1  0  0  0  0
 11 13  1  0  0  0  0
 11 14  1  0  0  0  0
 14 15  1  0  0  0  0
 14 16  1  0  0  0  0
 14 17  1  0  0  0  0
 17 18  1  0  0  0  0
 17 19  1  0  0  0  0
 17 20  1  0  0  0  0
 20 21  1  0  0  0  0
 20 22  1  0  0  0  0
 20 23  1  0  0  0  0
 23 24  1  0  0  0  0
 23 25  1  0  0  0  0
 23 26  1  0  0  0  0
 26 27  1  0  0  0  0
 26 28  1  0  0  0  0
 26 29  1  0  0  0  0
M  END
> <VM2 Rank>
194

> <Conf_Id>
1607

> <Probability>
0.05

> <Sum Probability>
98.07

> <Delta G>
2.809

> <G>
60.955

> <E>
23.632

> <-TS>
37.323

> <U+W>
-0.512

> <U>
51.461

> <W>
-51.973

> <W(PB)>
-54.499

> <W(SA)>
2.526

> <Valence>
5.121

> <Coulomb>
45.566

> <VdW>
0.773

> <VdW6>
-8.444

> <VdW12>
9.217

> <Bond>
0.226

> <Angle>
1.115

> <Pdih>
3.780

> <Idih>
0.000

> <Tether>
0.000

$$$$
VeraChem MOL file


 29 28  0  0  0  0  0  0  0  0999 V2000     
   19.4856   18.1395   19.5237 C   0  0  0  0  0  0  0  0  0  0  0  0
   19.1528   19.0618   19.0301 H   0  0  0  0  0  0  0  0  0  0  0  0
   20.5702   18.0472   19.3809 H   0  0  0  0  0  0  0  0  0  0  0  0
   19.0054   17.2931   19.0157 H   0  0  0  0  0  0  0  0  0  0  0  0
   19.1230   18.1515   21.0238 C   0  0  0  0  0  0  0  0  0  0  0  0
   19.4375   17.2035   21.4824 H   0  0  0  0  0  0  0  0  0  0  0  0
   18.0311   18.2106   21.1345 H   0  0  0  0  0  0  0  0  0  0  0  0
   19.7867   19.3343   21.7631 C   0  0  0  0  0  0  0  0  0  0  0  0
   20.8778   19.2722   21.6486 H   0  0  0  0  0  0  0  0  0  0  0  0
   19.4714   20.2789   21.2987 H   0  0  0  0  0  0  0  0  0  0  0  0
   19.4251   19.3496   23.2654 C   0  0  0  0  0  0  0  0  0  0  0  0
   19.7409   18.3992   23.7142 H   0  0  0  0  0  0  0  0  0  0  0  0
   18.3345   19.4195   23.3792 H   0  0  0  0  0  0  0  0  0  0  0  0
   20.1024   20.5255   24.0069 C   0  0  0  0  0  0  0  0  0  0  0  0
   21.1923   20.3874   23.9904 H   0  0  0  0  0  0  0  0  0  0  0  0
   19.9046   21.4558   23.4565 H   0  0  0  0  0  0  0  0  0  0  0  0
   19.6297   20.7223   25.4707 C   0  0  0  0  0  0  0  0  0  0  0  0
   18.5589   20.9684   25.4919 H   0  0  0  0  0  0  0  0  0  0  0  0
   20.1458   21.6068   25.8691 H   0  0  0  0  0  0  0  0  0  0  0  0
   19.9185   19.5293   26.4162 C   0  0  0  0  0  0  0  0  0  0  0  0
   20.8815   19.0683   26.1593 H   0  0  0  0  0  0  0  0  0  0  0  0
   20.0212   19.9121   27.4404 H   0  0  0  0  0  0  0  0  0  0  0  0
   18.7987   18.4704   26.4122 C   0  0  0  0  0  0  0  0  0  0  0  0
   18.6685   18.0596   25.4094 H   0  0  0  0  0  0  0  0  0  0  0  0
   17.8561   18.9337   26.7160 H   0  0  0  0  0  0  0  0  0  0  0  0
   19.0744   17.3156   27.3530 N   0  3  0  0  0  0  0  0  0  0  0  0
   19.1749   17.6301   28.3238 H   0  0  0  0  0  0  0  0  0  0  0  0
   19.9368   16.8191   27.1058 H   0  0  0  0  0  0  0  0  0  0  0  0
   18.3166   16.6241   27.3400 H   0  0  0  0  0  0  0  0  0  0  0  0
  1  2  1  0  0  0  0
  1  3  1  0  0  0  0
  1  4  1  0  0  0  0
  1  5  1  0  0  0  0
  5  6  1  0  0  0  0
  5  7  1  0  0  0  0
  5  8  1  0  0  0  0
  8  9  1  0  0  0  0
  8 10  1  0  0  0  0
  8 11  1  0  0  0  0
 11 12  1  0  0  0  0
 11 13  1  0  0  0  0
 11 14  1  0  0  0  0
 14 15  1  0  0  0  0
 14 16  1  0  0  0  0
 14 17  1  0  0  0  0
 17 18  1  0  0  0  0
 17 19  1  0  0  0  0
 17 20  1  0  0  0  0
 20 21  1  0  0  0  0
 20 22  1  0  0  0  0
 20 23  1  0  0  0  0
 23 24  1  0  0  0  0
 23 25  1  0  0  0  0
 23 26  1  0  0  0  0
 26 27  1  0  0  0  0
 26 28  1  0  0  0  0
 26 29  1  0  0  0  0
M  END
> <VM2 Rank>
195

> <Conf_Id>
2808

> <Probability>
0.05

> <Sum Probability>
98.12

> <Delta G>
2.818

> <G>
60.965

> <E>
23.441

> <-TS>
37.524

> <U+W>
-0.704

> <U>
51.492

> <W>
-52.196

> <W(PB)>
-54.720

> <W(SA)>
2.524

> <Valence>
4.974

> <Coulomb>
45.825

> <VdW>
0.694

> <VdW6>
-8.648

> <VdW12>
9.342

> <Bond>
0.214

> <Angle>
1.149

> <Pdih>
3.611

> <Idih>
0.000

> <Tether>
0.000

$$$$
VeraChem MOL file


 29 28  0  0  0  0  0  0  0  0999 V2000     
   20.4070   19.8183   19.5678 C   0  0  0  0  0  0  0  0  0  0  0  0
   20.3457   20.7229   18.9488 H   0  0  0  0  0  0  0  0  0  0  0  0
   21.4689   19.5975   19.7379 H   0  0  0  0  0  0  0  0  0  0  0  0
   19.9724   18.9883   18.9957 H   0  0  0  0  0  0  0  0  0  0  0  0
   19.6618   20.0209   20.9040 C   0  0  0  0  0  0  0  0  0  0  0  0
   18.6116   20.2733   20.7011 H   0  0  0  0  0  0  0  0  0  0  0  0
   20.0966   20.8778   21.4375 H   0  0  0  0  0  0  0  0  0  0  0  0
   19.7328   18.7611   21.7949 C   0  0  0  0  0  0  0  0  0  0  0  0
   19.2999   17.9069   21.2560 H   0  0  0  0  0  0  0  0  0  0  0  0
   20.7844   18.5119   21.9935 H   0  0  0  0  0  0  0  0  0  0  0  0
   18.9875   18.9597   23.1340 C   0  0  0  0  0  0  0  0  0  0  0  0
   17.9360   19.2061   22.9319 H   0  0  0  0  0  0  0  0  0  0  0  0
   19.4166   19.8216   23.6576 H   0  0  0  0  0  0  0  0  0  0  0  0
   19.0569   17.6924   24.0213 C   0  0  0  0  0  0  0  0  0  0  0  0
   18.6183   16.8577   23.4569 H   0  0  0  0  0  0  0  0  0  0  0  0
   20.1029   17.4141   24.2103 H   0  0  0  0  0  0  0  0  0  0  0  0
   18.2910   17.8252   25.3635 C   0  0  0  0  0  0  0  0  0  0  0  0
   17.9180   16.8301   25.6430 H   0  0  0  0  0  0  0  0  0  0  0  0
   17.3976   18.4512   25.2319 H   0  0  0  0  0  0  0  0  0  0  0  0
   19.1434   18.3518   26.5454 C   0  0  0  0  0  0  0  0  0  0  0  0
   18.5327   18.3206   27.4575 H   0  0  0  0  0  0  0  0  0  0  0  0
   19.9915   17.6755   26.7164 H   0  0  0  0  0  0  0  0  0  0  0  0
   19.6655   19.7854   26.3460 C   0  0  0  0  0  0  0  0  0  0  0  0
   18.8293   20.4562   26.1311 H   0  0  0  0  0  0  0  0  0  0  0  0
   20.3580   19.8099   25.5012 H   0  0  0  0  0  0  0  0  0  0  0  0
   20.3980   20.3231   27.5581 N   0  3  0  0  0  0  0  0  0  0  0  0
   19.7948   20.3523   28.3868 H   0  0  0  0  0  0  0  0  0  0  0  0
   20.7405   21.2779   27.4040 H   0  0  0  0  0  0  0  0  0  0  0  0
   21.2126   19.7483   27.7978 H   0  0  0  0  0  0  0  0  0  0  0  0
  1  2  1  0  0  0  0
  1  3  1  0  0  0  0
  1  4  1  0  0  0  0
  1  5  1  0  0  0  0
  5  6  1  0  0  0  0
  5  7  1  0  0  0  0
  5  8  1  0  0  0  0
  8  9  1  0  0  0  0
  8 10  1  0  0  0  0
  8 11  1  0  0  0  0
 11 12  1  0  0  0  0
 11 13  1  0  0  0  0
 11 14  1  0  0  0  0
 14 15  1  0  0  0  0
 14 16  1  0  0  0  0
 14 17  1  0  0  0  0
 17 18  1  0  0  0  0
 17 19  1  0  0  0  0
 17 20  1  0  0  0  0
 20 21  1  0  0  0  0
 20 22  1  0  0  0  0
 20 23  1  0  0  0  0
 23 24  1  0  0  0  0
 23 25  1  0  0  0  0
 23 26  1  0  0  0  0
 26 27  1  0  0  0  0
 26 28  1  0  0  0  0
 26 29  1  0  0  0  0
M  END
> <VM2 Rank>
196

> <Conf_Id>
2578

> <Probability>
0.05

> <Sum Probability>
98.17

> <Delta G>
2.819

> <G>
60.965

> <E>
23.643

> <-TS>
37.322

> <U+W>
-0.502

> <U>
51.461

> <W>
-51.962

> <W(PB)>
-54.504

> <W(SA)>
2.542

> <Valence>
5.121

> <Coulomb>
45.566

> <VdW>
0.773

> <VdW6>
-8.444

> <VdW12>
9.217

> <Bond>
0.226

> <Angle>
1.116

> <Pdih>
3.779

> <Idih>
0.000

> <Tether>
0.000

$$$$
VeraChem MOL file


 29 28  0  0  0  0  0  0  0  0999 V2000     
   20.0134   19.5709   20.0671 C   0  0  0  0  0  0  0  0  0  0  0  0
   20.9389   19.0891   20.4061 H   0  0  0  0  0  0  0  0  0  0  0  0
   19.4894   18.8766   19.3975 H   0  0  0  0  0  0  0  0  0  0  0  0
   20.2959   20.4548   19.4809 H   0  0  0  0  0  0  0  0  0  0  0  0
   19.1168   19.9754   21.2589 C   0  0  0  0  0  0  0  0  0  0  0  0
   18.2610   20.5502   20.8785 H   0  0  0  0  0  0  0  0  0  0  0  0
   19.6672   20.6567   21.9213 H   0  0  0  0  0  0  0  0  0  0  0  0
   18.5802   18.7639   22.0626 C   0  0  0  0  0  0  0  0  0  0  0  0
   17.9036   19.1278   22.8470 H   0  0  0  0  0  0  0  0  0  0  0  0
   17.9581   18.1470   21.3998 H   0  0  0  0  0  0  0  0  0  0  0  0
   19.6704   17.8614   22.7001 C   0  0  0  0  0  0  0  0  0  0  0  0
   20.2487   17.3752   21.9034 H   0  0  0  0  0  0  0  0  0  0  0  0
   19.1795   17.0405   23.2389 H   0  0  0  0  0  0  0  0  0  0  0  0
   20.6536   18.5892   23.6561 C   0  0  0  0  0  0  0  0  0  0  0  0
   21.3590   17.8514   24.0621 H   0  0  0  0  0  0  0  0  0  0  0  0
   21.2657   19.2934   23.0771 H   0  0  0  0  0  0  0  0  0  0  0  0
   19.9921   19.3512   24.8333 C   0  0  0  0  0  0  0  0  0  0  0  0
   19.3505   20.1543   24.4475 H   0  0  0  0  0  0  0  0  0  0  0  0
   20.7870   19.8474   25.4053 H   0  0  0  0  0  0  0  0  0  0  0  0
   19.1731   18.4366   25.7781 C   0  0  0  0  0  0  0  0  0  0  0  0
   18.3551   17.9645   25.2198 H   0  0  0  0  0  0  0  0  0  0  0  0
   19.8062   17.6235   26.1571 H   0  0  0  0  0  0  0  0  0  0  0  0
   18.5582   19.2057   26.9631 C   0  0  0  0  0  0  0  0  0  0  0  0
   17.9165   18.5325   27.5380 H   0  0  0  0  0  0  0  0  0  0  0  0
   17.9420   20.0275   26.5887 H   0  0  0  0  0  0  0  0  0  0  0  0
   19.5862   19.7837   27.9158 N   0  3  0  0  0  0  0  0  0  0  0  0
   20.2022   20.4553   27.4472 H   0  0  0  0  0  0  0  0  0  0  0  0
   20.1834   19.0543   28.3189 H   0  0  0  0  0  0  0  0  0  0  0  0
   19.1442   20.2769   28.6994 H   0  0  0  0  0  0  0  0  0  0  0  0
  1  2  1  0  0  0  0
  1  3  1  0  0  0  0
  1  4  1  0  0  0  0
  1  5  1  0  0  0  0
  5  6  1  0  0  0  0
  5  7  1  0  0  0  0
  5  8  1  0  0  0  0
  8  9  1  0  0  0  0
  8 10  1  0  0  0  0
  8 11  1  0  0  0  0
 11 12  1  0  0  0  0
 11 13  1  0  0  0  0
 11 14  1  0  0  0  0
 14 15  1  0  0  0  0
 14 16  1  0  0  0  0
 14 17  1  0  0  0  0
 17 18  1  0  0  0  0
 17 19  1  0  0  0  0
 17 20  1  0  0  0  0
 20 21  1  0  0  0  0
 20 22  1  0  0  0  0
 20 23  1  0  0  0  0
 23 24  1  0  0  0  0
 23 25  1  0  0  0  0
 23 26  1  0  0  0  0
 26 27  1  0  0  0  0
 26 28  1  0  0  0  0
 26 29  1  0  0  0  0
M  END
> <VM2 Rank>
197

> <Conf_Id>
2310

> <Probability>
0.05

> <Sum Probability>
98.21

> <Delta G>
2.835

> <G>
60.981

> <E>
22.621

> <-TS>
38.360

> <U+W>
-1.524

> <U>
50.644

> <W>
-52.167

> <W(PB)>
-54.571

> <W(SA)>
2.404

> <Valence>
4.566

> <Coulomb>
45.260

> <VdW>
0.818

> <VdW6>
-10.959

> <VdW12>
11.777

> <Bond>
0.338

> <Angle>
1.774

> <Pdih>
2.455

> <Idih>
0.000

> <Tether>
0.000

$$$$
VeraChem MOL file


 29 28  0  0  0  0  0  0  0  0999 V2000     
   19.8637   19.8833   19.9352 C   0  0  0  0  0  0  0  0  0  0  0  0
   20.5323   19.0864   19.5844 H   0  0  0  0  0  0  0  0  0  0  0  0
   19.4317   20.3719   19.0523 H   0  0  0  0  0  0  0  0  0  0  0  0
   20.4673   20.6318   20.4630 H   0  0  0  0  0  0  0  0  0  0  0  0
   18.7462   19.3136   20.8382 C   0  0  0  0  0  0  0  0  0  0  0  0
   18.0953   18.6702   20.2299 H   0  0  0  0  0  0  0  0  0  0  0  0
   18.1123   20.1333   21.2045 H   0  0  0  0  0  0  0  0  0  0  0  0
   19.2789   18.4889   22.0348 C   0  0  0  0  0  0  0  0  0  0  0  0
   18.4199   18.0211   22.5327 H   0  0  0  0  0  0  0  0  0  0  0  0
   19.9079   17.6680   21.6641 H   0  0  0  0  0  0  0  0  0  0  0  0
   20.0742   19.3346   23.0612 C   0  0  0  0  0  0  0  0  0  0  0  0
   19.4508   20.1627   23.4228 H   0  0  0  0  0  0  0  0  0  0  0  0
   20.9342   19.7991   22.5621 H   0  0  0  0  0  0  0  0  0  0  0  0
   20.6101   18.5101   24.2603 C   0  0  0  0  0  0  0  0  0  0  0  0
   21.3033   17.7455   23.8837 H   0  0  0  0  0  0  0  0  0  0  0  0
   21.2157   19.1687   24.8972 H   0  0  0  0  0  0  0  0  0  0  0  0
   19.5262   17.8143   25.1273 C   0  0  0  0  0  0  0  0  0  0  0  0
   20.0219   17.2900   25.9552 H   0  0  0  0  0  0  0  0  0  0  0  0
   19.0353   17.0272   24.5399 H   0  0  0  0  0  0  0  0  0  0  0  0
   18.4432   18.7648   25.7010 C   0  0  0  0  0  0  0  0  0  0  0  0
   17.8376   19.1712   24.8809 H   0  0  0  0  0  0  0  0  0  0  0  0
   17.7510   18.1875   26.3280 H   0  0  0  0  0  0  0  0  0  0  0  0
   19.0144   19.9357   26.5253 C   0  0  0  0  0  0  0  0  0  0  0  0
   18.1958   20.5780   26.8611 H   0  0  0  0  0  0  0  0  0  0  0  0
   19.6832   20.5342   25.9012 H   0  0  0  0  0  0  0  0  0  0  0  0
   19.7870   19.4927   27.7517 N   0  3  0  0  0  0  0  0  0  0  0  0
   20.1531   20.2913   28.2812 H   0  0  0  0  0  0  0  0  0  0  0  0
   20.5871   18.9040   27.4999 H   0  0  0  0  0  0  0  0  0  0  0  0
   19.2008   18.9495   28.3940 H   0  0  0  0  0  0  0  0  0  0  0  0
  1  2  1  0  0  0  0
  1  3  1  0  0  0  0
  1  4  1  0  0  0  0
  1  5  1  0  0  0  0
  5  6  1  0  0  0  0
  5  7  1  0  0  0  0
  5  8  1  0  0  0  0
  8  9  1  0  0  0  0
  8 10  1  0  0  0  0
  8 11  1  0  0  0  0
 11 12  1  0  0  0  0
 11 13  1  0  0  0  0
 11 14  1  0  0  0  0
 14 15  1  0  0  0  0
 14 16  1  0  0  0  0
 14 17  1  0  0  0  0
 17 18  1  0  0  0  0
 17 19  1  0  0  0  0
 17 20  1  0  0  0  0
 20 21  1  0  0  0  0
 20 22  1  0  0  0  0
 20 23  1  0  0  0  0
 23 24  1  0  0  0  0
 23 25  1  0  0  0  0
 23 26  1  0  0  0  0
 26 27  1  0  0  0  0
 26 28  1  0  0  0  0
 26 29  1  0  0  0  0
M  END
> <VM2 Rank>
198

> <Conf_Id>
1312

> <Probability>
0.05

> <Sum Probability>
98.26

> <Delta G>
2.838

> <G>
60.984

> <E>
22.833

> <-TS>
38.151

> <U+W>
-1.312

> <U>
50.783

> <W>
-52.095

> <W(PB)>
-54.518

> <W(SA)>
2.424

> <Valence>
4.465

> <Coulomb>
45.490

> <VdW>
0.827

> <VdW6>
-10.817

> <VdW12>
11.644

> <Bond>
0.325

> <Angle>
1.610

> <Pdih>
2.531

> <Idih>
0.000

> <Tether>
0.000

$$$$
VeraChem MOL file


 29 28  0  0  0  0  0  0  0  0999 V2000     
   19.3144   18.3394   19.9005 C   0  0  0  0  0  0  0  0  0  0  0  0
   18.6835   18.2688   19.0050 H   0  0  0  0  0  0  0  0  0  0  0  0
   20.3409   18.5484   19.5722 H   0  0  0  0  0  0  0  0  0  0  0  0
   19.3024   17.3576   20.3895 H   0  0  0  0  0  0  0  0  0  0  0  0
   18.7948   19.4501   20.8412 C   0  0  0  0  0  0  0  0  0  0  0  0
   17.7807   19.2009   21.1835 H   0  0  0  0  0  0  0  0  0  0  0  0
   18.7050   20.3836   20.2682 H   0  0  0  0  0  0  0  0  0  0  0  0
   19.7116   19.7050   22.0620 C   0  0  0  0  0  0  0  0  0  0  0  0
   20.7229   19.9582   21.7154 H   0  0  0  0  0  0  0  0  0  0  0  0
   19.3339   20.5898   22.5901 H   0  0  0  0  0  0  0  0  0  0  0  0
   19.7795   18.5071   23.0427 C   0  0  0  0  0  0  0  0  0  0  0  0
   20.1599   17.6241   22.5135 H   0  0  0  0  0  0  0  0  0  0  0  0
   18.7681   18.2453   23.3800 H   0  0  0  0  0  0  0  0  0  0  0  0
   20.6988   18.7595   24.2658 C   0  0  0  0  0  0  0  0  0  0  0  0
   20.7433   17.8420   24.8675 H   0  0  0  0  0  0  0  0  0  0  0  0
   21.7244   18.9287   23.9100 H   0  0  0  0  0  0  0  0  0  0  0  0
   20.2859   19.9486   25.1749 C   0  0  0  0  0  0  0  0  0  0  0  0
   20.4107   20.8913   24.6261 H   0  0  0  0  0  0  0  0  0  0  0  0
   20.9897   20.0086   26.0158 H   0  0  0  0  0  0  0  0  0  0  0  0
   18.8380   19.8739   25.7258 C   0  0  0  0  0  0  0  0  0  0  0  0
   18.6572   20.7333   26.3849 H   0  0  0  0  0  0  0  0  0  0  0  0
   18.1233   19.9742   24.8989 H   0  0  0  0  0  0  0  0  0  0  0  0
   18.5297   18.5739   26.4951 C   0  0  0  0  0  0  0  0  0  0  0  0
   18.6789   17.7128   25.8384 H   0  0  0  0  0  0  0  0  0  0  0  0
   17.4848   18.5803   26.8168 H   0  0  0  0  0  0  0  0  0  0  0  0
   19.3912   18.3805   27.7270 N   0  3  0  0  0  0  0  0  0  0  0  0
   20.3868   18.3410   27.4874 H   0  0  0  0  0  0  0  0  0  0  0  0
   19.1632   17.5099   28.2193 H   0  0  0  0  0  0  0  0  0  0  0  0
   19.2709   19.1459   28.3985 H   0  0  0  0  0  0  0  0  0  0  0  0
  1  2  1  0  0  0  0
  1  3  1  0  0  0  0
  1  4  1  0  0  0  0
  1  5  1  0  0  0  0
  5  6  1  0  0  0  0
  5  7  1  0  0  0  0
  5  8  1  0  0  0  0
  8  9  1  0  0  0  0
  8 10  1  0  0  0  0
  8 11  1  0  0  0  0
 11 12  1  0  0  0  0
 11 13  1  0  0  0  0
 11 14  1  0  0  0  0
 14 15  1  0  0  0  0
 14 16  1  0  0  0  0
 14 17  1  0  0  0  0
 17 18  1  0  0  0  0
 17 19  1  0  0  0  0
 17 20  1  0  0  0  0
 20 21  1  0  0  0  0
 20 22  1  0  0  0  0
 20 23  1  0  0  0  0
 23 24  1  0  0  0  0
 23 25  1  0  0  0  0
 23 26  1  0  0  0  0
 26 27  1  0  0  0  0
 26 28  1  0  0  0  0
 26 29  1  0  0  0  0
M  END
> <VM2 Rank>
199

> <Conf_Id>
285

> <Probability>
0.04

> <Sum Probability>
98.30

> <Delta G>
2.844

> <G>
60.990

> <E>
22.839

> <-TS>
38.151

> <U+W>
-1.306

> <U>
50.782

> <W>
-52.088

> <W(PB)>
-54.505

> <W(SA)>
2.417

> <Valence>
4.466

> <Coulomb>
45.490

> <VdW>
0.827

> <VdW6>
-10.816

> <VdW12>
11.643

> <Bond>
0.325

> <Angle>
1.610

> <Pdih>
2.531

> <Idih>
0.000

> <Tether>
0.000

$$$$
VeraChem MOL file


 29 28  0  0  0  0  0  0  0  0999 V2000     
   20.1662   19.5503   20.1736 C   0  0  0  0  0  0  0  0  0  0  0  0
   20.6440   20.2220   20.8977 H   0  0  0  0  0  0  0  0  0  0  0  0
   20.9045   19.3269   19.3927 H   0  0  0  0  0  0  0  0  0  0  0  0
   19.3317   20.0871   19.7041 H   0  0  0  0  0  0  0  0  0  0  0  0
   19.6794   18.2475   20.8471 C   0  0  0  0  0  0  0  0  0  0  0  0
   20.5262   17.7395   21.3274 H   0  0  0  0  0  0  0  0  0  0  0  0
   19.3205   17.5600   20.0685 H   0  0  0  0  0  0  0  0  0  0  0  0
   18.5369   18.4716   21.8704 C   0  0  0  0  0  0  0  0  0  0  0  0
   17.6563   18.8560   21.3376 H   0  0  0  0  0  0  0  0  0  0  0  0
   18.2365   17.4991   22.2840 H   0  0  0  0  0  0  0  0  0  0  0  0
   18.8677   19.4355   23.0393 C   0  0  0  0  0  0  0  0  0  0  0  0
   17.9682   19.5277   23.6612 H   0  0  0  0  0  0  0  0  0  0  0  0
   19.0712   20.4415   22.6496 H   0  0  0  0  0  0  0  0  0  0  0  0
   20.0548   18.9622   23.9156 C   0  0  0  0  0  0  0  0  0  0  0  0
   19.8522   17.9537   24.2995 H   0  0  0  0  0  0  0  0  0  0  0  0
   20.9548   18.8759   23.2933 H   0  0  0  0  0  0  0  0  0  0  0  0
   20.3801   19.9236   25.0881 C   0  0  0  0  0  0  0  0  0  0  0  0
   20.6637   20.9034   24.6799 H   0  0  0  0  0  0  0  0  0  0  0  0
   21.2708   19.5519   25.6123 H   0  0  0  0  0  0  0  0  0  0  0  0
   19.2324   20.1219   26.1130 C   0  0  0  0  0  0  0  0  0  0  0  0
   19.5849   20.7682   26.9277 H   0  0  0  0  0  0  0  0  0  0  0  0
   18.4034   20.6636   25.6402 H   0  0  0  0  0  0  0  0  0  0  0  0
   18.6923   18.8073   26.7103 C   0  0  0  0  0  0  0  0  0  0  0  0
   18.3051   18.1707   25.9105 H   0  0  0  0  0  0  0  0  0  0  0  0
   17.8706   19.0297   27.3964 H   0  0  0  0  0  0  0  0  0  0  0  0
   19.7343   18.0181   27.4775 N   0  3  0  0  0  0  0  0  0  0  0  0
   20.5243   17.7574   26.8791 H   0  0  0  0  0  0  0  0  0  0  0  0
   19.3474   17.1501   27.8640 H   0  0  0  0  0  0  0  0  0  0  0  0
   20.1137   18.5547   28.2644 H   0  0  0  0  0  0  0  0  0  0  0  0
  1  2  1  0  0  0  0
  1  3  1  0  0  0  0
  1  4  1  0  0  0  0
  1  5  1  0  0  0  0
  5  6  1  0  0  0  0
  5  7  1  0  0  0  0
  5  8  1  0  0  0  0
  8  9  1  0  0  0  0
  8 10  1  0  0  0  0
  8 11  1  0  0  0  0
 11 12  1  0  0  0  0
 11 13  1  0  0  0  0
 11 14  1  0  0  0  0
 14 15  1  0  0  0  0
 14 16  1  0  0  0  0
 14 17  1  0  0  0  0
 17 18  1  0  0  0  0
 17 19  1  0  0  0  0
 17 20  1  0  0  0  0
 20 21  1  0  0  0  0
 20 22  1  0  0  0  0
 20 23  1  0  0  0  0
 23 24  1  0  0  0  0
 23 25  1  0  0  0  0
 23 26  1  0  0  0  0
 26 27  1  0  0  0  0
 26 28  1  0  0  0  0
 26 29  1  0  0  0  0
M  END
> <VM2 Rank>
200

> <Conf_Id>
2307

> <Probability>
0.04

> <Sum Probability>
98.35

> <Delta G>
2.852

> <G>
60.998

> <E>
22.855

> <-TS>
38.143

> <U+W>
-1.289

> <U>
50.889

> <W>
-52.178

> <W(PB)>
-54.577

> <W(SA)>
2.399

> <Valence>
4.469

> <Coulomb>
45.537

> <VdW>
0.883

> <VdW6>
-10.784

> <VdW12>
11.667

> <Bond>
0.326

> <Angle>
1.698

> <Pdih>
2.445

> <Idih>
0.000

> <Tether>
0.000

$$$$
VeraChem MOL file


 29 28  0  0  0  0  0  0  0  0999 V2000     
   20.1278   19.9445   19.5640 C   0  0  0  0  0  0  0  0  0  0  0  0
   21.0289   19.3368   19.4095 H   0  0  0  0  0  0  0  0  0  0  0  0
   19.2943   19.4599   19.0389 H   0  0  0  0  0  0  0  0  0  0  0  0
   20.2971   20.9233   19.0966 H   0  0  0  0  0  0  0  0  0  0  0  0
   19.8180   20.1048   21.0673 C   0  0  0  0  0  0  0  0  0  0  0  0
   18.9326   20.7441   21.1910 H   0  0  0  0  0  0  0  0  0  0  0  0
   20.6540   20.6223   21.5586 H   0  0  0  0  0  0  0  0  0  0  0  0
   19.5755   18.7405   21.7498 C   0  0  0  0  0  0  0  0  0  0  0  0
   18.7412   18.2263   21.2529 H   0  0  0  0  0  0  0  0  0  0  0  0
   20.4623   18.1042   21.6226 H   0  0  0  0  0  0  0  0  0  0  0  0
   19.2642   18.8975   23.2553 C   0  0  0  0  0  0  0  0  0  0  0  0
   18.3728   19.5274   23.3816 H   0  0  0  0  0  0  0  0  0  0  0  0
   20.1028   19.4164   23.7369 H   0  0  0  0  0  0  0  0  0  0  0  0
   19.0365   17.5297   23.9401 C   0  0  0  0  0  0  0  0  0  0  0  0
   18.3036   16.9560   23.3560 H   0  0  0  0  0  0  0  0  0  0  0  0
   19.9690   16.9492   23.9136 H   0  0  0  0  0  0  0  0  0  0  0  0
   18.5250   17.6177   25.4014 C   0  0  0  0  0  0  0  0  0  0  0  0
   18.3611   16.5911   25.7571 H   0  0  0  0  0  0  0  0  0  0  0  0
   17.5391   18.1024   25.4279 H   0  0  0  0  0  0  0  0  0  0  0  0
   19.4888   18.3219   26.3893 C   0  0  0  0  0  0  0  0  0  0  0  0
   19.3122   17.9200   27.3959 H   0  0  0  0  0  0  0  0  0  0  0  0
   20.5302   18.0810   26.1374 H   0  0  0  0  0  0  0  0  0  0  0  0
   19.2893   19.8491   26.4430 C   0  0  0  0  0  0  0  0  0  0  0  0
   18.2617   20.0735   26.7414 H   0  0  0  0  0  0  0  0  0  0  0  0
   19.4620   20.2892   25.4592 H   0  0  0  0  0  0  0  0  0  0  0  0
   20.2189   20.5321   27.4249 N   0  3  0  0  0  0  0  0  0  0  0  0
   21.2045   20.3819   27.1855 H   0  0  0  0  0  0  0  0  0  0  0  0
   20.0845   20.1865   28.3809 H   0  0  0  0  0  0  0  0  0  0  0  0
   20.0681   21.5466   27.4501 H   0  0  0  0  0  0  0  0  0  0  0  0
  1  2  1  0  0  0  0
  1  3  1  0  0  0  0
  1  4  1  0  0  0  0
  1  5  1  0  0  0  0
  5  6  1  0  0  0  0
  5  7  1  0  0  0  0
  5  8  1  0  0  0  0
  8  9  1  0  0  0  0
  8 10  1  0  0  0  0
  8 11  1  0  0  0  0
 11 12  1  0  0  0  0
 11 13  1  0  0  0  0
 11 14  1  0  0  0  0
 14 15  1  0  0  0  0
 14 16  1  0  0  0  0
 14 17  1  0  0  0  0
 17 18  1  0  0  0  0
 17 19  1  0  0  0  0
 17 20  1  0  0  0  0
 20 21  1  0  0  0  0
 20 22  1  0  0  0  0
 20 23  1  0  0  0  0
 23 24  1  0  0  0  0
 23 25  1  0  0  0  0
 23 26  1  0  0  0  0
 26 27  1  0  0  0  0
 26 28  1  0  0  0  0
 26 29  1  0  0  0  0
M  END
> <VM2 Rank>
201

> <Conf_Id>
2488

> <Probability>
0.04

> <Sum Probability>
98.39

> <Delta G>
2.890

> <G>
61.036

> <E>
23.512

> <-TS>
37.523

> <U+W>
-0.632

> <U>
51.492

> <W>
-52.124

> <W(PB)>
-54.656

> <W(SA)>
2.532

> <Valence>
4.974

> <Coulomb>
45.825

> <VdW>
0.694

> <VdW6>
-8.648

> <VdW12>
9.341

> <Bond>
0.214

> <Angle>
1.150

> <Pdih>
3.610

> <Idih>
0.000

> <Tether>
0.000

$$$$
VeraChem MOL file


 29 28  0  0  0  0  0  0  0  0999 V2000     
   19.7548   18.3964   20.1477 C   0  0  0  0  0  0  0  0  0  0  0  0
   18.7756   18.5272   19.6692 H   0  0  0  0  0  0  0  0  0  0  0  0
   20.4790   18.1334   19.3659 H   0  0  0  0  0  0  0  0  0  0  0  0
   19.6901   17.5458   20.8378 H   0  0  0  0  0  0  0  0  0  0  0  0
   20.1918   19.6856   20.8791 C   0  0  0  0  0  0  0  0  0  0  0  0
   20.3594   20.4753   20.1336 H   0  0  0  0  0  0  0  0  0  0  0  0
   21.1622   19.5243   21.3671 H   0  0  0  0  0  0  0  0  0  0  0  0
   19.1506   20.1938   21.9089 C   0  0  0  0  0  0  0  0  0  0  0  0
   19.5268   21.1199   22.3649 H   0  0  0  0  0  0  0  0  0  0  0  0
   18.2329   20.4741   21.3738 H   0  0  0  0  0  0  0  0  0  0  0  0
   18.7812   19.1925   23.0339 C   0  0  0  0  0  0  0  0  0  0  0  0
   18.3085   18.3007   22.6019 H   0  0  0  0  0  0  0  0  0  0  0  0
   18.0172   19.6651   23.6643 H   0  0  0  0  0  0  0  0  0  0  0  0
   19.9877   18.7737   23.9114 C   0  0  0  0  0  0  0  0  0  0  0  0
   20.7484   18.2964   23.2804 H   0  0  0  0  0  0  0  0  0  0  0  0
   20.4626   19.6671   24.3379 H   0  0  0  0  0  0  0  0  0  0  0  0
   19.6156   17.7776   25.0402 C   0  0  0  0  0  0  0  0  0  0  0  0
   20.5332   17.4815   25.5661 H   0  0  0  0  0  0  0  0  0  0  0  0
   19.2218   16.8563   24.5894 H   0  0  0  0  0  0  0  0  0  0  0  0
   18.5864   18.3088   26.0724 C   0  0  0  0  0  0  0  0  0  0  0  0
   17.6085   18.4323   25.5902 H   0  0  0  0  0  0  0  0  0  0  0  0
   18.4395   17.5535   26.8558 H   0  0  0  0  0  0  0  0  0  0  0  0
   18.9903   19.6439   26.7291 C   0  0  0  0  0  0  0  0  0  0  0  0
   18.2033   19.9638   27.4174 H   0  0  0  0  0  0  0  0  0  0  0  0
   19.1040   20.4130   25.9607 H   0  0  0  0  0  0  0  0  0  0  0  0
   20.2856   19.5658   27.5121 N   0  3  0  0  0  0  0  0  0  0  0  0
   20.5289   20.4667   27.9382 H   0  0  0  0  0  0  0  0  0  0  0  0
   21.0709   19.2920   26.9135 H   0  0  0  0  0  0  0  0  0  0  0  0
   20.2293   18.8794   28.2716 H   0  0  0  0  0  0  0  0  0  0  0  0
  1  2  1  0  0  0  0
  1  3  1  0  0  0  0
  1  4  1  0  0  0  0
  1  5  1  0  0  0  0
  5  6  1  0  0  0  0
  5  7  1  0  0  0  0
  5  8  1  0  0  0  0
  8  9  1  0  0  0  0
  8 10  1  0  0  0  0
  8 11  1  0  0  0  0
 11 12  1  0  0  0  0
 11 13  1  0  0  0  0
 11 14  1  0  0  0  0
 14 15  1  0  0  0  0
 14 16  1  0  0  0  0
 14 17  1  0  0  0  0
 17 18  1  0  0  0  0
 17 19  1  0  0  0  0
 17 20  1  0  0  0  0
 20 21  1  0  0  0  0
 20 22  1  0  0  0  0
 20 23  1  0  0  0  0
 23 24  1  0  0  0  0
 23 25  1  0  0  0  0
 23 26  1  0  0  0  0
 26 27  1  0  0  0  0
 26 28  1  0  0  0  0
 26 29  1  0  0  0  0
M  END
> <VM2 Rank>
202

> <Conf_Id>
2269

> <Probability>
0.04

> <Sum Probability>
98.43

> <Delta G>
2.913

> <G>
61.059

> <E>
22.917

> <-TS>
38.143

> <U+W>
-1.228

> <U>
50.889

> <W>
-52.117

> <W(PB)>
-54.544

> <W(SA)>
2.427

> <Valence>
4.469

> <Coulomb>
45.537

> <VdW>
0.883

> <VdW6>
-10.784

> <VdW12>
11.667

> <Bond>
0.326

> <Angle>
1.698

> <Pdih>
2.445

> <Idih>
0.000

> <Tether>
0.000

$$$$
VeraChem MOL file


 29 28  0  0  0  0  0  0  0  0999 V2000     
   20.2694   18.2957   20.3152 C   0  0  0  0  0  0  0  0  0  0  0  0
   20.5608   19.0715   19.5954 H   0  0  0  0  0  0  0  0  0  0  0  0
   21.0935   18.1597   21.0265 H   0  0  0  0  0  0  0  0  0  0  0  0
   20.1484   17.3541   19.7643 H   0  0  0  0  0  0  0  0  0  0  0  0
   18.9561   18.6737   21.0367 C   0  0  0  0  0  0  0  0  0  0  0  0
   18.6910   17.8902   21.7590 H   0  0  0  0  0  0  0  0  0  0  0  0
   18.1407   18.6929   20.3003 H   0  0  0  0  0  0  0  0  0  0  0  0
   19.0180   20.0525   21.7414 C   0  0  0  0  0  0  0  0  0  0  0  0
   19.1834   20.8300   20.9830 H   0  0  0  0  0  0  0  0  0  0  0  0
   18.0357   20.2743   22.1786 H   0  0  0  0  0  0  0  0  0  0  0  0
   20.1128   20.1876   22.8340 C   0  0  0  0  0  0  0  0  0  0  0  0
   20.0409   21.1888   23.2804 H   0  0  0  0  0  0  0  0  0  0  0  0
   21.1025   20.1478   22.3599 H   0  0  0  0  0  0  0  0  0  0  0  0
   20.0577   19.1288   23.9654 C   0  0  0  0  0  0  0  0  0  0  0  0
   20.2253   18.1269   23.5488 H   0  0  0  0  0  0  0  0  0  0  0  0
   20.8987   19.3177   24.6451 H   0  0  0  0  0  0  0  0  0  0  0  0
   18.7307   19.1484   24.7654 C   0  0  0  0  0  0  0  0  0  0  0  0
   17.8917   18.9385   24.0894 H   0  0  0  0  0  0  0  0  0  0  0  0
   18.5548   20.1545   25.1684 H   0  0  0  0  0  0  0  0  0  0  0  0
   18.6950   18.1062   25.9113 C   0  0  0  0  0  0  0  0  0  0  0  0
   17.7113   18.1374   26.3983 H   0  0  0  0  0  0  0  0  0  0  0  0
   18.7942   17.0984   25.4867 H   0  0  0  0  0  0  0  0  0  0  0  0
   19.7907   18.3038   26.9784 C   0  0  0  0  0  0  0  0  0  0  0  0
   20.7775   18.2218   26.5159 H   0  0  0  0  0  0  0  0  0  0  0  0
   19.7051   17.5201   27.7360 H   0  0  0  0  0  0  0  0  0  0  0  0
   19.7137   19.6413   27.6873 N   0  3  0  0  0  0  0  0  0  0  0  0
   20.4496   19.7408   28.3951 H   0  0  0  0  0  0  0  0  0  0  0  0
   18.8163   19.7658   28.1672 H   0  0  0  0  0  0  0  0  0  0  0  0
   19.8179   20.4214   27.0309 H   0  0  0  0  0  0  0  0  0  0  0  0
  1  2  1  0  0  0  0
  1  3  1  0  0  0  0
  1  4  1  0  0  0  0
  1  5  1  0  0  0  0
  5  6  1  0  0  0  0
  5  7  1  0  0  0  0
  5  8  1  0  0  0  0
  8  9  1  0  0  0  0
  8 10  1  0  0  0  0
  8 11  1  0  0  0  0
 11 12  1  0  0  0  0
 11 13  1  0  0  0  0
 11 14  1  0  0  0  0
 14 15  1  0  0  0  0
 14 16  1  0  0  0  0
 14 17  1  0  0  0  0
 17 18  1  0  0  0  0
 17 19  1  0  0  0  0
 17 20  1  0  0  0  0
 20 21  1  0  0  0  0
 20 22  1  0  0  0  0
 20 23  1  0  0  0  0
 23 24  1  0  0  0  0
 23 25  1  0  0  0  0
 23 26  1  0  0  0  0
 26 27  1  0  0  0  0
 26 28  1  0  0  0  0
 26 29  1  0  0  0  0
M  END
> <VM2 Rank>
203

> <Conf_Id>
781

> <Probability>
0.04

> <Sum Probability>
98.47

> <Delta G>
2.926

> <G>
61.072

> <E>
22.834

> <-TS>
38.238

> <U+W>
-1.310

> <U>
50.732

> <W>
-52.042

> <W(PB)>
-54.444

> <W(SA)>
2.402

> <Valence>
4.413

> <Coulomb>
45.469

> <VdW>
0.849

> <VdW6>
-10.820

> <VdW12>
11.669

> <Bond>
0.321

> <Angle>
1.661

> <Pdih>
2.430

> <Idih>
0.000

> <Tether>
0.000

$$$$
VeraChem MOL file


 29 28  0  0  0  0  0  0  0  0999 V2000     
   19.7649   19.6262   20.1483 C   0  0  0  0  0  0  0  0  0  0  0  0
   18.6762   19.5733   20.2728 H   0  0  0  0  0  0  0  0  0  0  0  0
   19.9873   20.5237   19.5569 H   0  0  0  0  0  0  0  0  0  0  0  0
   20.0877   18.7523   19.5677 H   0  0  0  0  0  0  0  0  0  0  0  0
   20.4881   19.6838   21.5127 C   0  0  0  0  0  0  0  0  0  0  0  0
   20.1381   20.5563   22.0802 H   0  0  0  0  0  0  0  0  0  0  0  0
   21.5605   19.8478   21.3379 H   0  0  0  0  0  0  0  0  0  0  0  0
   20.3163   18.3934   22.3536 C   0  0  0  0  0  0  0  0  0  0  0  0
   20.7568   17.5510   21.8030 H   0  0  0  0  0  0  0  0  0  0  0  0
   20.9085   18.4858   23.2734 H   0  0  0  0  0  0  0  0  0  0  0  0
   18.8506   18.0346   22.7178 C   0  0  0  0  0  0  0  0  0  0  0  0
   18.8498   17.1095   23.3090 H   0  0  0  0  0  0  0  0  0  0  0  0
   18.2996   17.7891   21.8004 H   0  0  0  0  0  0  0  0  0  0  0  0
   18.0730   19.1363   23.4868 C   0  0  0  0  0  0  0  0  0  0  0  0
   17.9308   20.0051   22.8306 H   0  0  0  0  0  0  0  0  0  0  0  0
   17.0627   18.7647   23.7062 H   0  0  0  0  0  0  0  0  0  0  0  0
   18.7323   19.6077   24.8083 C   0  0  0  0  0  0  0  0  0  0  0  0
   18.1059   20.3975   25.2454 H   0  0  0  0  0  0  0  0  0  0  0  0
   19.7017   20.0741   24.5917 H   0  0  0  0  0  0  0  0  0  0  0  0
   18.9069   18.4725   25.8473 C   0  0  0  0  0  0  0  0  0  0  0  0
   17.9431   17.9694   26.0012 H   0  0  0  0  0  0  0  0  0  0  0  0
   19.6028   17.7120   25.4710 H   0  0  0  0  0  0  0  0  0  0  0  0
   19.4116   18.9888   27.2081 C   0  0  0  0  0  0  0  0  0  0  0  0
   19.4390   18.1619   27.9230 H   0  0  0  0  0  0  0  0  0  0  0  0
   18.7252   19.7487   27.5912 H   0  0  0  0  0  0  0  0  0  0  0  0
   20.8002   19.5947   27.1519 N   0  3  0  0  0  0  0  0  0  0  0  0
   21.4968   18.9189   26.8216 H   0  0  0  0  0  0  0  0  0  0  0  0
   21.1109   19.9198   28.0741 H   0  0  0  0  0  0  0  0  0  0  0  0
   20.8359   20.4014   26.5210 H   0  0  0  0  0  0  0  0  0  0  0  0
  1  2  1  0  0  0  0
  1  3  1  0  0  0  0
  1  4  1  0  0  0  0
  1  5  1  0  0  0  0
  5  6  1  0  0  0  0
  5  7  1  0  0  0  0
  5  8  1  0  0  0  0
  8  9  1  0  0  0  0
  8 10  1  0  0  0  0
  8 11  1  0  0  0  0
 11 12  1  0  0  0  0
 11 13  1  0  0  0  0
 11 14  1  0  0  0  0
 14 15  1  0  0  0  0
 14 16  1  0  0  0  0
 14 17  1  0  0  0  0
 17 18  1  0  0  0  0
 17 19  1  0  0  0  0
 17 20  1  0  0  0  0
 20 21  1  0  0  0  0
 20 22  1  0  0  0  0
 20 23  1  0  0  0  0
 23 24  1  0  0  0  0
 23 25  1  0  0  0  0
 23 26  1  0  0  0  0
 26 27  1  0  0  0  0
 26 28  1  0  0  0  0
 26 29  1  0  0  0  0
M  END
> <VM2 Rank>
204

> <Conf_Id>
1916

> <Probability>
0.04

> <Sum Probability>
98.50

> <Delta G>
2.959

> <G>
61.106

> <E>
22.730

> <-TS>
38.375

> <U+W>
-1.414

> <U>
51.214

> <W>
-52.628

> <W(PB)>
-55.029

> <W(SA)>
2.401

> <Valence>
4.528

> <Coulomb>
45.979

> <VdW>
0.708

> <VdW6>
-11.070

> <VdW12>
11.777

> <Bond>
0.333

> <Angle>
1.708

> <Pdih>
2.487

> <Idih>
0.000

> <Tether>
0.000

$$$$
VeraChem MOL file


 29 28  0  0  0  0  0  0  0  0999 V2000     
   19.3729   18.6457   20.0401 C   0  0  0  0  0  0  0  0  0  0  0  0
   18.7669   17.8533   20.4968 H   0  0  0  0  0  0  0  0  0  0  0  0
   18.8232   19.0212   19.1674 H   0  0  0  0  0  0  0  0  0  0  0  0
   20.3093   18.1993   19.6813 H   0  0  0  0  0  0  0  0  0  0  0  0
   19.6513   19.7915   21.0388 C   0  0  0  0  0  0  0  0  0  0  0  0
   18.7011   20.2107   21.3953 H   0  0  0  0  0  0  0  0  0  0  0  0
   20.1605   20.6076   20.5076 H   0  0  0  0  0  0  0  0  0  0  0  0
   20.5306   19.3598   22.2397 C   0  0  0  0  0  0  0  0  0  0  0  0
   21.5098   19.0345   21.8625 H   0  0  0  0  0  0  0  0  0  0  0  0
   20.7331   20.2384   22.8663 H   0  0  0  0  0  0  0  0  0  0  0  0
   19.9367   18.2258   23.1177 C   0  0  0  0  0  0  0  0  0  0  0  0
   20.6417   18.0006   23.9287 H   0  0  0  0  0  0  0  0  0  0  0  0
   19.8762   17.3033   22.5253 H   0  0  0  0  0  0  0  0  0  0  0  0
   18.5381   18.5242   23.7210 C   0  0  0  0  0  0  0  0  0  0  0  0
   17.8025   18.6013   22.9095 H   0  0  0  0  0  0  0  0  0  0  0  0
   18.2198   17.6587   24.3173 H   0  0  0  0  0  0  0  0  0  0  0  0
   18.4571   19.8062   24.5928 C   0  0  0  0  0  0  0  0  0  0  0  0
   17.4310   19.9072   24.9725 H   0  0  0  0  0  0  0  0  0  0  0  0
   18.6289   20.6898   23.9640 H   0  0  0  0  0  0  0  0  0  0  0  0
   19.4386   19.8390   25.7903 C   0  0  0  0  0  0  0  0  0  0  0  0
   20.4740   19.8555   25.4273 H   0  0  0  0  0  0  0  0  0  0  0  0
   19.2907   20.7756   26.3441 H   0  0  0  0  0  0  0  0  0  0  0  0
   19.2444   18.6505   26.7498 C   0  0  0  0  0  0  0  0  0  0  0  0
   19.4267   17.7133   26.2174 H   0  0  0  0  0  0  0  0  0  0  0  0
   18.2163   18.6418   27.1215 H   0  0  0  0  0  0  0  0  0  0  0  0
   20.1743   18.6954   27.9448 N   0  3  0  0  0  0  0  0  0  0  0  0
   21.1599   18.6793   27.6624 H   0  0  0  0  0  0  0  0  0  0  0  0
   20.0291   17.8956   28.5706 H   0  0  0  0  0  0  0  0  0  0  0  0
   20.0343   19.5426   28.5053 H   0  0  0  0  0  0  0  0  0  0  0  0
  1  2  1  0  0  0  0
  1  3  1  0  0  0  0
  1  4  1  0  0  0  0
  1  5  1  0  0  0  0
  5  6  1  0  0  0  0
  5  7  1  0  0  0  0
  5  8  1  0  0  0  0
  8  9  1  0  0  0  0
  8 10  1  0  0  0  0
  8 11  1  0  0  0  0
 11 12  1  0  0  0  0
 11 13  1  0  0  0  0
 11 14  1  0  0  0  0
 14 15  1  0  0  0  0
 14 16  1  0  0  0  0
 14 17  1  0  0  0  0
 17 18  1  0  0  0  0
 17 19  1  0  0  0  0
 17 20  1  0  0  0  0
 20 21  1  0  0  0  0
 20 22  1  0  0  0  0
 20 23  1  0  0  0  0
 23 24  1  0  0  0  0
 23 25  1  0  0  0  0
 23 26  1  0  0  0  0
 26 27  1  0  0  0  0
 26 28  1  0  0  0  0
 26 29  1  0  0  0  0
M  END
> <VM2 Rank>
205

> <Conf_Id>
330

> <Probability>
0.04

> <Sum Probability>
98.54

> <Delta G>
2.966

> <G>
61.113

> <E>
22.631

> <-TS>
38.481

> <U+W>
-1.513

> <U>
50.794

> <W>
-52.307

> <W(PB)>
-54.719

> <W(SA)>
2.412

> <Valence>
4.673

> <Coulomb>
45.528

> <VdW>
0.593

> <VdW6>
-11.313

> <VdW12>
11.906

> <Bond>
0.340

> <Angle>
1.876

> <Pdih>
2.457

> <Idih>
0.000

> <Tether>
0.000

$$$$
VeraChem MOL file


 29 28  0  0  0  0  0  0  0  0999 V2000     
   19.7135   19.6033   20.0614 C   0  0  0  0  0  0  0  0  0  0  0  0
   20.7264   19.3720   19.7072 H   0  0  0  0  0  0  0  0  0  0  0  0
   19.0623   19.6942   19.1825 H   0  0  0  0  0  0  0  0  0  0  0  0
   19.7377   20.5815   20.5576 H   0  0  0  0  0  0  0  0  0  0  0  0
   19.1920   18.5006   21.0100 C   0  0  0  0  0  0  0  0  0  0  0  0
   19.0789   17.5681   20.4397 H   0  0  0  0  0  0  0  0  0  0  0  0
   18.1855   18.7617   21.3631 H   0  0  0  0  0  0  0  0  0  0  0  0
   20.1294   18.2322   22.2145 C   0  0  0  0  0  0  0  0  0  0  0  0
   19.7230   17.3991   22.8028 H   0  0  0  0  0  0  0  0  0  0  0  0
   21.0994   17.8810   21.8366 H   0  0  0  0  0  0  0  0  0  0  0  0
   20.3725   19.4507   23.1451 C   0  0  0  0  0  0  0  0  0  0  0  0
   20.9163   20.2268   22.5905 H   0  0  0  0  0  0  0  0  0  0  0  0
   21.0499   19.1479   23.9543 H   0  0  0  0  0  0  0  0  0  0  0  0
   19.0912   20.0785   23.7558 C   0  0  0  0  0  0  0  0  0  0  0  0
   19.3823   20.9262   24.3903 H   0  0  0  0  0  0  0  0  0  0  0  0
   18.4835   20.5154   22.9523 H   0  0  0  0  0  0  0  0  0  0  0  0
   18.2068   19.1022   24.5770 C   0  0  0  0  0  0  0  0  0  0  0  0
   17.7911   18.3342   23.9114 H   0  0  0  0  0  0  0  0  0  0  0  0
   17.3420   19.6566   24.9669 H   0  0  0  0  0  0  0  0  0  0  0  0
   18.9302   18.4098   25.7584 C   0  0  0  0  0  0  0  0  0  0  0  0
   18.2165   17.7557   26.2766 H   0  0  0  0  0  0  0  0  0  0  0  0
   19.7279   17.7577   25.3806 H   0  0  0  0  0  0  0  0  0  0  0  0
   19.5163   19.4149   26.7669 C   0  0  0  0  0  0  0  0  0  0  0  0
   18.7193   20.0559   27.1530 H   0  0  0  0  0  0  0  0  0  0  0  0
   20.2568   20.0468   26.2696 H   0  0  0  0  0  0  0  0  0  0  0  0
   20.1921   18.7458   27.9460 N   0  3  0  0  0  0  0  0  0  0  0  0
   20.9705   18.1473   27.6508 H   0  0  0  0  0  0  0  0  0  0  0  0
   19.5408   18.1559   28.4745 H   0  0  0  0  0  0  0  0  0  0  0  0
   20.5755   19.4323   28.6051 H   0  0  0  0  0  0  0  0  0  0  0  0
  1  2  1  0  0  0  0
  1  3  1  0  0  0  0
  1  4  1  0  0  0  0
  1  5  1  0  0  0  0
  5  6  1  0  0  0  0
  5  7  1  0  0  0  0
  5  8  1  0  0  0  0
  8  9  1  0  0  0  0
  8 10  1  0  0  0  0
  8 11  1  0  0  0  0
 11 12  1  0  0  0  0
 11 13  1  0  0  0  0
 11 14  1  0  0  0  0
 14 15  1  0  0  0  0
 14 16  1  0  0  0  0
 14 17  1  0  0  0  0
 17 18  1  0  0  0  0
 17 19  1  0  0  0  0
 17 20  1  0  0  0  0
 20 21  1  0  0  0  0
 20 22  1  0  0  0  0
 20 23  1  0  0  0  0
 23 24  1  0  0  0  0
 23 25  1  0  0  0  0
 23 26  1  0  0  0  0
 26 27  1  0  0  0  0
 26 28  1  0  0  0  0
 26 29  1  0  0  0  0
M  END
> <VM2 Rank>
206

> <Conf_Id>
673

> <Probability>
0.03

> <Sum Probability>
98.57

> <Delta G>
3.006

> <G>
61.152

> <E>
22.671

> <-TS>
38.481

> <U+W>
-1.473

> <U>
50.794

> <W>
-52.267

> <W(PB)>
-54.672

> <W(SA)>
2.405

> <Valence>
4.673

> <Coulomb>
45.528

> <VdW>
0.593

> <VdW6>
-11.313

> <VdW12>
11.906

> <Bond>
0.340

> <Angle>
1.875

> <Pdih>
2.457

> <Idih>
0.000

> <Tether>
0.000

$$$$
VeraChem MOL file


 29 28  0  0  0  0  0  0  0  0999 V2000     
   18.9247   19.4535   19.4851 C   0  0  0  0  0  0  0  0  0  0  0  0
   19.0326   18.4070   19.1713 H   0  0  0  0  0  0  0  0  0  0  0  0
   18.0719   19.8819   18.9426 H   0  0  0  0  0  0  0  0  0  0  0  0
   19.8274   19.9974   19.1778 H   0  0  0  0  0  0  0  0  0  0  0  0
   18.7076   19.5556   21.0096 C   0  0  0  0  0  0  0  0  0  0  0  0
   17.7807   19.0316   21.2817 H   0  0  0  0  0  0  0  0  0  0  0  0
   18.5696   20.6097   21.2885 H   0  0  0  0  0  0  0  0  0  0  0  0
   19.8948   18.9590   21.7975 C   0  0  0  0  0  0  0  0  0  0  0  0
   20.0302   17.9058   21.5148 H   0  0  0  0  0  0  0  0  0  0  0  0
   20.8189   19.4843   21.5194 H   0  0  0  0  0  0  0  0  0  0  0  0
   19.6808   19.0604   23.3246 C   0  0  0  0  0  0  0  0  0  0  0  0
   18.7529   18.5363   23.5856 H   0  0  0  0  0  0  0  0  0  0  0  0
   19.5535   20.1143   23.6077 H   0  0  0  0  0  0  0  0  0  0  0  0
   20.8626   18.4479   24.1117 C   0  0  0  0  0  0  0  0  0  0  0  0
   20.9031   17.3658   23.9252 H   0  0  0  0  0  0  0  0  0  0  0  0
   21.8030   18.8597   23.7199 H   0  0  0  0  0  0  0  0  0  0  0  0
   20.8249   18.7081   25.6399 C   0  0  0  0  0  0  0  0  0  0  0  0
   20.8962   19.7852   25.8384 H   0  0  0  0  0  0  0  0  0  0  0  0
   21.7366   18.2703   26.0696 H   0  0  0  0  0  0  0  0  0  0  0  0
   19.6069   18.0941   26.3809 C   0  0  0  0  0  0  0  0  0  0  0  0
   19.3720   17.1106   25.9527 H   0  0  0  0  0  0  0  0  0  0  0  0
   19.8845   17.9079   27.4269 H   0  0  0  0  0  0  0  0  0  0  0  0
   18.3389   18.9738   26.3719 C   0  0  0  0  0  0  0  0  0  0  0  0
   17.5197   18.4279   26.8478 H   0  0  0  0  0  0  0  0  0  0  0  0
   18.0411   19.2026   25.3474 H   0  0  0  0  0  0  0  0  0  0  0  0
   18.5027   20.2856   27.1138 N   0  3  0  0  0  0  0  0  0  0  0  0
   18.7538   20.1374   28.0968 H   0  0  0  0  0  0  0  0  0  0  0  0
   17.6387   20.8387   27.1052 H   0  0  0  0  0  0  0  0  0  0  0  0
   19.2367   20.8673   26.6981 H   0  0  0  0  0  0  0  0  0  0  0  0
  1  2  1  0  0  0  0
  1  3  1  0  0  0  0
  1  4  1  0  0  0  0
  1  5  1  0  0  0  0
  5  6  1  0  0  0  0
  5  7  1  0  0  0  0
  5  8  1  0  0  0  0
  8  9  1  0  0  0  0
  8 10  1  0  0  0  0
  8 11  1  0  0  0  0
 11 12  1  0  0  0  0
 11 13  1  0  0  0  0
 11 14  1  0  0  0  0
 14 15  1  0  0  0  0
 14 16  1  0  0  0  0
 14 17  1  0  0  0  0
 17 18  1  0  0  0  0
 17 19  1  0  0  0  0
 17 20  1  0  0  0  0
 20 21  1  0  0  0  0
 20 22  1  0  0  0  0
 20 23  1  0  0  0  0
 23 24  1  0  0  0  0
 23 25  1  0  0  0  0
 23 26  1  0  0  0  0
 26 27  1  0  0  0  0
 26 28  1  0  0  0  0
 26 29  1  0  0  0  0
M  END
> <VM2 Rank>
207

> <Conf_Id>
288

> <Probability>
0.02

> <Sum Probability>
98.60

> <Delta G>
3.240

> <G>
61.386

> <E>
23.802

> <-TS>
37.584

> <U+W>
-0.343

> <U>
51.962

> <W>
-52.305

> <W(PB)>
-54.788

> <W(SA)>
2.484

> <Valence>
5.131

> <Coulomb>
46.084

> <VdW>
0.747

> <VdW6>
-9.218

> <VdW12>
9.965

> <Bond>
0.247

> <Angle>
1.341

> <Pdih>
3.543

> <Idih>
0.000

> <Tether>
0.000

$$$$
VeraChem MOL file


 29 28  0  0  0  0  0  0  0  0999 V2000     
   19.9349   20.0078   19.8409 C   0  0  0  0  0  0  0  0  0  0  0  0
   20.8929   20.4751   20.1032 H   0  0  0  0  0  0  0  0  0  0  0  0
   19.8283   20.0504   18.7492 H   0  0  0  0  0  0  0  0  0  0  0  0
   19.1275   20.6106   20.2746 H   0  0  0  0  0  0  0  0  0  0  0  0
   19.8776   18.5439   20.3329 C   0  0  0  0  0  0  0  0  0  0  0  0
   20.6244   17.9556   19.7815 H   0  0  0  0  0  0  0  0  0  0  0  0
   18.8994   18.1087   20.0853 H   0  0  0  0  0  0  0  0  0  0  0  0
   20.1485   18.3937   21.8493 C   0  0  0  0  0  0  0  0  0  0  0  0
   20.1994   17.3228   22.0898 H   0  0  0  0  0  0  0  0  0  0  0  0
   21.1361   18.8118   22.0883 H   0  0  0  0  0  0  0  0  0  0  0  0
   19.0702   19.0601   22.7370 C   0  0  0  0  0  0  0  0  0  0  0  0
   18.0788   18.6780   22.4574 H   0  0  0  0  0  0  0  0  0  0  0  0
   19.0570   20.1435   22.5594 H   0  0  0  0  0  0  0  0  0  0  0  0
   19.3214   18.7969   24.2389 C   0  0  0  0  0  0  0  0  0  0  0  0
   19.3208   17.7141   24.4256 H   0  0  0  0  0  0  0  0  0  0  0  0
   20.3174   19.1755   24.4999 H   0  0  0  0  0  0  0  0  0  0  0  0
   18.2529   19.4783   25.1261 C   0  0  0  0  0  0  0  0  0  0  0  0
   17.2554   19.2073   24.7532 H   0  0  0  0  0  0  0  0  0  0  0  0
   18.3323   20.5694   25.0226 H   0  0  0  0  0  0  0  0  0  0  0  0
   18.3261   19.0960   26.6265 C   0  0  0  0  0  0  0  0  0  0  0  0
   17.4781   19.5719   27.1366 H   0  0  0  0  0  0  0  0  0  0  0  0
   18.1852   18.0143   26.7527 H   0  0  0  0  0  0  0  0  0  0  0  0
   19.6171   19.5475   27.3403 C   0  0  0  0  0  0  0  0  0  0  0  0
   19.4293   19.6003   28.4161 H   0  0  0  0  0  0  0  0  0  0  0  0
   19.9021   20.5454   26.9962 H   0  0  0  0  0  0  0  0  0  0  0  0
   20.7952   18.6137   27.1432 N   0  3  0  0  0  0  0  0  0  0  0  0
   20.5980   17.6740   27.5032 H   0  0  0  0  0  0  0  0  0  0  0  0
   21.6331   18.9507   27.6300 H   0  0  0  0  0  0  0  0  0  0  0  0
   21.0389   18.5138   26.1538 H   0  0  0  0  0  0  0  0  0  0  0  0
  1  2  1  0  0  0  0
  1  3  1  0  0  0  0
  1  4  1  0  0  0  0
  1  5  1  0  0  0  0
  5  6  1  0  0  0  0
  5  7  1  0  0  0  0
  5  8  1  0  0  0  0
  8  9  1  0  0  0  0
  8 10  1  0  0  0  0
  8 11  1  0  0  0  0
 11 12  1  0  0  0  0
 11 13  1  0  0  0  0
 11 14  1  0  0  0  0
 14 15  1  0  0  0  0
 14 16  1  0  0  0  0
 14 17  1  0  0  0  0
 17 18  1  0  0  0  0
 17 19  1  0  0  0  0
 17 20  1  0  0  0  0
 20 21  1  0  0  0  0
 20 22  1  0  0  0  0
 20 23  1  0  0  0  0
 23 24  1  0  0  0  0
 23 25  1  0  0  0  0
 23 26  1  0  0  0  0
 26 27  1  0  0  0  0
 26 28  1  0  0  0  0
 26 29  1  0  0  0  0
M  END
> <VM2 Rank>
208

> <Conf_Id>
652

> <Probability>
0.02

> <Sum Probability>
98.62

> <Delta G>
3.302

> <G>
61.449

> <E>
23.997

> <-TS>
37.452

> <U+W>
-0.148

> <U>
51.917

> <W>
-52.065

> <W(PB)>
-54.538

> <W(SA)>
2.473

> <Valence>
4.676

> <Coulomb>
46.406

> <VdW>
0.835

> <VdW6>
-9.055

> <VdW12>
9.889

> <Bond>
0.237

> <Angle>
1.196

> <Pdih>
3.243

> <Idih>
0.000

> <Tether>
0.000

$$$$
VeraChem MOL file


 29 28  0  0  0  0  0  0  0  0999 V2000     
   19.2921   18.2011   19.8007 C   0  0  0  0  0  0  0  0  0  0  0  0
   19.7362   17.2240   20.0310 H   0  0  0  0  0  0  0  0  0  0  0  0
   18.2794   18.2269   20.2217 H   0  0  0  0  0  0  0  0  0  0  0  0
   19.1978   18.2785   18.7098 H   0  0  0  0  0  0  0  0  0  0  0  0
   20.1650   19.3517   20.3509 C   0  0  0  0  0  0  0  0  0  0  0  0
   19.6847   20.3161   20.1343 H   0  0  0  0  0  0  0  0  0  0  0  0
   21.1232   19.3576   19.8126 H   0  0  0  0  0  0  0  0  0  0  0  0
   20.4486   19.2372   21.8681 C   0  0  0  0  0  0  0  0  0  0  0  0
   20.9471   18.2805   22.0765 H   0  0  0  0  0  0  0  0  0  0  0  0
   21.1608   20.0250   22.1499 H   0  0  0  0  0  0  0  0  0  0  0  0
   19.1793   19.3667   22.7438 C   0  0  0  0  0  0  0  0  0  0  0  0
   18.4875   18.5430   22.5237 H   0  0  0  0  0  0  0  0  0  0  0  0
   18.6557   20.2996   22.4936 H   0  0  0  0  0  0  0  0  0  0  0  0
   19.5191   19.3525   24.2513 C   0  0  0  0  0  0  0  0  0  0  0  0
   20.0487   18.4202   24.4830 H   0  0  0  0  0  0  0  0  0  0  0  0
   20.1997   20.1841   24.4807 H   0  0  0  0  0  0  0  0  0  0  0  0
   18.2479   19.4644   25.1258 C   0  0  0  0  0  0  0  0  0  0  0  0
   17.6220   18.5734   24.9780 H   0  0  0  0  0  0  0  0  0  0  0  0
   17.6510   20.3189   24.7780 H   0  0  0  0  0  0  0  0  0  0  0  0
   18.5250   19.6547   26.6390 C   0  0  0  0  0  0  0  0  0  0  0  0
   19.0971   20.5763   26.8100 H   0  0  0  0  0  0  0  0  0  0  0  0
   17.5598   19.8015   27.1417 H   0  0  0  0  0  0  0  0  0  0  0  0
   19.2305   18.4614   27.3160 C   0  0  0  0  0  0  0  0  0  0  0  0
   18.8262   17.5224   26.9285 H   0  0  0  0  0  0  0  0  0  0  0  0
   19.0363   18.4964   28.3914 H   0  0  0  0  0  0  0  0  0  0  0  0
   20.7364   18.4483   27.1396 N   0  3  0  0  0  0  0  0  0  0  0  0
   21.0024   18.4111   26.1516 H   0  0  0  0  0  0  0  0  0  0  0  0
   21.1662   17.6388   27.6008 H   0  0  0  0  0  0  0  0  0  0  0  0
   21.1718   19.2862   27.5394 H   0  0  0  0  0  0  0  0  0  0  0  0
  1  2  1  0  0  0  0
  1  3  1  0  0  0  0
  1  4  1  0  0  0  0
  1  5  1  0  0  0  0
  5  6  1  0  0  0  0
  5  7  1  0  0  0  0
  5  8  1  0  0  0  0
  8  9  1  0  0  0  0
  8 10  1  0  0  0  0
  8 11  1  0  0  0  0
 11 12  1  0  0  0  0
 11 13  1  0  0  0  0
 11 14  1  0  0  0  0
 14 15  1  0  0  0  0
 14 16  1  0  0  0  0
 14 17  1  0  0  0  0
 17 18  1  0  0  0  0
 17 19  1  0  0  0  0
 17 20  1  0  0  0  0
 20 21  1  0  0  0  0
 20 22  1  0  0  0  0
 20 23  1  0  0  0  0
 23 24  1  0  0  0  0
 23 25  1  0  0  0  0
 23 26  1  0  0  0  0
 26 27  1  0  0  0  0
 26 28  1  0  0  0  0
 26 29  1  0  0  0  0
M  END
> <VM2 Rank>
209

> <Conf_Id>
2956

> <Probability>
0.02

> <Sum Probability>
98.64

> <Delta G>
3.309

> <G>
61.455

> <E>
24.004

> <-TS>
37.452

> <U+W>
-0.141

> <U>
51.917

> <W>
-52.058

> <W(PB)>
-54.529

> <W(SA)>
2.471

> <Valence>
4.676

> <Coulomb>
46.406

> <VdW>
0.835

> <VdW6>
-9.054

> <VdW12>
9.889

> <Bond>
0.237

> <Angle>
1.196

> <Pdih>
3.243

> <Idih>
0.000

> <Tether>
0.000

$$$$
VeraChem MOL file


 29 28  0  0  0  0  0  0  0  0999 V2000     
   20.8730   18.2668   20.9978 C   0  0  0  0  0  0  0  0  0  0  0  0
   20.4985   18.3646   19.9706 H   0  0  0  0  0  0  0  0  0  0  0  0
   21.9507   18.0655   20.9452 H   0  0  0  0  0  0  0  0  0  0  0  0
   20.3949   17.3921   21.4560 H   0  0  0  0  0  0  0  0  0  0  0  0
   20.6011   19.5516   21.8119 C   0  0  0  0  0  0  0  0  0  0  0  0
   21.1864   20.3750   21.3795 H   0  0  0  0  0  0  0  0  0  0  0  0
   20.9715   19.4247   22.8373 H   0  0  0  0  0  0  0  0  0  0  0  0
   19.1071   19.9633   21.8291 C   0  0  0  0  0  0  0  0  0  0  0  0
   19.0037   20.9090   22.3772 H   0  0  0  0  0  0  0  0  0  0  0  0
   18.7896   20.1838   20.8007 H   0  0  0  0  0  0  0  0  0  0  0  0
   18.1380   18.9096   22.4297 C   0  0  0  0  0  0  0  0  0  0  0  0
   18.1144   18.0259   21.7782 H   0  0  0  0  0  0  0  0  0  0  0  0
   17.1184   19.3179   22.4080 H   0  0  0  0  0  0  0  0  0  0  0  0
   18.4669   18.4580   23.8756 C   0  0  0  0  0  0  0  0  0  0  0  0
   17.7307   17.7002   24.1769 H   0  0  0  0  0  0  0  0  0  0  0  0
   19.4421   17.9551   23.8912 H   0  0  0  0  0  0  0  0  0  0  0  0
   18.4435   19.6182   24.9022 C   0  0  0  0  0  0  0  0  0  0  0  0
   17.4880   20.1538   24.8174 H   0  0  0  0  0  0  0  0  0  0  0  0
   19.2266   20.3494   24.6652 H   0  0  0  0  0  0  0  0  0  0  0  0
   18.6112   19.1357   26.3646 C   0  0  0  0  0  0  0  0  0  0  0  0
   18.5400   19.9970   27.0420 H   0  0  0  0  0  0  0  0  0  0  0  0
   17.7760   18.4720   26.6247 H   0  0  0  0  0  0  0  0  0  0  0  0
   19.9356   18.3920   26.6301 C   0  0  0  0  0  0  0  0  0  0  0  0
   20.0020   17.5124   25.9847 H   0  0  0  0  0  0  0  0  0  0  0  0
   19.9598   18.0531   27.6694 H   0  0  0  0  0  0  0  0  0  0  0  0
   21.1675   19.2429   26.3940 N   0  3  0  0  0  0  0  0  0  0  0  0
   21.1785   20.0701   26.9997 H   0  0  0  0  0  0  0  0  0  0  0  0
   21.2161   19.5740   25.4258 H   0  0  0  0  0  0  0  0  0  0  0  0
   22.0315   18.7223   26.5812 H   0  0  0  0  0  0  0  0  0  0  0  0
  1  2  1  0  0  0  0
  1  3  1  0  0  0  0
  1  4  1  0  0  0  0
  1  5  1  0  0  0  0
  5  6  1  0  0  0  0
  5  7  1  0  0  0  0
  5  8  1  0  0  0  0
  8  9  1  0  0  0  0
  8 10  1  0  0  0  0
  8 11  1  0  0  0  0
 11 12  1  0  0  0  0
 11 13  1  0  0  0  0
 11 14  1  0  0  0  0
 14 15  1  0  0  0  0
 14 16  1  0  0  0  0
 14 17  1  0  0  0  0
 17 18  1  0  0  0  0
 17 19  1  0  0  0  0
 17 20  1  0  0  0  0
 20 21  1  0  0  0  0
 20 22  1  0  0  0  0
 20 23  1  0  0  0  0
 23 24  1  0  0  0  0
 23 25  1  0  0  0  0
 23 26  1  0  0  0  0
 26 27  1  0  0  0  0
 26 28  1  0  0  0  0
 26 29  1  0  0  0  0
M  END
> <VM2 Rank>
210

> <Conf_Id>
1012

> <Probability>
0.02

> <Sum Probability>
98.66

> <Delta G>
3.311

> <G>
61.457

> <E>
23.245

> <-TS>
38.213

> <U+W>
-0.900

> <U>
51.678

> <W>
-52.578

> <W(PB)>
-54.979

> <W(SA)>
2.401

> <Valence>
4.349

> <Coulomb>
46.772

> <VdW>
0.557

> <VdW6>
-11.095

> <VdW12>
11.652

> <Bond>
0.314

> <Angle>
1.558

> <Pdih>
2.477

> <Idih>
0.000

> <Tether>
0.000

$$$$
VeraChem MOL file


 29 28  0  0  0  0  0  0  0  0999 V2000     
   20.6092   19.4961   19.6381 C   0  0  0  0  0  0  0  0  0  0  0  0
   21.5935   19.0693   19.8711 H   0  0  0  0  0  0  0  0  0  0  0  0
   20.4206   19.3439   18.5675 H   0  0  0  0  0  0  0  0  0  0  0  0
   20.6531   20.5775   19.8223 H   0  0  0  0  0  0  0  0  0  0  0  0
   19.5028   18.8335   20.4858 C   0  0  0  0  0  0  0  0  0  0  0  0
   19.4604   17.7599   20.2545 H   0  0  0  0  0  0  0  0  0  0  0  0
   18.5274   19.2567   20.2076 H   0  0  0  0  0  0  0  0  0  0  0  0
   19.7448   19.0325   21.9984 C   0  0  0  0  0  0  0  0  0  0  0  0
   20.7200   18.6066   22.2720 H   0  0  0  0  0  0  0  0  0  0  0  0
   19.7937   20.1077   22.2150 H   0  0  0  0  0  0  0  0  0  0  0  0
   18.6339   18.3719   22.8495 C   0  0  0  0  0  0  0  0  0  0  0  0
   18.5503   17.3126   22.5697 H   0  0  0  0  0  0  0  0  0  0  0  0
   17.6638   18.8304   22.6129 H   0  0  0  0  0  0  0  0  0  0  0  0
   18.8908   18.4586   24.3738 C   0  0  0  0  0  0  0  0  0  0  0  0
   18.1098   17.8844   24.8910 H   0  0  0  0  0  0  0  0  0  0  0  0
   19.8479   17.9715   24.5984 H   0  0  0  0  0  0  0  0  0  0  0  0
   18.8968   19.9109   24.9128 C   0  0  0  0  0  0  0  0  0  0  0  0
   18.0238   20.4429   24.5102 H   0  0  0  0  0  0  0  0  0  0  0  0
   19.7816   20.4437   24.5398 H   0  0  0  0  0  0  0  0  0  0  0  0
   18.8565   20.0182   26.4586 C   0  0  0  0  0  0  0  0  0  0  0  0
   18.7693   21.0812   26.7200 H   0  0  0  0  0  0  0  0  0  0  0  0
   17.9522   19.5358   26.8526 H   0  0  0  0  0  0  0  0  0  0  0  0
   20.1065   19.4610   27.1707 C   0  0  0  0  0  0  0  0  0  0  0  0
   20.1714   19.8988   28.1705 H   0  0  0  0  0  0  0  0  0  0  0  0
   21.0059   19.7440   26.6174 H   0  0  0  0  0  0  0  0  0  0  0  0
   20.1027   17.9553   27.3473 N   0  3  0  0  0  0  0  0  0  0  0  0
   19.3039   17.6416   27.9084 H   0  0  0  0  0  0  0  0  0  0  0  0
   20.9502   17.6260   27.8227 H   0  0  0  0  0  0  0  0  0  0  0  0
   20.0510   17.4684   26.4480 H   0  0  0  0  0  0  0  0  0  0  0  0
  1  2  1  0  0  0  0
  1  3  1  0  0  0  0
  1  4  1  0  0  0  0
  1  5  1  0  0  0  0
  5  6  1  0  0  0  0
  5  7  1  0  0  0  0
  5  8  1  0  0  0  0
  8  9  1  0  0  0  0
  8 10  1  0  0  0  0
  8 11  1  0  0  0  0
 11 12  1  0  0  0  0
 11 13  1  0  0  0  0
 11 14  1  0  0  0  0
 14 15  1  0  0  0  0
 14 16  1  0  0  0  0
 14 17  1  0  0  0  0
 17 18  1  0  0  0  0
 17 19  1  0  0  0  0
 17 20  1  0  0  0  0
 20 21  1  0  0  0  0
 20 22  1  0  0  0  0
 20 23  1  0  0  0  0
 23 24  1  0  0  0  0
 23 25  1  0  0  0  0
 23 26  1  0  0  0  0
 26 27  1  0  0  0  0
 26 28  1  0  0  0  0
 26 29  1  0  0  0  0
M  END
> <VM2 Rank>
211

> <Conf_Id>
1276

> <Probability>
0.02

> <Sum Probability>
98.68

> <Delta G>
3.321

> <G>
61.467

> <E>
23.983

> <-TS>
37.484

> <U+W>
-0.161

> <U>
51.807

> <W>
-51.968

> <W(PB)>
-54.448

> <W(SA)>
2.480

> <Valence>
4.647

> <Coulomb>
46.372

> <VdW>
0.788

> <VdW6>
-9.151

> <VdW12>
9.939

> <Bond>
0.242

> <Angle>
1.145

> <Pdih>
3.261

> <Idih>
0.000

> <Tether>
0.000

$$$$
VeraChem MOL file


 29 28  0  0  0  0  0  0  0  0999 V2000     
   19.4415   17.3884   20.3363 C   0  0  0  0  0  0  0  0  0  0  0  0
   20.2880   16.8579   20.7915 H   0  0  0  0  0  0  0  0  0  0  0  0
   18.6411   16.6581   20.1604 H   0  0  0  0  0  0  0  0  0  0  0  0
   19.7649   17.7754   19.3611 H   0  0  0  0  0  0  0  0  0  0  0  0
   18.9469   18.5296   21.2498 C   0  0  0  0  0  0  0  0  0  0  0  0
   18.5918   18.1040   22.1960 H   0  0  0  0  0  0  0  0  0  0  0  0
   18.0799   19.0172   20.7825 H   0  0  0  0  0  0  0  0  0  0  0  0
   20.0563   19.5788   21.5028 C   0  0  0  0  0  0  0  0  0  0  0  0
   20.9551   19.0962   21.9108 H   0  0  0  0  0  0  0  0  0  0  0  0
   20.3535   20.0012   20.5329 H   0  0  0  0  0  0  0  0  0  0  0  0
   19.6082   20.7406   22.4274 C   0  0  0  0  0  0  0  0  0  0  0  0
   18.5265   20.9080   22.3327 H   0  0  0  0  0  0  0  0  0  0  0  0
   20.0825   21.6648   22.0692 H   0  0  0  0  0  0  0  0  0  0  0  0
   19.9925   20.5680   23.9196 C   0  0  0  0  0  0  0  0  0  0  0  0
   21.0861   20.5110   24.0098 H   0  0  0  0  0  0  0  0  0  0  0  0
   19.6883   21.4752   24.4598 H   0  0  0  0  0  0  0  0  0  0  0  0
   19.3555   19.3368   24.6045 C   0  0  0  0  0  0  0  0  0  0  0  0
   19.7482   18.4171   24.1512 H   0  0  0  0  0  0  0  0  0  0  0  0
   18.2692   19.3435   24.4394 H   0  0  0  0  0  0  0  0  0  0  0  0
   19.6455   19.3093   26.1212 C   0  0  0  0  0  0  0  0  0  0  0  0
   20.7306   19.3043   26.2901 H   0  0  0  0  0  0  0  0  0  0  0  0
   19.2500   20.2200   26.5907 H   0  0  0  0  0  0  0  0  0  0  0  0
   19.0174   18.0748   26.7914 C   0  0  0  0  0  0  0  0  0  0  0  0
   19.4206   17.1649   26.3388 H   0  0  0  0  0  0  0  0  0  0  0  0
   17.9347   18.0843   26.6397 H   0  0  0  0  0  0  0  0  0  0  0  0
   19.2801   18.0116   28.2821 N   0  3  0  0  0  0  0  0  0  0  0  0
   18.9003   18.8286   28.7717 H   0  0  0  0  0  0  0  0  0  0  0  0
   20.2831   17.9731   28.4917 H   0  0  0  0  0  0  0  0  0  0  0  0
   18.8533   17.1821   28.7092 H   0  0  0  0  0  0  0  0  0  0  0  0
  1  2  1  0  0  0  0
  1  3  1  0  0  0  0
  1  4  1  0  0  0  0
  1  5  1  0  0  0  0
  5  6  1  0  0  0  0
  5  7  1  0  0  0  0
  5  8  1  0  0  0  0
  8  9  1  0  0  0  0
  8 10  1  0  0  0  0
  8 11  1  0  0  0  0
 11 12  1  0  0  0  0
 11 13  1  0  0  0  0
 11 14  1  0  0  0  0
 14 15  1  0  0  0  0
 14 16  1  0  0  0  0
 14 17  1  0  0  0  0
 17 18  1  0  0  0  0
 17 19  1  0  0  0  0
 17 20  1  0  0  0  0
 20 21  1  0  0  0  0
 20 22  1  0  0  0  0
 20 23  1  0  0  0  0
 23 24  1  0  0  0  0
 23 25  1  0  0  0  0
 23 26  1  0  0  0  0
 26 27  1  0  0  0  0
 26 28  1  0  0  0  0
 26 29  1  0  0  0  0
M  END
> <VM2 Rank>
212

> <Conf_Id>
1796

> <Probability>
0.02

> <Sum Probability>
98.70

> <Delta G>
3.324

> <G>
61.471

> <E>
23.902

> <-TS>
37.568

> <U+W>
-0.242

> <U>
51.355

> <W>
-51.597

> <W(PB)>
-54.064

> <W(SA)>
2.467

> <Valence>
5.616

> <Coulomb>
44.962

> <VdW>
0.776

> <VdW6>
-8.607

> <VdW12>
9.383

> <Bond>
0.231

> <Angle>
1.168

> <Pdih>
4.217

> <Idih>
0.000

> <Tether>
0.000

$$$$
VeraChem MOL file


 29 28  0  0  0  0  0  0  0  0999 V2000     
   20.2178   17.6743   20.7633 C   0  0  0  0  0  0  0  0  0  0  0  0
   21.2337   17.9284   21.0923 H   0  0  0  0  0  0  0  0  0  0  0  0
   19.6683   17.2549   21.6150 H   0  0  0  0  0  0  0  0  0  0  0  0
   20.2976   16.8853   20.0045 H   0  0  0  0  0  0  0  0  0  0  0  0
   19.4946   18.9092   20.1834 C   0  0  0  0  0  0  0  0  0  0  0  0
   18.4614   18.6382   19.9250 H   0  0  0  0  0  0  0  0  0  0  0  0
   19.9806   19.1904   19.2387 H   0  0  0  0  0  0  0  0  0  0  0  0
   19.4890   20.1445   21.1196 C   0  0  0  0  0  0  0  0  0  0  0  0
   20.5175   20.4858   21.3006 H   0  0  0  0  0  0  0  0  0  0  0  0
   18.9956   20.9650   20.5804 H   0  0  0  0  0  0  0  0  0  0  0  0
   18.7461   19.9355   22.4649 C   0  0  0  0  0  0  0  0  0  0  0  0
   17.9473   19.1913   22.3420 H   0  0  0  0  0  0  0  0  0  0  0  0
   18.2461   20.8759   22.7352 H   0  0  0  0  0  0  0  0  0  0  0  0
   19.6832   19.5357   23.6307 C   0  0  0  0  0  0  0  0  0  0  0  0
   20.2293   18.6173   23.3849 H   0  0  0  0  0  0  0  0  0  0  0  0
   20.4391   20.3200   23.7747 H   0  0  0  0  0  0  0  0  0  0  0  0
   18.9023   19.3278   24.9478 C   0  0  0  0  0  0  0  0  0  0  0  0
   18.1447   18.5445   24.8057 H   0  0  0  0  0  0  0  0  0  0  0  0
   18.3621   20.2497   25.2048 H   0  0  0  0  0  0  0  0  0  0  0  0
   19.8350   18.9356   26.1146 C   0  0  0  0  0  0  0  0  0  0  0  0
   20.3727   18.0114   25.8638 H   0  0  0  0  0  0  0  0  0  0  0  0
   20.5909   19.7183   26.2631 H   0  0  0  0  0  0  0  0  0  0  0  0
   19.0472   18.7308   27.4203 C   0  0  0  0  0  0  0  0  0  0  0  0
   18.3044   17.9405   27.2822 H   0  0  0  0  0  0  0  0  0  0  0  0
   18.5232   19.6538   27.6829 H   0  0  0  0  0  0  0  0  0  0  0  0
   19.9287   18.3446   28.5903 N   0  3  0  0  0  0  0  0  0  0  0  0
   20.6341   19.0616   28.7900 H   0  0  0  0  0  0  0  0  0  0  0  0
   20.4305   17.4672   28.4172 H   0  0  0  0  0  0  0  0  0  0  0  0
   19.3845   18.2130   29.4501 H   0  0  0  0  0  0  0  0  0  0  0  0
  1  2  1  0  0  0  0
  1  3  1  0  0  0  0
  1  4  1  0  0  0  0
  1  5  1  0  0  0  0
  5  6  1  0  0  0  0
  5  7  1  0  0  0  0
  5  8  1  0  0  0  0
  8  9  1  0  0  0  0
  8 10  1  0  0  0  0
  8 11  1  0  0  0  0
 11 12  1  0  0  0  0
 11 13  1  0  0  0  0
 11 14  1  0  0  0  0
 14 15  1  0  0  0  0
 14 16  1  0  0  0  0
 14 17  1  0  0  0  0
 17 18  1  0  0  0  0
 17 19  1  0  0  0  0
 17 20  1  0  0  0  0
 20 21  1  0  0  0  0
 20 22  1  0  0  0  0
 20 23  1  0  0  0  0
 23 24  1  0  0  0  0
 23 25  1  0  0  0  0
 23 26  1  0  0  0  0
 26 27  1  0  0  0  0
 26 28  1  0  0  0  0
 26 29  1  0  0  0  0
M  END
> <VM2 Rank>
213

> <Conf_Id>
2174

> <Probability>
0.02

> <Sum Probability>
98.72

> <Delta G>
3.333

> <G>
61.479

> <E>
23.941

> <-TS>
37.538

> <U+W>
-0.203

> <U>
51.075

> <W>
-51.278

> <W(PB)>
-53.784

> <W(SA)>
2.505

> <Valence>
5.555

> <Coulomb>
44.691

> <VdW>
0.829

> <VdW6>
-8.485

> <VdW12>
9.313

> <Bond>
0.230

> <Angle>
1.154

> <Pdih>
4.172

> <Idih>
0.000

> <Tether>
0.000

$$$$
VeraChem MOL file


 29 28  0  0  0  0  0  0  0  0999 V2000     
   20.7329   17.5865   20.5275 C   0  0  0  0  0  0  0  0  0  0  0  0
   21.7394   17.9584   20.7596 H   0  0  0  0  0  0  0  0  0  0  0  0
   20.5459   16.6978   21.1443 H   0  0  0  0  0  0  0  0  0  0  0  0
   20.7231   17.2745   19.4751 H   0  0  0  0  0  0  0  0  0  0  0  0
   19.6676   18.6734   20.7834 C   0  0  0  0  0  0  0  0  0  0  0  0
   18.6764   18.2841   20.5116 H   0  0  0  0  0  0  0  0  0  0  0  0
   19.8609   19.5343   20.1281 H   0  0  0  0  0  0  0  0  0  0  0  0
   19.6612   19.1309   22.2587 C   0  0  0  0  0  0  0  0  0  0  0  0
   19.4735   18.2596   22.8994 H   0  0  0  0  0  0  0  0  0  0  0  0
   20.6522   19.5240   22.5243 H   0  0  0  0  0  0  0  0  0  0  0  0
   18.5866   20.2113   22.5210 C   0  0  0  0  0  0  0  0  0  0  0  0
   17.5898   19.7853   22.3419 H   0  0  0  0  0  0  0  0  0  0  0  0
   18.7085   21.0215   21.7889 H   0  0  0  0  0  0  0  0  0  0  0  0
   18.6339   20.8307   23.9417 C   0  0  0  0  0  0  0  0  0  0  0  0
   19.5872   21.3556   24.0932 H   0  0  0  0  0  0  0  0  0  0  0  0
   17.8584   21.6078   23.9885 H   0  0  0  0  0  0  0  0  0  0  0  0
   18.3817   19.8270   25.0969 C   0  0  0  0  0  0  0  0  0  0  0  0
   17.7442   19.0025   24.7488 H   0  0  0  0  0  0  0  0  0  0  0  0
   17.8114   20.3392   25.8844 H   0  0  0  0  0  0  0  0  0  0  0  0
   19.6822   19.2748   25.7283 C   0  0  0  0  0  0  0  0  0  0  0  0
   20.2998   18.7787   24.9712 H   0  0  0  0  0  0  0  0  0  0  0  0
   20.2774   20.1067   26.1278 H   0  0  0  0  0  0  0  0  0  0  0  0
   19.3752   18.2803   26.8615 C   0  0  0  0  0  0  0  0  0  0  0  0
   18.7969   17.4403   26.4674 H   0  0  0  0  0  0  0  0  0  0  0  0
   18.7809   18.7750   27.6345 H   0  0  0  0  0  0  0  0  0  0  0  0
   20.6227   17.7231   27.5161 N   0  3  0  0  0  0  0  0  0  0  0  0
   21.2136   17.2199   26.8460 H   0  0  0  0  0  0  0  0  0  0  0  0
   20.3955   17.0635   28.2684 H   0  0  0  0  0  0  0  0  0  0  0  0
   21.1988   18.4628   27.9314 H   0  0  0  0  0  0  0  0  0  0  0  0
  1  2  1  0  0  0  0
  1  3  1  0  0  0  0
  1  4  1  0  0  0  0
  1  5  1  0  0  0  0
  5  6  1  0  0  0  0
  5  7  1  0  0  0  0
  5  8  1  0  0  0  0
  8  9  1  0  0  0  0
  8 10  1  0  0  0  0
  8 11  1  0  0  0  0
 11 12  1  0  0  0  0
 11 13  1  0  0  0  0
 11 14  1  0  0  0  0
 14 15  1  0  0  0  0
 14 16  1  0  0  0  0
 14 17  1  0  0  0  0
 17 18  1  0  0  0  0
 17 19  1  0  0  0  0
 17 20  1  0  0  0  0
 20 21  1  0  0  0  0
 20 22  1  0  0  0  0
 20 23  1  0  0  0  0
 23 24  1  0  0  0  0
 23 25  1  0  0  0  0
 23 26  1  0  0  0  0
 26 27  1  0  0  0  0
 26 28  1  0  0  0  0
 26 29  1  0  0  0  0
M  END
> <VM2 Rank>
214

> <Conf_Id>
982

> <Probability>
0.02

> <Sum Probability>
98.74

> <Delta G>
3.340

> <G>
61.486

> <E>
23.917

> <-TS>
37.569

> <U+W>
-0.228

> <U>
51.882

> <W>
-52.109

> <W(PB)>
-54.620

> <W(SA)>
2.510

> <Valence>
5.610

> <Coulomb>
45.523

> <VdW>
0.749

> <VdW6>
-8.642

> <VdW12>
9.392

> <Bond>
0.233

> <Angle>
1.171

> <Pdih>
4.207

> <Idih>
0.000

> <Tether>
0.000

$$$$
VeraChem MOL file


 29 28  0  0  0  0  0  0  0  0999 V2000     
   21.4302   19.5450   20.5714 C   0  0  0  0  0  0  0  0  0  0  0  0
   21.8378   20.3268   21.2255 H   0  0  0  0  0  0  0  0  0  0  0  0
   21.9722   18.6122   20.7744 H   0  0  0  0  0  0  0  0  0  0  0  0
   21.6345   19.8345   19.5324 H   0  0  0  0  0  0  0  0  0  0  0  0
   19.9142   19.3662   20.7990 C   0  0  0  0  0  0  0  0  0  0  0  0
   19.5297   18.6035   20.1074 H   0  0  0  0  0  0  0  0  0  0  0  0
   19.3957   20.3044   20.5568 H   0  0  0  0  0  0  0  0  0  0  0  0
   19.5995   18.9575   22.2549 C   0  0  0  0  0  0  0  0  0  0  0  0
   20.1156   18.0167   22.4908 H   0  0  0  0  0  0  0  0  0  0  0  0
   19.9952   19.7253   22.9322 H   0  0  0  0  0  0  0  0  0  0  0  0
   18.0804   18.7894   22.4892 C   0  0  0  0  0  0  0  0  0  0  0  0
   17.6735   18.1141   21.7240 H   0  0  0  0  0  0  0  0  0  0  0  0
   17.5793   19.7559   22.3412 H   0  0  0  0  0  0  0  0  0  0  0  0
   17.7057   18.2237   23.8835 C   0  0  0  0  0  0  0  0  0  0  0  0
   16.6131   18.1101   23.9104 H   0  0  0  0  0  0  0  0  0  0  0  0
   18.1109   17.2092   24.0007 H   0  0  0  0  0  0  0  0  0  0  0  0
   18.1279   19.1144   25.0810 C   0  0  0  0  0  0  0  0  0  0  0  0
   17.3512   19.0470   25.8555 H   0  0  0  0  0  0  0  0  0  0  0  0
   18.1596   20.1693   24.7748 H   0  0  0  0  0  0  0  0  0  0  0  0
   19.4758   18.6953   25.7154 C   0  0  0  0  0  0  0  0  0  0  0  0
   19.4058   17.6595   26.0734 H   0  0  0  0  0  0  0  0  0  0  0  0
   20.2786   18.7190   24.9699 H   0  0  0  0  0  0  0  0  0  0  0  0
   19.8503   19.6145   26.8911 C   0  0  0  0  0  0  0  0  0  0  0  0
   19.0663   19.5767   27.6522 H   0  0  0  0  0  0  0  0  0  0  0  0
   19.9385   20.6457   26.5385 H   0  0  0  0  0  0  0  0  0  0  0  0
   21.1599   19.2319   27.5496 N   0  3  0  0  0  0  0  0  0  0  0  0
   21.9452   19.2744   26.8916 H   0  0  0  0  0  0  0  0  0  0  0  0
   21.1331   18.2790   27.9274 H   0  0  0  0  0  0  0  0  0  0  0  0
   21.3900   19.8564   28.3304 H   0  0  0  0  0  0  0  0  0  0  0  0
  1  2  1  0  0  0  0
  1  3  1  0  0  0  0
  1  4  1  0  0  0  0
  1  5  1  0  0  0  0
  5  6  1  0  0  0  0
  5  7  1  0  0  0  0
  5  8  1  0  0  0  0
  8  9  1  0  0  0  0
  8 10  1  0  0  0  0
  8 11  1  0  0  0  0
 11 12  1  0  0  0  0
 11 13  1  0  0  0  0
 11 14  1  0  0  0  0
 14 15  1  0  0  0  0
 14 16  1  0  0  0  0
 14 17  1  0  0  0  0
 17 18  1  0  0  0  0
 17 19  1  0  0  0  0
 17 20  1  0  0  0  0
 20 21  1  0  0  0  0
 20 22  1  0  0  0  0
 20 23  1  0  0  0  0
 23 24  1  0  0  0  0
 23 25  1  0  0  0  0
 23 26  1  0  0  0  0
 26 27  1  0  0  0  0
 26 28  1  0  0  0  0
 26 29  1  0  0  0  0
M  END
> <VM2 Rank>
215

> <Conf_Id>
2175

> <Probability>
0.02

> <Sum Probability>
98.76

> <Delta G>
3.359

> <G>
61.506

> <E>
23.937

> <-TS>
37.569

> <U+W>
-0.208

> <U>
51.882

> <W>
-52.090

> <W(PB)>
-54.587

> <W(SA)>
2.497

> <Valence>
5.610

> <Coulomb>
45.523

> <VdW>
0.750

> <VdW6>
-8.643

> <VdW12>
9.392

> <Bond>
0.233

> <Angle>
1.170

> <Pdih>
4.207

> <Idih>
0.000

> <Tether>
0.000

$$$$
VeraChem MOL file


 29 28  0  0  0  0  0  0  0  0999 V2000     
   20.5565   20.5218   20.4060 C   0  0  0  0  0  0  0  0  0  0  0  0
   20.3997   21.5998   20.2706 H   0  0  0  0  0  0  0  0  0  0  0  0
   21.5414   20.3800   20.8698 H   0  0  0  0  0  0  0  0  0  0  0  0
   20.5764   20.0565   19.4118 H   0  0  0  0  0  0  0  0  0  0  0  0
   19.4396   19.9143   21.2807 C   0  0  0  0  0  0  0  0  0  0  0  0
   18.4661   20.1028   20.8069 H   0  0  0  0  0  0  0  0  0  0  0  0
   19.4200   20.4306   22.2479 H   0  0  0  0  0  0  0  0  0  0  0  0
   19.6336   18.3912   21.4762 C   0  0  0  0  0  0  0  0  0  0  0  0
   19.6108   17.9149   20.4862 H   0  0  0  0  0  0  0  0  0  0  0  0
   20.6294   18.1811   21.8901 H   0  0  0  0  0  0  0  0  0  0  0  0
   18.5396   17.7378   22.3604 C   0  0  0  0  0  0  0  0  0  0  0  0
   18.3287   16.7369   21.9592 H   0  0  0  0  0  0  0  0  0  0  0  0
   17.5966   18.2951   22.2745 H   0  0  0  0  0  0  0  0  0  0  0  0
   18.9256   17.5697   23.8527 C   0  0  0  0  0  0  0  0  0  0  0  0
   18.1094   17.0378   24.3608 H   0  0  0  0  0  0  0  0  0  0  0  0
   19.8082   16.9197   23.9295 H   0  0  0  0  0  0  0  0  0  0  0  0
   19.1997   18.8982   24.5947 C   0  0  0  0  0  0  0  0  0  0  0  0
   18.3557   19.5856   24.4447 H   0  0  0  0  0  0  0  0  0  0  0  0
   20.0914   19.3803   24.1728 H   0  0  0  0  0  0  0  0  0  0  0  0
   19.4203   18.6763   26.1071 C   0  0  0  0  0  0  0  0  0  0  0  0
   18.5320   18.2022   26.5456 H   0  0  0  0  0  0  0  0  0  0  0  0
   20.2624   17.9883   26.2608 H   0  0  0  0  0  0  0  0  0  0  0  0
   19.7033   20.0023   26.8345 C   0  0  0  0  0  0  0  0  0  0  0  0
   18.8600   20.6847   26.6977 H   0  0  0  0  0  0  0  0  0  0  0  0
   20.5970   20.4703   26.4128 H   0  0  0  0  0  0  0  0  0  0  0  0
   19.9256   19.8264   28.3227 N   0  3  0  0  0  0  0  0  0  0  0  0
   20.1124   20.7213   28.7884 H   0  0  0  0  0  0  0  0  0  0  0  0
   20.7246   19.2146   28.5197 H   0  0  0  0  0  0  0  0  0  0  0  0
   19.1083   19.4140   28.7847 H   0  0  0  0  0  0  0  0  0  0  0  0
  1  2  1  0  0  0  0
  1  3  1  0  0  0  0
  1  4  1  0  0  0  0
  1  5  1  0  0  0  0
  5  6  1  0  0  0  0
  5  7  1  0  0  0  0
  5  8  1  0  0  0  0
  8  9  1  0  0  0  0
  8 10  1  0  0  0  0
  8 11  1  0  0  0  0
 11 12  1  0  0  0  0
 11 13  1  0  0  0  0
 11 14  1  0  0  0  0
 14 15  1  0  0  0  0
 14 16  1  0  0  0  0
 14 17  1  0  0  0  0
 17 18  1  0  0  0  0
 17 19  1  0  0  0  0
 17 20  1  0  0  0  0
 20 21  1  0  0  0  0
 20 22  1  0  0  0  0
 20 23  1  0  0  0  0
 23 24  1  0  0  0  0
 23 25  1  0  0  0  0
 23 26  1  0  0  0  0
 26 27  1  0  0  0  0
 26 28  1  0  0  0  0
 26 29  1  0  0  0  0
M  END
> <VM2 Rank>
216

> <Conf_Id>
2889

> <Probability>
0.02

> <Sum Probability>
98.78

> <Delta G>
3.369

> <G>
61.515

> <E>
23.946

> <-TS>
37.569

> <U+W>
-0.199

> <U>
51.355

> <W>
-51.553

> <W(PB)>
-54.057

> <W(SA)>
2.504

> <Valence>
5.616

> <Coulomb>
44.962

> <VdW>
0.776

> <VdW6>
-8.606

> <VdW12>
9.382

> <Bond>
0.231

> <Angle>
1.168

> <Pdih>
4.218

> <Idih>
0.000

> <Tether>
0.000

$$$$
VeraChem MOL file


 29 28  0  0  0  0  0  0  0  0999 V2000     
   19.5666   18.5438   19.6557 C   0  0  0  0  0  0  0  0  0  0  0  0
   20.3817   17.8123   19.7286 H   0  0  0  0  0  0  0  0  0  0  0  0
   18.6539   18.0832   20.0537 H   0  0  0  0  0  0  0  0  0  0  0  0
   19.3947   18.7502   18.5914 H   0  0  0  0  0  0  0  0  0  0  0  0
   19.9200   19.8464   20.4087 C   0  0  0  0  0  0  0  0  0  0  0  0
   19.0775   20.5493   20.3468 H   0  0  0  0  0  0  0  0  0  0  0  0
   20.7638   20.3320   19.8990 H   0  0  0  0  0  0  0  0  0  0  0  0
   20.3015   19.6159   21.8909 C   0  0  0  0  0  0  0  0  0  0  0  0
   21.1563   18.9278   21.9468 H   0  0  0  0  0  0  0  0  0  0  0  0
   20.6441   20.5700   22.3146 H   0  0  0  0  0  0  0  0  0  0  0  0
   19.1354   19.0708   22.7500 C   0  0  0  0  0  0  0  0  0  0  0  0
   18.8283   18.0843   22.3787 H   0  0  0  0  0  0  0  0  0  0  0  0
   18.2655   19.7347   22.6515 H   0  0  0  0  0  0  0  0  0  0  0  0
   19.5278   18.9521   24.2400 C   0  0  0  0  0  0  0  0  0  0  0  0
   20.3945   18.2837   24.3369 H   0  0  0  0  0  0  0  0  0  0  0  0
   19.8326   19.9412   24.6036 H   0  0  0  0  0  0  0  0  0  0  0  0
   18.3583   18.4165   25.0993 C   0  0  0  0  0  0  0  0  0  0  0  0
   17.9647   17.5020   24.6343 H   0  0  0  0  0  0  0  0  0  0  0  0
   17.5343   19.1434   25.0903 H   0  0  0  0  0  0  0  0  0  0  0  0
   18.7383   18.0857   26.5652 C   0  0  0  0  0  0  0  0  0  0  0  0
   17.8577   17.6428   27.0492 H   0  0  0  0  0  0  0  0  0  0  0  0
   19.5180   17.3130   26.5930 H   0  0  0  0  0  0  0  0  0  0  0  0
   19.1723   19.3049   27.4051 C   0  0  0  0  0  0  0  0  0  0  0  0
   19.0385   19.0728   28.4651 H   0  0  0  0  0  0  0  0  0  0  0  0
   18.5423   20.1652   27.1639 H   0  0  0  0  0  0  0  0  0  0  0  0
   20.6239   19.7019   27.2200 N   0  3  0  0  0  0  0  0  0  0  0  0
   20.8307   19.9407   26.2461 H   0  0  0  0  0  0  0  0  0  0  0  0
   21.2608   18.9444   27.4883 H   0  0  0  0  0  0  0  0  0  0  0  0
   20.8709   20.5171   27.7919 H   0  0  0  0  0  0  0  0  0  0  0  0
  1  2  1  0  0  0  0
  1  3  1  0  0  0  0
  1  4  1  0  0  0  0
  1  5  1  0  0  0  0
  5  6  1  0  0  0  0
  5  7  1  0  0  0  0
  5  8  1  0  0  0  0
  8  9  1  0  0  0  0
  8 10  1  0  0  0  0
  8 11  1  0  0  0  0
 11 12  1  0  0  0  0
 11 13  1  0  0  0  0
 11 14  1  0  0  0  0
 14 15  1  0  0  0  0
 14 16  1  0  0  0  0
 14 17  1  0  0  0  0
 17 18  1  0  0  0  0
 17 19  1  0  0  0  0
 17 20  1  0  0  0  0
 20 21  1  0  0  0  0
 20 22  1  0  0  0  0
 20 23  1  0  0  0  0
 23 24  1  0  0  0  0
 23 25  1  0  0  0  0
 23 26  1  0  0  0  0
 26 27  1  0  0  0  0
 26 28  1  0  0  0  0
 26 29  1  0  0  0  0
M  END
> <VM2 Rank>
217

> <Conf_Id>
2157

> <Probability>
0.02

> <Sum Probability>
98.79

> <Delta G>
3.370

> <G>
61.517

> <E>
24.066

> <-TS>
37.451

> <U+W>
-0.079

> <U>
51.916

> <W>
-51.995

> <W(PB)>
-54.492

> <W(SA)>
2.497

> <Valence>
4.676

> <Coulomb>
46.401

> <VdW>
0.840

> <VdW6>
-9.052

> <VdW12>
9.892

> <Bond>
0.238

> <Angle>
1.195

> <Pdih>
3.243

> <Idih>
0.000

> <Tether>
0.000

$$$$
VeraChem MOL file


 29 28  0  0  0  0  0  0  0  0999 V2000     
   19.6794   17.4795   20.1978 C   0  0  0  0  0  0  0  0  0  0  0  0
   19.1010   17.8416   19.3378 H   0  0  0  0  0  0  0  0  0  0  0  0
   20.7456   17.5404   19.9431 H   0  0  0  0  0  0  0  0  0  0  0  0
   19.4290   16.4217   20.3507 H   0  0  0  0  0  0  0  0  0  0  0  0
   19.3646   18.3024   21.4650 C   0  0  0  0  0  0  0  0  0  0  0  0
   19.9326   17.8856   22.3071 H   0  0  0  0  0  0  0  0  0  0  0  0
   18.2982   18.2013   21.7097 H   0  0  0  0  0  0  0  0  0  0  0  0
   19.7201   19.7950   21.2783 C   0  0  0  0  0  0  0  0  0  0  0  0
   20.8029   19.8949   21.1210 H   0  0  0  0  0  0  0  0  0  0  0  0
   19.2431   20.1628   20.3593 H   0  0  0  0  0  0  0  0  0  0  0  0
   19.2836   20.7102   22.4514 C   0  0  0  0  0  0  0  0  0  0  0  0
   18.1893   20.7020   22.5498 H   0  0  0  0  0  0  0  0  0  0  0  0
   19.5480   21.7418   22.1808 H   0  0  0  0  0  0  0  0  0  0  0  0
   19.9498   20.3827   23.8131 C   0  0  0  0  0  0  0  0  0  0  0  0
   20.9365   19.9275   23.6503 H   0  0  0  0  0  0  0  0  0  0  0  0
   20.1354   21.3263   24.3448 H   0  0  0  0  0  0  0  0  0  0  0  0
   19.0801   19.4804   24.7226 C   0  0  0  0  0  0  0  0  0  0  0  0
   18.8377   18.5404   24.2127 H   0  0  0  0  0  0  0  0  0  0  0  0
   18.1234   19.9818   24.9250 H   0  0  0  0  0  0  0  0  0  0  0  0
   19.7852   19.1660   26.0602 C   0  0  0  0  0  0  0  0  0  0  0  0
   20.7404   18.6607   25.8645 H   0  0  0  0  0  0  0  0  0  0  0  0
   20.0170   20.1021   26.5855 H   0  0  0  0  0  0  0  0  0  0  0  0
   18.9113   18.2764   26.9615 C   0  0  0  0  0  0  0  0  0  0  0  0
   18.6919   17.3357   26.4492 H   0  0  0  0  0  0  0  0  0  0  0  0
   17.9653   18.7824   27.1725 H   0  0  0  0  0  0  0  0  0  0  0  0
   19.5698   17.9453   28.2851 N   0  3  0  0  0  0  0  0  0  0  0  0
   20.4543   17.4428   28.1565 H   0  0  0  0  0  0  0  0  0  0  0  0
   18.9713   17.3522   28.8705 H   0  0  0  0  0  0  0  0  0  0  0  0
   19.7781   18.7890   28.8295 H   0  0  0  0  0  0  0  0  0  0  0  0
  1  2  1  0  0  0  0
  1  3  1  0  0  0  0
  1  4  1  0  0  0  0
  1  5  1  0  0  0  0
  5  6  1  0  0  0  0
  5  7  1  0  0  0  0
  5  8  1  0  0  0  0
  8  9  1  0  0  0  0
  8 10  1  0  0  0  0
  8 11  1  0  0  0  0
 11 12  1  0  0  0  0
 11 13  1  0  0  0  0
 11 14  1  0  0  0  0
 14 15  1  0  0  0  0
 14 16  1  0  0  0  0
 14 17  1  0  0  0  0
 17 18  1  0  0  0  0
 17 19  1  0  0  0  0
 17 20  1  0  0  0  0
 20 21  1  0  0  0  0
 20 22  1  0  0  0  0
 20 23  1  0  0  0  0
 23 24  1  0  0  0  0
 23 25  1  0  0  0  0
 23 26  1  0  0  0  0
 26 27  1  0  0  0  0
 26 28  1  0  0  0  0
 26 29  1  0  0  0  0
M  END
> <VM2 Rank>
218

> <Conf_Id>
1910

> <Probability>
0.02

> <Sum Probability>
98.81

> <Delta G>
3.376

> <G>
61.522

> <E>
23.957

> <-TS>
37.565

> <U+W>
-0.188

> <U>
51.422

> <W>
-51.609

> <W(PB)>
-54.117

> <W(SA)>
2.508

> <Valence>
5.618

> <Coulomb>
45.019

> <VdW>
0.785

> <VdW6>
-8.590

> <VdW12>
9.376

> <Bond>
0.232

> <Angle>
1.167

> <Pdih>
4.218

> <Idih>
0.000

> <Tether>
0.000

$$$$
VeraChem MOL file


 29 28  0  0  0  0  0  0  0  0999 V2000     
   20.9721   19.7929   20.8108 C   0  0  0  0  0  0  0  0  0  0  0  0
   20.7991   20.4311   21.6860 H   0  0  0  0  0  0  0  0  0  0  0  0
   21.5943   18.9414   21.1151 H   0  0  0  0  0  0  0  0  0  0  0  0
   21.5432   20.3834   20.0827 H   0  0  0  0  0  0  0  0  0  0  0  0
   19.6397   19.3167   20.1925 C   0  0  0  0  0  0  0  0  0  0  0  0
   19.8522   18.8294   19.2307 H   0  0  0  0  0  0  0  0  0  0  0  0
   19.0137   20.1894   19.9597 H   0  0  0  0  0  0  0  0  0  0  0  0
   18.8418   18.3267   21.0790 C   0  0  0  0  0  0  0  0  0  0  0  0
   17.9487   18.0245   20.5147 H   0  0  0  0  0  0  0  0  0  0  0  0
   19.4208   17.4056   21.2318 H   0  0  0  0  0  0  0  0  0  0  0  0
   18.3790   18.9045   22.4419 C   0  0  0  0  0  0  0  0  0  0  0  0
   17.3936   18.4815   22.6817 H   0  0  0  0  0  0  0  0  0  0  0  0
   18.2316   19.9901   22.3598 H   0  0  0  0  0  0  0  0  0  0  0  0
   19.3415   18.5759   23.6092 C   0  0  0  0  0  0  0  0  0  0  0  0
   19.4300   17.4855   23.7114 H   0  0  0  0  0  0  0  0  0  0  0  0
   20.3483   18.9519   23.3924 H   0  0  0  0  0  0  0  0  0  0  0  0
   18.8488   19.1779   24.9445 C   0  0  0  0  0  0  0  0  0  0  0  0
   17.8442   18.7951   25.1724 H   0  0  0  0  0  0  0  0  0  0  0  0
   18.7583   20.2686   24.8442 H   0  0  0  0  0  0  0  0  0  0  0  0
   19.8033   18.8463   26.1125 C   0  0  0  0  0  0  0  0  0  0  0  0
   19.8929   17.7570   26.2191 H   0  0  0  0  0  0  0  0  0  0  0  0
   20.8072   19.2325   25.8910 H   0  0  0  0  0  0  0  0  0  0  0  0
   19.3035   19.4505   27.4364 C   0  0  0  0  0  0  0  0  0  0  0  0
   18.3107   19.0562   27.6696 H   0  0  0  0  0  0  0  0  0  0  0  0
   19.2285   20.5371   27.3403 H   0  0  0  0  0  0  0  0  0  0  0  0
   20.2144   19.1465   28.6082 N   0  3  0  0  0  0  0  0  0  0  0  0
   21.1598   19.5161   28.4629 H   0  0  0  0  0  0  0  0  0  0  0  0
   20.3057   18.1379   28.7692 H   0  0  0  0  0  0  0  0  0  0  0  0
   19.8634   19.5578   29.4802 H   0  0  0  0  0  0  0  0  0  0  0  0
  1  2  1  0  0  0  0
  1  3  1  0  0  0  0
  1  4  1  0  0  0  0
  1  5  1  0  0  0  0
  5  6  1  0  0  0  0
  5  7  1  0  0  0  0
  5  8  1  0  0  0  0
  8  9  1  0  0  0  0
  8 10  1  0  0  0  0
  8 11  1  0  0  0  0
 11 12  1  0  0  0  0
 11 13  1  0  0  0  0
 11 14  1  0  0  0  0
 14 15  1  0  0  0  0
 14 16  1  0  0  0  0
 14 17  1  0  0  0  0
 17 18  1  0  0  0  0
 17 19  1  0  0  0  0
 17 20  1  0  0  0  0
 20 21  1  0  0  0  0
 20 22  1  0  0  0  0
 20 23  1  0  0  0  0
 23 24  1  0  0  0  0
 23 25  1  0  0  0  0
 23 26  1  0  0  0  0
 26 27  1  0  0  0  0
 26 28  1  0  0  0  0
 26 29  1  0  0  0  0
M  END
> <VM2 Rank>
219

> <Conf_Id>
2173

> <Probability>
0.02

> <Sum Probability>
98.83

> <Delta G>
3.385

> <G>
61.531

> <E>
23.993

> <-TS>
37.538

> <U+W>
-0.151

> <U>
51.075

> <W>
-51.227

> <W(PB)>
-53.719

> <W(SA)>
2.492

> <Valence>
5.555

> <Coulomb>
44.692

> <VdW>
0.829

> <VdW6>
-8.485

> <VdW12>
9.314

> <Bond>
0.230

> <Angle>
1.153

> <Pdih>
4.172

> <Idih>
0.000

> <Tether>
0.000

$$$$
VeraChem MOL file


 29 28  0  0  0  0  0  0  0  0999 V2000     
   19.9321   19.5753   19.6785 C   0  0  0  0  0  0  0  0  0  0  0  0
   19.5089   20.4921   20.1074 H   0  0  0  0  0  0  0  0  0  0  0  0
   21.0250   19.6254   19.7685 H   0  0  0  0  0  0  0  0  0  0  0  0
   19.6832   19.5659   18.6095 H   0  0  0  0  0  0  0  0  0  0  0  0
   19.3746   18.3131   20.3746 C   0  0  0  0  0  0  0  0  0  0  0  0
   19.7302   17.4247   19.8340 H   0  0  0  0  0  0  0  0  0  0  0  0
   18.2784   18.3019   20.2971 H   0  0  0  0  0  0  0  0  0  0  0  0
   19.7956   18.1924   21.8590 C   0  0  0  0  0  0  0  0  0  0  0  0
   19.4537   17.2202   22.2399 H   0  0  0  0  0  0  0  0  0  0  0  0
   20.8921   18.1841   21.9296 H   0  0  0  0  0  0  0  0  0  0  0  0
   19.2233   19.3165   22.7554 C   0  0  0  0  0  0  0  0  0  0  0  0
   18.1310   19.3551   22.6431 H   0  0  0  0  0  0  0  0  0  0  0  0
   19.6128   20.2893   22.4279 H   0  0  0  0  0  0  0  0  0  0  0  0
   19.5817   19.1018   24.2433 C   0  0  0  0  0  0  0  0  0  0  0  0
   19.1886   18.1289   24.5631 H   0  0  0  0  0  0  0  0  0  0  0  0
   20.6744   19.0686   24.3543 H   0  0  0  0  0  0  0  0  0  0  0  0
   19.0009   20.2210   25.1395 C   0  0  0  0  0  0  0  0  0  0  0  0
   17.9032   20.1787   25.1133 H   0  0  0  0  0  0  0  0  0  0  0  0
   19.2798   21.1962   24.7168 H   0  0  0  0  0  0  0  0  0  0  0  0
   19.4836   20.1791   26.6120 C   0  0  0  0  0  0  0  0  0  0  0  0
   20.5757   20.2836   26.6594 H   0  0  0  0  0  0  0  0  0  0  0  0
   19.0741   21.0592   27.1253 H   0  0  0  0  0  0  0  0  0  0  0  0
   19.0378   18.9280   27.3968 C   0  0  0  0  0  0  0  0  0  0  0  0
   18.0093   18.6696   27.1308 H   0  0  0  0  0  0  0  0  0  0  0  0
   19.0658   19.1504   28.4670 H   0  0  0  0  0  0  0  0  0  0  0  0
   19.9144   17.7108   27.1759 N   0  3  0  0  0  0  0  0  0  0  0  0
   20.8829   17.8841   27.4648 H   0  0  0  0  0  0  0  0  0  0  0  0
   19.9375   17.4336   26.1905 H   0  0  0  0  0  0  0  0  0  0  0  0
   19.5828   16.9011   27.7117 H   0  0  0  0  0  0  0  0  0  0  0  0
  1  2  1  0  0  0  0
  1  3  1  0  0  0  0
  1  4  1  0  0  0  0
  1  5  1  0  0  0  0
  5  6  1  0  0  0  0
  5  7  1  0  0  0  0
  5  8  1  0  0  0  0
  8  9  1  0  0  0  0
  8 10  1  0  0  0  0
  8 11  1  0  0  0  0
 11 12  1  0  0  0  0
 11 13  1  0  0  0  0
 11 14  1  0  0  0  0
 14 15  1  0  0  0  0
 14 16  1  0  0  0  0
 14 17  1  0  0  0  0
 17 18  1  0  0  0  0
 17 19  1  0  0  0  0
 17 20  1  0  0  0  0
 20 21  1  0  0  0  0
 20 22  1  0  0  0  0
 20 23  1  0  0  0  0
 23 24  1  0  0  0  0
 23 25  1  0  0  0  0
 23 26  1  0  0  0  0
 26 27  1  0  0  0  0
 26 28  1  0  0  0  0
 26 29  1  0  0  0  0
M  END
> <VM2 Rank>
220

> <Conf_Id>
2162

> <Probability>
0.02

> <Sum Probability>
98.85

> <Delta G>
3.388

> <G>
61.535

> <E>
24.085

> <-TS>
37.450

> <U+W>
-0.060

> <U>
51.916

> <W>
-51.976

> <W(PB)>
-54.469

> <W(SA)>
2.494

> <Valence>
4.676

> <Coulomb>
46.401

> <VdW>
0.839

> <VdW6>
-9.051

> <VdW12>
9.891

> <Bond>
0.238

> <Angle>
1.196

> <Pdih>
3.242

> <Idih>
0.000

> <Tether>
0.000

$$$$
VeraChem MOL file


 29 28  0  0  0  0  0  0  0  0999 V2000     
   20.6864   20.3060   20.2614 C   0  0  0  0  0  0  0  0  0  0  0  0
   20.0218   20.4253   19.3958 H   0  0  0  0  0  0  0  0  0  0  0  0
   21.1586   21.2769   20.4596 H   0  0  0  0  0  0  0  0  0  0  0  0
   21.4779   19.5953   19.9896 H   0  0  0  0  0  0  0  0  0  0  0  0
   19.9043   19.8177   21.4990 C   0  0  0  0  0  0  0  0  0  0  0  0
   19.1382   20.5602   21.7624 H   0  0  0  0  0  0  0  0  0  0  0  0
   20.5956   19.7481   22.3491 H   0  0  0  0  0  0  0  0  0  0  0  0
   19.2393   18.4452   21.2481 C   0  0  0  0  0  0  0  0  0  0  0  0
   18.6503   18.4984   20.3221 H   0  0  0  0  0  0  0  0  0  0  0  0
   20.0176   17.6900   21.0717 H   0  0  0  0  0  0  0  0  0  0  0  0
   18.3061   17.9660   22.3900 C   0  0  0  0  0  0  0  0  0  0  0  0
   17.8630   17.0111   22.0750 H   0  0  0  0  0  0  0  0  0  0  0  0
   17.4619   18.6599   22.5041 H   0  0  0  0  0  0  0  0  0  0  0  0
   19.0101   17.7446   23.7541 C   0  0  0  0  0  0  0  0  0  0  0  0
   18.5504   16.8756   24.2452 H   0  0  0  0  0  0  0  0  0  0  0  0
   20.0647   17.4802   23.5956 H   0  0  0  0  0  0  0  0  0  0  0  0
   18.8931   18.9563   24.7109 C   0  0  0  0  0  0  0  0  0  0  0  0
   17.8320   19.1642   24.9071 H   0  0  0  0  0  0  0  0  0  0  0  0
   19.3058   19.8576   24.2422 H   0  0  0  0  0  0  0  0  0  0  0  0
   19.6198   18.7014   26.0496 C   0  0  0  0  0  0  0  0  0  0  0  0
   19.2011   17.8092   26.5342 H   0  0  0  0  0  0  0  0  0  0  0  0
   20.6821   18.4973   25.8603 H   0  0  0  0  0  0  0  0  0  0  0  0
   19.4916   19.9064   26.9979 C   0  0  0  0  0  0  0  0  0  0  0  0
   18.4358   20.1033   27.2026 H   0  0  0  0  0  0  0  0  0  0  0  0
   19.9224   20.7937   26.5263 H   0  0  0  0  0  0  0  0  0  0  0  0
   20.1932   19.6944   28.3238 N   0  3  0  0  0  0  0  0  0  0  0  0
   19.8147   18.8879   28.8314 H   0  0  0  0  0  0  0  0  0  0  0  0
   20.0957   20.5085   28.9407 H   0  0  0  0  0  0  0  0  0  0  0  0
   21.1981   19.5303   28.2022 H   0  0  0  0  0  0  0  0  0  0  0  0
  1  2  1  0  0  0  0
  1  3  1  0  0  0  0
  1  4  1  0  0  0  0
  1  5  1  0  0  0  0
  5  6  1  0  0  0  0
  5  7  1  0  0  0  0
  5  8  1  0  0  0  0
  8  9  1  0  0  0  0
  8 10  1  0  0  0  0
  8 11  1  0  0  0  0
 11 12  1  0  0  0  0
 11 13  1  0  0  0  0
 11 14  1  0  0  0  0
 14 15  1  0  0  0  0
 14 16  1  0  0  0  0
 14 17  1  0  0  0  0
 17 18  1  0  0  0  0
 17 19  1  0  0  0  0
 17 20  1  0  0  0  0
 20 21  1  0  0  0  0
 20 22  1  0  0  0  0
 20 23  1  0  0  0  0
 23 24  1  0  0  0  0
 23 25  1  0  0  0  0
 23 26  1  0  0  0  0
 26 27  1  0  0  0  0
 26 28  1  0  0  0  0
 26 29  1  0  0  0  0
M  END
> <VM2 Rank>
221

> <Conf_Id>
608

> <Probability>
0.02

> <Sum Probability>
98.87

> <Delta G>
3.391

> <G>
61.538

> <E>
23.972

> <-TS>
37.565

> <U+W>
-0.172

> <U>
51.422

> <W>
-51.594

> <W(PB)>
-54.102

> <W(SA)>
2.507

> <Valence>
5.618

> <Coulomb>
45.019

> <VdW>
0.785

> <VdW6>
-8.591

> <VdW12>
9.376

> <Bond>
0.232

> <Angle>
1.167

> <Pdih>
4.219

> <Idih>
0.000

> <Tether>
0.000

$$$$
VeraChem MOL file


 29 28  0  0  0  0  0  0  0  0999 V2000     
   18.9347   20.1796   20.1887 C   0  0  0  0  0  0  0  0  0  0  0  0
   18.5836   19.2975   19.6375 H   0  0  0  0  0  0  0  0  0  0  0  0
   18.1666   20.4558   20.9217 H   0  0  0  0  0  0  0  0  0  0  0  0
   19.0226   21.0087   19.4747 H   0  0  0  0  0  0  0  0  0  0  0  0
   20.2952   19.9047   20.8683 C   0  0  0  0  0  0  0  0  0  0  0  0
   20.6096   20.7906   21.4375 H   0  0  0  0  0  0  0  0  0  0  0  0
   21.0558   19.7538   20.0895 H   0  0  0  0  0  0  0  0  0  0  0  0
   20.2808   18.6650   21.7948 C   0  0  0  0  0  0  0  0  0  0  0  0
   19.9890   17.7780   21.2159 H   0  0  0  0  0  0  0  0  0  0  0  0
   21.3053   18.4813   22.1469 H   0  0  0  0  0  0  0  0  0  0  0  0
   19.3468   18.8208   23.0188 C   0  0  0  0  0  0  0  0  0  0  0  0
   18.3080   18.9291   22.6806 H   0  0  0  0  0  0  0  0  0  0  0  0
   19.6037   19.7445   23.5492 H   0  0  0  0  0  0  0  0  0  0  0  0
   19.4428   17.6012   23.9683 C   0  0  0  0  0  0  0  0  0  0  0  0
   19.1847   16.7015   23.3927 H   0  0  0  0  0  0  0  0  0  0  0  0
   20.4788   17.4585   24.3056 H   0  0  0  0  0  0  0  0  0  0  0  0
   18.4925   17.6832   25.1914 C   0  0  0  0  0  0  0  0  0  0  0  0
   18.2066   16.6594   25.4699 H   0  0  0  0  0  0  0  0  0  0  0  0
   17.5567   18.1877   24.9136 H   0  0  0  0  0  0  0  0  0  0  0  0
   19.1083   18.3521   26.4460 C   0  0  0  0  0  0  0  0  0  0  0  0
   18.3883   18.2749   27.2716 H   0  0  0  0  0  0  0  0  0  0  0  0
   20.0007   17.7940   26.7592 H   0  0  0  0  0  0  0  0  0  0  0  0
   19.4763   19.8325   26.2448 C   0  0  0  0  0  0  0  0  0  0  0  0
   18.6027   20.3850   25.8886 H   0  0  0  0  0  0  0  0  0  0  0  0
   20.2696   19.9155   25.4980 H   0  0  0  0  0  0  0  0  0  0  0  0
   19.9667   20.4988   27.5139 N   0  3  0  0  0  0  0  0  0  0  0  0
   20.2095   21.4834   27.3581 H   0  0  0  0  0  0  0  0  0  0  0  0
   20.8042   20.0396   27.8870 H   0  0  0  0  0  0  0  0  0  0  0  0
   19.2570   20.4797   28.2538 H   0  0  0  0  0  0  0  0  0  0  0  0
  1  2  1  0  0  0  0
  1  3  1  0  0  0  0
  1  4  1  0  0  0  0
  1  5  1  0  0  0  0
  5  6  1  0  0  0  0
  5  7  1  0  0  0  0
  5  8  1  0  0  0  0
  8  9  1  0  0  0  0
  8 10  1  0  0  0  0
  8 11  1  0  0  0  0
 11 12  1  0  0  0  0
 11 13  1  0  0  0  0
 11 14  1  0  0  0  0
 14 15  1  0  0  0  0
 14 16  1  0  0  0  0
 14 17  1  0  0  0  0
 17 18  1  0  0  0  0
 17 19  1  0  0  0  0
 17 20  1  0  0  0  0
 20 21  1  0  0  0  0
 20 22  1  0  0  0  0
 20 23  1  0  0  0  0
 23 24  1  0  0  0  0
 23 25  1  0  0  0  0
 23 26  1  0  0  0  0
 26 27  1  0  0  0  0
 26 28  1  0  0  0  0
 26 29  1  0  0  0  0
M  END
> <VM2 Rank>
222

> <Conf_Id>
2937

> <Probability>
0.02

> <Sum Probability>
98.88

> <Delta G>
3.392

> <G>
61.538

> <E>
24.111

> <-TS>
37.427

> <U+W>
-0.033

> <U>
52.060

> <W>
-52.093

> <W(PB)>
-54.569

> <W(SA)>
2.475

> <Valence>
5.622

> <Coulomb>
45.540

> <VdW>
0.898

> <VdW6>
-9.082

> <VdW12>
9.980

> <Bond>
0.262

> <Angle>
1.362

> <Pdih>
3.998

> <Idih>
0.000

> <Tether>
0.000

$$$$
VeraChem MOL file


 29 28  0  0  0  0  0  0  0  0999 V2000     
   20.8469   17.7948   20.3606 C   0  0  0  0  0  0  0  0  0  0  0  0
   21.4802   18.6076   19.9819 H   0  0  0  0  0  0  0  0  0  0  0  0
   21.4146   17.2457   21.1231 H   0  0  0  0  0  0  0  0  0  0  0  0
   20.6476   17.1071   19.5285 H   0  0  0  0  0  0  0  0  0  0  0  0
   19.5268   18.3448   20.9409 C   0  0  0  0  0  0  0  0  0  0  0  0
   18.9013   17.5074   21.2808 H   0  0  0  0  0  0  0  0  0  0  0  0
   18.9657   18.8583   20.1476 H   0  0  0  0  0  0  0  0  0  0  0  0
   19.7791   19.3166   22.1146 C   0  0  0  0  0  0  0  0  0  0  0  0
   20.3520   18.8003   22.8936 H   0  0  0  0  0  0  0  0  0  0  0  0
   20.4046   20.1507   21.7679 H   0  0  0  0  0  0  0  0  0  0  0  0
   18.4554   19.8743   22.6929 C   0  0  0  0  0  0  0  0  0  0  0  0
   17.7874   19.0526   22.9856 H   0  0  0  0  0  0  0  0  0  0  0  0
   17.9348   20.4171   21.8917 H   0  0  0  0  0  0  0  0  0  0  0  0
   18.6633   20.8428   23.8863 C   0  0  0  0  0  0  0  0  0  0  0  0
   19.6317   21.3543   23.7983 H   0  0  0  0  0  0  0  0  0  0  0  0
   17.9041   21.6344   23.8204 H   0  0  0  0  0  0  0  0  0  0  0  0
   18.5317   20.1867   25.2851 C   0  0  0  0  0  0  0  0  0  0  0  0
   17.5199   19.7741   25.4010 H   0  0  0  0  0  0  0  0  0  0  0  0
   18.6292   20.9741   26.0455 H   0  0  0  0  0  0  0  0  0  0  0  0
   19.5723   19.0810   25.5729 C   0  0  0  0  0  0  0  0  0  0  0  0
   19.4052   18.2287   24.9024 H   0  0  0  0  0  0  0  0  0  0  0  0
   20.5831   19.4627   25.3772 H   0  0  0  0  0  0  0  0  0  0  0  0
   19.4828   18.5927   27.0292 C   0  0  0  0  0  0  0  0  0  0  0  0
   18.4819   18.1981   27.2244 H   0  0  0  0  0  0  0  0  0  0  0  0
   19.6618   19.4294   27.7099 H   0  0  0  0  0  0  0  0  0  0  0  0
   20.4858   17.5044   27.3525 N   0  3  0  0  0  0  0  0  0  0  0  0
   20.3532   16.6754   26.7637 H   0  0  0  0  0  0  0  0  0  0  0  0
   20.4094   17.1938   28.3274 H   0  0  0  0  0  0  0  0  0  0  0  0
   21.4511   17.8218   27.2150 H   0  0  0  0  0  0  0  0  0  0  0  0
  1  2  1  0  0  0  0
  1  3  1  0  0  0  0
  1  4  1  0  0  0  0
  1  5  1  0  0  0  0
  5  6  1  0  0  0  0
  5  7  1  0  0  0  0
  5  8  1  0  0  0  0
  8  9  1  0  0  0  0
  8 10  1  0  0  0  0
  8 11  1  0  0  0  0
 11 12  1  0  0  0  0
 11 13  1  0  0  0  0
 11 14  1  0  0  0  0
 14 15  1  0  0  0  0
 14 16  1  0  0  0  0
 14 17  1  0  0  0  0
 17 18  1  0  0  0  0
 17 19  1  0  0  0  0
 17 20  1  0  0  0  0
 20 21  1  0  0  0  0
 20 22  1  0  0  0  0
 20 23  1  0  0  0  0
 23 24  1  0  0  0  0
 23 25  1  0  0  0  0
 23 26  1  0  0  0  0
 26 27  1  0  0  0  0
 26 28  1  0  0  0  0
 26 29  1  0  0  0  0
M  END
> <VM2 Rank>
223

> <Conf_Id>
2290

> <Probability>
0.02

> <Sum Probability>
98.90

> <Delta G>
3.393

> <G>
61.540

> <E>
23.969

> <-TS>
37.571

> <U+W>
-0.176

> <U>
51.876

> <W>
-52.052

> <W(PB)>
-54.562

> <W(SA)>
2.511

> <Valence>
5.608

> <Coulomb>
45.523

> <VdW>
0.745

> <VdW6>
-8.647

> <VdW12>
9.392

> <Bond>
0.233

> <Angle>
1.166

> <Pdih>
4.208

> <Idih>
0.000

> <Tether>
0.000

$$$$
VeraChem MOL file


 29 28  0  0  0  0  0  0  0  0999 V2000     
   20.3023   18.8097   20.1766 C   0  0  0  0  0  0  0  0  0  0  0  0
   21.0044   18.2167   20.7758 H   0  0  0  0  0  0  0  0  0  0  0  0
   19.6454   18.1188   19.6326 H   0  0  0  0  0  0  0  0  0  0  0  0
   20.8892   19.3689   19.4365 H   0  0  0  0  0  0  0  0  0  0  0  0
   19.4816   19.7765   21.0595 C   0  0  0  0  0  0  0  0  0  0  0  0
   18.8781   20.4240   20.4083 H   0  0  0  0  0  0  0  0  0  0  0  0
   20.1599   20.4461   21.6048 H   0  0  0  0  0  0  0  0  0  0  0  0
   18.5348   19.0513   22.0490 C   0  0  0  0  0  0  0  0  0  0  0  0
   17.9461   19.8017   22.5928 H   0  0  0  0  0  0  0  0  0  0  0  0
   17.8054   18.4639   21.4747 H   0  0  0  0  0  0  0  0  0  0  0  0
   19.2373   18.1112   23.0651 C   0  0  0  0  0  0  0  0  0  0  0  0
   19.6985   17.2742   22.5245 H   0  0  0  0  0  0  0  0  0  0  0  0
   18.4744   17.6528   23.7079 H   0  0  0  0  0  0  0  0  0  0  0  0
   20.3166   18.7882   23.9516 C   0  0  0  0  0  0  0  0  0  0  0  0
   20.7452   18.0320   24.6225 H   0  0  0  0  0  0  0  0  0  0  0  0
   21.1507   19.1181   23.3183 H   0  0  0  0  0  0  0  0  0  0  0  0
   19.8162   19.9954   24.7893 C   0  0  0  0  0  0  0  0  0  0  0  0
   19.5168   20.8094   24.1161 H   0  0  0  0  0  0  0  0  0  0  0  0
   20.6582   20.3937   25.3710 H   0  0  0  0  0  0  0  0  0  0  0  0
   18.6389   19.6768   25.7476 C   0  0  0  0  0  0  0  0  0  0  0  0
   18.3821   20.5798   26.3170 H   0  0  0  0  0  0  0  0  0  0  0  0
   17.7447   19.4261   25.1629 H   0  0  0  0  0  0  0  0  0  0  0  0
   18.9281   18.5252   26.7309 C   0  0  0  0  0  0  0  0  0  0  0  0
   19.1531   17.6123   26.1735 H   0  0  0  0  0  0  0  0  0  0  0  0
   18.0426   18.3399   27.3449 H   0  0  0  0  0  0  0  0  0  0  0  0
   20.0883   18.8037   27.6655 N   0  3  0  0  0  0  0  0  0  0  0  0
   20.9584   18.9620   27.1478 H   0  0  0  0  0  0  0  0  0  0  0  0
   20.2561   18.0225   28.3088 H   0  0  0  0  0  0  0  0  0  0  0  0
   19.9214   19.6361   28.2402 H   0  0  0  0  0  0  0  0  0  0  0  0
  1  2  1  0  0  0  0
  1  3  1  0  0  0  0
  1  4  1  0  0  0  0
  1  5  1  0  0  0  0
  5  6  1  0  0  0  0
  5  7  1  0  0  0  0
  5  8  1  0  0  0  0
  8  9  1  0  0  0  0
  8 10  1  0  0  0  0
  8 11  1  0  0  0  0
 11 12  1  0  0  0  0
 11 13  1  0  0  0  0
 11 14  1  0  0  0  0
 14 15  1  0  0  0  0
 14 16  1  0  0  0  0
 14 17  1  0  0  0  0
 17 18  1  0  0  0  0
 17 19  1  0  0  0  0
 17 20  1  0  0  0  0
 20 21  1  0  0  0  0
 20 22  1  0  0  0  0
 20 23  1  0  0  0  0
 23 24  1  0  0  0  0
 23 25  1  0  0  0  0
 23 26  1  0  0  0  0
 26 27  1  0  0  0  0
 26 28  1  0  0  0  0
 26 29  1  0  0  0  0
M  END
> <VM2 Rank>
224

> <Conf_Id>
282

> <Probability>
0.02

> <Sum Probability>
98.92

> <Delta G>
3.395

> <G>
61.541

> <E>
22.861

> <-TS>
38.680

> <U+W>
-1.284

> <U>
50.976

> <W>
-52.260

> <W(PB)>
-54.636

> <W(SA)>
2.376

> <Valence>
4.770

> <Coulomb>
45.602

> <VdW>
0.604

> <VdW6>
-12.015

> <VdW12>
12.620

> <Bond>
0.365

> <Angle>
1.946

> <Pdih>
2.459

> <Idih>
0.000

> <Tether>
0.000

$$$$
VeraChem MOL file


 29 28  0  0  0  0  0  0  0  0999 V2000     
   18.4033   18.6825   20.1563 C   0  0  0  0  0  0  0  0  0  0  0  0
   18.6922   19.6102   19.6455 H   0  0  0  0  0  0  0  0  0  0  0  0
   17.9599   18.0117   19.4091 H   0  0  0  0  0  0  0  0  0  0  0  0
   17.6228   18.9215   20.8892 H   0  0  0  0  0  0  0  0  0  0  0  0
   19.6250   18.0135   20.8260 C   0  0  0  0  0  0  0  0  0  0  0  0
   20.3216   17.6835   20.0426 H   0  0  0  0  0  0  0  0  0  0  0  0
   19.3049   17.1052   21.3553 H   0  0  0  0  0  0  0  0  0  0  0  0
   20.3809   18.9485   21.8007 C   0  0  0  0  0  0  0  0  0  0  0  0
   21.2883   18.4330   22.1446 H   0  0  0  0  0  0  0  0  0  0  0  0
   20.7195   19.8438   21.2613 H   0  0  0  0  0  0  0  0  0  0  0  0
   19.5405   19.3661   23.0310 C   0  0  0  0  0  0  0  0  0  0  0  0
   19.1522   18.4661   23.5207 H   0  0  0  0  0  0  0  0  0  0  0  0
   18.6695   19.9489   22.7041 H   0  0  0  0  0  0  0  0  0  0  0  0
   20.3695   20.2147   24.0264 C   0  0  0  0  0  0  0  0  0  0  0  0
   21.2597   19.6603   24.3543 H   0  0  0  0  0  0  0  0  0  0  0  0
   20.7430   21.0984   23.4904 H   0  0  0  0  0  0  0  0  0  0  0  0
   19.5627   20.7007   25.2588 C   0  0  0  0  0  0  0  0  0  0  0  0
   18.5220   20.9096   24.9746 H   0  0  0  0  0  0  0  0  0  0  0  0
   19.9814   21.6639   25.5818 H   0  0  0  0  0  0  0  0  0  0  0  0
   19.6023   19.7440   26.4769 C   0  0  0  0  0  0  0  0  0  0  0  0
   20.6425   19.6024   26.7990 H   0  0  0  0  0  0  0  0  0  0  0  0
   19.0805   20.2245   27.3152 H   0  0  0  0  0  0  0  0  0  0  0  0
   18.9583   18.3720   26.2121 C   0  0  0  0  0  0  0  0  0  0  0  0
   19.5326   17.8374   25.4516 H   0  0  0  0  0  0  0  0  0  0  0  0
   17.9369   18.5079   25.8465 H   0  0  0  0  0  0  0  0  0  0  0  0
   18.9014   17.4960   27.4468 N   0  3  0  0  0  0  0  0  0  0  0  0
   19.8358   17.3098   27.8260 H   0  0  0  0  0  0  0  0  0  0  0  0
   18.4720   16.5855   27.2487 H   0  0  0  0  0  0  0  0  0  0  0  0
   18.3519   17.9286   28.1967 H   0  0  0  0  0  0  0  0  0  0  0  0
  1  2  1  0  0  0  0
  1  3  1  0  0  0  0
  1  4  1  0  0  0  0
  1  5  1  0  0  0  0
  5  6  1  0  0  0  0
  5  7  1  0  0  0  0
  5  8  1  0  0  0  0
  8  9  1  0  0  0  0
  8 10  1  0  0  0  0
  8 11  1  0  0  0  0
 11 12  1  0  0  0  0
 11 13  1  0  0  0  0
 11 14  1  0  0  0  0
 14 15  1  0  0  0  0
 14 16  1  0  0  0  0
 14 17  1  0  0  0  0
 17 18  1  0  0  0  0
 17 19  1  0  0  0  0
 17 20  1  0  0  0  0
 20 21  1  0  0  0  0
 20 22  1  0  0  0  0
 20 23  1  0  0  0  0
 23 24  1  0  0  0  0
 23 25  1  0  0  0  0
 23 26  1  0  0  0  0
 26 27  1  0  0  0  0
 26 28  1  0  0  0  0
 26 29  1  0  0  0  0
M  END
> <VM2 Rank>
225

> <Conf_Id>
2302

> <Probability>
0.02

> <Sum Probability>
98.94

> <Delta G>
3.399

> <G>
61.545

> <E>
24.121

> <-TS>
37.425

> <U+W>
-0.024

> <U>
52.060

> <W>
-52.084

> <W(PB)>
-54.545

> <W(SA)>
2.461

> <Valence>
5.621

> <Coulomb>
45.540

> <VdW>
0.899

> <VdW6>
-9.082

> <VdW12>
9.981

> <Bond>
0.262

> <Angle>
1.363

> <Pdih>
3.996

> <Idih>
0.000

> <Tether>
0.000

$$$$
VeraChem MOL file


 29 28  0  0  0  0  0  0  0  0999 V2000     
   21.1907   19.0265   20.6516 C   0  0  0  0  0  0  0  0  0  0  0  0
   21.9419   19.6997   20.2188 H   0  0  0  0  0  0  0  0  0  0  0  0
   21.4466   18.8781   21.7064 H   0  0  0  0  0  0  0  0  0  0  0  0
   21.2797   18.0577   20.1431 H   0  0  0  0  0  0  0  0  0  0  0  0
   19.7714   19.6142   20.4735 C   0  0  0  0  0  0  0  0  0  0  0  0
   19.5971   19.7570   19.3978 H   0  0  0  0  0  0  0  0  0  0  0  0
   19.7125   20.6145   20.9245 H   0  0  0  0  0  0  0  0  0  0  0  0
   18.6520   18.7018   21.0379 C   0  0  0  0  0  0  0  0  0  0  0  0
   17.7742   18.7935   20.3834 H   0  0  0  0  0  0  0  0  0  0  0  0
   18.9554   17.6475   20.9794 H   0  0  0  0  0  0  0  0  0  0  0  0
   18.1958   19.0459   22.4793 C   0  0  0  0  0  0  0  0  0  0  0  0
   17.3585   18.3844   22.7412 H   0  0  0  0  0  0  0  0  0  0  0  0
   17.7954   20.0689   22.5006 H   0  0  0  0  0  0  0  0  0  0  0  0
   19.3023   18.9048   23.5499 C   0  0  0  0  0  0  0  0  0  0  0  0
   19.7721   17.9152   23.4657 H   0  0  0  0  0  0  0  0  0  0  0  0
   20.0850   19.6533   23.3711 H   0  0  0  0  0  0  0  0  0  0  0  0
   18.7458   19.0931   24.9793 C   0  0  0  0  0  0  0  0  0  0  0  0
   17.9632   18.3459   25.1712 H   0  0  0  0  0  0  0  0  0  0  0  0
   18.2699   20.0804   25.0611 H   0  0  0  0  0  0  0  0  0  0  0  0
   19.8526   18.9646   26.0488 C   0  0  0  0  0  0  0  0  0  0  0  0
   20.3274   17.9773   25.9728 H   0  0  0  0  0  0  0  0  0  0  0  0
   20.6343   19.7136   25.8642 H   0  0  0  0  0  0  0  0  0  0  0  0
   19.2883   19.1532   27.4679 C   0  0  0  0  0  0  0  0  0  0  0  0
   18.5210   18.3990   27.6623 H   0  0  0  0  0  0  0  0  0  0  0  0
   18.8290   20.1417   27.5532 H   0  0  0  0  0  0  0  0  0  0  0  0
   20.3451   19.0339   28.5468 N   0  3  0  0  0  0  0  0  0  0  0  0
   20.7979   18.1138   28.5378 H   0  0  0  0  0  0  0  0  0  0  0  0
   19.9485   19.1626   29.4843 H   0  0  0  0  0  0  0  0  0  0  0  0
   21.0846   19.7356   28.4363 H   0  0  0  0  0  0  0  0  0  0  0  0
  1  2  1  0  0  0  0
  1  3  1  0  0  0  0
  1  4  1  0  0  0  0
  1  5  1  0  0  0  0
  5  6  1  0  0  0  0
  5  7  1  0  0  0  0
  5  8  1  0  0  0  0
  8  9  1  0  0  0  0
  8 10  1  0  0  0  0
  8 11  1  0  0  0  0
 11 12  1  0  0  0  0
 11 13  1  0  0  0  0
 11 14  1  0  0  0  0
 14 15  1  0  0  0  0
 14 16  1  0  0  0  0
 14 17  1  0  0  0  0
 17 18  1  0  0  0  0
 17 19  1  0  0  0  0
 17 20  1  0  0  0  0
 20 21  1  0  0  0  0
 20 22  1  0  0  0  0
 20 23  1  0  0  0  0
 23 24  1  0  0  0  0
 23 25  1  0  0  0  0
 23 26  1  0  0  0  0
 26 27  1  0  0  0  0
 26 28  1  0  0  0  0
 26 29  1  0  0  0  0
M  END
> <VM2 Rank>
226

> <Conf_Id>
350

> <Probability>
0.02

> <Sum Probability>
98.95

> <Delta G>
3.411

> <G>
61.558

> <E>
24.028

> <-TS>
37.530

> <U+W>
-0.117

> <U>
51.122

> <W>
-51.238

> <W(PB)>
-53.751

> <W(SA)>
2.513

> <Valence>
5.579

> <Coulomb>
44.694

> <VdW>
0.849

> <VdW6>
-8.475

> <VdW12>
9.324

> <Bond>
0.229

> <Angle>
1.193

> <Pdih>
4.157

> <Idih>
0.000

> <Tether>
0.000

$$$$
VeraChem MOL file


 29 28  0  0  0  0  0  0  0  0999 V2000     
   21.3893   19.3180   20.3945 C   0  0  0  0  0  0  0  0  0  0  0  0
   21.3721   18.3036   19.9752 H   0  0  0  0  0  0  0  0  0  0  0  0
   21.6809   20.0091   19.5930 H   0  0  0  0  0  0  0  0  0  0  0  0
   22.1654   19.3545   21.1700 H   0  0  0  0  0  0  0  0  0  0  0  0
   20.0105   19.7032   20.9710 C   0  0  0  0  0  0  0  0  0  0  0  0
   19.2623   19.6913   20.1660 H   0  0  0  0  0  0  0  0  0  0  0  0
   20.0498   20.7331   21.3524 H   0  0  0  0  0  0  0  0  0  0  0  0
   19.5756   18.7452   22.1019 C   0  0  0  0  0  0  0  0  0  0  0  0
   19.5385   17.7179   21.7139 H   0  0  0  0  0  0  0  0  0  0  0  0
   20.3349   18.7524   22.8926 H   0  0  0  0  0  0  0  0  0  0  0  0
   18.1892   19.1266   22.6762 C   0  0  0  0  0  0  0  0  0  0  0  0
   17.4542   19.0670   21.8615 H   0  0  0  0  0  0  0  0  0  0  0  0
   18.1864   20.1732   23.0106 H   0  0  0  0  0  0  0  0  0  0  0  0
   17.7216   18.1983   23.8273 C   0  0  0  0  0  0  0  0  0  0  0  0
   16.6340   18.0676   23.7407 H   0  0  0  0  0  0  0  0  0  0  0  0
   18.1502   17.1940   23.7054 H   0  0  0  0  0  0  0  0  0  0  0  0
   18.0144   18.7339   25.2527 C   0  0  0  0  0  0  0  0  0  0  0  0
   17.5818   18.0326   25.9798 H   0  0  0  0  0  0  0  0  0  0  0  0
   17.4892   19.6880   25.3991 H   0  0  0  0  0  0  0  0  0  0  0  0
   19.5153   18.9212   25.5693 C   0  0  0  0  0  0  0  0  0  0  0  0
   20.0604   17.9949   25.3442 H   0  0  0  0  0  0  0  0  0  0  0  0
   19.9337   19.7132   24.9357 H   0  0  0  0  0  0  0  0  0  0  0  0
   19.7339   19.2978   27.0451 C   0  0  0  0  0  0  0  0  0  0  0  0
   19.3345   18.5098   27.6893 H   0  0  0  0  0  0  0  0  0  0  0  0
   19.2046   20.2277   27.2700 H   0  0  0  0  0  0  0  0  0  0  0  0
   21.1943   19.4939   27.3971 N   0  3  0  0  0  0  0  0  0  0  0  0
   21.7439   18.6439   27.2334 H   0  0  0  0  0  0  0  0  0  0  0  0
   21.3174   19.7438   28.3846 H   0  0  0  0  0  0  0  0  0  0  0  0
   21.6234   20.2429   26.8437 H   0  0  0  0  0  0  0  0  0  0  0  0
  1  2  1  0  0  0  0
  1  3  1  0  0  0  0
  1  4  1  0  0  0  0
  1  5  1  0  0  0  0
  5  6  1  0  0  0  0
  5  7  1  0  0  0  0
  5  8  1  0  0  0  0
  8  9  1  0  0  0  0
  8 10  1  0  0  0  0
  8 11  1  0  0  0  0
 11 12  1  0  0  0  0
 11 13  1  0  0  0  0
 11 14  1  0  0  0  0
 14 15  1  0  0  0  0
 14 16  1  0  0  0  0
 14 17  1  0  0  0  0
 17 18  1  0  0  0  0
 17 19  1  0  0  0  0
 17 20  1  0  0  0  0
 20 21  1  0  0  0  0
 20 22  1  0  0  0  0
 20 23  1  0  0  0  0
 23 24  1  0  0  0  0
 23 25  1  0  0  0  0
 23 26  1  0  0  0  0
 26 27  1  0  0  0  0
 26 28  1  0  0  0  0
 26 29  1  0  0  0  0
M  END
> <VM2 Rank>
227

> <Conf_Id>
2875

> <Probability>
0.02

> <Sum Probability>
98.97

> <Delta G>
3.412

> <G>
61.559

> <E>
23.988

> <-TS>
37.570

> <U+W>
-0.156

> <U>
51.876

> <W>
-52.032

> <W(PB)>
-54.548

> <W(SA)>
2.516

> <Valence>
5.608

> <Coulomb>
45.523

> <VdW>
0.745

> <VdW6>
-8.647

> <VdW12>
9.392

> <Bond>
0.233

> <Angle>
1.166

> <Pdih>
4.208

> <Idih>
0.000

> <Tether>
0.000

$$$$
VeraChem MOL file


 29 28  0  0  0  0  0  0  0  0999 V2000     
   20.8736   18.1360   20.6317 C   0  0  0  0  0  0  0  0  0  0  0  0
   21.0367   17.1574   20.1618 H   0  0  0  0  0  0  0  0  0  0  0  0
   21.5618   18.8500   20.1608 H   0  0  0  0  0  0  0  0  0  0  0  0
   21.1508   18.0473   21.6878 H   0  0  0  0  0  0  0  0  0  0  0  0
   19.4048   18.5846   20.4505 C   0  0  0  0  0  0  0  0  0  0  0  0
   18.7209   17.8294   20.8622 H   0  0  0  0  0  0  0  0  0  0  0  0
   19.1947   18.6268   19.3725 H   0  0  0  0  0  0  0  0  0  0  0  0
   19.1055   19.9756   21.0664 C   0  0  0  0  0  0  0  0  0  0  0  0
   20.0076   20.6026   21.0454 H   0  0  0  0  0  0  0  0  0  0  0  0
   18.3765   20.4851   20.4212 H   0  0  0  0  0  0  0  0  0  0  0  0
   18.5142   19.9402   22.4993 C   0  0  0  0  0  0  0  0  0  0  0  0
   17.5574   19.4002   22.4857 H   0  0  0  0  0  0  0  0  0  0  0  0
   18.2793   20.9709   22.7990 H   0  0  0  0  0  0  0  0  0  0  0  0
   19.4459   19.3082   23.5589 C   0  0  0  0  0  0  0  0  0  0  0  0
   19.5825   18.2414   23.3395 H   0  0  0  0  0  0  0  0  0  0  0  0
   20.4363   19.7810   23.5074 H   0  0  0  0  0  0  0  0  0  0  0  0
   18.8754   19.4571   24.9874 C   0  0  0  0  0  0  0  0  0  0  0  0
   17.8819   18.9900   25.0367 H   0  0  0  0  0  0  0  0  0  0  0  0
   18.7380   20.5224   25.2199 H   0  0  0  0  0  0  0  0  0  0  0  0
   19.7994   18.8152   26.0455 C   0  0  0  0  0  0  0  0  0  0  0  0
   19.9348   17.7489   25.8204 H   0  0  0  0  0  0  0  0  0  0  0  0
   20.7922   19.2828   26.0020 H   0  0  0  0  0  0  0  0  0  0  0  0
   19.2229   18.9695   27.4638 C   0  0  0  0  0  0  0  0  0  0  0  0
   18.2413   18.4909   27.5164 H   0  0  0  0  0  0  0  0  0  0  0  0
   19.1018   20.0304   27.6987 H   0  0  0  0  0  0  0  0  0  0  0  0
   20.1022   18.3516   28.5316 N   0  3  0  0  0  0  0  0  0  0  0  0
   20.2336   17.3455   28.3830 H   0  0  0  0  0  0  0  0  0  0  0  0
   19.7002   18.4653   29.4687 H   0  0  0  0  0  0  0  0  0  0  0  0
   21.0344   18.7782   28.5526 H   0  0  0  0  0  0  0  0  0  0  0  0
  1  2  1  0  0  0  0
  1  3  1  0  0  0  0
  1  4  1  0  0  0  0
  1  5  1  0  0  0  0
  5  6  1  0  0  0  0
  5  7  1  0  0  0  0
  5  8  1  0  0  0  0
  8  9  1  0  0  0  0
  8 10  1  0  0  0  0
  8 11  1  0  0  0  0
 11 12  1  0  0  0  0
 11 13  1  0  0  0  0
 11 14  1  0  0  0  0
 14 15  1  0  0  0  0
 14 16  1  0  0  0  0
 14 17  1  0  0  0  0
 17 18  1  0  0  0  0
 17 19  1  0  0  0  0
 17 20  1  0  0  0  0
 20 21  1  0  0  0  0
 20 22  1  0  0  0  0
 20 23  1  0  0  0  0
 23 24  1  0  0  0  0
 23 25  1  0  0  0  0
 23 26  1  0  0  0  0
 26 27  1  0  0  0  0
 26 28  1  0  0  0  0
 26 29  1  0  0  0  0
M  END
> <VM2 Rank>
228

> <Conf_Id>
2280

> <Probability>
0.02

> <Sum Probability>
98.99

> <Delta G>
3.432

> <G>
61.578

> <E>
24.049

> <-TS>
37.529

> <U+W>
-0.096

> <U>
51.122

> <W>
-51.217

> <W(PB)>
-53.736

> <W(SA)>
2.519

> <Valence>
5.580

> <Coulomb>
44.694

> <VdW>
0.849

> <VdW6>
-8.475

> <VdW12>
9.323

> <Bond>
0.229

> <Angle>
1.194

> <Pdih>
4.157

> <Idih>
0.000

> <Tether>
0.000

$$$$
VeraChem MOL file


 29 28  0  0  0  0  0  0  0  0999 V2000     
   20.1052   17.3258   20.9263 C   0  0  0  0  0  0  0  0  0  0  0  0
   21.1661   17.3461   21.2077 H   0  0  0  0  0  0  0  0  0  0  0  0
   19.5365   16.8916   21.7578 H   0  0  0  0  0  0  0  0  0  0  0  0
   19.9987   16.6515   20.0667 H   0  0  0  0  0  0  0  0  0  0  0  0
   19.5981   18.7414   20.5688 C   0  0  0  0  0  0  0  0  0  0  0  0
   18.5276   18.6996   20.3236 H   0  0  0  0  0  0  0  0  0  0  0  0
   20.1093   19.0804   19.6570 H   0  0  0  0  0  0  0  0  0  0  0  0
   19.8386   19.7826   21.6885 C   0  0  0  0  0  0  0  0  0  0  0  0
   20.9121   19.8339   21.9168 H   0  0  0  0  0  0  0  0  0  0  0  0
   19.5555   20.7741   21.3090 H   0  0  0  0  0  0  0  0  0  0  0  0
   19.0434   19.4905   22.9834 C   0  0  0  0  0  0  0  0  0  0  0  0
   19.3598   18.5273   23.3963 H   0  0  0  0  0  0  0  0  0  0  0  0
   17.9761   19.3949   22.7412 H   0  0  0  0  0  0  0  0  0  0  0  0
   19.2332   20.6114   24.0349 C   0  0  0  0  0  0  0  0  0  0  0  0
   20.2999   20.7487   24.2596 H   0  0  0  0  0  0  0  0  0  0  0  0
   18.8927   21.5569   23.5904 H   0  0  0  0  0  0  0  0  0  0  0  0
   18.4392   20.3786   25.3468 C   0  0  0  0  0  0  0  0  0  0  0  0
   17.4900   19.8684   25.1320 H   0  0  0  0  0  0  0  0  0  0  0  0
   18.1630   21.3597   25.7572 H   0  0  0  0  0  0  0  0  0  0  0  0
   19.2190   19.6159   26.4474 C   0  0  0  0  0  0  0  0  0  0  0  0
   20.1261   20.1765   26.7097 H   0  0  0  0  0  0  0  0  0  0  0  0
   18.6010   19.5834   27.3546 H   0  0  0  0  0  0  0  0  0  0  0  0
   19.6026   18.1783   26.0556 C   0  0  0  0  0  0  0  0  0  0  0  0
   20.3000   18.2005   25.2146 H   0  0  0  0  0  0  0  0  0  0  0  0
   18.7084   17.6271   25.7526 H   0  0  0  0  0  0  0  0  0  0  0  0
   20.2647   17.4135   27.1834 N   0  3  0  0  0  0  0  0  0  0  0  0
   19.6512   17.3319   28.0009 H   0  0  0  0  0  0  0  0  0  0  0  0
   21.1280   17.8688   27.4980 H   0  0  0  0  0  0  0  0  0  0  0  0
   20.5152   16.4594   26.9013 H   0  0  0  0  0  0  0  0  0  0  0  0
  1  2  1  0  0  0  0
  1  3  1  0  0  0  0
  1  4  1  0  0  0  0
  1  5  1  0  0  0  0
  5  6  1  0  0  0  0
  5  7  1  0  0  0  0
  5  8  1  0  0  0  0
  8  9  1  0  0  0  0
  8 10  1  0  0  0  0
  8 11  1  0  0  0  0
 11 12  1  0  0  0  0
 11 13  1  0  0  0  0
 11 14  1  0  0  0  0
 14 15  1  0  0  0  0
 14 16  1  0  0  0  0
 14 17  1  0  0  0  0
 17 18  1  0  0  0  0
 17 19  1  0  0  0  0
 17 20  1  0  0  0  0
 20 21  1  0  0  0  0
 20 22  1  0  0  0  0
 20 23  1  0  0  0  0
 23 24  1  0  0  0  0
 23 25  1  0  0  0  0
 23 26  1  0  0  0  0
 26 27  1  0  0  0  0
 26 28  1  0  0  0  0
 26 29  1  0  0  0  0
M  END
> <VM2 Rank>
229

> <Conf_Id>
2947

> <Probability>
0.02

> <Sum Probability>
99.00

> <Delta G>
3.446

> <G>
61.592

> <E>
24.145

> <-TS>
37.446

> <U+W>
0.001

> <U>
52.222

> <W>
-52.221

> <W(PB)>
-54.698

> <W(SA)>
2.477

> <Valence>
5.624

> <Coulomb>
45.733

> <VdW>
0.866

> <VdW6>
-9.149

> <VdW12>
10.015

> <Bond>
0.264

> <Angle>
1.328

> <Pdih>
4.032

> <Idih>
0.000

> <Tether>
0.000

$$$$
VeraChem MOL file


 29 28  0  0  0  0  0  0  0  0999 V2000     
   20.3182   18.6272   19.6205 C   0  0  0  0  0  0  0  0  0  0  0  0
   20.2362   17.5450   19.4548 H   0  0  0  0  0  0  0  0  0  0  0  0
   19.4917   19.1180   19.0903 H   0  0  0  0  0  0  0  0  0  0  0  0
   21.2586   18.9670   19.1673 H   0  0  0  0  0  0  0  0  0  0  0  0
   20.2869   18.9621   21.1267 C   0  0  0  0  0  0  0  0  0  0  0  0
   20.4115   20.0458   21.2538 H   0  0  0  0  0  0  0  0  0  0  0  0
   21.1411   18.4822   21.6244 H   0  0  0  0  0  0  0  0  0  0  0  0
   18.9681   18.4958   21.7870 C   0  0  0  0  0  0  0  0  0  0  0  0
   18.1177   19.0117   21.3202 H   0  0  0  0  0  0  0  0  0  0  0  0
   18.8266   17.4248   21.5861 H   0  0  0  0  0  0  0  0  0  0  0  0
   18.9328   18.7175   23.3189 C   0  0  0  0  0  0  0  0  0  0  0  0
   19.7704   18.1742   23.7748 H   0  0  0  0  0  0  0  0  0  0  0  0
   18.0103   18.2711   23.7148 H   0  0  0  0  0  0  0  0  0  0  0  0
   18.9912   20.2107   23.7248 C   0  0  0  0  0  0  0  0  0  0  0  0
   19.9841   20.6194   23.4949 H   0  0  0  0  0  0  0  0  0  0  0  0
   18.2768   20.7750   23.1097 H   0  0  0  0  0  0  0  0  0  0  0  0
   18.6651   20.4835   25.2160 C   0  0  0  0  0  0  0  0  0  0  0  0
   17.6380   20.1657   25.4431 H   0  0  0  0  0  0  0  0  0  0  0  0
   18.6788   21.5723   25.3639 H   0  0  0  0  0  0  0  0  0  0  0  0
   19.6533   19.8486   26.2265 C   0  0  0  0  0  0  0  0  0  0  0  0
   20.6773   19.8945   25.8326 H   0  0  0  0  0  0  0  0  0  0  0  0
   19.6470   20.4500   27.1453 H   0  0  0  0  0  0  0  0  0  0  0  0
   19.2884   18.3992   26.6017 C   0  0  0  0  0  0  0  0  0  0  0  0
   19.2974   17.7640   25.7142 H   0  0  0  0  0  0  0  0  0  0  0  0
   18.2827   18.3740   27.0297 H   0  0  0  0  0  0  0  0  0  0  0  0
   20.2400   17.7936   27.6130 N   0  3  0  0  0  0  0  0  0  0  0  0
   21.2026   17.7632   27.2610 H   0  0  0  0  0  0  0  0  0  0  0  0
   19.9786   16.8310   27.8534 H   0  0  0  0  0  0  0  0  0  0  0  0
   20.2555   18.3264   28.4889 H   0  0  0  0  0  0  0  0  0  0  0  0
  1  2  1  0  0  0  0
  1  3  1  0  0  0  0
  1  4  1  0  0  0  0
  1  5  1  0  0  0  0
  5  6  1  0  0  0  0
  5  7  1  0  0  0  0
  5  8  1  0  0  0  0
  8  9  1  0  0  0  0
  8 10  1  0  0  0  0
  8 11  1  0  0  0  0
 11 12  1  0  0  0  0
 11 13  1  0  0  0  0
 11 14  1  0  0  0  0
 14 15  1  0  0  0  0
 14 16  1  0  0  0  0
 14 17  1  0  0  0  0
 17 18  1  0  0  0  0
 17 19  1  0  0  0  0
 17 20  1  0  0  0  0
 20 21  1  0  0  0  0
 20 22  1  0  0  0  0
 20 23  1  0  0  0  0
 23 24  1  0  0  0  0
 23 25  1  0  0  0  0
 23 26  1  0  0  0  0
 26 27  1  0  0  0  0
 26 28  1  0  0  0  0
 26 29  1  0  0  0  0
M  END
> <VM2 Rank>
230

> <Conf_Id>
686

> <Probability>
0.02

> <Sum Probability>
99.02

> <Delta G>
3.448

> <G>
61.595

> <E>
23.950

> <-TS>
37.645

> <U+W>
-0.195

> <U>
51.999

> <W>
-52.194

> <W(PB)>
-54.680

> <W(SA)>
2.486

> <Valence>
5.450

> <Coulomb>
45.755

> <VdW>
0.793

> <VdW6>
-9.318

> <VdW12>
10.111

> <Bond>
0.250

> <Angle>
1.353

> <Pdih>
3.847

> <Idih>
0.000

> <Tether>
0.000

$$$$
VeraChem MOL file


 29 28  0  0  0  0  0  0  0  0999 V2000     
   20.5942   20.4078   20.7252 C   0  0  0  0  0  0  0  0  0  0  0  0
   19.6910   20.8045   20.2437 H   0  0  0  0  0  0  0  0  0  0  0  0
   20.7144   20.9059   21.6952 H   0  0  0  0  0  0  0  0  0  0  0  0
   21.4554   20.6845   20.1034 H   0  0  0  0  0  0  0  0  0  0  0  0
   20.5115   18.8725   20.8819 C   0  0  0  0  0  0  0  0  0  0  0  0
   21.4118   18.5044   21.3935 H   0  0  0  0  0  0  0  0  0  0  0  0
   20.5160   18.4137   19.8833 H   0  0  0  0  0  0  0  0  0  0  0  0
   19.2481   18.3989   21.6403 C   0  0  0  0  0  0  0  0  0  0  0  0
   18.3508   18.7466   21.1100 H   0  0  0  0  0  0  0  0  0  0  0  0
   19.2168   17.3009   21.6147 H   0  0  0  0  0  0  0  0  0  0  0  0
   19.2009   18.8715   23.1129 C   0  0  0  0  0  0  0  0  0  0  0  0
   19.1488   19.9674   23.1518 H   0  0  0  0  0  0  0  0  0  0  0  0
   20.1303   18.5681   23.6112 H   0  0  0  0  0  0  0  0  0  0  0  0
   17.9886   18.2760   23.8662 C   0  0  0  0  0  0  0  0  0  0  0  0
   17.0801   18.4500   23.2732 H   0  0  0  0  0  0  0  0  0  0  0  0
   18.1028   17.1855   23.9365 H   0  0  0  0  0  0  0  0  0  0  0  0
   17.7592   18.8627   25.2832 C   0  0  0  0  0  0  0  0  0  0  0  0
   16.8535   18.3943   25.6928 H   0  0  0  0  0  0  0  0  0  0  0  0
   17.5340   19.9362   25.2154 H   0  0  0  0  0  0  0  0  0  0  0  0
   18.9187   18.6265   26.2835 C   0  0  0  0  0  0  0  0  0  0  0  0
   18.5050   18.6114   27.3006 H   0  0  0  0  0  0  0  0  0  0  0  0
   19.3663   17.6378   26.1159 H   0  0  0  0  0  0  0  0  0  0  0  0
   20.0007   19.7223   26.2240 C   0  0  0  0  0  0  0  0  0  0  0  0
   19.5490   20.6944   26.4393 H   0  0  0  0  0  0  0  0  0  0  0  0
   20.4428   19.7654   25.2269 H   0  0  0  0  0  0  0  0  0  0  0  0
   21.1221   19.4997   27.2178 N   0  3  0  0  0  0  0  0  0  0  0  0
   21.6071   18.6113   27.0537 H   0  0  0  0  0  0  0  0  0  0  0  0
   20.7778   19.4816   28.1836 H   0  0  0  0  0  0  0  0  0  0  0  0
   21.8295   20.2410   27.1667 H   0  0  0  0  0  0  0  0  0  0  0  0
  1  2  1  0  0  0  0
  1  3  1  0  0  0  0
  1  4  1  0  0  0  0
  1  5  1  0  0  0  0
  5  6  1  0  0  0  0
  5  7  1  0  0  0  0
  5  8  1  0  0  0  0
  8  9  1  0  0  0  0
  8 10  1  0  0  0  0
  8 11  1  0  0  0  0
 11 12  1  0  0  0  0
 11 13  1  0  0  0  0
 11 14  1  0  0  0  0
 14 15  1  0  0  0  0
 14 16  1  0  0  0  0
 14 17  1  0  0  0  0
 17 18  1  0  0  0  0
 17 19  1  0  0  0  0
 17 20  1  0  0  0  0
 20 21  1  0  0  0  0
 20 22  1  0  0  0  0
 20 23  1  0  0  0  0
 23 24  1  0  0  0  0
 23 25  1  0  0  0  0
 23 26  1  0  0  0  0
 26 27  1  0  0  0  0
 26 28  1  0  0  0  0
 26 29  1  0  0  0  0
M  END
> <VM2 Rank>
231

> <Conf_Id>
1506

> <Probability>
0.02

> <Sum Probability>
99.04

> <Delta G>
3.458

> <G>
61.604

> <E>
23.959

> <-TS>
37.644

> <U+W>
-0.185

> <U>
52.128

> <W>
-52.313

> <W(PB)>
-54.796

> <W(SA)>
2.483

> <Valence>
5.466

> <Coulomb>
45.872

> <VdW>
0.790

> <VdW6>
-9.336

> <VdW12>
10.126

> <Bond>
0.248

> <Angle>
1.379

> <Pdih>
3.839

> <Idih>
0.000

> <Tether>
0.000

$$$$
VeraChem MOL file


 29 28  0  0  0  0  0  0  0  0999 V2000     
   20.4639   19.0370   19.6295 C   0  0  0  0  0  0  0  0  0  0  0  0
   21.0864   19.9331   19.5079 H   0  0  0  0  0  0  0  0  0  0  0  0
   20.9844   18.1978   19.1500 H   0  0  0  0  0  0  0  0  0  0  0  0
   19.5206   19.2002   19.0921 H   0  0  0  0  0  0  0  0  0  0  0  0
   20.2070   18.7378   21.1216 C   0  0  0  0  0  0  0  0  0  0  0  0
   21.1652   18.5499   21.6258 H   0  0  0  0  0  0  0  0  0  0  0  0
   19.6171   17.8152   21.2040 H   0  0  0  0  0  0  0  0  0  0  0  0
   19.4703   19.9059   21.8185 C   0  0  0  0  0  0  0  0  0  0  0  0
   20.0402   20.8322   21.6623 H   0  0  0  0  0  0  0  0  0  0  0  0
   18.4919   20.0624   21.3438 H   0  0  0  0  0  0  0  0  0  0  0  0
   19.2814   19.6957   23.3408 C   0  0  0  0  0  0  0  0  0  0  0  0
   18.8428   20.6084   23.7671 H   0  0  0  0  0  0  0  0  0  0  0  0
   20.2673   19.5689   23.8060 H   0  0  0  0  0  0  0  0  0  0  0  0
   18.3774   18.4868   23.6863 C   0  0  0  0  0  0  0  0  0  0  0  0
   17.4759   18.5257   23.0594 H   0  0  0  0  0  0  0  0  0  0  0  0
   18.8920   17.5522   23.4264 H   0  0  0  0  0  0  0  0  0  0  0  0
   17.9312   18.4226   25.1700 C   0  0  0  0  0  0  0  0  0  0  0  0
   17.2519   17.5652   25.2743 H   0  0  0  0  0  0  0  0  0  0  0  0
   17.3327   19.3085   25.4239 H   0  0  0  0  0  0  0  0  0  0  0  0
   19.0839   18.2498   26.1908 C   0  0  0  0  0  0  0  0  0  0  0  0
   18.6861   17.7518   27.0851 H   0  0  0  0  0  0  0  0  0  0  0  0
   19.8541   17.5828   25.7811 H   0  0  0  0  0  0  0  0  0  0  0  0
   19.7116   19.5874   26.6282 C   0  0  0  0  0  0  0  0  0  0  0  0
   18.9419   20.2254   27.0709 H   0  0  0  0  0  0  0  0  0  0  0  0
   20.1325   20.1086   25.7665 H   0  0  0  0  0  0  0  0  0  0  0  0
   20.8173   19.4151   27.6493 N   0  3  0  0  0  0  0  0  0  0  0  0
   20.4802   18.9583   28.5032 H   0  0  0  0  0  0  0  0  0  0  0  0
   21.2195   20.3158   27.9312 H   0  0  0  0  0  0  0  0  0  0  0  0
   21.5874   18.8442   27.2854 H   0  0  0  0  0  0  0  0  0  0  0  0
  1  2  1  0  0  0  0
  1  3  1  0  0  0  0
  1  4  1  0  0  0  0
  1  5  1  0  0  0  0
  5  6  1  0  0  0  0
  5  7  1  0  0  0  0
  5  8  1  0  0  0  0
  8  9  1  0  0  0  0
  8 10  1  0  0  0  0
  8 11  1  0  0  0  0
 11 12  1  0  0  0  0
 11 13  1  0  0  0  0
 11 14  1  0  0  0  0
 14 15  1  0  0  0  0
 14 16  1  0  0  0  0
 14 17  1  0  0  0  0
 17 18  1  0  0  0  0
 17 19  1  0  0  0  0
 17 20  1  0  0  0  0
 20 21  1  0  0  0  0
 20 22  1  0  0  0  0
 20 23  1  0  0  0  0
 23 24  1  0  0  0  0
 23 25  1  0  0  0  0
 23 26  1  0  0  0  0
 26 27  1  0  0  0  0
 26 28  1  0  0  0  0
 26 29  1  0  0  0  0
M  END
> <VM2 Rank>
232

> <Conf_Id>
2577

> <Probability>
0.02

> <Sum Probability>
99.05

> <Delta G>
3.471

> <G>
61.617

> <E>
23.972

> <-TS>
37.645

> <U+W>
-0.172

> <U>
51.999

> <W>
-52.172

> <W(PB)>
-54.675

> <W(SA)>
2.504

> <Valence>
5.450

> <Coulomb>
45.755

> <VdW>
0.794

> <VdW6>
-9.318

> <VdW12>
10.112

> <Bond>
0.250

> <Angle>
1.353

> <Pdih>
3.847

> <Idih>
0.000

> <Tether>
0.000

$$$$
VeraChem MOL file


 29 28  0  0  0  0  0  0  0  0999 V2000     
   20.9690   18.8007   19.9170 C   0  0  0  0  0  0  0  0  0  0  0  0
   21.3459   17.7871   20.1063 H   0  0  0  0  0  0  0  0  0  0  0  0
   20.2802   18.7556   19.0633 H   0  0  0  0  0  0  0  0  0  0  0  0
   21.8217   19.4291   19.6289 H   0  0  0  0  0  0  0  0  0  0  0  0
   20.2677   19.3736   21.1667 C   0  0  0  0  0  0  0  0  0  0  0  0
   19.9280   20.3974   20.9566 H   0  0  0  0  0  0  0  0  0  0  0  0
   20.9972   19.4411   21.9845 H   0  0  0  0  0  0  0  0  0  0  0  0
   19.0637   18.5014   21.5944 C   0  0  0  0  0  0  0  0  0  0  0  0
   18.3870   18.3826   20.7369 H   0  0  0  0  0  0  0  0  0  0  0  0
   19.4113   17.4921   21.8544 H   0  0  0  0  0  0  0  0  0  0  0  0
   18.2576   19.0939   22.7763 C   0  0  0  0  0  0  0  0  0  0  0  0
   17.3645   18.4734   22.9337 H   0  0  0  0  0  0  0  0  0  0  0  0
   17.8941   20.0952   22.5071 H   0  0  0  0  0  0  0  0  0  0  0  0
   19.0599   19.1659   24.0976 C   0  0  0  0  0  0  0  0  0  0  0  0
   19.4658   18.1709   24.3171 H   0  0  0  0  0  0  0  0  0  0  0  0
   19.9088   19.8523   23.9818 H   0  0  0  0  0  0  0  0  0  0  0  0
   18.1769   19.6425   25.2750 C   0  0  0  0  0  0  0  0  0  0  0  0
   17.3943   18.8967   25.4719 H   0  0  0  0  0  0  0  0  0  0  0  0
   17.6552   20.5628   24.9781 H   0  0  0  0  0  0  0  0  0  0  0  0
   18.9551   19.9309   26.5843 C   0  0  0  0  0  0  0  0  0  0  0  0
   19.7004   20.7205   26.4202 H   0  0  0  0  0  0  0  0  0  0  0  0
   18.2435   20.3356   27.3162 H   0  0  0  0  0  0  0  0  0  0  0  0
   19.6262   18.6938   27.2162 C   0  0  0  0  0  0  0  0  0  0  0  0
   18.9634   17.8284   27.1325 H   0  0  0  0  0  0  0  0  0  0  0  0
   19.8000   18.8867   28.2783 H   0  0  0  0  0  0  0  0  0  0  0  0
   20.9678   18.3354   26.6075 N   0  3  0  0  0  0  0  0  0  0  0  0
   20.8886   18.1333   25.6069 H   0  0  0  0  0  0  0  0  0  0  0  0
   21.3783   17.5074   27.0533 H   0  0  0  0  0  0  0  0  0  0  0  0
   21.6461   19.0975   26.7105 H   0  0  0  0  0  0  0  0  0  0  0  0
  1  2  1  0  0  0  0
  1  3  1  0  0  0  0
  1  4  1  0  0  0  0
  1  5  1  0  0  0  0
  5  6  1  0  0  0  0
  5  7  1  0  0  0  0
  5  8  1  0  0  0  0
  8  9  1  0  0  0  0
  8 10  1  0  0  0  0
  8 11  1  0  0  0  0
 11 12  1  0  0  0  0
 11 13  1  0  0  0  0
 11 14  1  0  0  0  0
 14 15  1  0  0  0  0
 14 16  1  0  0  0  0
 14 17  1  0  0  0  0
 17 18  1  0  0  0  0
 17 19  1  0  0  0  0
 17 20  1  0  0  0  0
 20 21  1  0  0  0  0
 20 22  1  0  0  0  0
 20 23  1  0  0  0  0
 23 24  1  0  0  0  0
 23 25  1  0  0  0  0
 23 26  1  0  0  0  0
 26 27  1  0  0  0  0
 26 28  1  0  0  0  0
 26 29  1  0  0  0  0
M  END
> <VM2 Rank>
233

> <Conf_Id>
1055

> <Probability>
0.02

> <Sum Probability>
99.07

> <Delta G>
3.490

> <G>
61.636

> <E>
24.182

> <-TS>
37.454

> <U+W>
0.037

> <U>
52.272

> <W>
-52.234

> <W(PB)>
-54.714

> <W(SA)>
2.479

> <Valence>
4.707

> <Coulomb>
46.778

> <VdW>
0.786

> <VdW6>
-9.145

> <VdW12>
9.931

> <Bond>
0.241

> <Angle>
1.214

> <Pdih>
3.252

> <Idih>
0.000

> <Tether>
0.000

$$$$
VeraChem MOL file


 29 28  0  0  0  0  0  0  0  0999 V2000     
   20.2441   19.3363   19.3782 C   0  0  0  0  0  0  0  0  0  0  0  0
   19.8457   19.2276   18.3611 H   0  0  0  0  0  0  0  0  0  0  0  0
   20.5015   20.3929   19.5282 H   0  0  0  0  0  0  0  0  0  0  0  0
   21.1679   18.7467   19.4432 H   0  0  0  0  0  0  0  0  0  0  0  0
   19.2100   18.8636   20.4218 C   0  0  0  0  0  0  0  0  0  0  0  0
   18.9469   17.8149   20.2246 H   0  0  0  0  0  0  0  0  0  0  0  0
   18.2863   19.4487   20.3110 H   0  0  0  0  0  0  0  0  0  0  0  0
   19.7466   19.0053   21.8635 C   0  0  0  0  0  0  0  0  0  0  0  0
   20.6683   18.4169   21.9697 H   0  0  0  0  0  0  0  0  0  0  0  0
   20.0150   20.0543   22.0422 H   0  0  0  0  0  0  0  0  0  0  0  0
   18.7082   18.5347   22.9106 C   0  0  0  0  0  0  0  0  0  0  0  0
   18.3947   17.5112   22.6626 H   0  0  0  0  0  0  0  0  0  0  0  0
   17.8052   19.1574   22.8457 H   0  0  0  0  0  0  0  0  0  0  0  0
   19.2415   18.5418   24.3646 C   0  0  0  0  0  0  0  0  0  0  0  0
   18.4964   18.0382   24.9920 H   0  0  0  0  0  0  0  0  0  0  0  0
   20.1622   17.9449   24.4211 H   0  0  0  0  0  0  0  0  0  0  0  0
   19.4980   19.9642   24.9229 C   0  0  0  0  0  0  0  0  0  0  0  0
   18.5549   20.5278   24.9345 H   0  0  0  0  0  0  0  0  0  0  0  0
   20.1712   20.5076   24.2482 H   0  0  0  0  0  0  0  0  0  0  0  0
   20.1313   19.9916   26.3376 C   0  0  0  0  0  0  0  0  0  0  0  0
   21.1065   19.4868   26.3297 H   0  0  0  0  0  0  0  0  0  0  0  0
   20.3371   21.0397   26.5928 H   0  0  0  0  0  0  0  0  0  0  0  0
   19.2406   19.4044   27.4520 C   0  0  0  0  0  0  0  0  0  0  0  0
   18.1975   19.6828   27.2796 H   0  0  0  0  0  0  0  0  0  0  0  0
   19.5496   19.8247   28.4129 H   0  0  0  0  0  0  0  0  0  0  0  0
   19.3237   17.8961   27.5838 N   0  3  0  0  0  0  0  0  0  0  0  0
   19.0440   17.4230   26.7199 H   0  0  0  0  0  0  0  0  0  0  0  0
   18.7156   17.5458   28.3322 H   0  0  0  0  0  0  0  0  0  0  0  0
   20.2763   17.5869   27.8034 H   0  0  0  0  0  0  0  0  0  0  0  0
  1  2  1  0  0  0  0
  1  3  1  0  0  0  0
  1  4  1  0  0  0  0
  1  5  1  0  0  0  0
  5  6  1  0  0  0  0
  5  7  1  0  0  0  0
  5  8  1  0  0  0  0
  8  9  1  0  0  0  0
  8 10  1  0  0  0  0
  8 11  1  0  0  0  0
 11 12  1  0  0  0  0
 11 13  1  0  0  0  0
 11 14  1  0  0  0  0
 14 15  1  0  0  0  0
 14 16  1  0  0  0  0
 14 17  1  0  0  0  0
 17 18  1  0  0  0  0
 17 19  1  0  0  0  0
 17 20  1  0  0  0  0
 20 21  1  0  0  0  0
 20 22  1  0  0  0  0
 20 23  1  0  0  0  0
 23 24  1  0  0  0  0
 23 25  1  0  0  0  0
 23 26  1  0  0  0  0
 26 27  1  0  0  0  0
 26 28  1  0  0  0  0
 26 29  1  0  0  0  0
M  END
> <VM2 Rank>
234

> <Conf_Id>
1651

> <Probability>
0.01

> <Sum Probability>
99.08

> <Delta G>
3.499

> <G>
61.645

> <E>
24.302

> <-TS>
37.343

> <U+W>
0.158

> <U>
51.995

> <W>
-51.838

> <W(PB)>
-54.337

> <W(SA)>
2.500

> <Valence>
4.866

> <Coulomb>
46.253

> <VdW>
0.877

> <VdW6>
-9.001

> <VdW12>
9.878

> <Bond>
0.252

> <Angle>
1.291

> <Pdih>
3.324

> <Idih>
0.000

> <Tether>
0.000

$$$$
VeraChem MOL file


 29 28  0  0  0  0  0  0  0  0999 V2000     
   21.1984   20.0185   21.0805 C   0  0  0  0  0  0  0  0  0  0  0  0
   21.7960   19.1032   20.9808 H   0  0  0  0  0  0  0  0  0  0  0  0
   21.6172   20.7691   20.3978 H   0  0  0  0  0  0  0  0  0  0  0  0
   21.3191   20.3991   22.1023 H   0  0  0  0  0  0  0  0  0  0  0  0
   19.7133   19.7519   20.7453 C   0  0  0  0  0  0  0  0  0  0  0  0
   19.6316   19.4957   19.6797 H   0  0  0  0  0  0  0  0  0  0  0  0
   19.1317   20.6737   20.8854 H   0  0  0  0  0  0  0  0  0  0  0  0
   19.0892   18.6075   21.5798 C   0  0  0  0  0  0  0  0  0  0  0  0
   18.0753   18.4152   21.2028 H   0  0  0  0  0  0  0  0  0  0  0  0
   19.6598   17.6824   21.4189 H   0  0  0  0  0  0  0  0  0  0  0  0
   19.0164   18.9186   23.0939 C   0  0  0  0  0  0  0  0  0  0  0  0
   18.4852   19.8678   23.2481 H   0  0  0  0  0  0  0  0  0  0  0  0
   20.0332   19.0433   23.4844 H   0  0  0  0  0  0  0  0  0  0  0  0
   18.3051   17.7909   23.8775 C   0  0  0  0  0  0  0  0  0  0  0  0
   17.3456   17.5673   23.3911 H   0  0  0  0  0  0  0  0  0  0  0  0
   18.9017   16.8705   23.8127 H   0  0  0  0  0  0  0  0  0  0  0  0
   18.0244   18.1198   25.3668 C   0  0  0  0  0  0  0  0  0  0  0  0
   17.4850   17.2654   25.7986 H   0  0  0  0  0  0  0  0  0  0  0  0
   17.3370   18.9739   25.4417 H   0  0  0  0  0  0  0  0  0  0  0  0
   19.2866   18.3781   26.2277 C   0  0  0  0  0  0  0  0  0  0  0  0
   19.0612   18.1087   27.2682 H   0  0  0  0  0  0  0  0  0  0  0  0
   20.1040   17.7189   25.9067 H   0  0  0  0  0  0  0  0  0  0  0  0
   19.7433   19.8499   26.2037 C   0  0  0  0  0  0  0  0  0  0  0  0
   18.9370   20.4891   26.5733 H   0  0  0  0  0  0  0  0  0  0  0  0
   19.9808   20.1571   25.1836 H   0  0  0  0  0  0  0  0  0  0  0  0
   20.9673   20.1027   27.0597 N   0  3  0  0  0  0  0  0  0  0  0  0
   20.8006   19.8649   28.0431 H   0  0  0  0  0  0  0  0  0  0  0  0
   21.2529   21.0878   27.0349 H   0  0  0  0  0  0  0  0  0  0  0  0
   21.7724   19.5496   26.7477 H   0  0  0  0  0  0  0  0  0  0  0  0
  1  2  1  0  0  0  0
  1  3  1  0  0  0  0
  1  4  1  0  0  0  0
  1  5  1  0  0  0  0
  5  6  1  0  0  0  0
  5  7  1  0  0  0  0
  5  8  1  0  0  0  0
  8  9  1  0  0  0  0
  8 10  1  0  0  0  0
  8 11  1  0  0  0  0
 11 12  1  0  0  0  0
 11 13  1  0  0  0  0
 11 14  1  0  0  0  0
 14 15  1  0  0  0  0
 14 16  1  0  0  0  0
 14 17  1  0  0  0  0
 17 18  1  0  0  0  0
 17 19  1  0  0  0  0
 17 20  1  0  0  0  0
 20 21  1  0  0  0  0
 20 22  1  0  0  0  0
 20 23  1  0  0  0  0
 23 24  1  0  0  0  0
 23 25  1  0  0  0  0
 23 26  1  0  0  0  0
 26 27  1  0  0  0  0
 26 28  1  0  0  0  0
 26 29  1  0  0  0  0
M  END
> <VM2 Rank>
235

> <Conf_Id>
2567

> <Probability>
0.01

> <Sum Probability>
99.10

> <Delta G>
3.504

> <G>
61.650

> <E>
23.999

> <-TS>
37.651

> <U+W>
-0.145

> <U>
52.277

> <W>
-52.422

> <W(PB)>
-54.893

> <W(SA)>
2.471

> <Valence>
5.465

> <Coulomb>
46.027

> <VdW>
0.785

> <VdW6>
-9.375

> <VdW12>
10.160

> <Bond>
0.251

> <Angle>
1.379

> <Pdih>
3.835

> <Idih>
0.000

> <Tether>
0.000

$$$$
VeraChem MOL file


 29 28  0  0  0  0  0  0  0  0999 V2000     
   20.2469   17.3460   21.0209 C   0  0  0  0  0  0  0  0  0  0  0  0
   21.2897   17.6811   20.9491 H   0  0  0  0  0  0  0  0  0  0  0  0
   20.0855   16.9347   22.0250 H   0  0  0  0  0  0  0  0  0  0  0  0
   20.1070   16.5274   20.3031 H   0  0  0  0  0  0  0  0  0  0  0  0
   19.2691   18.5039   20.7174 C   0  0  0  0  0  0  0  0  0  0  0  0
   18.2340   18.1521   20.8289 H   0  0  0  0  0  0  0  0  0  0  0  0
   19.3827   18.7960   19.6641 H   0  0  0  0  0  0  0  0  0  0  0  0
   19.4964   19.7510   21.6054 C   0  0  0  0  0  0  0  0  0  0  0  0
   20.5253   20.1132   21.4732 H   0  0  0  0  0  0  0  0  0  0  0  0
   18.8373   20.5553   21.2505 H   0  0  0  0  0  0  0  0  0  0  0  0
   19.2220   19.4961   23.1068 C   0  0  0  0  0  0  0  0  0  0  0  0
   19.9260   18.7420   23.4777 H   0  0  0  0  0  0  0  0  0  0  0  0
   18.2086   19.0905   23.2307 H   0  0  0  0  0  0  0  0  0  0  0  0
   19.3718   20.7875   23.9445 C   0  0  0  0  0  0  0  0  0  0  0  0
   20.4165   21.1260   23.9078 H   0  0  0  0  0  0  0  0  0  0  0  0
   18.7761   21.5859   23.4808 H   0  0  0  0  0  0  0  0  0  0  0  0
   18.9255   20.6511   25.4233 C   0  0  0  0  0  0  0  0  0  0  0  0
   17.8522   20.4210   25.4740 H   0  0  0  0  0  0  0  0  0  0  0  0
   19.0409   21.6362   25.8962 H   0  0  0  0  0  0  0  0  0  0  0  0
   19.7286   19.6197   26.2554 C   0  0  0  0  0  0  0  0  0  0  0  0
   20.7832   19.6267   25.9493 H   0  0  0  0  0  0  0  0  0  0  0  0
   19.7093   19.9296   27.3088 H   0  0  0  0  0  0  0  0  0  0  0  0
   19.1534   18.1927   26.1666 C   0  0  0  0  0  0  0  0  0  0  0  0
   19.1579   17.8452   25.1319 H   0  0  0  0  0  0  0  0  0  0  0  0
   18.1194   18.1924   26.5219 H   0  0  0  0  0  0  0  0  0  0  0  0
   19.9304   17.1900   26.9947 N   0  3  0  0  0  0  0  0  0  0  0  0
   19.9374   17.4405   27.9890 H   0  0  0  0  0  0  0  0  0  0  0  0
   20.9082   17.1221   26.6937 H   0  0  0  0  0  0  0  0  0  0  0  0
   19.5300   16.2478   26.9269 H   0  0  0  0  0  0  0  0  0  0  0  0
  1  2  1  0  0  0  0
  1  3  1  0  0  0  0
  1  4  1  0  0  0  0
  1  5  1  0  0  0  0
  5  6  1  0  0  0  0
  5  7  1  0  0  0  0
  5  8  1  0  0  0  0
  8  9  1  0  0  0  0
  8 10  1  0  0  0  0
  8 11  1  0  0  0  0
 11 12  1  0  0  0  0
 11 13  1  0  0  0  0
 11 14  1  0  0  0  0
 14 15  1  0  0  0  0
 14 16  1  0  0  0  0
 14 17  1  0  0  0  0
 17 18  1  0  0  0  0
 17 19  1  0  0  0  0
 17 20  1  0  0  0  0
 20 21  1  0  0  0  0
 20 22  1  0  0  0  0
 20 23  1  0  0  0  0
 23 24  1  0  0  0  0
 23 25  1  0  0  0  0
 23 26  1  0  0  0  0
 26 27  1  0  0  0  0
 26 28  1  0  0  0  0
 26 29  1  0  0  0  0
M  END
> <VM2 Rank>
236

> <Conf_Id>
2811

> <Probability>
0.01

> <Sum Probability>
99.11

> <Delta G>
3.527

> <G>
61.673

> <E>
24.022

> <-TS>
37.651

> <U+W>
-0.123

> <U>
52.277

> <W>
-52.399

> <W(PB)>
-54.865

> <W(SA)>
2.466

> <Valence>
5.465

> <Coulomb>
46.027

> <VdW>
0.785

> <VdW6>
-9.375

> <VdW12>
10.160

> <Bond>
0.251

> <Angle>
1.379

> <Pdih>
3.835

> <Idih>
0.000

> <Tether>
0.000

$$$$
VeraChem MOL file


 29 28  0  0  0  0  0  0  0  0999 V2000     
   20.8549   18.4799   19.9099 C   0  0  0  0  0  0  0  0  0  0  0  0
   20.3614   18.9835   19.0684 H   0  0  0  0  0  0  0  0  0  0  0  0
   21.7845   19.0194   20.1339 H   0  0  0  0  0  0  0  0  0  0  0  0
   21.1232   17.4662   19.5853 H   0  0  0  0  0  0  0  0  0  0  0  0
   19.9318   18.4298   21.1457 C   0  0  0  0  0  0  0  0  0  0  0  0
   20.4431   17.8845   21.9499 H   0  0  0  0  0  0  0  0  0  0  0  0
   19.0249   17.8599   20.9000 H   0  0  0  0  0  0  0  0  0  0  0  0
   19.5433   19.8486   21.6244 C   0  0  0  0  0  0  0  0  0  0  0  0
   20.4464   20.4004   21.9192 H   0  0  0  0  0  0  0  0  0  0  0  0
   19.1058   20.4019   20.7819 H   0  0  0  0  0  0  0  0  0  0  0  0
   18.5275   19.8522   22.7932 C   0  0  0  0  0  0  0  0  0  0  0  0
   17.6171   19.3171   22.4897 H   0  0  0  0  0  0  0  0  0  0  0  0
   18.2249   20.8905   22.9876 H   0  0  0  0  0  0  0  0  0  0  0  0
   19.0853   19.2374   24.0992 C   0  0  0  0  0  0  0  0  0  0  0  0
   19.3113   18.1743   23.9444 H   0  0  0  0  0  0  0  0  0  0  0  0
   20.0254   19.7427   24.3521 H   0  0  0  0  0  0  0  0  0  0  0  0
   18.0833   19.3796   25.2692 C   0  0  0  0  0  0  0  0  0  0  0  0
   17.1017   19.0084   24.9435 H   0  0  0  0  0  0  0  0  0  0  0  0
   17.9450   20.4436   25.5064 H   0  0  0  0  0  0  0  0  0  0  0  0
   18.4859   18.6130   26.5550 C   0  0  0  0  0  0  0  0  0  0  0  0
   17.6684   18.7203   27.2803 H   0  0  0  0  0  0  0  0  0  0  0  0
   18.5670   17.5374   26.3493 H   0  0  0  0  0  0  0  0  0  0  0  0
   19.7787   19.1217   27.2257 C   0  0  0  0  0  0  0  0  0  0  0  0
   19.7766   18.8207   28.2768 H   0  0  0  0  0  0  0  0  0  0  0  0
   19.8129   20.2138   27.1856 H   0  0  0  0  0  0  0  0  0  0  0  0
   21.0534   18.5756   26.6128 N   0  3  0  0  0  0  0  0  0  0  0  0
   21.8884   18.9397   27.0850 H   0  0  0  0  0  0  0  0  0  0  0  0
   21.1337   18.8217   25.6221 H   0  0  0  0  0  0  0  0  0  0  0  0
   21.0962   17.5531   26.6760 H   0  0  0  0  0  0  0  0  0  0  0  0
  1  2  1  0  0  0  0
  1  3  1  0  0  0  0
  1  4  1  0  0  0  0
  1  5  1  0  0  0  0
  5  6  1  0  0  0  0
  5  7  1  0  0  0  0
  5  8  1  0  0  0  0
  8  9  1  0  0  0  0
  8 10  1  0  0  0  0
  8 11  1  0  0  0  0
 11 12  1  0  0  0  0
 11 13  1  0  0  0  0
 11 14  1  0  0  0  0
 14 15  1  0  0  0  0
 14 16  1  0  0  0  0
 14 17  1  0  0  0  0
 17 18  1  0  0  0  0
 17 19  1  0  0  0  0
 17 20  1  0  0  0  0
 20 21  1  0  0  0  0
 20 22  1  0  0  0  0
 20 23  1  0  0  0  0
 23 24  1  0  0  0  0
 23 25  1  0  0  0  0
 23 26  1  0  0  0  0
 26 27  1  0  0  0  0
 26 28  1  0  0  0  0
 26 29  1  0  0  0  0
M  END
> <VM2 Rank>
237

> <Conf_Id>
2287

> <Probability>
0.01

> <Sum Probability>
99.13

> <Delta G>
3.553

> <G>
61.700

> <E>
24.245

> <-TS>
37.454

> <U+W>
0.101

> <U>
52.272

> <W>
-52.171

> <W(PB)>
-54.657

> <W(SA)>
2.486

> <Valence>
4.707

> <Coulomb>
46.778

> <VdW>
0.786

> <VdW6>
-9.145

> <VdW12>
9.932

> <Bond>
0.241

> <Angle>
1.214

> <Pdih>
3.252

> <Idih>
0.000

> <Tether>
0.000

$$$$
VeraChem MOL file


 29 28  0  0  0  0  0  0  0  0999 V2000     
   21.2716   18.8999   20.5786 C   0  0  0  0  0  0  0  0  0  0  0  0
   21.9449   18.3383   21.2393 H   0  0  0  0  0  0  0  0  0  0  0  0
   20.7513   18.1825   19.9306 H   0  0  0  0  0  0  0  0  0  0  0  0
   21.8877   19.5460   19.9398 H   0  0  0  0  0  0  0  0  0  0  0  0
   20.2667   19.7398   21.3949 C   0  0  0  0  0  0  0  0  0  0  0  0
   19.6308   20.3163   20.7085 H   0  0  0  0  0  0  0  0  0  0  0  0
   20.8146   20.4691   22.0079 H   0  0  0  0  0  0  0  0  0  0  0  0
   19.3857   18.8536   22.3024 C   0  0  0  0  0  0  0  0  0  0  0  0
   18.8363   18.1291   21.6856 H   0  0  0  0  0  0  0  0  0  0  0  0
   20.0323   18.2724   22.9716 H   0  0  0  0  0  0  0  0  0  0  0  0
   18.3810   19.6956   23.1251 C   0  0  0  0  0  0  0  0  0  0  0  0
   17.7610   20.2804   22.4317 H   0  0  0  0  0  0  0  0  0  0  0  0
   18.9123   20.4334   23.7391 H   0  0  0  0  0  0  0  0  0  0  0  0
   17.4404   18.8444   24.0144 C   0  0  0  0  0  0  0  0  0  0  0  0
   16.7256   19.5154   24.5103 H   0  0  0  0  0  0  0  0  0  0  0  0
   16.8363   18.1960   23.3648 H   0  0  0  0  0  0  0  0  0  0  0  0
   18.1256   17.9608   25.0921 C   0  0  0  0  0  0  0  0  0  0  0  0
   18.7617   17.1983   24.6231 H   0  0  0  0  0  0  0  0  0  0  0  0
   17.3324   17.4007   25.6063 H   0  0  0  0  0  0  0  0  0  0  0  0
   18.9263   18.7425   26.1644 C   0  0  0  0  0  0  0  0  0  0  0  0
   18.4087   19.6785   26.4128 H   0  0  0  0  0  0  0  0  0  0  0  0
   18.9477   18.1463   27.0864 H   0  0  0  0  0  0  0  0  0  0  0  0
   20.3817   19.0309   25.7490 C   0  0  0  0  0  0  0  0  0  0  0  0
   20.4036   19.6347   24.8401 H   0  0  0  0  0  0  0  0  0  0  0  0
   20.8978   18.0888   25.5457 H   0  0  0  0  0  0  0  0  0  0  0  0
   21.1649   19.7705   26.8140 N   0  3  0  0  0  0  0  0  0  0  0  0
   20.7454   20.6800   27.0338 H   0  0  0  0  0  0  0  0  0  0  0  0
   22.1317   19.9495   26.5210 H   0  0  0  0  0  0  0  0  0  0  0  0
   21.2117   19.2402   27.6903 H   0  0  0  0  0  0  0  0  0  0  0  0
  1  2  1  0  0  0  0
  1  3  1  0  0  0  0
  1  4  1  0  0  0  0
  1  5  1  0  0  0  0
  5  6  1  0  0  0  0
  5  7  1  0  0  0  0
  5  8  1  0  0  0  0
  8  9  1  0  0  0  0
  8 10  1  0  0  0  0
  8 11  1  0  0  0  0
 11 12  1  0  0  0  0
 11 13  1  0  0  0  0
 11 14  1  0  0  0  0
 14 15  1  0  0  0  0
 14 16  1  0  0  0  0
 14 17  1  0  0  0  0
 17 18  1  0  0  0  0
 17 19  1  0  0  0  0
 17 20  1  0  0  0  0
 20 21  1  0  0  0  0
 20 22  1  0  0  0  0
 20 23  1  0  0  0  0
 23 24  1  0  0  0  0
 23 25  1  0  0  0  0
 23 26  1  0  0  0  0
 26 27  1  0  0  0  0
 26 28  1  0  0  0  0
 26 29  1  0  0  0  0
M  END
> <VM2 Rank>
238

> <Conf_Id>
1871

> <Probability>
0.01

> <Sum Probability>
99.14

> <Delta G>
3.560

> <G>
61.706

> <E>
23.647

> <-TS>
38.059

> <U+W>
-0.497

> <U>
52.109

> <W>
-52.606

> <W(PB)>
-55.079

> <W(SA)>
2.473

> <Valence>
5.483

> <Coulomb>
46.296

> <VdW>
0.329

> <VdW6>
-10.093

> <VdW12>
10.422

> <Bond>
0.261

> <Angle>
1.719

> <Pdih>
3.504

> <Idih>
0.000

> <Tether>
0.000

$$$$
VeraChem MOL file


 29 28  0  0  0  0  0  0  0  0999 V2000     
   19.5384   17.4402   20.6592 C   0  0  0  0  0  0  0  0  0  0  0  0
   19.3038   16.9401   21.6070 H   0  0  0  0  0  0  0  0  0  0  0  0
   18.5942   17.7220   20.1753 H   0  0  0  0  0  0  0  0  0  0  0  0
   20.0402   16.7068   20.0148 H   0  0  0  0  0  0  0  0  0  0  0  0
   20.4412   18.6754   20.8774 C   0  0  0  0  0  0  0  0  0  0  0  0
   20.7481   19.0674   19.8977 H   0  0  0  0  0  0  0  0  0  0  0  0
   21.3646   18.3720   21.3903 H   0  0  0  0  0  0  0  0  0  0  0  0
   19.7499   19.8098   21.6717 C   0  0  0  0  0  0  0  0  0  0  0  0
   20.4191   20.6811   21.6900 H   0  0  0  0  0  0  0  0  0  0  0  0
   18.8420   20.1279   21.1409 H   0  0  0  0  0  0  0  0  0  0  0  0
   19.3944   19.4153   23.1250 C   0  0  0  0  0  0  0  0  0  0  0  0
   20.2996   19.0437   23.6216 H   0  0  0  0  0  0  0  0  0  0  0  0
   18.6615   18.5980   23.1213 H   0  0  0  0  0  0  0  0  0  0  0  0
   18.8200   20.6121   23.9184 C   0  0  0  0  0  0  0  0  0  0  0  0
   19.5962   21.3817   24.0302 H   0  0  0  0  0  0  0  0  0  0  0  0
   18.0141   21.0746   23.3319 H   0  0  0  0  0  0  0  0  0  0  0  0
   18.2517   20.2465   25.3141 C   0  0  0  0  0  0  0  0  0  0  0  0
   17.4002   19.5601   25.2071 H   0  0  0  0  0  0  0  0  0  0  0  0
   17.8395   21.1649   25.7547 H   0  0  0  0  0  0  0  0  0  0  0  0
   19.2857   19.6576   26.3065 C   0  0  0  0  0  0  0  0  0  0  0  0
   20.2594   20.1473   26.1720 H   0  0  0  0  0  0  0  0  0  0  0  0
   18.9601   19.8901   27.3292 H   0  0  0  0  0  0  0  0  0  0  0  0
   19.4335   18.1281   26.1883 C   0  0  0  0  0  0  0  0  0  0  0  0
   19.7633   17.8552   25.1842 H   0  0  0  0  0  0  0  0  0  0  0  0
   18.4665   17.6520   26.3709 H   0  0  0  0  0  0  0  0  0  0  0  0
   20.4292   17.5530   27.1744 N   0  3  0  0  0  0  0  0  0  0  0  0
   20.1598   17.7459   28.1448 H   0  0  0  0  0  0  0  0  0  0  0  0
   21.3685   17.9413   27.0391 H   0  0  0  0  0  0  0  0  0  0  0  0
   20.5104   16.5343   27.0839 H   0  0  0  0  0  0  0  0  0  0  0  0
  1  2  1  0  0  0  0
  1  3  1  0  0  0  0
  1  4  1  0  0  0  0
  1  5  1  0  0  0  0
  5  6  1  0  0  0  0
  5  7  1  0  0  0  0
  5  8  1  0  0  0  0
  8  9  1  0  0  0  0
  8 10  1  0  0  0  0
  8 11  1  0  0  0  0
 11 12  1  0  0  0  0
 11 13  1  0  0  0  0
 11 14  1  0  0  0  0
 14 15  1  0  0  0  0
 14 16  1  0  0  0  0
 14 17  1  0  0  0  0
 17 18  1  0  0  0  0
 17 19  1  0  0  0  0
 17 20  1  0  0  0  0
 20 21  1  0  0  0  0
 20 22  1  0  0  0  0
 20 23  1  0  0  0  0
 23 24  1  0  0  0  0
 23 25  1  0  0  0  0
 23 26  1  0  0  0  0
 26 27  1  0  0  0  0
 26 28  1  0  0  0  0
 26 29  1  0  0  0  0
M  END
> <VM2 Rank>
239

> <Conf_Id>
1187

> <Probability>
0.01

> <Sum Probability>
99.15

> <Delta G>
3.562

> <G>
61.708

> <E>
24.064

> <-TS>
37.645

> <U+W>
-0.081

> <U>
52.128

> <W>
-52.209

> <W(PB)>
-54.718

> <W(SA)>
2.510

> <Valence>
5.466

> <Coulomb>
45.872

> <VdW>
0.790

> <VdW6>
-9.336

> <VdW12>
10.125

> <Bond>
0.248

> <Angle>
1.379

> <Pdih>
3.839

> <Idih>
0.000

> <Tether>
0.000

$$$$
VeraChem MOL file


 29 28  0  0  0  0  0  0  0  0999 V2000     
   19.9627   18.5445   19.3606 C   0  0  0  0  0  0  0  0  0  0  0  0
   21.0503   18.4154   19.4360 H   0  0  0  0  0  0  0  0  0  0  0  0
   19.4931   17.5577   19.4650 H   0  0  0  0  0  0  0  0  0  0  0  0
   19.7368   18.9205   18.3543 H   0  0  0  0  0  0  0  0  0  0  0  0
   19.4445   19.5222   20.4366 C   0  0  0  0  0  0  0  0  0  0  0  0
   18.3605   19.6566   20.3155 H   0  0  0  0  0  0  0  0  0  0  0  0
   19.9054   20.5083   20.2848 H   0  0  0  0  0  0  0  0  0  0  0  0
   19.7506   19.0166   21.8638 C   0  0  0  0  0  0  0  0  0  0  0  0
   19.2938   18.0277   21.9971 H   0  0  0  0  0  0  0  0  0  0  0  0
   20.8353   18.8860   21.9803 H   0  0  0  0  0  0  0  0  0  0  0  0
   19.2279   19.9953   22.9432 C   0  0  0  0  0  0  0  0  0  0  0  0
   18.1355   20.0859   22.8663 H   0  0  0  0  0  0  0  0  0  0  0  0
   19.6346   20.9957   22.7404 H   0  0  0  0  0  0  0  0  0  0  0  0
   19.6162   19.5954   24.3881 C   0  0  0  0  0  0  0  0  0  0  0  0
   20.7061   19.4739   24.4553 H   0  0  0  0  0  0  0  0  0  0  0  0
   19.3478   20.4311   25.0454 H   0  0  0  0  0  0  0  0  0  0  0  0
   18.9088   18.3099   24.8860 C   0  0  0  0  0  0  0  0  0  0  0  0
   19.0969   17.4907   24.1808 H   0  0  0  0  0  0  0  0  0  0  0  0
   17.8216   18.4688   24.8886 H   0  0  0  0  0  0  0  0  0  0  0  0
   19.3626   17.8326   26.2894 C   0  0  0  0  0  0  0  0  0  0  0  0
   18.8564   16.8811   26.5000 H   0  0  0  0  0  0  0  0  0  0  0  0
   20.4374   17.6077   26.2876 H   0  0  0  0  0  0  0  0  0  0  0  0
   19.0276   18.8058   27.4386 C   0  0  0  0  0  0  0  0  0  0  0  0
   18.9882   18.2472   28.3777 H   0  0  0  0  0  0  0  0  0  0  0  0
   18.0458   19.2562   27.2702 H   0  0  0  0  0  0  0  0  0  0  0  0
   20.0431   19.9157   27.6287 N   0  3  0  0  0  0  0  0  0  0  0  0
   20.1373   20.4929   26.7882 H   0  0  0  0  0  0  0  0  0  0  0  0
   20.9737   19.5445   27.8469 H   0  0  0  0  0  0  0  0  0  0  0  0
   19.7827   20.5415   28.3990 H   0  0  0  0  0  0  0  0  0  0  0  0
  1  2  1  0  0  0  0
  1  3  1  0  0  0  0
  1  4  1  0  0  0  0
  1  5  1  0  0  0  0
  5  6  1  0  0  0  0
  5  7  1  0  0  0  0
  5  8  1  0  0  0  0
  8  9  1  0  0  0  0
  8 10  1  0  0  0  0
  8 11  1  0  0  0  0
 11 12  1  0  0  0  0
 11 13  1  0  0  0  0
 11 14  1  0  0  0  0
 14 15  1  0  0  0  0
 14 16  1  0  0  0  0
 14 17  1  0  0  0  0
 17 18  1  0  0  0  0
 17 19  1  0  0  0  0
 17 20  1  0  0  0  0
 20 21  1  0  0  0  0
 20 22  1  0  0  0  0
 20 23  1  0  0  0  0
 23 24  1  0  0  0  0
 23 25  1  0  0  0  0
 23 26  1  0  0  0  0
 26 27  1  0  0  0  0
 26 28  1  0  0  0  0
 26 29  1  0  0  0  0
M  END
> <VM2 Rank>
240

> <Conf_Id>
1542

> <Probability>
0.01

> <Sum Probability>
99.16

> <Delta G>
3.587

> <G>
61.733

> <E>
24.390

> <-TS>
37.343

> <U+W>
0.246

> <U>
51.996

> <W>
-51.750

> <W(PB)>
-54.268

> <W(SA)>
2.518

> <Valence>
4.866

> <Coulomb>
46.253

> <VdW>
0.877

> <VdW6>
-9.001

> <VdW12>
9.878

> <Bond>
0.252

> <Angle>
1.290

> <Pdih>
3.324

> <Idih>
0.000

> <Tether>
0.000

$$$$
VeraChem MOL file


 29 28  0  0  0  0  0  0  0  0999 V2000     
   20.4811   20.1590   20.6717 C   0  0  0  0  0  0  0  0  0  0  0  0
   21.3920   19.5952   20.9111 H   0  0  0  0  0  0  0  0  0  0  0  0
   20.7234   20.8624   19.8647 H   0  0  0  0  0  0  0  0  0  0  0  0
   20.1958   20.7527   21.5488 H   0  0  0  0  0  0  0  0  0  0  0  0
   19.3388   19.2144   20.2390 C   0  0  0  0  0  0  0  0  0  0  0  0
   19.5982   18.7698   19.2681 H   0  0  0  0  0  0  0  0  0  0  0  0
   18.4251   19.8012   20.0704 H   0  0  0  0  0  0  0  0  0  0  0  0
   19.0430   18.0689   21.2405 C   0  0  0  0  0  0  0  0  0  0  0  0
   18.2544   17.4422   20.8016 H   0  0  0  0  0  0  0  0  0  0  0  0
   19.9209   17.4154   21.3368 H   0  0  0  0  0  0  0  0  0  0  0  0
   18.5643   18.5377   22.6393 C   0  0  0  0  0  0  0  0  0  0  0  0
   17.8225   17.8177   23.0117 H   0  0  0  0  0  0  0  0  0  0  0  0
   18.0387   19.4988   22.5545 H   0  0  0  0  0  0  0  0  0  0  0  0
   19.7061   18.6356   23.6803 C   0  0  0  0  0  0  0  0  0  0  0  0
   20.1804   17.6509   23.7934 H   0  0  0  0  0  0  0  0  0  0  0  0
   20.4871   19.3197   23.3281 H   0  0  0  0  0  0  0  0  0  0  0  0
   19.1885   19.1161   25.0548 C   0  0  0  0  0  0  0  0  0  0  0  0
   18.4107   18.4268   25.4097 H   0  0  0  0  0  0  0  0  0  0  0  0
   18.7153   20.1017   24.9438 H   0  0  0  0  0  0  0  0  0  0  0  0
   20.3275   19.2064   26.0976 C   0  0  0  0  0  0  0  0  0  0  0  0
   20.7876   18.2194   26.2390 H   0  0  0  0  0  0  0  0  0  0  0  0
   21.1168   19.8687   25.7176 H   0  0  0  0  0  0  0  0  0  0  0  0
   19.8478   19.7500   27.4571 C   0  0  0  0  0  0  0  0  0  0  0  0
   19.3836   20.7302   27.3187 H   0  0  0  0  0  0  0  0  0  0  0  0
   20.7064   19.8700   28.1234 H   0  0  0  0  0  0  0  0  0  0  0  0
   18.8471   18.8499   28.1547 N   0  3  0  0  0  0  0  0  0  0  0  0
   17.9973   18.7233   27.5960 H   0  0  0  0  0  0  0  0  0  0  0  0
   18.5569   19.2334   29.0609 H   0  0  0  0  0  0  0  0  0  0  0  0
   19.2343   17.9175   28.3337 H   0  0  0  0  0  0  0  0  0  0  0  0
  1  2  1  0  0  0  0
  1  3  1  0  0  0  0
  1  4  1  0  0  0  0
  1  5  1  0  0  0  0
  5  6  1  0  0  0  0
  5  7  1  0  0  0  0
  5  8  1  0  0  0  0
  8  9  1  0  0  0  0
  8 10  1  0  0  0  0
  8 11  1  0  0  0  0
 11 12  1  0  0  0  0
 11 13  1  0  0  0  0
 11 14  1  0  0  0  0
 14 15  1  0  0  0  0
 14 16  1  0  0  0  0
 14 17  1  0  0  0  0
 17 18  1  0  0  0  0
 17 19  1  0  0  0  0
 17 20  1  0  0  0  0
 20 21  1  0  0  0  0
 20 22  1  0  0  0  0
 20 23  1  0  0  0  0
 23 24  1  0  0  0  0
 23 25  1  0  0  0  0
 23 26  1  0  0  0  0
 26 27  1  0  0  0  0
 26 28  1  0  0  0  0
 26 29  1  0  0  0  0
M  END
> <VM2 Rank>
241

> <Conf_Id>
2883

> <Probability>
0.01

> <Sum Probability>
99.18

> <Delta G>
3.597

> <G>
61.743

> <E>
24.100

> <-TS>
37.643

> <U+W>
-0.045

> <U>
51.589

> <W>
-51.634

> <W(PB)>
-54.120

> <W(SA)>
2.486

> <Valence>
5.652

> <Coulomb>
44.997

> <VdW>
0.940

> <VdW6>
-9.012

> <VdW12>
9.952

> <Bond>
0.249

> <Angle>
1.190

> <Pdih>
4.213

> <Idih>
0.000

> <Tether>
0.000

$$$$
VeraChem MOL file


 29 28  0  0  0  0  0  0  0  0999 V2000     
   20.7217   18.0325   20.1165 C   0  0  0  0  0  0  0  0  0  0  0  0
   21.4762   17.5777   20.7715 H   0  0  0  0  0  0  0  0  0  0  0  0
   20.5137   17.3272   19.3015 H   0  0  0  0  0  0  0  0  0  0  0  0
   21.1542   18.9398   19.6749 H   0  0  0  0  0  0  0  0  0  0  0  0
   19.4315   18.3573   20.8986 C   0  0  0  0  0  0  0  0  0  0  0  0
   19.0048   17.4274   21.2999 H   0  0  0  0  0  0  0  0  0  0  0  0
   18.6845   18.7782   20.2110 H   0  0  0  0  0  0  0  0  0  0  0  0
   19.6964   19.3494   22.0524 C   0  0  0  0  0  0  0  0  0  0  0  0
   20.4530   18.9272   22.7240 H   0  0  0  0  0  0  0  0  0  0  0  0
   20.1228   20.2761   21.6442 H   0  0  0  0  0  0  0  0  0  0  0  0
   18.4011   19.6810   22.8331 C   0  0  0  0  0  0  0  0  0  0  0  0
   17.9266   18.7600   23.1986 H   0  0  0  0  0  0  0  0  0  0  0  0
   17.6861   20.1325   22.1315 H   0  0  0  0  0  0  0  0  0  0  0  0
   18.6237   20.6682   24.0085 C   0  0  0  0  0  0  0  0  0  0  0  0
   19.4685   21.3363   23.7914 H   0  0  0  0  0  0  0  0  0  0  0  0
   17.7420   21.3204   24.0782 H   0  0  0  0  0  0  0  0  0  0  0  0
   18.8158   19.9959   25.3923 C   0  0  0  0  0  0  0  0  0  0  0  0
   17.9163   19.4155   25.6375 H   0  0  0  0  0  0  0  0  0  0  0  0
   18.8879   20.7864   26.1522 H   0  0  0  0  0  0  0  0  0  0  0  0
   20.0663   19.0894   25.4922 C   0  0  0  0  0  0  0  0  0  0  0  0
   19.9491   18.2099   24.8467 H   0  0  0  0  0  0  0  0  0  0  0  0
   20.9456   19.6389   25.1310 H   0  0  0  0  0  0  0  0  0  0  0  0
   20.3421   18.6195   26.9332 C   0  0  0  0  0  0  0  0  0  0  0  0
   20.4610   19.4876   27.5871 H   0  0  0  0  0  0  0  0  0  0  0  0
   21.2719   18.0447   26.9564 H   0  0  0  0  0  0  0  0  0  0  0  0
   19.2455   17.7448   27.5082 N   0  3  0  0  0  0  0  0  0  0  0  0
   18.3482   18.2385   27.5460 H   0  0  0  0  0  0  0  0  0  0  0  0
   19.4624   17.4412   28.4639 H   0  0  0  0  0  0  0  0  0  0  0  0
   19.1024   16.8973   26.9493 H   0  0  0  0  0  0  0  0  0  0  0  0
  1  2  1  0  0  0  0
  1  3  1  0  0  0  0
  1  4  1  0  0  0  0
  1  5  1  0  0  0  0
  5  6  1  0  0  0  0
  5  7  1  0  0  0  0
  5  8  1  0  0  0  0
  8  9  1  0  0  0  0
  8 10  1  0  0  0  0
  8 11  1  0  0  0  0
 11 12  1  0  0  0  0
 11 13  1  0  0  0  0
 11 14  1  0  0  0  0
 14 15  1  0  0  0  0
 14 16  1  0  0  0  0
 14 17  1  0  0  0  0
 17 18  1  0  0  0  0
 17 19  1  0  0  0  0
 17 20  1  0  0  0  0
 20 21  1  0  0  0  0
 20 22  1  0  0  0  0
 20 23  1  0  0  0  0
 23 24  1  0  0  0  0
 23 25  1  0  0  0  0
 23 26  1  0  0  0  0
 26 27  1  0  0  0  0
 26 28  1  0  0  0  0
 26 29  1  0  0  0  0
M  END
> <VM2 Rank>
242

> <Conf_Id>
1665

> <Probability>
0.01

> <Sum Probability>
99.19

> <Delta G>
3.607

> <G>
61.753

> <E>
24.080

> <-TS>
37.673

> <U+W>
-0.065

> <U>
52.009

> <W>
-52.074

> <W(PB)>
-54.555

> <W(SA)>
2.480

> <Valence>
5.695

> <Coulomb>
45.464

> <VdW>
0.850

> <VdW6>
-9.160

> <VdW12>
10.010

> <Bond>
0.252

> <Angle>
1.178

> <Pdih>
4.265

> <Idih>
0.000

> <Tether>
0.000

$$$$
VeraChem MOL file


 29 28  0  0  0  0  0  0  0  0999 V2000     
   21.1456   19.2225   20.1432 C   0  0  0  0  0  0  0  0  0  0  0  0
   21.4416   19.9321   19.3597 H   0  0  0  0  0  0  0  0  0  0  0  0
   22.0085   19.0719   20.8050 H   0  0  0  0  0  0  0  0  0  0  0  0
   20.9138   18.2643   19.6600 H   0  0  0  0  0  0  0  0  0  0  0  0
   19.9294   19.7554   20.9298 C   0  0  0  0  0  0  0  0  0  0  0  0
   19.0944   19.9287   20.2366 H   0  0  0  0  0  0  0  0  0  0  0  0
   20.1806   20.7289   21.3736 H   0  0  0  0  0  0  0  0  0  0  0  0
   19.4916   18.7743   22.0395 C   0  0  0  0  0  0  0  0  0  0  0  0
   19.2422   17.8037   21.5891 H   0  0  0  0  0  0  0  0  0  0  0  0
   20.3352   18.5964   22.7166 H   0  0  0  0  0  0  0  0  0  0  0  0
   18.2672   19.3052   22.8247 C   0  0  0  0  0  0  0  0  0  0  0  0
   17.4377   19.4353   22.1159 H   0  0  0  0  0  0  0  0  0  0  0  0
   18.4762   20.3035   23.2330 H   0  0  0  0  0  0  0  0  0  0  0  0
   17.7992   18.3539   23.9568 C   0  0  0  0  0  0  0  0  0  0  0  0
   16.7030   18.4035   24.0131 H   0  0  0  0  0  0  0  0  0  0  0  0
   18.0348   17.3116   23.7016 H   0  0  0  0  0  0  0  0  0  0  0  0
   18.3535   18.6981   25.3633 C   0  0  0  0  0  0  0  0  0  0  0  0
   17.8992   18.0106   26.0902 H   0  0  0  0  0  0  0  0  0  0  0  0
   18.0198   19.7061   25.6440 H   0  0  0  0  0  0  0  0  0  0  0  0
   19.8940   18.6056   25.4813 C   0  0  0  0  0  0  0  0  0  0  0  0
   20.2332   17.6390   25.0861 H   0  0  0  0  0  0  0  0  0  0  0  0
   20.3680   19.3861   24.8730 H   0  0  0  0  0  0  0  0  0  0  0  0
   20.3843   18.7379   26.9358 C   0  0  0  0  0  0  0  0  0  0  0  0
   21.4678   18.5944   26.9685 H   0  0  0  0  0  0  0  0  0  0  0  0
   19.9188   17.9648   27.5530 H   0  0  0  0  0  0  0  0  0  0  0  0
   20.0791   20.0850   27.5606 N   0  3  0  0  0  0  0  0  0  0  0  0
   20.5115   20.8537   27.0378 H   0  0  0  0  0  0  0  0  0  0  0  0
   20.4255   20.1450   28.5244 H   0  0  0  0  0  0  0  0  0  0  0  0
   19.0712   20.2682   27.5915 H   0  0  0  0  0  0  0  0  0  0  0  0
  1  2  1  0  0  0  0
  1  3  1  0  0  0  0
  1  4  1  0  0  0  0
  1  5  1  0  0  0  0
  5  6  1  0  0  0  0
  5  7  1  0  0  0  0
  5  8  1  0  0  0  0
  8  9  1  0  0  0  0
  8 10  1  0  0  0  0
  8 11  1  0  0  0  0
 11 12  1  0  0  0  0
 11 13  1  0  0  0  0
 11 14  1  0  0  0  0
 14 15  1  0  0  0  0
 14 16  1  0  0  0  0
 14 17  1  0  0  0  0
 17 18  1  0  0  0  0
 17 19  1  0  0  0  0
 17 20  1  0  0  0  0
 20 21  1  0  0  0  0
 20 22  1  0  0  0  0
 20 23  1  0  0  0  0
 23 24  1  0  0  0  0
 23 25  1  0  0  0  0
 23 26  1  0  0  0  0
 26 27  1  0  0  0  0
 26 28  1  0  0  0  0
 26 29  1  0  0  0  0
M  END
> <VM2 Rank>
243

> <Conf_Id>
289

> <Probability>
0.01

> <Sum Probability>
99.20

> <Delta G>
3.632

> <G>
61.779

> <E>
24.105

> <-TS>
37.674

> <U+W>
-0.040

> <U>
52.009

> <W>
-52.049

> <W(PB)>
-54.512

> <W(SA)>
2.463

> <Valence>
5.695

> <Coulomb>
45.464

> <VdW>
0.850

> <VdW6>
-9.160

> <VdW12>
10.010

> <Bond>
0.252

> <Angle>
1.178

> <Pdih>
4.265

> <Idih>
0.000

> <Tether>
0.000

$$$$
VeraChem MOL file


 29 28  0  0  0  0  0  0  0  0999 V2000     
   21.1254   19.3070   20.9098 C   0  0  0  0  0  0  0  0  0  0  0  0
   21.8796   19.7058   20.2192 H   0  0  0  0  0  0  0  0  0  0  0  0
   21.2431   19.8355   21.8638 H   0  0  0  0  0  0  0  0  0  0  0  0
   21.3442   18.2432   21.0689 H   0  0  0  0  0  0  0  0  0  0  0  0
   19.7071   19.5037   20.3317 C   0  0  0  0  0  0  0  0  0  0  0  0
   19.6865   19.1071   19.3070 H   0  0  0  0  0  0  0  0  0  0  0  0
   19.4945   20.5785   20.2461 H   0  0  0  0  0  0  0  0  0  0  0  0
   18.5834   18.8153   21.1477 C   0  0  0  0  0  0  0  0  0  0  0  0
   17.6378   18.9830   20.6138 H   0  0  0  0  0  0  0  0  0  0  0  0
   18.7320   17.7267   21.1513 H   0  0  0  0  0  0  0  0  0  0  0  0
   18.4189   19.3414   22.5974 C   0  0  0  0  0  0  0  0  0  0  0  0
   17.3502   19.3287   22.8523 H   0  0  0  0  0  0  0  0  0  0  0  0
   18.7322   20.3930   22.6537 H   0  0  0  0  0  0  0  0  0  0  0  0
   19.1753   18.4943   23.6497 C   0  0  0  0  0  0  0  0  0  0  0  0
   18.8070   17.4597   23.6160 H   0  0  0  0  0  0  0  0  0  0  0  0
   20.2446   18.4529   23.4110 H   0  0  0  0  0  0  0  0  0  0  0  0
   18.9933   19.0578   25.0770 C   0  0  0  0  0  0  0  0  0  0  0  0
   17.9234   19.0876   25.3264 H   0  0  0  0  0  0  0  0  0  0  0  0
   19.3565   20.0938   25.1050 H   0  0  0  0  0  0  0  0  0  0  0  0
   19.7441   18.2086   26.1296 C   0  0  0  0  0  0  0  0  0  0  0  0
   19.4016   17.1671   26.0681 H   0  0  0  0  0  0  0  0  0  0  0  0
   20.8196   18.1986   25.9076 H   0  0  0  0  0  0  0  0  0  0  0  0
   19.5207   18.7111   27.5689 C   0  0  0  0  0  0  0  0  0  0  0  0
   20.0041   18.0267   28.2714 H   0  0  0  0  0  0  0  0  0  0  0  0
   18.4502   18.7280   27.7909 H   0  0  0  0  0  0  0  0  0  0  0  0
   20.0758   20.0987   27.8232 N   0  3  0  0  0  0  0  0  0  0  0  0
   19.6365   20.7995   27.2181 H   0  0  0  0  0  0  0  0  0  0  0  0
   21.0861   20.1413   27.6533 H   0  0  0  0  0  0  0  0  0  0  0  0
   19.9216   20.3987   28.7921 H   0  0  0  0  0  0  0  0  0  0  0  0
  1  2  1  0  0  0  0
  1  3  1  0  0  0  0
  1  4  1  0  0  0  0
  1  5  1  0  0  0  0
  5  6  1  0  0  0  0
  5  7  1  0  0  0  0
  5  8  1  0  0  0  0
  8  9  1  0  0  0  0
  8 10  1  0  0  0  0
  8 11  1  0  0  0  0
 11 12  1  0  0  0  0
 11 13  1  0  0  0  0
 11 14  1  0  0  0  0
 14 15  1  0  0  0  0
 14 16  1  0  0  0  0
 14 17  1  0  0  0  0
 17 18  1  0  0  0  0
 17 19  1  0  0  0  0
 17 20  1  0  0  0  0
 20 21  1  0  0  0  0
 20 22  1  0  0  0  0
 20 23  1  0  0  0  0
 23 24  1  0  0  0  0
 23 25  1  0  0  0  0
 23 26  1  0  0  0  0
 26 27  1  0  0  0  0
 26 28  1  0  0  0  0
 26 29  1  0  0  0  0
M  END
> <VM2 Rank>
244

> <Conf_Id>
2931

> <Probability>
0.01

> <Sum Probability>
99.21

> <Delta G>
3.652

> <G>
61.799

> <E>
24.157

> <-TS>
37.642

> <U+W>
0.012

> <U>
51.733

> <W>
-51.721

> <W(PB)>
-54.199

> <W(SA)>
2.477

> <Valence>
5.652

> <Coulomb>
45.148

> <VdW>
0.934

> <VdW6>
-9.018

> <VdW12>
9.952

> <Bond>
0.249

> <Angle>
1.192

> <Pdih>
4.211

> <Idih>
0.000

> <Tether>
0.000

$$$$
VeraChem MOL file


 29 28  0  0  0  0  0  0  0  0999 V2000     
   19.1270   17.6596   20.1755 C   0  0  0  0  0  0  0  0  0  0  0  0
   18.6897   16.6597   20.2940 H   0  0  0  0  0  0  0  0  0  0  0  0
   18.5376   18.1975   19.4215 H   0  0  0  0  0  0  0  0  0  0  0  0
   20.1473   17.5378   19.7891 H   0  0  0  0  0  0  0  0  0  0  0  0
   19.1304   18.4156   21.5209 C   0  0  0  0  0  0  0  0  0  0  0  0
   19.6966   17.8276   22.2552 H   0  0  0  0  0  0  0  0  0  0  0  0
   18.1005   18.4989   21.8950 H   0  0  0  0  0  0  0  0  0  0  0  0
   19.7528   19.8236   21.3821 C   0  0  0  0  0  0  0  0  0  0  0  0
   20.8085   19.7284   21.0930 H   0  0  0  0  0  0  0  0  0  0  0  0
   19.2570   20.3527   20.5566 H   0  0  0  0  0  0  0  0  0  0  0  0
   19.6447   20.7014   22.6556 C   0  0  0  0  0  0  0  0  0  0  0  0
   18.5893   20.8937   22.8932 H   0  0  0  0  0  0  0  0  0  0  0  0
   20.0771   21.6830   22.4171 H   0  0  0  0  0  0  0  0  0  0  0  0
   20.3831   20.1379   23.8976 C   0  0  0  0  0  0  0  0  0  0  0  0
   21.2344   19.5195   23.5812 H   0  0  0  0  0  0  0  0  0  0  0  0
   20.8120   20.9799   24.4584 H   0  0  0  0  0  0  0  0  0  0  0  0
   19.4608   19.3427   24.8540 C   0  0  0  0  0  0  0  0  0  0  0  0
   18.9827   18.5112   24.3228 H   0  0  0  0  0  0  0  0  0  0  0  0
   18.6523   20.0000   25.2003 H   0  0  0  0  0  0  0  0  0  0  0  0
   20.2404   18.7884   26.0696 C   0  0  0  0  0  0  0  0  0  0  0  0
   21.0702   18.1628   25.7143 H   0  0  0  0  0  0  0  0  0  0  0  0
   20.6907   19.6139   26.6368 H   0  0  0  0  0  0  0  0  0  0  0  0
   19.3582   17.9412   27.0065 C   0  0  0  0  0  0  0  0  0  0  0  0
   19.9784   17.5091   27.7965 H   0  0  0  0  0  0  0  0  0  0  0  0
   18.9034   17.1220   26.4432 H   0  0  0  0  0  0  0  0  0  0  0  0
   18.2467   18.7277   27.6733 N   0  3  0  0  0  0  0  0  0  0  0  0
   18.6139   19.5005   28.2382 H   0  0  0  0  0  0  0  0  0  0  0  0
   17.6860   18.1388   28.2988 H   0  0  0  0  0  0  0  0  0  0  0  0
   17.6040   19.1331   26.9858 H   0  0  0  0  0  0  0  0  0  0  0  0
  1  2  1  0  0  0  0
  1  3  1  0  0  0  0
  1  4  1  0  0  0  0
  1  5  1  0  0  0  0
  5  6  1  0  0  0  0
  5  7  1  0  0  0  0
  5  8  1  0  0  0  0
  8  9  1  0  0  0  0
  8 10  1  0  0  0  0
  8 11  1  0  0  0  0
 11 12  1  0  0  0  0
 11 13  1  0  0  0  0
 11 14  1  0  0  0  0
 14 15  1  0  0  0  0
 14 16  1  0  0  0  0
 14 17  1  0  0  0  0
 17 18  1  0  0  0  0
 17 19  1  0  0  0  0
 17 20  1  0  0  0  0
 20 21  1  0  0  0  0
 20 22  1  0  0  0  0
 20 23  1  0  0  0  0
 23 24  1  0  0  0  0
 23 25  1  0  0  0  0
 23 26  1  0  0  0  0
 26 27  1  0  0  0  0
 26 28  1  0  0  0  0
 26 29  1  0  0  0  0
M  END
> <VM2 Rank>
245

> <Conf_Id>
284

> <Probability>
0.01

> <Sum Probability>
99.22

> <Delta G>
3.672

> <G>
61.818

> <E>
24.149

> <-TS>
37.669

> <U+W>
0.005

> <U>
52.020

> <W>
-52.016

> <W(PB)>
-54.501

> <W(SA)>
2.485

> <Valence>
5.715

> <Coulomb>
45.417

> <VdW>
0.888

> <VdW6>
-9.127

> <VdW12>
10.016

> <Bond>
0.252

> <Angle>
1.209

> <Pdih>
4.254

> <Idih>
0.000

> <Tether>
0.000

$$$$
VeraChem MOL file


 29 28  0  0  0  0  0  0  0  0999 V2000     
   20.1437   20.5170   20.2393 C   0  0  0  0  0  0  0  0  0  0  0  0
   19.3577   20.5025   19.4731 H   0  0  0  0  0  0  0  0  0  0  0  0
   20.4345   21.5627   20.4036 H   0  0  0  0  0  0  0  0  0  0  0  0
   21.0171   19.9822   19.8436 H   0  0  0  0  0  0  0  0  0  0  0  0
   19.6501   19.8759   21.5536 C   0  0  0  0  0  0  0  0  0  0  0  0
   18.7939   20.4470   21.9387 H   0  0  0  0  0  0  0  0  0  0  0  0
   20.4501   19.9446   22.3024 H   0  0  0  0  0  0  0  0  0  0  0  0
   19.2456   18.3981   21.3503 C   0  0  0  0  0  0  0  0  0  0  0  0
   18.5387   18.3342   20.5115 H   0  0  0  0  0  0  0  0  0  0  0  0
   20.1282   17.8166   21.0504 H   0  0  0  0  0  0  0  0  0  0  0  0
   18.5893   17.7361   22.5894 C   0  0  0  0  0  0  0  0  0  0  0  0
   18.3082   16.7124   22.3061 H   0  0  0  0  0  0  0  0  0  0  0  0
   17.6464   18.2442   22.8340 H   0  0  0  0  0  0  0  0  0  0  0  0
   19.5001   17.6569   23.8422 C   0  0  0  0  0  0  0  0  0  0  0  0
   19.2929   16.7118   24.3632 H   0  0  0  0  0  0  0  0  0  0  0  0
   20.5551   17.6105   23.5387 H   0  0  0  0  0  0  0  0  0  0  0  0
   19.2739   18.8172   24.8422 C   0  0  0  0  0  0  0  0  0  0  0  0
   18.2270   18.8054   25.1734 H   0  0  0  0  0  0  0  0  0  0  0  0
   19.4361   19.7841   24.3512 H   0  0  0  0  0  0  0  0  0  0  0  0
   20.2110   18.7058   26.0679 C   0  0  0  0  0  0  0  0  0  0  0  0
   20.0302   17.7598   26.5957 H   0  0  0  0  0  0  0  0  0  0  0  0
   21.2543   18.6798   25.7262 H   0  0  0  0  0  0  0  0  0  0  0  0
   20.0490   19.8819   27.0498 C   0  0  0  0  0  0  0  0  0  0  0  0
   20.2222   20.8257   26.5258 H   0  0  0  0  0  0  0  0  0  0  0  0
   20.7914   19.7934   27.8477 H   0  0  0  0  0  0  0  0  0  0  0  0
   18.6812   19.9490   27.7003 N   0  3  0  0  0  0  0  0  0  0  0  0
   17.9367   20.0684   27.0063 H   0  0  0  0  0  0  0  0  0  0  0  0
   18.6098   20.7345   28.3564 H   0  0  0  0  0  0  0  0  0  0  0  0
   18.4694   19.0964   28.2290 H   0  0  0  0  0  0  0  0  0  0  0  0
  1  2  1  0  0  0  0
  1  3  1  0  0  0  0
  1  4  1  0  0  0  0
  1  5  1  0  0  0  0
  5  6  1  0  0  0  0
  5  7  1  0  0  0  0
  5  8  1  0  0  0  0
  8  9  1  0  0  0  0
  8 10  1  0  0  0  0
  8 11  1  0  0  0  0
 11 12  1  0  0  0  0
 11 13  1  0  0  0  0
 11 14  1  0  0  0  0
 14 15  1  0  0  0  0
 14 16  1  0  0  0  0
 14 17  1  0  0  0  0
 17 18  1  0  0  0  0
 17 19  1  0  0  0  0
 17 20  1  0  0  0  0
 20 21  1  0  0  0  0
 20 22  1  0  0  0  0
 20 23  1  0  0  0  0
 23 24  1  0  0  0  0
 23 25  1  0  0  0  0
 23 26  1  0  0  0  0
 26 27  1  0  0  0  0
 26 28  1  0  0  0  0
 26 29  1  0  0  0  0
M  END
> <VM2 Rank>
246

> <Conf_Id>
1619

> <Probability>
0.01

> <Sum Probability>
99.24

> <Delta G>
3.675

> <G>
61.821

> <E>
24.152

> <-TS>
37.669

> <U+W>
0.008

> <U>
52.021

> <W>
-52.013

> <W(PB)>
-54.474

> <W(SA)>
2.462

> <Valence>
5.715

> <Coulomb>
45.417

> <VdW>
0.888

> <VdW6>
-9.127

> <VdW12>
10.015

> <Bond>
0.252

> <Angle>
1.209

> <Pdih>
4.254

> <Idih>
0.000

> <Tether>
0.000

$$$$
VeraChem MOL file


 29 28  0  0  0  0  0  0  0  0999 V2000     
   19.2022   18.3364   19.5647 C   0  0  0  0  0  0  0  0  0  0  0  0
   20.0257   17.6108   19.5408 H   0  0  0  0  0  0  0  0  0  0  0  0
   18.3797   17.9330   18.9599 H   0  0  0  0  0  0  0  0  0  0  0  0
   19.5485   19.2626   19.0879 H   0  0  0  0  0  0  0  0  0  0  0  0
   18.7362   18.5987   21.0124 C   0  0  0  0  0  0  0  0  0  0  0  0
   18.3646   17.6620   21.4510 H   0  0  0  0  0  0  0  0  0  0  0  0
   17.8911   19.3012   21.0017 H   0  0  0  0  0  0  0  0  0  0  0  0
   19.8763   19.1676   21.8858 C   0  0  0  0  0  0  0  0  0  0  0  0
   20.7193   18.4628   21.8920 H   0  0  0  0  0  0  0  0  0  0  0  0
   20.2463   20.1019   21.4413 H   0  0  0  0  0  0  0  0  0  0  0  0
   19.4136   19.4316   23.3363 C   0  0  0  0  0  0  0  0  0  0  0  0
   19.0351   18.4962   23.7621 H   0  0  0  0  0  0  0  0  0  0  0  0
   18.5743   20.1405   23.3259 H   0  0  0  0  0  0  0  0  0  0  0  0
   20.5601   20.0017   24.2070 C   0  0  0  0  0  0  0  0  0  0  0  0
   21.4050   19.2999   24.2321 H   0  0  0  0  0  0  0  0  0  0  0  0
   20.9366   20.9114   23.7190 H   0  0  0  0  0  0  0  0  0  0  0  0
   20.1352   20.3734   25.6518 C   0  0  0  0  0  0  0  0  0  0  0  0
   19.1221   20.7969   25.6562 H   0  0  0  0  0  0  0  0  0  0  0  0
   20.7912   21.1853   25.9950 H   0  0  0  0  0  0  0  0  0  0  0  0
   20.2536   19.2213   26.6852 C   0  0  0  0  0  0  0  0  0  0  0  0
   21.2904   18.8604   26.7065 H   0  0  0  0  0  0  0  0  0  0  0  0
   20.0534   19.6220   27.6878 H   0  0  0  0  0  0  0  0  0  0  0  0
   19.3191   18.0212   26.4413 C   0  0  0  0  0  0  0  0  0  0  0  0
   19.4798   17.2739   27.2230 H   0  0  0  0  0  0  0  0  0  0  0  0
   19.5542   17.5573   25.4808 H   0  0  0  0  0  0  0  0  0  0  0  0
   17.8479   18.3861   26.4505 N   0  3  0  0  0  0  0  0  0  0  0  0
   17.6270   19.0734   25.7234 H   0  0  0  0  0  0  0  0  0  0  0  0
   17.5642   18.7920   27.3483 H   0  0  0  0  0  0  0  0  0  0  0  0
   17.2507   17.5678   26.2887 H   0  0  0  0  0  0  0  0  0  0  0  0
  1  2  1  0  0  0  0
  1  3  1  0  0  0  0
  1  4  1  0  0  0  0
  1  5  1  0  0  0  0
  5  6  1  0  0  0  0
  5  7  1  0  0  0  0
  5  8  1  0  0  0  0
  8  9  1  0  0  0  0
  8 10  1  0  0  0  0
  8 11  1  0  0  0  0
 11 12  1  0  0  0  0
 11 13  1  0  0  0  0
 11 14  1  0  0  0  0
 14 15  1  0  0  0  0
 14 16  1  0  0  0  0
 14 17  1  0  0  0  0
 17 18  1  0  0  0  0
 17 19  1  0  0  0  0
 17 20  1  0  0  0  0
 20 21  1  0  0  0  0
 20 22  1  0  0  0  0
 20 23  1  0  0  0  0
 23 24  1  0  0  0  0
 23 25  1  0  0  0  0
 23 26  1  0  0  0  0
 26 27  1  0  0  0  0
 26 28  1  0  0  0  0
 26 29  1  0  0  0  0
M  END
> <VM2 Rank>
247

> <Conf_Id>
2335

> <Probability>
0.01

> <Sum Probability>
99.25

> <Delta G>
3.690

> <G>
61.836

> <E>
24.130

> <-TS>
37.706

> <U+W>
-0.015

> <U>
52.436

> <W>
-52.451

> <W(PB)>
-54.918

> <W(SA)>
2.466

> <Valence>
5.286

> <Coulomb>
46.570

> <VdW>
0.581

> <VdW6>
-9.434

> <VdW12>
10.015

> <Bond>
0.255

> <Angle>
1.437

> <Pdih>
3.594

> <Idih>
0.000

> <Tether>
0.000

$$$$
VeraChem MOL file


 29 28  0  0  0  0  0  0  0  0999 V2000     
   19.6754   18.6124   19.4062 C   0  0  0  0  0  0  0  0  0  0  0  0
   19.6352   17.5217   19.2875 H   0  0  0  0  0  0  0  0  0  0  0  0
   19.0523   19.0597   18.6209 H   0  0  0  0  0  0  0  0  0  0  0  0
   20.7111   18.9366   19.2405 H   0  0  0  0  0  0  0  0  0  0  0  0
   19.1786   19.0377   20.8042 C   0  0  0  0  0  0  0  0  0  0  0  0
   18.1324   18.7255   20.9290 H   0  0  0  0  0  0  0  0  0  0  0  0
   19.1937   20.1335   20.8678 H   0  0  0  0  0  0  0  0  0  0  0  0
   20.0453   18.4214   21.9280 C   0  0  0  0  0  0  0  0  0  0  0  0
   20.0791   17.3318   21.7907 H   0  0  0  0  0  0  0  0  0  0  0  0
   21.0814   18.7754   21.8358 H   0  0  0  0  0  0  0  0  0  0  0  0
   19.5192   18.7169   23.3543 C   0  0  0  0  0  0  0  0  0  0  0  0
   20.0973   18.1016   24.0550 H   0  0  0  0  0  0  0  0  0  0  0  0
   18.4727   18.3926   23.4356 H   0  0  0  0  0  0  0  0  0  0  0  0
   19.6461   20.2048   23.7660 C   0  0  0  0  0  0  0  0  0  0  0  0
   20.7062   20.4932   23.7641 H   0  0  0  0  0  0  0  0  0  0  0  0
   19.1566   20.8377   23.0154 H   0  0  0  0  0  0  0  0  0  0  0  0
   19.0225   20.5455   25.1446 C   0  0  0  0  0  0  0  0  0  0  0  0
   17.9386   20.3662   25.1229 H   0  0  0  0  0  0  0  0  0  0  0  0
   19.1413   21.6264   25.3030 H   0  0  0  0  0  0  0  0  0  0  0  0
   19.6580   19.8093   26.3508 C   0  0  0  0  0  0  0  0  0  0  0  0
   20.7365   19.6801   26.1894 H   0  0  0  0  0  0  0  0  0  0  0  0
   19.5515   20.4418   27.2422 H   0  0  0  0  0  0  0  0  0  0  0  0
   18.9923   18.4512   26.6468 C   0  0  0  0  0  0  0  0  0  0  0  0
   19.0758   17.7910   25.7816 H   0  0  0  0  0  0  0  0  0  0  0  0
   17.9305   18.6029   26.8584 H   0  0  0  0  0  0  0  0  0  0  0  0
   19.6065   17.7386   27.8341 N   0  3  0  0  0  0  0  0  0  0  0  0
   20.6021   17.5417   27.6882 H   0  0  0  0  0  0  0  0  0  0  0  0
   19.1474   16.8398   28.0184 H   0  0  0  0  0  0  0  0  0  0  0  0
   19.5313   18.2938   28.6929 H   0  0  0  0  0  0  0  0  0  0  0  0
  1  2  1  0  0  0  0
  1  3  1  0  0  0  0
  1  4  1  0  0  0  0
  1  5  1  0  0  0  0
  5  6  1  0  0  0  0
  5  7  1  0  0  0  0
  5  8  1  0  0  0  0
  8  9  1  0  0  0  0
  8 10  1  0  0  0  0
  8 11  1  0  0  0  0
 11 12  1  0  0  0  0
 11 13  1  0  0  0  0
 11 14  1  0  0  0  0
 14 15  1  0  0  0  0
 14 16  1  0  0  0  0
 14 17  1  0  0  0  0
 17 18  1  0  0  0  0
 17 19  1  0  0  0  0
 17 20  1  0  0  0  0
 20 21  1  0  0  0  0
 20 22  1  0  0  0  0
 20 23  1  0  0  0  0
 23 24  1  0  0  0  0
 23 25  1  0  0  0  0
 23 26  1  0  0  0  0
 26 27  1  0  0  0  0
 26 28  1  0  0  0  0
 26 29  1  0  0  0  0
M  END
> <VM2 Rank>
248

> <Conf_Id>
1328

> <Probability>
0.01

> <Sum Probability>
99.26

> <Delta G>
3.717

> <G>
61.863

> <E>
24.303

> <-TS>
37.560

> <U+W>
0.159

> <U>
52.229

> <W>
-52.071

> <W(PB)>
-54.579

> <W(SA)>
2.509

> <Valence>
5.678

> <Coulomb>
45.657

> <VdW>
0.895

> <VdW6>
-9.188

> <VdW12>
10.082

> <Bond>
0.260

> <Angle>
1.481

> <Pdih>
3.936

> <Idih>
0.000

> <Tether>
0.000

$$$$
VeraChem MOL file


 29 28  0  0  0  0  0  0  0  0999 V2000     
   20.2545   18.6663   19.5080 C   0  0  0  0  0  0  0  0  0  0  0  0
   19.7905   17.7226   19.1928 H   0  0  0  0  0  0  0  0  0  0  0  0
   20.1837   19.3726   18.6706 H   0  0  0  0  0  0  0  0  0  0  0  0
   21.3186   18.4769   19.7003 H   0  0  0  0  0  0  0  0  0  0  0  0
   19.5578   19.2362   20.7617 C   0  0  0  0  0  0  0  0  0  0  0  0
   18.5034   19.4425   20.5304 H   0  0  0  0  0  0  0  0  0  0  0  0
   20.0217   20.1972   21.0206 H   0  0  0  0  0  0  0  0  0  0  0  0
   19.6489   18.2593   21.9577 C   0  0  0  0  0  0  0  0  0  0  0  0
   19.2550   17.2809   21.6494 H   0  0  0  0  0  0  0  0  0  0  0  0
   20.7025   18.0970   22.2237 H   0  0  0  0  0  0  0  0  0  0  0  0
   18.8654   18.7310   23.2073 C   0  0  0  0  0  0  0  0  0  0  0  0
   18.8839   17.9217   23.9460 H   0  0  0  0  0  0  0  0  0  0  0  0
   17.8089   18.8754   22.9427 H   0  0  0  0  0  0  0  0  0  0  0  0
   19.4261   20.0351   23.8316 C   0  0  0  0  0  0  0  0  0  0  0  0
   20.5092   19.9475   23.9935 H   0  0  0  0  0  0  0  0  0  0  0  0
   19.2903   20.8527   23.1116 H   0  0  0  0  0  0  0  0  0  0  0  0
   18.7227   20.4422   25.1525 C   0  0  0  0  0  0  0  0  0  0  0  0
   17.6676   20.1359   25.1322 H   0  0  0  0  0  0  0  0  0  0  0  0
   18.7129   21.5394   25.2115 H   0  0  0  0  0  0  0  0  0  0  0  0
   19.4094   19.9120   26.4364 C   0  0  0  0  0  0  0  0  0  0  0  0
   20.4372   20.2954   26.4867 H   0  0  0  0  0  0  0  0  0  0  0  0
   18.8827   20.3194   27.3097 H   0  0  0  0  0  0  0  0  0  0  0  0
   19.4320   18.3770   26.5395 C   0  0  0  0  0  0  0  0  0  0  0  0
   20.0256   17.9627   25.7207 H   0  0  0  0  0  0  0  0  0  0  0  0
   18.4134   17.9872   26.4626 H   0  0  0  0  0  0  0  0  0  0  0  0
   20.0273   17.8789   27.8404 N   0  3  0  0  0  0  0  0  0  0  0  0
   20.9965   18.1915   27.9610 H   0  0  0  0  0  0  0  0  0  0  0  0
   20.0354   16.8541   27.8882 H   0  0  0  0  0  0  0  0  0  0  0  0
   19.4993   18.2117   28.6539 H   0  0  0  0  0  0  0  0  0  0  0  0
  1  2  1  0  0  0  0
  1  3  1  0  0  0  0
  1  4  1  0  0  0  0
  1  5  1  0  0  0  0
  5  6  1  0  0  0  0
  5  7  1  0  0  0  0
  5  8  1  0  0  0  0
  8  9  1  0  0  0  0
  8 10  1  0  0  0  0
  8 11  1  0  0  0  0
 11 12  1  0  0  0  0
 11 13  1  0  0  0  0
 11 14  1  0  0  0  0
 14 15  1  0  0  0  0
 14 16  1  0  0  0  0
 14 17  1  0  0  0  0
 17 18  1  0  0  0  0
 17 19  1  0  0  0  0
 17 20  1  0  0  0  0
 20 21  1  0  0  0  0
 20 22  1  0  0  0  0
 20 23  1  0  0  0  0
 23 24  1  0  0  0  0
 23 25  1  0  0  0  0
 23 26  1  0  0  0  0
 26 27  1  0  0  0  0
 26 28  1  0  0  0  0
 26 29  1  0  0  0  0
M  END
> <VM2 Rank>
249

> <Conf_Id>
605

> <Probability>
0.01

> <Sum Probability>
99.27

> <Delta G>
3.726

> <G>
61.872

> <E>
24.381

> <-TS>
37.491

> <U+W>
0.237

> <U>
52.135

> <W>
-51.898

> <W(PB)>
-54.405

> <W(SA)>
2.507

> <Valence>
5.744

> <Coulomb>
45.466

> <VdW>
0.925

> <VdW6>
-9.090

> <VdW12>
10.015

> <Bond>
0.268

> <Angle>
1.306

> <Pdih>
4.170

> <Idih>
0.000

> <Tether>
0.000

$$$$
VeraChem MOL file


 29 28  0  0  0  0  0  0  0  0999 V2000     
   21.1535   20.1584   20.7971 C   0  0  0  0  0  0  0  0  0  0  0  0
   21.1145   19.7550   19.7769 H   0  0  0  0  0  0  0  0  0  0  0  0
   21.3792   21.2304   20.7273 H   0  0  0  0  0  0  0  0  0  0  0  0
   21.9842   19.6727   21.3255 H   0  0  0  0  0  0  0  0  0  0  0  0
   19.8178   19.9297   21.5355 C   0  0  0  0  0  0  0  0  0  0  0  0
   19.0143   20.4559   21.0014 H   0  0  0  0  0  0  0  0  0  0  0  0
   19.8763   20.3823   22.5326 H   0  0  0  0  0  0  0  0  0  0  0  0
   19.4724   18.4243   21.6358 C   0  0  0  0  0  0  0  0  0  0  0  0
   19.3834   18.0263   20.6155 H   0  0  0  0  0  0  0  0  0  0  0  0
   20.2976   17.8714   22.1053 H   0  0  0  0  0  0  0  0  0  0  0  0
   18.1460   18.1446   22.3895 C   0  0  0  0  0  0  0  0  0  0  0  0
   17.6483   17.2948   21.9022 H   0  0  0  0  0  0  0  0  0  0  0  0
   17.4576   18.9936   22.2780 H   0  0  0  0  0  0  0  0  0  0  0  0
   18.3144   17.7884   23.8892 C   0  0  0  0  0  0  0  0  0  0  0  0
   17.3235   17.5479   24.2985 H   0  0  0  0  0  0  0  0  0  0  0  0
   18.9135   16.8719   23.9808 H   0  0  0  0  0  0  0  0  0  0  0  0
   18.9547   18.9075   24.7428 C   0  0  0  0  0  0  0  0  0  0  0  0
   18.4081   19.8479   24.5868 H   0  0  0  0  0  0  0  0  0  0  0  0
   19.9876   19.0710   24.4114 H   0  0  0  0  0  0  0  0  0  0  0  0
   18.9508   18.5532   26.2486 C   0  0  0  0  0  0  0  0  0  0  0  0
   17.9205   18.3574   26.5740 H   0  0  0  0  0  0  0  0  0  0  0  0
   19.5149   17.6264   26.4186 H   0  0  0  0  0  0  0  0  0  0  0  0
   19.5328   19.6784   27.1258 C   0  0  0  0  0  0  0  0  0  0  0  0
   19.4245   19.4090   28.1800 H   0  0  0  0  0  0  0  0  0  0  0  0
   18.9788   20.6048   26.9517 H   0  0  0  0  0  0  0  0  0  0  0  0
   21.0017   19.9533   26.8706 N   0  3  0  0  0  0  0  0  0  0  0  0
   21.5789   19.1230   27.0405 H   0  0  0  0  0  0  0  0  0  0  0  0
   21.3606   20.6975   27.4789 H   0  0  0  0  0  0  0  0  0  0  0  0
   21.1702   20.2478   25.9037 H   0  0  0  0  0  0  0  0  0  0  0  0
  1  2  1  0  0  0  0
  1  3  1  0  0  0  0
  1  4  1  0  0  0  0
  1  5  1  0  0  0  0
  5  6  1  0  0  0  0
  5  7  1  0  0  0  0
  5  8  1  0  0  0  0
  8  9  1  0  0  0  0
  8 10  1  0  0  0  0
  8 11  1  0  0  0  0
 11 12  1  0  0  0  0
 11 13  1  0  0  0  0
 11 14  1  0  0  0  0
 14 15  1  0  0  0  0
 14 16  1  0  0  0  0
 14 17  1  0  0  0  0
 17 18  1  0  0  0  0
 17 19  1  0  0  0  0
 17 20  1  0  0  0  0
 20 21  1  0  0  0  0
 20 22  1  0  0  0  0
 20 23  1  0  0  0  0
 23 24  1  0  0  0  0
 23 25  1  0  0  0  0
 23 26  1  0  0  0  0
 26 27  1  0  0  0  0
 26 28  1  0  0  0  0
 26 29  1  0  0  0  0
M  END
> <VM2 Rank>
250

> <Conf_Id>
313

> <Probability>
0.01

> <Sum Probability>
99.28

> <Delta G>
3.742

> <G>
61.888

> <E>
24.204

> <-TS>
37.684

> <U+W>
0.059

> <U>
52.464

> <W>
-52.405

> <W(PB)>
-54.872

> <W(SA)>
2.467

> <Valence>
5.708

> <Coulomb>
45.914

> <VdW>
0.842

> <VdW6>
-9.209

> <VdW12>
10.051

> <Bond>
0.252

> <Angle>
1.191

> <Pdih>
4.265

> <Idih>
0.000

> <Tether>
0.000

$$$$
VeraChem MOL file


 29 28  0  0  0  0  0  0  0  0999 V2000     
   20.3823   17.8513   19.9808 C   0  0  0  0  0  0  0  0  0  0  0  0
   19.9239   18.3419   19.1122 H   0  0  0  0  0  0  0  0  0  0  0  0
   21.4351   18.1584   20.0309 H   0  0  0  0  0  0  0  0  0  0  0  0
   20.3549   16.7675   19.8086 H   0  0  0  0  0  0  0  0  0  0  0  0
   19.6363   18.2153   21.2819 C   0  0  0  0  0  0  0  0  0  0  0  0
   20.0972   17.6745   22.1187 H   0  0  0  0  0  0  0  0  0  0  0  0
   18.5951   17.8703   21.2133 H   0  0  0  0  0  0  0  0  0  0  0  0
   19.6654   19.7390   21.5479 C   0  0  0  0  0  0  0  0  0  0  0  0
   20.7045   20.0741   21.6706 H   0  0  0  0  0  0  0  0  0  0  0  0
   19.2756   20.2622   20.6638 H   0  0  0  0  0  0  0  0  0  0  0  0
   18.8315   20.1707   22.7792 C   0  0  0  0  0  0  0  0  0  0  0  0
   17.7899   19.8455   22.6505 H   0  0  0  0  0  0  0  0  0  0  0  0
   18.8097   21.2687   22.8145 H   0  0  0  0  0  0  0  0  0  0  0  0
   19.3850   19.6335   24.1208 C   0  0  0  0  0  0  0  0  0  0  0  0
   19.3417   18.5385   24.1149 H   0  0  0  0  0  0  0  0  0  0  0  0
   20.4399   19.9234   24.2231 H   0  0  0  0  0  0  0  0  0  0  0  0
   18.5787   20.1705   25.3270 C   0  0  0  0  0  0  0  0  0  0  0  0
   17.5502   19.7866   25.2794 H   0  0  0  0  0  0  0  0  0  0  0  0
   18.5015   21.2636   25.2467 H   0  0  0  0  0  0  0  0  0  0  0  0
   19.1917   19.8324   26.7100 C   0  0  0  0  0  0  0  0  0  0  0  0
   20.1951   20.2692   26.8005 H   0  0  0  0  0  0  0  0  0  0  0  0
   18.5793   20.3229   27.4783 H   0  0  0  0  0  0  0  0  0  0  0  0
   19.2399   18.3258   27.0385 C   0  0  0  0  0  0  0  0  0  0  0  0
   18.3266   17.8393   26.6856 H   0  0  0  0  0  0  0  0  0  0  0  0
   19.2944   18.1993   28.1231 H   0  0  0  0  0  0  0  0  0  0  0  0
   20.4333   17.5997   26.4490 N   0  3  0  0  0  0  0  0  0  0  0  0
   21.3187   17.9820   26.7972 H   0  0  0  0  0  0  0  0  0  0  0  0
   20.4538   17.6701   25.4278 H   0  0  0  0  0  0  0  0  0  0  0  0
   20.4254   16.6012   26.6852 H   0  0  0  0  0  0  0  0  0  0  0  0
  1  2  1  0  0  0  0
  1  3  1  0  0  0  0
  1  4  1  0  0  0  0
  1  5  1  0  0  0  0
  5  6  1  0  0  0  0
  5  7  1  0  0  0  0
  5  8  1  0  0  0  0
  8  9  1  0  0  0  0
  8 10  1  0  0  0  0
  8 11  1  0  0  0  0
 11 12  1  0  0  0  0
 11 13  1  0  0  0  0
 11 14  1  0  0  0  0
 14 15  1  0  0  0  0
 14 16  1  0  0  0  0
 14 17  1  0  0  0  0
 17 18  1  0  0  0  0
 17 19  1  0  0  0  0
 17 20  1  0  0  0  0
 20 21  1  0  0  0  0
 20 22  1  0  0  0  0
 20 23  1  0  0  0  0
 23 24  1  0  0  0  0
 23 25  1  0  0  0  0
 23 26  1  0  0  0  0
 26 27  1  0  0  0  0
 26 28  1  0  0  0  0
 26 29  1  0  0  0  0
M  END
> <VM2 Rank>
251

> <Conf_Id>
2331

> <Probability>
0.01

> <Sum Probability>
99.29

> <Delta G>
3.742

> <G>
61.888

> <E>
24.454

> <-TS>
37.434

> <U+W>
0.309

> <U>
52.481

> <W>
-52.171

> <W(PB)>
-54.661

> <W(SA)>
2.490

> <Valence>
4.726

> <Coulomb>
46.978

> <VdW>
0.777

> <VdW6>
-9.165

> <VdW12>
9.942

> <Bond>
0.244

> <Angle>
1.215

> <Pdih>
3.267

> <Idih>
0.000

> <Tether>
0.000

$$$$
VeraChem MOL file


 29 28  0  0  0  0  0  0  0  0999 V2000     
   19.9782   19.4629   19.4251 C   0  0  0  0  0  0  0  0  0  0  0  0
   20.5790   18.5645   19.2323 H   0  0  0  0  0  0  0  0  0  0  0  0
   19.2238   19.5408   18.6315 H   0  0  0  0  0  0  0  0  0  0  0  0
   20.6372   20.3378   19.3503 H   0  0  0  0  0  0  0  0  0  0  0  0
   19.3047   19.3920   20.8120 C   0  0  0  0  0  0  0  0  0  0  0  0
   18.6237   18.5312   20.8320 H   0  0  0  0  0  0  0  0  0  0  0  0
   18.6888   20.2894   20.9636 H   0  0  0  0  0  0  0  0  0  0  0  0
   20.3499   19.2778   21.9471 C   0  0  0  0  0  0  0  0  0  0  0  0
   20.9312   18.3533   21.8264 H   0  0  0  0  0  0  0  0  0  0  0  0
   21.0659   20.1059   21.8526 H   0  0  0  0  0  0  0  0  0  0  0  0
   19.7353   19.3246   23.3678 C   0  0  0  0  0  0  0  0  0  0  0  0
   19.1273   20.2332   23.4766 H   0  0  0  0  0  0  0  0  0  0  0  0
   20.5620   19.4086   24.0842 H   0  0  0  0  0  0  0  0  0  0  0  0
   18.8886   18.0758   23.7185 C   0  0  0  0  0  0  0  0  0  0  0  0
   18.1202   17.9243   22.9503 H   0  0  0  0  0  0  0  0  0  0  0  0
   19.5287   17.1833   23.6903 H   0  0  0  0  0  0  0  0  0  0  0  0
   18.1705   18.1510   25.0911 C   0  0  0  0  0  0  0  0  0  0  0  0
   17.5779   17.2326   25.2049 H   0  0  0  0  0  0  0  0  0  0  0  0
   17.4436   18.9751   25.0918 H   0  0  0  0  0  0  0  0  0  0  0  0
   19.1110   18.2721   26.3165 C   0  0  0  0  0  0  0  0  0  0  0  0
   18.6164   17.8142   27.1836 H   0  0  0  0  0  0  0  0  0  0  0  0
   20.0310   17.6975   26.1452 H   0  0  0  0  0  0  0  0  0  0  0  0
   19.4482   19.7324   26.6754 C   0  0  0  0  0  0  0  0  0  0  0  0
   18.5262   20.2770   26.8959 H   0  0  0  0  0  0  0  0  0  0  0  0
   19.9420   20.2253   25.8360 H   0  0  0  0  0  0  0  0  0  0  0  0
   20.3576   19.8494   27.8813 N   0  3  0  0  0  0  0  0  0  0  0  0
   19.9367   19.4329   28.7184 H   0  0  0  0  0  0  0  0  0  0  0  0
   20.5667   20.8281   28.1075 H   0  0  0  0  0  0  0  0  0  0  0  0
   21.2560   19.3790   27.7292 H   0  0  0  0  0  0  0  0  0  0  0  0
  1  2  1  0  0  0  0
  1  3  1  0  0  0  0
  1  4  1  0  0  0  0
  1  5  1  0  0  0  0
  5  6  1  0  0  0  0
  5  7  1  0  0  0  0
  5  8  1  0  0  0  0
  8  9  1  0  0  0  0
  8 10  1  0  0  0  0
  8 11  1  0  0  0  0
 11 12  1  0  0  0  0
 11 13  1  0  0  0  0
 11 14  1  0  0  0  0
 14 15  1  0  0  0  0
 14 16  1  0  0  0  0
 14 17  1  0  0  0  0
 17 18  1  0  0  0  0
 17 19  1  0  0  0  0
 17 20  1  0  0  0  0
 20 21  1  0  0  0  0
 20 22  1  0  0  0  0
 20 23  1  0  0  0  0
 23 24  1  0  0  0  0
 23 25  1  0  0  0  0
 23 26  1  0  0  0  0
 26 27  1  0  0  0  0
 26 28  1  0  0  0  0
 26 29  1  0  0  0  0
M  END
> <VM2 Rank>
252

> <Conf_Id>
132

> <Probability>
0.01

> <Sum Probability>
99.30

> <Delta G>
3.743

> <G>
61.889

> <E>
24.329

> <-TS>
37.560

> <U+W>
0.185

> <U>
52.229

> <W>
-52.044

> <W(PB)>
-54.537

> <W(SA)>
2.492

> <Valence>
5.678

> <Coulomb>
45.657

> <VdW>
0.895

> <VdW6>
-9.187

> <VdW12>
10.082

> <Bond>
0.260

> <Angle>
1.481

> <Pdih>
3.936

> <Idih>
0.000

> <Tether>
0.000

$$$$
VeraChem MOL file


 29 28  0  0  0  0  0  0  0  0999 V2000     
   20.2803   17.4683   20.5565 C   0  0  0  0  0  0  0  0  0  0  0  0
   20.2431   17.8798   19.5394 H   0  0  0  0  0  0  0  0  0  0  0  0
   21.3113   17.5556   20.9234 H   0  0  0  0  0  0  0  0  0  0  0  0
   20.0328   16.4005   20.4973 H   0  0  0  0  0  0  0  0  0  0  0  0
   19.2961   18.2049   21.4895 C   0  0  0  0  0  0  0  0  0  0  0  0
   19.3275   17.7410   22.4826 H   0  0  0  0  0  0  0  0  0  0  0  0
   18.2721   18.0698   21.1143 H   0  0  0  0  0  0  0  0  0  0  0  0
   19.6190   19.7160   21.5797 C   0  0  0  0  0  0  0  0  0  0  0  0
   20.6610   19.8677   21.8932 H   0  0  0  0  0  0  0  0  0  0  0  0
   19.5417   20.1418   20.5697 H   0  0  0  0  0  0  0  0  0  0  0  0
   18.6610   20.4975   22.5162 C   0  0  0  0  0  0  0  0  0  0  0  0
   17.6749   20.0136   22.5431 H   0  0  0  0  0  0  0  0  0  0  0  0
   18.4905   21.4909   22.0787 H   0  0  0  0  0  0  0  0  0  0  0  0
   19.1912   20.7085   23.9579 C   0  0  0  0  0  0  0  0  0  0  0  0
   20.1233   21.2892   23.9217 H   0  0  0  0  0  0  0  0  0  0  0  0
   18.4661   21.3282   24.5035 H   0  0  0  0  0  0  0  0  0  0  0  0
   19.4303   19.4010   24.7478 C   0  0  0  0  0  0  0  0  0  0  0  0
   20.2435   18.8309   24.2798 H   0  0  0  0  0  0  0  0  0  0  0  0
   18.5264   18.7794   24.7025 H   0  0  0  0  0  0  0  0  0  0  0  0
   19.8020   19.6831   26.2227 C   0  0  0  0  0  0  0  0  0  0  0  0
   20.6808   20.3408   26.2565 H   0  0  0  0  0  0  0  0  0  0  0  0
   18.9860   20.2240   26.7204 H   0  0  0  0  0  0  0  0  0  0  0  0
   20.1230   18.3987   27.0109 C   0  0  0  0  0  0  0  0  0  0  0  0
   20.4585   18.6647   28.0169 H   0  0  0  0  0  0  0  0  0  0  0  0
   20.9308   17.8542   26.5145 H   0  0  0  0  0  0  0  0  0  0  0  0
   18.9412   17.4600   27.1538 N   0  3  0  0  0  0  0  0  0  0  0  0
   18.5970   17.1421   26.2424 H   0  0  0  0  0  0  0  0  0  0  0  0
   18.1553   17.9089   27.6356 H   0  0  0  0  0  0  0  0  0  0  0  0
   19.1841   16.6216   27.6929 H   0  0  0  0  0  0  0  0  0  0  0  0
  1  2  1  0  0  0  0
  1  3  1  0  0  0  0
  1  4  1  0  0  0  0
  1  5  1  0  0  0  0
  5  6  1  0  0  0  0
  5  7  1  0  0  0  0
  5  8  1  0  0  0  0
  8  9  1  0  0  0  0
  8 10  1  0  0  0  0
  8 11  1  0  0  0  0
 11 12  1  0  0  0  0
 11 13  1  0  0  0  0
 11 14  1  0  0  0  0
 14 15  1  0  0  0  0
 14 16  1  0  0  0  0
 14 17  1  0  0  0  0
 17 18  1  0  0  0  0
 17 19  1  0  0  0  0
 17 20  1  0  0  0  0
 20 21  1  0  0  0  0
 20 22  1  0  0  0  0
 20 23  1  0  0  0  0
 23 24  1  0  0  0  0
 23 25  1  0  0  0  0
 23 26  1  0  0  0  0
 26 27  1  0  0  0  0
 26 28  1  0  0  0  0
 26 29  1  0  0  0  0
M  END
> <VM2 Rank>
253

> <Conf_Id>
2897

> <Probability>
0.01

> <Sum Probability>
99.31

> <Delta G>
3.751

> <G>
61.898

> <E>
24.225

> <-TS>
37.672

> <U+W>
0.081

> <U>
52.242

> <W>
-52.161

> <W(PB)>
-54.646

> <W(SA)>
2.485

> <Valence>
5.713

> <Coulomb>
45.680

> <VdW>
0.849

> <VdW6>
-9.170

> <VdW12>
10.019

> <Bond>
0.251

> <Angle>
1.206

> <Pdih>
4.257

> <Idih>
0.000

> <Tether>
0.000

$$$$
VeraChem MOL file


 29 28  0  0  0  0  0  0  0  0999 V2000     
   21.2460   19.7675   20.5872 C   0  0  0  0  0  0  0  0  0  0  0  0
   21.5891   18.7911   20.2209 H   0  0  0  0  0  0  0  0  0  0  0  0
   20.7720   20.2989   19.7516 H   0  0  0  0  0  0  0  0  0  0  0  0
   22.1296   20.3421   20.8937 H   0  0  0  0  0  0  0  0  0  0  0  0
   20.2663   19.6032   21.7682 C   0  0  0  0  0  0  0  0  0  0  0  0
   19.9614   20.5952   22.1295 H   0  0  0  0  0  0  0  0  0  0  0  0
   20.7890   19.1025   22.5938 H   0  0  0  0  0  0  0  0  0  0  0  0
   19.0179   18.7864   21.3640 C   0  0  0  0  0  0  0  0  0  0  0  0
   18.5787   19.2305   20.4600 H   0  0  0  0  0  0  0  0  0  0  0  0
   19.3229   17.7680   21.0864 H   0  0  0  0  0  0  0  0  0  0  0  0
   17.9171   18.7151   22.4537 C   0  0  0  0  0  0  0  0  0  0  0  0
   17.0725   18.1519   22.0331 H   0  0  0  0  0  0  0  0  0  0  0  0
   17.5266   19.7206   22.6626 H   0  0  0  0  0  0  0  0  0  0  0  0
   18.3517   18.0212   23.7709 C   0  0  0  0  0  0  0  0  0  0  0  0
   17.4984   17.4483   24.1597 H   0  0  0  0  0  0  0  0  0  0  0  0
   19.1423   17.2861   23.5666 H   0  0  0  0  0  0  0  0  0  0  0  0
   18.8060   19.0144   24.8684 C   0  0  0  0  0  0  0  0  0  0  0  0
   17.9773   19.6951   25.1079 H   0  0  0  0  0  0  0  0  0  0  0  0
   19.6261   19.6388   24.4970 H   0  0  0  0  0  0  0  0  0  0  0  0
   19.2524   18.2798   26.1544 C   0  0  0  0  0  0  0  0  0  0  0  0
   18.4357   17.6364   26.5080 H   0  0  0  0  0  0  0  0  0  0  0  0
   20.1003   17.6175   25.9342 H   0  0  0  0  0  0  0  0  0  0  0  0
   19.6372   19.2474   27.2900 C   0  0  0  0  0  0  0  0  0  0  0  0
   19.8598   18.6748   28.1945 H   0  0  0  0  0  0  0  0  0  0  0  0
   18.7979   19.9140   27.5061 H   0  0  0  0  0  0  0  0  0  0  0  0
   20.8494   20.1030   26.9782 N   0  3  0  0  0  0  0  0  0  0  0  0
   20.6937   20.6969   26.1578 H   0  0  0  0  0  0  0  0  0  0  0  0
   21.6791   19.5316   26.7872 H   0  0  0  0  0  0  0  0  0  0  0  0
   21.0868   20.7248   27.7590 H   0  0  0  0  0  0  0  0  0  0  0  0
  1  2  1  0  0  0  0
  1  3  1  0  0  0  0
  1  4  1  0  0  0  0
  1  5  1  0  0  0  0
  5  6  1  0  0  0  0
  5  7  1  0  0  0  0
  5  8  1  0  0  0  0
  8  9  1  0  0  0  0
  8 10  1  0  0  0  0
  8 11  1  0  0  0  0
 11 12  1  0  0  0  0
 11 13  1  0  0  0  0
 11 14  1  0  0  0  0
 14 15  1  0  0  0  0
 14 16  1  0  0  0  0
 14 17  1  0  0  0  0
 17 18  1  0  0  0  0
 17 19  1  0  0  0  0
 17 20  1  0  0  0  0
 20 21  1  0  0  0  0
 20 22  1  0  0  0  0
 20 23  1  0  0  0  0
 23 24  1  0  0  0  0
 23 25  1  0  0  0  0
 23 26  1  0  0  0  0
 26 27  1  0  0  0  0
 26 28  1  0  0  0  0
 26 29  1  0  0  0  0
M  END
> <VM2 Rank>
254

> <Conf_Id>
2801

> <Probability>
0.01

> <Sum Probability>
99.32

> <Delta G>
3.753

> <G>
61.900

> <E>
24.222

> <-TS>
37.678

> <U+W>
0.078

> <U>
52.545

> <W>
-52.467

> <W(PB)>
-54.915

> <W(SA)>
2.448

> <Valence>
5.714

> <Coulomb>
45.984

> <VdW>
0.847

> <VdW6>
-9.182

> <VdW12>
10.029

> <Bond>
0.253

> <Angle>
1.188

> <Pdih>
4.272

> <Idih>
0.000

> <Tether>
0.000

$$$$
VeraChem MOL file


 29 28  0  0  0  0  0  0  0  0999 V2000     
   20.3919   19.0514   19.5168 C   0  0  0  0  0  0  0  0  0  0  0  0
   20.6324   20.0877   19.2457 H   0  0  0  0  0  0  0  0  0  0  0  0
   21.3339   18.5187   19.7016 H   0  0  0  0  0  0  0  0  0  0  0  0
   19.9030   18.5822   18.6532 H   0  0  0  0  0  0  0  0  0  0  0  0
   19.4741   19.0004   20.7566 C   0  0  0  0  0  0  0  0  0  0  0  0
   19.2235   17.9530   20.9707 H   0  0  0  0  0  0  0  0  0  0  0  0
   18.5296   19.5154   20.5320 H   0  0  0  0  0  0  0  0  0  0  0  0
   20.1446   19.6523   21.9889 C   0  0  0  0  0  0  0  0  0  0  0  0
   21.0602   19.1022   22.2464 H   0  0  0  0  0  0  0  0  0  0  0  0
   20.4613   20.6708   21.7250 H   0  0  0  0  0  0  0  0  0  0  0  0
   19.2216   19.7324   23.2296 C   0  0  0  0  0  0  0  0  0  0  0  0
   18.3151   20.2983   22.9743 H   0  0  0  0  0  0  0  0  0  0  0  0
   19.7365   20.3182   23.9995 H   0  0  0  0  0  0  0  0  0  0  0  0
   18.8237   18.3438   23.7938 C   0  0  0  0  0  0  0  0  0  0  0  0
   18.2122   17.8250   23.0441 H   0  0  0  0  0  0  0  0  0  0  0  0
   19.7164   17.7211   23.9437 H   0  0  0  0  0  0  0  0  0  0  0  0
   18.0028   18.4206   25.1074 C   0  0  0  0  0  0  0  0  0  0  0  0
   17.3013   17.5750   25.1230 H   0  0  0  0  0  0  0  0  0  0  0  0
   17.3788   19.3250   25.1142 H   0  0  0  0  0  0  0  0  0  0  0  0
   18.8519   18.3464   26.4014 C   0  0  0  0  0  0  0  0  0  0  0  0
   18.1742   18.3292   27.2653 H   0  0  0  0  0  0  0  0  0  0  0  0
   19.4056   17.3983   26.4220 H   0  0  0  0  0  0  0  0  0  0  0  0
   19.8378   19.5164   26.5648 C   0  0  0  0  0  0  0  0  0  0  0  0
   19.2957   20.4647   26.5178 H   0  0  0  0  0  0  0  0  0  0  0  0
   20.5710   19.4945   25.7546 H   0  0  0  0  0  0  0  0  0  0  0  0
   20.5957   19.4743   27.8758 N   0  3  0  0  0  0  0  0  0  0  0  0
   21.1476   18.6153   27.9702 H   0  0  0  0  0  0  0  0  0  0  0  0
   19.9648   19.5181   28.6829 H   0  0  0  0  0  0  0  0  0  0  0  0
   21.2487   20.2607   27.9639 H   0  0  0  0  0  0  0  0  0  0  0  0
  1  2  1  0  0  0  0
  1  3  1  0  0  0  0
  1  4  1  0  0  0  0
  1  5  1  0  0  0  0
  5  6  1  0  0  0  0
  5  7  1  0  0  0  0
  5  8  1  0  0  0  0
  8  9  1  0  0  0  0
  8 10  1  0  0  0  0
  8 11  1  0  0  0  0
 11 12  1  0  0  0  0
 11 13  1  0  0  0  0
 11 14  1  0  0  0  0
 14 15  1  0  0  0  0
 14 16  1  0  0  0  0
 14 17  1  0  0  0  0
 17 18  1  0  0  0  0
 17 19  1  0  0  0  0
 17 20  1  0  0  0  0
 20 21  1  0  0  0  0
 20 22  1  0  0  0  0
 20 23  1  0  0  0  0
 23 24  1  0  0  0  0
 23 25  1  0  0  0  0
 23 26  1  0  0  0  0
 26 27  1  0  0  0  0
 26 28  1  0  0  0  0
 26 29  1  0  0  0  0
M  END
> <VM2 Rank>
255

> <Conf_Id>
692

> <Probability>
0.01

> <Sum Probability>
99.33

> <Delta G>
3.765

> <G>
61.911

> <E>
24.420

> <-TS>
37.492

> <U+W>
0.275

> <U>
52.135

> <W>
-51.860

> <W(PB)>
-54.388

> <W(SA)>
2.528

> <Valence>
5.744

> <Coulomb>
45.466

> <VdW>
0.925

> <VdW6>
-9.090

> <VdW12>
10.016

> <Bond>
0.268

> <Angle>
1.306

> <Pdih>
4.171

> <Idih>
0.000

> <Tether>
0.000

$$$$
VeraChem MOL file


 29 28  0  0  0  0  0  0  0  0999 V2000     
   20.1642   17.6847   20.0217 C   0  0  0  0  0  0  0  0  0  0  0  0
   21.0962   18.1838   19.7259 H   0  0  0  0  0  0  0  0  0  0  0  0
   20.4218   16.8297   20.6604 H   0  0  0  0  0  0  0  0  0  0  0  0
   19.6874   17.2950   19.1130 H   0  0  0  0  0  0  0  0  0  0  0  0
   19.2211   18.6612   20.7558 C   0  0  0  0  0  0  0  0  0  0  0  0
   18.2856   18.1431   21.0092 H   0  0  0  0  0  0  0  0  0  0  0  0
   18.9540   19.4867   20.0813 H   0  0  0  0  0  0  0  0  0  0  0  0
   19.8686   19.2251   22.0398 C   0  0  0  0  0  0  0  0  0  0  0  0
   20.1450   18.3945   22.6998 H   0  0  0  0  0  0  0  0  0  0  0  0
   20.8031   19.7410   21.7793 H   0  0  0  0  0  0  0  0  0  0  0  0
   18.9261   20.2109   22.7729 C   0  0  0  0  0  0  0  0  0  0  0  0
   17.9581   19.7349   22.9810 H   0  0  0  0  0  0  0  0  0  0  0  0
   18.7121   21.0478   22.0937 H   0  0  0  0  0  0  0  0  0  0  0  0
   19.5311   20.7831   24.0814 C   0  0  0  0  0  0  0  0  0  0  0  0
   20.6277   20.8068   24.0162 H   0  0  0  0  0  0  0  0  0  0  0  0
   19.2182   21.8325   24.1722 H   0  0  0  0  0  0  0  0  0  0  0  0
   19.0901   20.0517   25.3755 C   0  0  0  0  0  0  0  0  0  0  0  0
   17.9995   20.1304   25.4848 H   0  0  0  0  0  0  0  0  0  0  0  0
   19.5222   20.5880   26.2305 H   0  0  0  0  0  0  0  0  0  0  0  0
   19.5049   18.5615   25.4390 C   0  0  0  0  0  0  0  0  0  0  0  0
   18.9958   18.0062   24.6415 H   0  0  0  0  0  0  0  0  0  0  0  0
   20.5839   18.4611   25.2620 H   0  0  0  0  0  0  0  0  0  0  0  0
   19.1394   17.8990   26.7813 C   0  0  0  0  0  0  0  0  0  0  0  0
   19.3563   16.8287   26.7276 H   0  0  0  0  0  0  0  0  0  0  0  0
   18.0700   18.0211   26.9733 H   0  0  0  0  0  0  0  0  0  0  0  0
   19.8984   18.4608   27.9675 N   0  3  0  0  0  0  0  0  0  0  0  0
   19.6420   17.9889   28.8416 H   0  0  0  0  0  0  0  0  0  0  0  0
   19.7112   19.4596   28.0994 H   0  0  0  0  0  0  0  0  0  0  0  0
   20.9120   18.3544   27.8554 H   0  0  0  0  0  0  0  0  0  0  0  0
  1  2  1  0  0  0  0
  1  3  1  0  0  0  0
  1  4  1  0  0  0  0
  1  5  1  0  0  0  0
  5  6  1  0  0  0  0
  5  7  1  0  0  0  0
  5  8  1  0  0  0  0
  8  9  1  0  0  0  0
  8 10  1  0  0  0  0
  8 11  1  0  0  0  0
 11 12  1  0  0  0  0
 11 13  1  0  0  0  0
 11 14  1  0  0  0  0
 14 15  1  0  0  0  0
 14 16  1  0  0  0  0
 14 17  1  0  0  0  0
 17 18  1  0  0  0  0
 17 19  1  0  0  0  0
 17 20  1  0  0  0  0
 20 21  1  0  0  0  0
 20 22  1  0  0  0  0
 20 23  1  0  0  0  0
 23 24  1  0  0  0  0
 23 25  1  0  0  0  0
 23 26  1  0  0  0  0
 26 27  1  0  0  0  0
 26 28  1  0  0  0  0
 26 29  1  0  0  0  0
M  END
> <VM2 Rank>
256

> <Conf_Id>
2584

> <Probability>
0.01

> <Sum Probability>
99.34

> <Delta G>
3.767

> <G>
61.913

> <E>
24.245

> <-TS>
37.668

> <U+W>
0.100

> <U>
51.913

> <W>
-51.812

> <W(PB)>
-54.299

> <W(SA)>
2.486

> <Valence>
5.756

> <Coulomb>
45.246

> <VdW>
0.911

> <VdW6>
-9.117

> <VdW12>
10.028

> <Bond>
0.256

> <Angle>
1.222

> <Pdih>
4.278

> <Idih>
0.000

> <Tether>
0.000

$$$$
VeraChem MOL file


 29 28  0  0  0  0  0  0  0  0999 V2000     
   20.4488   17.5295   20.5371 C   0  0  0  0  0  0  0  0  0  0  0  0
   19.7574   17.4510   19.6880 H   0  0  0  0  0  0  0  0  0  0  0  0
   21.3369   18.0829   20.2051 H   0  0  0  0  0  0  0  0  0  0  0  0
   20.7659   16.5142   20.8082 H   0  0  0  0  0  0  0  0  0  0  0  0
   19.7768   18.2290   21.7375 C   0  0  0  0  0  0  0  0  0  0  0  0
   20.4866   18.2534   22.5748 H   0  0  0  0  0  0  0  0  0  0  0  0
   18.9085   17.6397   22.0634 H   0  0  0  0  0  0  0  0  0  0  0  0
   19.3314   19.6662   21.3837 C   0  0  0  0  0  0  0  0  0  0  0  0
   20.2153   20.2727   21.1425 H   0  0  0  0  0  0  0  0  0  0  0  0
   18.7234   19.6360   20.4690 H   0  0  0  0  0  0  0  0  0  0  0  0
   18.5080   20.3738   22.4908 C   0  0  0  0  0  0  0  0  0  0  0  0
   17.5671   19.8340   22.6650 H   0  0  0  0  0  0  0  0  0  0  0  0
   18.2155   21.3601   22.1047 H   0  0  0  0  0  0  0  0  0  0  0  0
   19.2646   20.5841   23.8282 C   0  0  0  0  0  0  0  0  0  0  0  0
   20.3447   20.6615   23.6421 H   0  0  0  0  0  0  0  0  0  0  0  0
   18.9598   21.5513   24.2515 H   0  0  0  0  0  0  0  0  0  0  0  0
   18.9735   19.4846   24.8788 C   0  0  0  0  0  0  0  0  0  0  0  0
   19.2200   18.4979   24.4715 H   0  0  0  0  0  0  0  0  0  0  0  0
   17.8978   19.4717   25.1026 H   0  0  0  0  0  0  0  0  0  0  0  0
   19.7651   19.7204   26.1867 C   0  0  0  0  0  0  0  0  0  0  0  0
   20.8438   19.7064   25.9812 H   0  0  0  0  0  0  0  0  0  0  0  0
   19.5334   20.7203   26.5771 H   0  0  0  0  0  0  0  0  0  0  0  0
   19.4360   18.6830   27.2774 C   0  0  0  0  0  0  0  0  0  0  0  0
   18.3613   18.6884   27.4785 H   0  0  0  0  0  0  0  0  0  0  0  0
   19.9573   18.9498   28.2007 H   0  0  0  0  0  0  0  0  0  0  0  0
   19.8398   17.2673   26.9148 N   0  3  0  0  0  0  0  0  0  0  0  0
   20.8465   17.1933   26.7350 H   0  0  0  0  0  0  0  0  0  0  0  0
   19.3555   16.9384   26.0737 H   0  0  0  0  0  0  0  0  0  0  0  0
   19.6200   16.6049   27.6668 H   0  0  0  0  0  0  0  0  0  0  0  0
  1  2  1  0  0  0  0
  1  3  1  0  0  0  0
  1  4  1  0  0  0  0
  1  5  1  0  0  0  0
  5  6  1  0  0  0  0
  5  7  1  0  0  0  0
  5  8  1  0  0  0  0
  8  9  1  0  0  0  0
  8 10  1  0  0  0  0
  8 11  1  0  0  0  0
 11 12  1  0  0  0  0
 11 13  1  0  0  0  0
 11 14  1  0  0  0  0
 14 15  1  0  0  0  0
 14 16  1  0  0  0  0
 14 17  1  0  0  0  0
 17 18  1  0  0  0  0
 17 19  1  0  0  0  0
 17 20  1  0  0  0  0
 20 21  1  0  0  0  0
 20 22  1  0  0  0  0
 20 23  1  0  0  0  0
 23 24  1  0  0  0  0
 23 25  1  0  0  0  0
 23 26  1  0  0  0  0
 26 27  1  0  0  0  0
 26 28  1  0  0  0  0
 26 29  1  0  0  0  0
M  END
> <VM2 Rank>
257

> <Conf_Id>
1841

> <Probability>
0.01

> <Sum Probability>
99.34

> <Delta G>
3.774

> <G>
61.920

> <E>
24.242

> <-TS>
37.678

> <U+W>
0.098

> <U>
52.545

> <W>
-52.447

> <W(PB)>
-54.905

> <W(SA)>
2.458

> <Valence>
5.714

> <Coulomb>
45.984

> <VdW>
0.847

> <VdW6>
-9.182

> <VdW12>
10.029

> <Bond>
0.253

> <Angle>
1.188

> <Pdih>
4.272

> <Idih>
0.000

> <Tether>
0.000

$$$$
VeraChem MOL file


 29 28  0  0  0  0  0  0  0  0999 V2000     
   20.1527   17.4619   21.3551 C   0  0  0  0  0  0  0  0  0  0  0  0
   21.1310   17.6401   21.8198 H   0  0  0  0  0  0  0  0  0  0  0  0
   19.4249   17.2384   22.1448 H   0  0  0  0  0  0  0  0  0  0  0  0
   20.2378   16.5668   20.7254 H   0  0  0  0  0  0  0  0  0  0  0  0
   19.7077   18.6753   20.5100 C   0  0  0  0  0  0  0  0  0  0  0  0
   18.6994   18.4925   20.1131 H   0  0  0  0  0  0  0  0  0  0  0  0
   20.3686   18.7569   19.6358 H   0  0  0  0  0  0  0  0  0  0  0  0
   19.7296   20.0261   21.2701 C   0  0  0  0  0  0  0  0  0  0  0  0
   20.7551   20.2677   21.5815 H   0  0  0  0  0  0  0  0  0  0  0  0
   19.4445   20.8112   20.5561 H   0  0  0  0  0  0  0  0  0  0  0  0
   18.7659   20.1036   22.4828 C   0  0  0  0  0  0  0  0  0  0  0  0
   17.9008   19.4466   22.3184 H   0  0  0  0  0  0  0  0  0  0  0  0
   18.3647   21.1248   22.5431 H   0  0  0  0  0  0  0  0  0  0  0  0
   19.4475   19.7723   23.8328 C   0  0  0  0  0  0  0  0  0  0  0  0
   19.8999   18.7754   23.7908 H   0  0  0  0  0  0  0  0  0  0  0  0
   20.2679   20.4816   24.0087 H   0  0  0  0  0  0  0  0  0  0  0  0
   18.4466   19.8428   25.0107 C   0  0  0  0  0  0  0  0  0  0  0  0
   17.6381   19.1152   24.8540 H   0  0  0  0  0  0  0  0  0  0  0  0
   17.9737   20.8346   25.0245 H   0  0  0  0  0  0  0  0  0  0  0  0
   19.1083   19.5894   26.3856 C   0  0  0  0  0  0  0  0  0  0  0  0
   19.9021   20.3291   26.5551 H   0  0  0  0  0  0  0  0  0  0  0  0
   18.3604   19.7440   27.1747 H   0  0  0  0  0  0  0  0  0  0  0  0
   19.6882   18.1684   26.5138 C   0  0  0  0  0  0  0  0  0  0  0  0
   20.4668   18.0166   25.7618 H   0  0  0  0  0  0  0  0  0  0  0  0
   18.8979   17.4318   26.3456 H   0  0  0  0  0  0  0  0  0  0  0  0
   20.2976   17.8981   27.8741 N   0  3  0  0  0  0  0  0  0  0  0  0
   21.0672   18.5429   28.0826 H   0  0  0  0  0  0  0  0  0  0  0  0
   20.6778   16.9474   27.9394 H   0  0  0  0  0  0  0  0  0  0  0  0
   19.6088   17.9967   28.6273 H   0  0  0  0  0  0  0  0  0  0  0  0
  1  2  1  0  0  0  0
  1  3  1  0  0  0  0
  1  4  1  0  0  0  0
  1  5  1  0  0  0  0
  5  6  1  0  0  0  0
  5  7  1  0  0  0  0
  5  8  1  0  0  0  0
  8  9  1  0  0  0  0
  8 10  1  0  0  0  0
  8 11  1  0  0  0  0
 11 12  1  0  0  0  0
 11 13  1  0  0  0  0
 11 14  1  0  0  0  0
 14 15  1  0  0  0  0
 14 16  1  0  0  0  0
 14 17  1  0  0  0  0
 17 18  1  0  0  0  0
 17 19  1  0  0  0  0
 17 20  1  0  0  0  0
 20 21  1  0  0  0  0
 20 22  1  0  0  0  0
 20 23  1  0  0  0  0
 23 24  1  0  0  0  0
 23 25  1  0  0  0  0
 23 26  1  0  0  0  0
 26 27  1  0  0  0  0
 26 28  1  0  0  0  0
 26 29  1  0  0  0  0
M  END
> <VM2 Rank>
258

> <Conf_Id>
296

> <Probability>
0.01

> <Sum Probability>
99.35

> <Delta G>
3.784

> <G>
61.930

> <E>
24.283

> <-TS>
37.647

> <U+W>
0.138

> <U>
52.045

> <W>
-51.906

> <W(PB)>
-54.363

> <W(SA)>
2.456

> <Valence>
5.849

> <Coulomb>
45.357

> <VdW>
0.839

> <VdW6>
-9.170

> <VdW12>
10.009

> <Bond>
0.253

> <Angle>
1.262

> <Pdih>
4.334

> <Idih>
0.000

> <Tether>
0.000

$$$$
VeraChem MOL file


 29 28  0  0  0  0  0  0  0  0999 V2000     
   19.7847   19.9695   19.6014 C   0  0  0  0  0  0  0  0  0  0  0  0
   20.8817   20.0118   19.5950 H   0  0  0  0  0  0  0  0  0  0  0  0
   19.4749   19.0526   19.0832 H   0  0  0  0  0  0  0  0  0  0  0  0
   19.4110   20.8254   19.0246 H   0  0  0  0  0  0  0  0  0  0  0  0
   19.2368   20.0034   21.0437 C   0  0  0  0  0  0  0  0  0  0  0  0
   18.1382   19.9940   21.0167 H   0  0  0  0  0  0  0  0  0  0  0  0
   19.5343   20.9459   21.5245 H   0  0  0  0  0  0  0  0  0  0  0  0
   19.7482   18.8081   21.8779 C   0  0  0  0  0  0  0  0  0  0  0  0
   19.4511   17.8687   21.3914 H   0  0  0  0  0  0  0  0  0  0  0  0
   20.8468   18.8207   21.9005 H   0  0  0  0  0  0  0  0  0  0  0  0
   19.2018   18.8385   23.3230 C   0  0  0  0  0  0  0  0  0  0  0  0
   18.1037   18.8207   23.2959 H   0  0  0  0  0  0  0  0  0  0  0  0
   19.4936   19.7848   23.7910 H   0  0  0  0  0  0  0  0  0  0  0  0
   19.7174   17.6382   24.1542 C   0  0  0  0  0  0  0  0  0  0  0  0
   19.4410   16.7155   23.6253 H   0  0  0  0  0  0  0  0  0  0  0  0
   20.8153   17.6461   24.1953 H   0  0  0  0  0  0  0  0  0  0  0  0
   19.1327   17.5620   25.5890 C   0  0  0  0  0  0  0  0  0  0  0  0
   19.1224   16.5054   25.8903 H   0  0  0  0  0  0  0  0  0  0  0  0
   18.0801   17.8749   25.5909 H   0  0  0  0  0  0  0  0  0  0  0  0
   19.9383   18.3374   26.6655 C   0  0  0  0  0  0  0  0  0  0  0  0
   19.5155   18.1145   27.6541 H   0  0  0  0  0  0  0  0  0  0  0  0
   20.9692   17.9599   26.6866 H   0  0  0  0  0  0  0  0  0  0  0  0
   19.9772   19.8665   26.4824 C   0  0  0  0  0  0  0  0  0  0  0  0
   20.4661   20.1146   25.5378 H   0  0  0  0  0  0  0  0  0  0  0  0
   20.5633   20.3120   27.2907 H   0  0  0  0  0  0  0  0  0  0  0  0
   18.6069   20.5144   26.4980 N   0  3  0  0  0  0  0  0  0  0  0  0
   18.1179   20.3444   27.3829 H   0  0  0  0  0  0  0  0  0  0  0  0
   18.0113   20.1513   25.7475 H   0  0  0  0  0  0  0  0  0  0  0  0
   18.6643   21.5315   26.3771 H   0  0  0  0  0  0  0  0  0  0  0  0
  1  2  1  0  0  0  0
  1  3  1  0  0  0  0
  1  4  1  0  0  0  0
  1  5  1  0  0  0  0
  5  6  1  0  0  0  0
  5  7  1  0  0  0  0
  5  8  1  0  0  0  0
  8  9  1  0  0  0  0
  8 10  1  0  0  0  0
  8 11  1  0  0  0  0
 11 12  1  0  0  0  0
 11 13  1  0  0  0  0
 11 14  1  0  0  0  0
 14 15  1  0  0  0  0
 14 16  1  0  0  0  0
 14 17  1  0  0  0  0
 17 18  1  0  0  0  0
 17 19  1  0  0  0  0
 17 20  1  0  0  0  0
 20 21  1  0  0  0  0
 20 22  1  0  0  0  0
 20 23  1  0  0  0  0
 23 24  1  0  0  0  0
 23 25  1  0  0  0  0
 23 26  1  0  0  0  0
 26 27  1  0  0  0  0
 26 28  1  0  0  0  0
 26 29  1  0  0  0  0
M  END
> <VM2 Rank>
259

> <Conf_Id>
2926

> <Probability>
0.01

> <Sum Probability>
99.36

> <Delta G>
3.785

> <G>
61.931

> <E>
24.224

> <-TS>
37.707

> <U+W>
0.080

> <U>
52.436

> <W>
-52.356

> <W(PB)>
-54.832

> <W(SA)>
2.476

> <Valence>
5.286

> <Coulomb>
46.570

> <VdW>
0.581

> <VdW6>
-9.434

> <VdW12>
10.015

> <Bond>
0.255

> <Angle>
1.436

> <Pdih>
3.595

> <Idih>
0.000

> <Tether>
0.000

$$$$
VeraChem MOL file


 29 28  0  0  0  0  0  0  0  0999 V2000     
   20.9346   19.8481   20.0702 C   0  0  0  0  0  0  0  0  0  0  0  0
   20.8241   20.4867   19.1842 H   0  0  0  0  0  0  0  0  0  0  0  0
   21.6651   20.3223   20.7385 H   0  0  0  0  0  0  0  0  0  0  0  0
   21.3462   18.8847   19.7421 H   0  0  0  0  0  0  0  0  0  0  0  0
   19.5764   19.6586   20.7780 C   0  0  0  0  0  0  0  0  0  0  0  0
   18.8576   19.2147   20.0751 H   0  0  0  0  0  0  0  0  0  0  0  0
   19.1747   20.6406   21.0646 H   0  0  0  0  0  0  0  0  0  0  0  0
   19.7038   18.7624   22.0296 C   0  0  0  0  0  0  0  0  0  0  0  0
   20.1061   17.7830   21.7360 H   0  0  0  0  0  0  0  0  0  0  0  0
   20.4333   19.2050   22.7180 H   0  0  0  0  0  0  0  0  0  0  0  0
   18.3402   18.5653   22.7361 C   0  0  0  0  0  0  0  0  0  0  0  0
   17.6554   18.0795   22.0273 H   0  0  0  0  0  0  0  0  0  0  0  0
   17.8875   19.5372   22.9764 H   0  0  0  0  0  0  0  0  0  0  0  0
   18.4291   17.6884   24.0123 C   0  0  0  0  0  0  0  0  0  0  0  0
   17.5223   17.0701   24.0659 H   0  0  0  0  0  0  0  0  0  0  0  0
   19.2649   16.9799   23.9308 H   0  0  0  0  0  0  0  0  0  0  0  0
   18.5311   18.4821   25.3405 C   0  0  0  0  0  0  0  0  0  0  0  0
   18.5151   17.7601   26.1674 H   0  0  0  0  0  0  0  0  0  0  0  0
   17.6345   19.1057   25.4618 H   0  0  0  0  0  0  0  0  0  0  0  0
   19.7930   19.3713   25.4571 C   0  0  0  0  0  0  0  0  0  0  0  0
   20.6952   18.7745   25.2687 H   0  0  0  0  0  0  0  0  0  0  0  0
   19.7603   20.1545   24.6896 H   0  0  0  0  0  0  0  0  0  0  0  0
   19.9094   20.0617   26.8297 C   0  0  0  0  0  0  0  0  0  0  0  0
   19.0006   20.6349   27.0320 H   0  0  0  0  0  0  0  0  0  0  0  0
   20.7542   20.7556   26.8153 H   0  0  0  0  0  0  0  0  0  0  0  0
   20.1265   19.1001   27.9816 N   0  3  0  0  0  0  0  0  0  0  0  0
   19.3487   18.4397   28.0765 H   0  0  0  0  0  0  0  0  0  0  0  0
   20.2135   19.5927   28.8774 H   0  0  0  0  0  0  0  0  0  0  0  0
   20.9810   18.5469   27.8594 H   0  0  0  0  0  0  0  0  0  0  0  0
  1  2  1  0  0  0  0
  1  3  1  0  0  0  0
  1  4  1  0  0  0  0
  1  5  1  0  0  0  0
  5  6  1  0  0  0  0
  5  7  1  0  0  0  0
  5  8  1  0  0  0  0
  8  9  1  0  0  0  0
  8 10  1  0  0  0  0
  8 11  1  0  0  0  0
 11 12  1  0  0  0  0
 11 13  1  0  0  0  0
 11 14  1  0  0  0  0
 14 15  1  0  0  0  0
 14 16  1  0  0  0  0
 14 17  1  0  0  0  0
 17 18  1  0  0  0  0
 17 19  1  0  0  0  0
 17 20  1  0  0  0  0
 20 21  1  0  0  0  0
 20 22  1  0  0  0  0
 20 23  1  0  0  0  0
 23 24  1  0  0  0  0
 23 25  1  0  0  0  0
 23 26  1  0  0  0  0
 26 27  1  0  0  0  0
 26 28  1  0  0  0  0
 26 29  1  0  0  0  0
M  END
> <VM2 Rank>
260

> <Conf_Id>
1646

> <Probability>
0.01

> <Sum Probability>
99.37

> <Delta G>
3.804

> <G>
61.950

> <E>
24.281

> <-TS>
37.669

> <U+W>
0.137

> <U>
51.913

> <W>
-51.776

> <W(PB)>
-54.288

> <W(SA)>
2.511

> <Valence>
5.756

> <Coulomb>
45.246

> <VdW>
0.911

> <VdW6>
-9.117

> <VdW12>
10.028

> <Bond>
0.256

> <Angle>
1.222

> <Pdih>
4.278

> <Idih>
0.000

> <Tether>
0.000

$$$$
VeraChem MOL file


 29 28  0  0  0  0  0  0  0  0999 V2000     
   21.1040   19.1050   20.9386 C   0  0  0  0  0  0  0  0  0  0  0  0
   21.1200   19.9515   21.6361 H   0  0  0  0  0  0  0  0  0  0  0  0
   21.4546   18.2088   21.4666 H   0  0  0  0  0  0  0  0  0  0  0  0
   21.8220   19.3264   20.1384 H   0  0  0  0  0  0  0  0  0  0  0  0
   19.6921   18.8894   20.3518 C   0  0  0  0  0  0  0  0  0  0  0  0
   19.7575   18.1535   19.5383 H   0  0  0  0  0  0  0  0  0  0  0  0
   19.3432   19.8235   19.8896 H   0  0  0  0  0  0  0  0  0  0  0  0
   18.6420   18.3942   21.3787 C   0  0  0  0  0  0  0  0  0  0  0  0
   17.7008   18.2310   20.8356 H   0  0  0  0  0  0  0  0  0  0  0  0
   18.9320   17.4096   21.7704 H   0  0  0  0  0  0  0  0  0  0  0  0
   18.3615   19.3770   22.5454 C   0  0  0  0  0  0  0  0  0  0  0  0
   17.2961   19.3114   22.8061 H   0  0  0  0  0  0  0  0  0  0  0  0
   18.5301   20.4111   22.2146 H   0  0  0  0  0  0  0  0  0  0  0  0
   19.1884   19.0741   23.8188 C   0  0  0  0  0  0  0  0  0  0  0  0
   18.9632   18.0537   24.1565 H   0  0  0  0  0  0  0  0  0  0  0  0
   20.2609   19.0997   23.5931 H   0  0  0  0  0  0  0  0  0  0  0  0
   18.8814   20.0819   24.9522 C   0  0  0  0  0  0  0  0  0  0  0  0
   17.8162   20.0298   25.2169 H   0  0  0  0  0  0  0  0  0  0  0  0
   19.0612   21.1022   24.5861 H   0  0  0  0  0  0  0  0  0  0  0  0
   19.7394   19.8514   26.2183 C   0  0  0  0  0  0  0  0  0  0  0  0
   20.8044   19.9295   25.9616 H   0  0  0  0  0  0  0  0  0  0  0  0
   19.5306   20.6516   26.9407 H   0  0  0  0  0  0  0  0  0  0  0  0
   19.4654   18.4894   26.8828 C   0  0  0  0  0  0  0  0  0  0  0  0
   19.7121   17.6821   26.1884 H   0  0  0  0  0  0  0  0  0  0  0  0
   18.4054   18.4118   27.1394 H   0  0  0  0  0  0  0  0  0  0  0  0
   20.2699   18.2755   28.1485 N   0  3  0  0  0  0  0  0  0  0  0  0
   20.0731   17.3636   28.5755 H   0  0  0  0  0  0  0  0  0  0  0  0
   20.0637   18.9877   28.8568 H   0  0  0  0  0  0  0  0  0  0  0  0
   21.2790   18.3104   27.9699 H   0  0  0  0  0  0  0  0  0  0  0  0
  1  2  1  0  0  0  0
  1  3  1  0  0  0  0
  1  4  1  0  0  0  0
  1  5  1  0  0  0  0
  5  6  1  0  0  0  0
  5  7  1  0  0  0  0
  5  8  1  0  0  0  0
  8  9  1  0  0  0  0
  8 10  1  0  0  0  0
  8 11  1  0  0  0  0
 11 12  1  0  0  0  0
 11 13  1  0  0  0  0
 11 14  1  0  0  0  0
 14 15  1  0  0  0  0
 14 16  1  0  0  0  0
 14 17  1  0  0  0  0
 17 18  1  0  0  0  0
 17 19  1  0  0  0  0
 17 20  1  0  0  0  0
 20 21  1  0  0  0  0
 20 22  1  0  0  0  0
 20 23  1  0  0  0  0
 23 24  1  0  0  0  0
 23 25  1  0  0  0  0
 23 26  1  0  0  0  0
 26 27  1  0  0  0  0
 26 28  1  0  0  0  0
 26 29  1  0  0  0  0
M  END
> <VM2 Rank>
261

> <Conf_Id>
1984

> <Probability>
0.01

> <Sum Probability>
99.38

> <Delta G>
3.824

> <G>
61.971

> <E>
24.335

> <-TS>
37.636

> <U+W>
0.190

> <U>
51.875

> <W>
-51.685

> <W(PB)>
-54.171

> <W(SA)>
2.486

> <Valence>
5.854

> <Coulomb>
45.145

> <VdW>
0.877

> <VdW6>
-9.103

> <VdW12>
9.980

> <Bond>
0.252

> <Angle>
1.282

> <Pdih>
4.319

> <Idih>
0.000

> <Tether>
0.000

$$$$
VeraChem MOL file


 29 28  0  0  0  0  0  0  0  0999 V2000     
   20.5090   17.9281   20.1738 C   0  0  0  0  0  0  0  0  0  0  0  0
   21.4307   17.7434   20.7409 H   0  0  0  0  0  0  0  0  0  0  0  0
   20.1873   16.9754   19.7336 H   0  0  0  0  0  0  0  0  0  0  0  0
   20.7453   18.6164   19.3518 H   0  0  0  0  0  0  0  0  0  0  0  0
   19.4056   18.5082   21.0835 C   0  0  0  0  0  0  0  0  0  0  0  0
   19.1646   17.7781   21.8653 H   0  0  0  0  0  0  0  0  0  0  0  0
   18.4884   18.6493   20.4949 H   0  0  0  0  0  0  0  0  0  0  0  0
   19.8331   19.8585   21.7075 C   0  0  0  0  0  0  0  0  0  0  0  0
   20.7812   19.7466   22.2512 H   0  0  0  0  0  0  0  0  0  0  0  0
   20.0349   20.5633   20.8889 H   0  0  0  0  0  0  0  0  0  0  0  0
   18.7565   20.4801   22.6349 C   0  0  0  0  0  0  0  0  0  0  0  0
   17.7515   20.1771   22.3103 H   0  0  0  0  0  0  0  0  0  0  0  0
   18.7896   21.5716   22.5126 H   0  0  0  0  0  0  0  0  0  0  0  0
   18.9454   20.1750   24.1433 C   0  0  0  0  0  0  0  0  0  0  0  0
   19.9134   20.5770   24.4715 H   0  0  0  0  0  0  0  0  0  0  0  0
   18.1782   20.7264   24.7042 H   0  0  0  0  0  0  0  0  0  0  0  0
   18.8510   18.6728   24.5055 C   0  0  0  0  0  0  0  0  0  0  0  0
   19.7011   18.1305   24.0710 H   0  0  0  0  0  0  0  0  0  0  0  0
   17.9406   18.2485   24.0605 H   0  0  0  0  0  0  0  0  0  0  0  0
   18.8227   18.4205   26.0311 C   0  0  0  0  0  0  0  0  0  0  0  0
   17.9563   18.9298   26.4737 H   0  0  0  0  0  0  0  0  0  0  0  0
   18.6827   17.3465   26.2126 H   0  0  0  0  0  0  0  0  0  0  0  0
   20.1116   18.8868   26.7332 C   0  0  0  0  0  0  0  0  0  0  0  0
   20.2401   19.9633   26.5937 H   0  0  0  0  0  0  0  0  0  0  0  0
   20.9741   18.3769   26.2956 H   0  0  0  0  0  0  0  0  0  0  0  0
   20.1090   18.6079   28.2222 N   0  3  0  0  0  0  0  0  0  0  0  0
   20.9752   18.9257   28.6709 H   0  0  0  0  0  0  0  0  0  0  0  0
   20.0187   17.6064   28.4229 H   0  0  0  0  0  0  0  0  0  0  0  0
   19.3344   19.0823   28.6980 H   0  0  0  0  0  0  0  0  0  0  0  0
  1  2  1  0  0  0  0
  1  3  1  0  0  0  0
  1  4  1  0  0  0  0
  1  5  1  0  0  0  0
  5  6  1  0  0  0  0
  5  7  1  0  0  0  0
  5  8  1  0  0  0  0
  8  9  1  0  0  0  0
  8 10  1  0  0  0  0
  8 11  1  0  0  0  0
 11 12  1  0  0  0  0
 11 13  1  0  0  0  0
 11 14  1  0  0  0  0
 14 15  1  0  0  0  0
 14 16  1  0  0  0  0
 14 17  1  0  0  0  0
 17 18  1  0  0  0  0
 17 19  1  0  0  0  0
 17 20  1  0  0  0  0
 20 21  1  0  0  0  0
 20 22  1  0  0  0  0
 20 23  1  0  0  0  0
 23 24  1  0  0  0  0
 23 25  1  0  0  0  0
 23 26  1  0  0  0  0
 26 27  1  0  0  0  0
 26 28  1  0  0  0  0
 26 29  1  0  0  0  0
M  END
> <VM2 Rank>
262

> <Conf_Id>
264

> <Probability>
0.01

> <Sum Probability>
99.39

> <Delta G>
3.829

> <G>
61.975

> <E>
24.308

> <-TS>
37.667

> <U+W>
0.164

> <U>
51.913

> <W>
-51.750

> <W(PB)>
-54.233

> <W(SA)>
2.484

> <Valence>
5.891

> <Coulomb>
45.203

> <VdW>
0.819

> <VdW6>
-9.200

> <VdW12>
10.019

> <Bond>
0.252

> <Angle>
1.265

> <Pdih>
4.374

> <Idih>
0.000

> <Tether>
0.000

$$$$
VeraChem MOL file


 29 28  0  0  0  0  0  0  0  0999 V2000     
   21.0461   19.4350   20.2077 C   0  0  0  0  0  0  0  0  0  0  0  0
   21.4054   20.3930   19.8101 H   0  0  0  0  0  0  0  0  0  0  0  0
   21.8689   18.9730   20.7687 H   0  0  0  0  0  0  0  0  0  0  0  0
   20.8059   18.7854   19.3558 H   0  0  0  0  0  0  0  0  0  0  0  0
   19.8116   19.6475   21.1090 C   0  0  0  0  0  0  0  0  0  0  0  0
   19.0202   20.1413   20.5280 H   0  0  0  0  0  0  0  0  0  0  0  0
   20.0753   20.3340   21.9224 H   0  0  0  0  0  0  0  0  0  0  0  0
   19.2805   18.3076   21.6730 C   0  0  0  0  0  0  0  0  0  0  0  0
   19.0030   17.6670   20.8244 H   0  0  0  0  0  0  0  0  0  0  0  0
   20.0781   17.7735   22.2074 H   0  0  0  0  0  0  0  0  0  0  0  0
   18.0402   18.4704   22.5900 C   0  0  0  0  0  0  0  0  0  0  0  0
   17.3777   17.6097   22.4241 H   0  0  0  0  0  0  0  0  0  0  0  0
   17.4578   19.3530   22.2917 H   0  0  0  0  0  0  0  0  0  0  0  0
   18.3580   18.5274   24.1065 C   0  0  0  0  0  0  0  0  0  0  0  0
   17.4071   18.5635   24.6557 H   0  0  0  0  0  0  0  0  0  0  0  0
   18.8491   17.5914   24.4049 H   0  0  0  0  0  0  0  0  0  0  0  0
   19.2294   19.7352   24.5292 C   0  0  0  0  0  0  0  0  0  0  0  0
   18.7985   20.6567   24.1143 H   0  0  0  0  0  0  0  0  0  0  0  0
   20.2369   19.6347   24.1045 H   0  0  0  0  0  0  0  0  0  0  0  0
   19.3455   19.8878   26.0639 C   0  0  0  0  0  0  0  0  0  0  0  0
   19.9134   20.8001   26.2898 H   0  0  0  0  0  0  0  0  0  0  0  0
   18.3461   20.0239   26.4982 H   0  0  0  0  0  0  0  0  0  0  0  0
   20.0394   18.6843   26.7286 C   0  0  0  0  0  0  0  0  0  0  0  0
   21.0359   18.5508   26.2991 H   0  0  0  0  0  0  0  0  0  0  0  0
   19.4602   17.7756   26.5450 H   0  0  0  0  0  0  0  0  0  0  0  0
   20.1932   18.8428   28.2273 N   0  3  0  0  0  0  0  0  0  0  0  0
   20.7537   19.6669   28.4684 H   0  0  0  0  0  0  0  0  0  0  0  0
   20.6570   18.0315   28.6507 H   0  0  0  0  0  0  0  0  0  0  0  0
   19.2866   18.9468   28.6951 H   0  0  0  0  0  0  0  0  0  0  0  0
  1  2  1  0  0  0  0
  1  3  1  0  0  0  0
  1  4  1  0  0  0  0
  1  5  1  0  0  0  0
  5  6  1  0  0  0  0
  5  7  1  0  0  0  0
  5  8  1  0  0  0  0
  8  9  1  0  0  0  0
  8 10  1  0  0  0  0
  8 11  1  0  0  0  0
 11 12  1  0  0  0  0
 11 13  1  0  0  0  0
 11 14  1  0  0  0  0
 14 15  1  0  0  0  0
 14 16  1  0  0  0  0
 14 17  1  0  0  0  0
 17 18  1  0  0  0  0
 17 19  1  0  0  0  0
 17 20  1  0  0  0  0
 20 21  1  0  0  0  0
 20 22  1  0  0  0  0
 20 23  1  0  0  0  0
 23 24  1  0  0  0  0
 23 25  1  0  0  0  0
 23 26  1  0  0  0  0
 26 27  1  0  0  0  0
 26 28  1  0  0  0  0
 26 29  1  0  0  0  0
M  END
> <VM2 Rank>
263

> <Conf_Id>
1548

> <Probability>
0.01

> <Sum Probability>
99.40

> <Delta G>
3.834

> <G>
61.981

> <E>
24.314

> <-TS>
37.667

> <U+W>
0.169

> <U>
51.913

> <W>
-51.744

> <W(PB)>
-54.215

> <W(SA)>
2.471

> <Valence>
5.891

> <Coulomb>
45.203

> <VdW>
0.819

> <VdW6>
-9.201

> <VdW12>
10.020

> <Bond>
0.252

> <Angle>
1.264

> <Pdih>
4.374

> <Idih>
0.000

> <Tether>
0.000

$$$$
VeraChem MOL file


 29 28  0  0  0  0  0  0  0  0999 V2000     
   20.1276   17.2773   20.7328 C   0  0  0  0  0  0  0  0  0  0  0  0
   20.3667   17.6547   19.7300 H   0  0  0  0  0  0  0  0  0  0  0  0
   21.0708   17.1076   21.2682 H   0  0  0  0  0  0  0  0  0  0  0  0
   19.6263   16.3076   20.6173 H   0  0  0  0  0  0  0  0  0  0  0  0
   19.2264   18.2689   21.4984 C   0  0  0  0  0  0  0  0  0  0  0  0
   18.9718   17.8420   22.4758 H   0  0  0  0  0  0  0  0  0  0  0  0
   18.2788   18.3902   20.9552 H   0  0  0  0  0  0  0  0  0  0  0  0
   19.9083   19.6485   21.6632 C   0  0  0  0  0  0  0  0  0  0  0  0
   20.8905   19.5367   22.1425 H   0  0  0  0  0  0  0  0  0  0  0  0
   20.1052   20.0533   20.6608 H   0  0  0  0  0  0  0  0  0  0  0  0
   19.0463   20.6731   22.4460 C   0  0  0  0  0  0  0  0  0  0  0  0
   17.9780   20.4552   22.3106 H   0  0  0  0  0  0  0  0  0  0  0  0
   19.2043   21.6647   21.9998 H   0  0  0  0  0  0  0  0  0  0  0  0
   19.3806   20.7831   23.9561 C   0  0  0  0  0  0  0  0  0  0  0  0
   20.4226   21.1106   24.0755 H   0  0  0  0  0  0  0  0  0  0  0  0
   18.7587   21.5790   24.3885 H   0  0  0  0  0  0  0  0  0  0  0  0
   19.1579   19.4784   24.7555 C   0  0  0  0  0  0  0  0  0  0  0  0
   19.8599   18.7125   24.4034 H   0  0  0  0  0  0  0  0  0  0  0  0
   18.1425   19.1018   24.5701 H   0  0  0  0  0  0  0  0  0  0  0  0
   19.3575   19.6954   26.2741 C   0  0  0  0  0  0  0  0  0  0  0  0
   20.3777   20.0499   26.4727 H   0  0  0  0  0  0  0  0  0  0  0  0
   18.6779   20.4850   26.6216 H   0  0  0  0  0  0  0  0  0  0  0  0
   19.0854   18.4220   27.0977 C   0  0  0  0  0  0  0  0  0  0  0  0
   18.0733   18.0615   26.8949 H   0  0  0  0  0  0  0  0  0  0  0  0
   19.1568   18.6571   28.1632 H   0  0  0  0  0  0  0  0  0  0  0  0
   20.0540   17.2914   26.8112 N   0  3  0  0  0  0  0  0  0  0  0  0
   20.0121   16.9952   25.8311 H   0  0  0  0  0  0  0  0  0  0  0  0
   19.8535   16.4644   27.3844 H   0  0  0  0  0  0  0  0  0  0  0  0
   21.0234   17.5629   27.0056 H   0  0  0  0  0  0  0  0  0  0  0  0
  1  2  1  0  0  0  0
  1  3  1  0  0  0  0
  1  4  1  0  0  0  0
  1  5  1  0  0  0  0
  5  6  1  0  0  0  0
  5  7  1  0  0  0  0
  5  8  1  0  0  0  0
  8  9  1  0  0  0  0
  8 10  1  0  0  0  0
  8 11  1  0  0  0  0
 11 12  1  0  0  0  0
 11 13  1  0  0  0  0
 11 14  1  0  0  0  0
 14 15  1  0  0  0  0
 14 16  1  0  0  0  0
 14 17  1  0  0  0  0
 17 18  1  0  0  0  0
 17 19  1  0  0  0  0
 17 20  1  0  0  0  0
 20 21  1  0  0  0  0
 20 22  1  0  0  0  0
 20 23  1  0  0  0  0
 23 24  1  0  0  0  0
 23 25  1  0  0  0  0
 23 26  1  0  0  0  0
 26 27  1  0  0  0  0
 26 28  1  0  0  0  0
 26 29  1  0  0  0  0
M  END
> <VM2 Rank>
264

> <Conf_Id>
2957

> <Probability>
0.01

> <Sum Probability>
99.41

> <Delta G>
3.845

> <G>
61.991

> <E>
24.306

> <-TS>
37.684

> <U+W>
0.162

> <U>
52.464

> <W>
-52.302

> <W(PB)>
-54.765

> <W(SA)>
2.463

> <Valence>
5.708

> <Coulomb>
45.914

> <VdW>
0.842

> <VdW6>
-9.209

> <VdW12>
10.051

> <Bond>
0.252

> <Angle>
1.191

> <Pdih>
4.265

> <Idih>
0.000

> <Tether>
0.000

$$$$
VeraChem MOL file


 29 28  0  0  0  0  0  0  0  0999 V2000     
   21.2169   18.4319   21.1676 C   0  0  0  0  0  0  0  0  0  0  0  0
   21.2713   18.3032   22.2541 H   0  0  0  0  0  0  0  0  0  0  0  0
   21.6280   17.5256   20.7046 H   0  0  0  0  0  0  0  0  0  0  0  0
   21.8698   19.2709   20.8939 H   0  0  0  0  0  0  0  0  0  0  0  0
   19.7696   18.6783   20.6815 C   0  0  0  0  0  0  0  0  0  0  0  0
   19.1396   17.8045   20.8983 H   0  0  0  0  0  0  0  0  0  0  0  0
   19.7919   18.7706   19.5866 H   0  0  0  0  0  0  0  0  0  0  0  0
   19.1318   19.9623   21.2718 C   0  0  0  0  0  0  0  0  0  0  0  0
   19.9079   20.7126   21.4763 H   0  0  0  0  0  0  0  0  0  0  0  0
   18.4858   20.4075   20.5025 H   0  0  0  0  0  0  0  0  0  0  0  0
   18.2626   19.7364   22.5358 C   0  0  0  0  0  0  0  0  0  0  0  0
   17.4262   19.0683   22.2884 H   0  0  0  0  0  0  0  0  0  0  0  0
   17.8124   20.6979   22.8191 H   0  0  0  0  0  0  0  0  0  0  0  0
   19.0348   19.1663   23.7477 C   0  0  0  0  0  0  0  0  0  0  0  0
   19.3744   18.1476   23.5205 H   0  0  0  0  0  0  0  0  0  0  0  0
   19.9297   19.7771   23.9261 H   0  0  0  0  0  0  0  0  0  0  0  0
   18.1565   19.1300   25.0211 C   0  0  0  0  0  0  0  0  0  0  0  0
   17.2380   18.5649   24.8103 H   0  0  0  0  0  0  0  0  0  0  0  0
   17.8412   20.1494   25.2839 H   0  0  0  0  0  0  0  0  0  0  0  0
   18.8703   18.4835   26.2314 C   0  0  0  0  0  0  0  0  0  0  0  0
   18.1627   18.4166   27.0685 H   0  0  0  0  0  0  0  0  0  0  0  0
   19.1606   17.4542   25.9818 H   0  0  0  0  0  0  0  0  0  0  0  0
   20.1111   19.2763   26.6830 C   0  0  0  0  0  0  0  0  0  0  0  0
   19.8223   20.3007   26.9328 H   0  0  0  0  0  0  0  0  0  0  0  0
   20.8430   19.3123   25.8720 H   0  0  0  0  0  0  0  0  0  0  0  0
   20.7904   18.6729   27.8952 N   0  3  0  0  0  0  0  0  0  0  0  0
   21.1103   17.7152   27.7164 H   0  0  0  0  0  0  0  0  0  0  0  0
   20.1627   18.6353   28.7052 H   0  0  0  0  0  0  0  0  0  0  0  0
   21.6135   19.2151   28.1800 H   0  0  0  0  0  0  0  0  0  0  0  0
  1  2  1  0  0  0  0
  1  3  1  0  0  0  0
  1  4  1  0  0  0  0
  1  5  1  0  0  0  0
  5  6  1  0  0  0  0
  5  7  1  0  0  0  0
  5  8  1  0  0  0  0
  8  9  1  0  0  0  0
  8 10  1  0  0  0  0
  8 11  1  0  0  0  0
 11 12  1  0  0  0  0
 11 13  1  0  0  0  0
 11 14  1  0  0  0  0
 14 15  1  0  0  0  0
 14 16  1  0  0  0  0
 14 17  1  0  0  0  0
 17 18  1  0  0  0  0
 17 19  1  0  0  0  0
 17 20  1  0  0  0  0
 20 21  1  0  0  0  0
 20 22  1  0  0  0  0
 20 23  1  0  0  0  0
 23 24  1  0  0  0  0
 23 25  1  0  0  0  0
 23 26  1  0  0  0  0
 26 27  1  0  0  0  0
 26 28  1  0  0  0  0
 26 29  1  0  0  0  0
M  END
> <VM2 Rank>
265

> <Conf_Id>
2327

> <Probability>
0.01

> <Sum Probability>
99.41

> <Delta G>
3.847

> <G>
61.993

> <E>
24.358

> <-TS>
37.635

> <U+W>
0.213

> <U>
52.035

> <W>
-51.821

> <W(PB)>
-54.285

> <W(SA)>
2.464

> <Valence>
5.871

> <Coulomb>
45.296

> <VdW>
0.868

> <VdW6>
-9.137

> <VdW12>
10.005

> <Bond>
0.251

> <Angle>
1.315

> <Pdih>
4.305

> <Idih>
0.000

> <Tether>
0.000

$$$$
VeraChem MOL file


 29 28  0  0  0  0  0  0  0  0999 V2000     
   21.2622   18.5590   21.1704 C   0  0  0  0  0  0  0  0  0  0  0  0
   22.1599   19.0193   20.7379 H   0  0  0  0  0  0  0  0  0  0  0  0
   21.3704   18.5813   22.2603 H   0  0  0  0  0  0  0  0  0  0  0  0
   21.2421   17.5079   20.8545 H   0  0  0  0  0  0  0  0  0  0  0  0
   19.9916   19.3019   20.6954 C   0  0  0  0  0  0  0  0  0  0  0  0
   19.9661   19.2598   19.5974 H   0  0  0  0  0  0  0  0  0  0  0  0
   20.0523   20.3678   20.9555 H   0  0  0  0  0  0  0  0  0  0  0  0
   18.6778   18.6875   21.2433 C   0  0  0  0  0  0  0  0  0  0  0  0
   17.9067   18.7814   20.4662 H   0  0  0  0  0  0  0  0  0  0  0  0
   18.8025   17.6082   21.4069 H   0  0  0  0  0  0  0  0  0  0  0  0
   18.1290   19.3614   22.5274 C   0  0  0  0  0  0  0  0  0  0  0  0
   17.1688   18.8902   22.7787 H   0  0  0  0  0  0  0  0  0  0  0  0
   17.9063   20.4168   22.3185 H   0  0  0  0  0  0  0  0  0  0  0  0
   19.0707   19.2669   23.7499 C   0  0  0  0  0  0  0  0  0  0  0  0
   19.3759   18.2216   23.8914 H   0  0  0  0  0  0  0  0  0  0  0  0
   19.9807   19.8500   23.5585 H   0  0  0  0  0  0  0  0  0  0  0  0
   18.3949   19.7994   25.0361 C   0  0  0  0  0  0  0  0  0  0  0  0
   17.5028   19.1991   25.2627 H   0  0  0  0  0  0  0  0  0  0  0  0
   18.0430   20.8255   24.8608 H   0  0  0  0  0  0  0  0  0  0  0  0
   19.3395   19.8010   26.2608 C   0  0  0  0  0  0  0  0  0  0  0  0
   20.2183   20.4242   26.0482 H   0  0  0  0  0  0  0  0  0  0  0  0
   18.8215   20.2667   27.1098 H   0  0  0  0  0  0  0  0  0  0  0  0
   19.7939   18.3855   26.6631 C   0  0  0  0  0  0  0  0  0  0  0  0
   20.3498   17.9273   25.8411 H   0  0  0  0  0  0  0  0  0  0  0  0
   18.9193   17.7650   26.8762 H   0  0  0  0  0  0  0  0  0  0  0  0
   20.6844   18.3754   27.8886 N   0  3  0  0  0  0  0  0  0  0  0  0
   21.5399   18.9217   27.7434 H   0  0  0  0  0  0  0  0  0  0  0  0
   20.9758   17.4244   28.1401 H   0  0  0  0  0  0  0  0  0  0  0  0
   20.2102   18.7691   28.7082 H   0  0  0  0  0  0  0  0  0  0  0  0
  1  2  1  0  0  0  0
  1  3  1  0  0  0  0
  1  4  1  0  0  0  0
  1  5  1  0  0  0  0
  5  6  1  0  0  0  0
  5  7  1  0  0  0  0
  5  8  1  0  0  0  0
  8  9  1  0  0  0  0
  8 10  1  0  0  0  0
  8 11  1  0  0  0  0
 11 12  1  0  0  0  0
 11 13  1  0  0  0  0
 11 14  1  0  0  0  0
 14 15  1  0  0  0  0
 14 16  1  0  0  0  0
 14 17  1  0  0  0  0
 17 18  1  0  0  0  0
 17 19  1  0  0  0  0
 17 20  1  0  0  0  0
 20 21  1  0  0  0  0
 20 22  1  0  0  0  0
 20 23  1  0  0  0  0
 23 24  1  0  0  0  0
 23 25  1  0  0  0  0
 23 26  1  0  0  0  0
 26 27  1  0  0  0  0
 26 28  1  0  0  0  0
 26 29  1  0  0  0  0
M  END
> <VM2 Rank>
266

> <Conf_Id>
1338

> <Probability>
0.01

> <Sum Probability>
99.42

> <Delta G>
3.850

> <G>
61.996

> <E>
24.360

> <-TS>
37.635

> <U+W>
0.216

> <U>
52.035

> <W>
-51.819

> <W(PB)>
-54.309

> <W(SA)>
2.490

> <Valence>
5.871

> <Coulomb>
45.296

> <VdW>
0.868

> <VdW6>
-9.137

> <VdW12>
10.005

> <Bond>
0.251

> <Angle>
1.315

> <Pdih>
4.305

> <Idih>
0.000

> <Tether>
0.000

$$$$
VeraChem MOL file


 29 28  0  0  0  0  0  0  0  0999 V2000     
   20.3316   17.5867   20.4551 C   0  0  0  0  0  0  0  0  0  0  0  0
   19.9426   17.9039   19.4787 H   0  0  0  0  0  0  0  0  0  0  0  0
   21.4088   17.7971   20.4789 H   0  0  0  0  0  0  0  0  0  0  0  0
   20.1985   16.4999   20.5336 H   0  0  0  0  0  0  0  0  0  0  0  0
   19.6002   18.3096   21.6058 C   0  0  0  0  0  0  0  0  0  0  0  0
   19.9913   17.9375   22.5618 H   0  0  0  0  0  0  0  0  0  0  0  0
   18.5307   18.0596   21.5721 H   0  0  0  0  0  0  0  0  0  0  0  0
   19.7827   19.8422   21.5236 C   0  0  0  0  0  0  0  0  0  0  0  0
   20.8463   20.0894   21.6461 H   0  0  0  0  0  0  0  0  0  0  0  0
   19.5049   20.1810   20.5160 H   0  0  0  0  0  0  0  0  0  0  0  0
   18.9458   20.6442   22.5535 C   0  0  0  0  0  0  0  0  0  0  0  0
   17.8735   20.4928   22.3682 H   0  0  0  0  0  0  0  0  0  0  0  0
   19.1296   21.7116   22.3683 H   0  0  0  0  0  0  0  0  0  0  0  0
   19.2846   20.3462   24.0373 C   0  0  0  0  0  0  0  0  0  0  0  0
   20.3340   20.0344   24.1220 H   0  0  0  0  0  0  0  0  0  0  0  0
   19.1993   21.2816   24.6074 H   0  0  0  0  0  0  0  0  0  0  0  0
   18.3401   19.3005   24.6845 C   0  0  0  0  0  0  0  0  0  0  0  0
   18.3748   18.3525   24.1346 H   0  0  0  0  0  0  0  0  0  0  0  0
   17.3045   19.6596   24.6089 H   0  0  0  0  0  0  0  0  0  0  0  0
   18.6624   19.0356   26.1736 C   0  0  0  0  0  0  0  0  0  0  0  0
   18.6078   19.9766   26.7372 H   0  0  0  0  0  0  0  0  0  0  0  0
   17.8932   18.3730   26.5922 H   0  0  0  0  0  0  0  0  0  0  0  0
   20.0459   18.3895   26.3748 C   0  0  0  0  0  0  0  0  0  0  0  0
   20.8255   19.0590   26.0027 H   0  0  0  0  0  0  0  0  0  0  0  0
   20.0993   17.4524   25.8140 H   0  0  0  0  0  0  0  0  0  0  0  0
   20.3507   18.0836   27.8268 N   0  3  0  0  0  0  0  0  0  0  0  0
   21.2756   17.6540   27.9398 H   0  0  0  0  0  0  0  0  0  0  0  0
   19.6682   17.4342   28.2316 H   0  0  0  0  0  0  0  0  0  0  0  0
   20.3417   18.9303   28.4052 H   0  0  0  0  0  0  0  0  0  0  0  0
  1  2  1  0  0  0  0
  1  3  1  0  0  0  0
  1  4  1  0  0  0  0
  1  5  1  0  0  0  0
  5  6  1  0  0  0  0
  5  7  1  0  0  0  0
  5  8  1  0  0  0  0
  8  9  1  0  0  0  0
  8 10  1  0  0  0  0
  8 11  1  0  0  0  0
 11 12  1  0  0  0  0
 11 13  1  0  0  0  0
 11 14  1  0  0  0  0
 14 15  1  0  0  0  0
 14 16  1  0  0  0  0
 14 17  1  0  0  0  0
 17 18  1  0  0  0  0
 17 19  1  0  0  0  0
 17 20  1  0  0  0  0
 20 21  1  0  0  0  0
 20 22  1  0  0  0  0
 20 23  1  0  0  0  0
 23 24  1  0  0  0  0
 23 25  1  0  0  0  0
 23 26  1  0  0  0  0
 26 27  1  0  0  0  0
 26 28  1  0  0  0  0
 26 29  1  0  0  0  0
M  END
> <VM2 Rank>
267

> <Conf_Id>
324

> <Probability>
0.01

> <Sum Probability>
99.43

> <Delta G>
3.853

> <G>
61.999

> <E>
24.348

> <-TS>
37.652

> <U+W>
0.203

> <U>
52.224

> <W>
-52.021

> <W(PB)>
-54.492

> <W(SA)>
2.472

> <Valence>
5.910

> <Coulomb>
45.541

> <VdW>
0.773

> <VdW6>
-9.292

> <VdW12>
10.065

> <Bond>
0.258

> <Angle>
1.296

> <Pdih>
4.356

> <Idih>
0.000

> <Tether>
0.000

$$$$
VeraChem MOL file


 29 28  0  0  0  0  0  0  0  0999 V2000     
   21.3405   19.4462   21.2822 C   0  0  0  0  0  0  0  0  0  0  0  0
   21.6935   18.5768   20.7126 H   0  0  0  0  0  0  0  0  0  0  0  0
   22.0191   20.2821   21.0682 H   0  0  0  0  0  0  0  0  0  0  0  0
   21.4312   19.2098   22.3481 H   0  0  0  0  0  0  0  0  0  0  0  0
   19.8907   19.8121   20.8874 C   0  0  0  0  0  0  0  0  0  0  0  0
   19.8838   20.0577   19.8162 H   0  0  0  0  0  0  0  0  0  0  0  0
   19.5714   20.7253   21.4087 H   0  0  0  0  0  0  0  0  0  0  0  0
   18.8767   18.6662   21.1377 C   0  0  0  0  0  0  0  0  0  0  0  0
   18.1261   18.6930   20.3357 H   0  0  0  0  0  0  0  0  0  0  0  0
   19.3745   17.6912   21.0441 H   0  0  0  0  0  0  0  0  0  0  0  0
   18.1187   18.7500   22.4878 C   0  0  0  0  0  0  0  0  0  0  0  0
   17.3858   17.9321   22.5208 H   0  0  0  0  0  0  0  0  0  0  0  0
   17.5382   19.6823   22.5228 H   0  0  0  0  0  0  0  0  0  0  0  0
   19.0272   18.6636   23.7357 C   0  0  0  0  0  0  0  0  0  0  0  0
   19.6771   17.7813   23.6567 H   0  0  0  0  0  0  0  0  0  0  0  0
   19.6776   19.5461   23.7706 H   0  0  0  0  0  0  0  0  0  0  0  0
   18.2014   18.5828   25.0420 C   0  0  0  0  0  0  0  0  0  0  0  0
   17.5175   17.7247   24.9854 H   0  0  0  0  0  0  0  0  0  0  0  0
   17.5706   19.4775   25.1376 H   0  0  0  0  0  0  0  0  0  0  0  0
   19.0799   18.4330   26.3062 C   0  0  0  0  0  0  0  0  0  0  0  0
   18.4277   18.2939   27.1787 H   0  0  0  0  0  0  0  0  0  0  0  0
   19.6930   17.5256   26.2240 H   0  0  0  0  0  0  0  0  0  0  0  0
   19.9894   19.6523   26.5472 C   0  0  0  0  0  0  0  0  0  0  0  0
   19.3793   20.5558   26.6298 H   0  0  0  0  0  0  0  0  0  0  0  0
   20.6754   19.7751   25.7053 H   0  0  0  0  0  0  0  0  0  0  0  0
   20.8195   19.5316   27.8087 N   0  3  0  0  0  0  0  0  0  0  0  0
   20.2325   19.4409   28.6446 H   0  0  0  0  0  0  0  0  0  0  0  0
   21.4176   20.3529   27.9513 H   0  0  0  0  0  0  0  0  0  0  0  0
   21.4366   18.7131   27.7828 H   0  0  0  0  0  0  0  0  0  0  0  0
  1  2  1  0  0  0  0
  1  3  1  0  0  0  0
  1  4  1  0  0  0  0
  1  5  1  0  0  0  0
  5  6  1  0  0  0  0
  5  7  1  0  0  0  0
  5  8  1  0  0  0  0
  8  9  1  0  0  0  0
  8 10  1  0  0  0  0
  8 11  1  0  0  0  0
 11 12  1  0  0  0  0
 11 13  1  0  0  0  0
 11 14  1  0  0  0  0
 14 15  1  0  0  0  0
 14 16  1  0  0  0  0
 14 17  1  0  0  0  0
 17 18  1  0  0  0  0
 17 19  1  0  0  0  0
 17 20  1  0  0  0  0
 20 21  1  0  0  0  0
 20 22  1  0  0  0  0
 20 23  1  0  0  0  0
 23 24  1  0  0  0  0
 23 25  1  0  0  0  0
 23 26  1  0  0  0  0
 26 27  1  0  0  0  0
 26 28  1  0  0  0  0
 26 29  1  0  0  0  0
M  END
> <VM2 Rank>
268

> <Conf_Id>
1990

> <Probability>
0.01

> <Sum Probability>
99.44

> <Delta G>
3.860

> <G>
62.007

> <E>
24.366

> <-TS>
37.640

> <U+W>
0.222

> <U>
52.117

> <W>
-51.895

> <W(PB)>
-54.375

> <W(SA)>
2.480

> <Valence>
5.869

> <Coulomb>
45.382

> <VdW>
0.866

> <VdW6>
-9.162

> <VdW12>
10.028

> <Bond>
0.253

> <Angle>
1.308

> <Pdih>
4.308

> <Idih>
0.000

> <Tether>
0.000

$$$$
VeraChem MOL file


 29 28  0  0  0  0  0  0  0  0999 V2000     
   19.9669   17.4316   20.8212 C   0  0  0  0  0  0  0  0  0  0  0  0
   20.9917   17.7575   20.6006 H   0  0  0  0  0  0  0  0  0  0  0  0
   19.9612   16.9586   21.8109 H   0  0  0  0  0  0  0  0  0  0  0  0
   19.6937   16.6627   20.0869 H   0  0  0  0  0  0  0  0  0  0  0  0
   18.9796   18.6188   20.7532 C   0  0  0  0  0  0  0  0  0  0  0  0
   17.9686   18.2736   21.0107 H   0  0  0  0  0  0  0  0  0  0  0  0
   18.9274   18.9766   19.7155 H   0  0  0  0  0  0  0  0  0  0  0  0
   19.3766   19.8034   21.6670 C   0  0  0  0  0  0  0  0  0  0  0  0
   20.3785   20.1601   21.3912 H   0  0  0  0  0  0  0  0  0  0  0  0
   18.6873   20.6370   21.4742 H   0  0  0  0  0  0  0  0  0  0  0  0
   19.3431   19.4562   23.1746 C   0  0  0  0  0  0  0  0  0  0  0  0
   20.0807   18.6712   23.3781 H   0  0  0  0  0  0  0  0  0  0  0  0
   18.3542   19.0563   23.4370 H   0  0  0  0  0  0  0  0  0  0  0  0
   19.6572   20.6889   24.0540 C   0  0  0  0  0  0  0  0  0  0  0  0
   20.6944   21.0064   23.8788 H   0  0  0  0  0  0  0  0  0  0  0  0
   19.0237   21.5273   23.7331 H   0  0  0  0  0  0  0  0  0  0  0  0
   19.4324   20.4722   25.5729 C   0  0  0  0  0  0  0  0  0  0  0  0
   18.3722   20.2661   25.7688 H   0  0  0  0  0  0  0  0  0  0  0  0
   19.6426   21.4267   26.0749 H   0  0  0  0  0  0  0  0  0  0  0  0
   20.3304   19.3848   26.2215 C   0  0  0  0  0  0  0  0  0  0  0  0
   21.3355   19.4255   25.7811 H   0  0  0  0  0  0  0  0  0  0  0  0
   20.4594   19.6193   27.2865 H   0  0  0  0  0  0  0  0  0  0  0  0
   19.7798   17.9471   26.1116 C   0  0  0  0  0  0  0  0  0  0  0  0
   20.5128   17.2491   26.5250 H   0  0  0  0  0  0  0  0  0  0  0  0
   19.6135   17.6814   25.0664 H   0  0  0  0  0  0  0  0  0  0  0  0
   18.4780   17.7351   26.8590 N   0  3  0  0  0  0  0  0  0  0  0  0
   18.5765   17.9394   27.8589 H   0  0  0  0  0  0  0  0  0  0  0  0
   18.1477   16.7669   26.7820 H   0  0  0  0  0  0  0  0  0  0  0  0
   17.7315   18.3375   26.4988 H   0  0  0  0  0  0  0  0  0  0  0  0
  1  2  1  0  0  0  0
  1  3  1  0  0  0  0
  1  4  1  0  0  0  0
  1  5  1  0  0  0  0
  5  6  1  0  0  0  0
  5  7  1  0  0  0  0
  5  8  1  0  0  0  0
  8  9  1  0  0  0  0
  8 10  1  0  0  0  0
  8 11  1  0  0  0  0
 11 12  1  0  0  0  0
 11 13  1  0  0  0  0
 11 14  1  0  0  0  0
 14 15  1  0  0  0  0
 14 16  1  0  0  0  0
 14 17  1  0  0  0  0
 17 18  1  0  0  0  0
 17 19  1  0  0  0  0
 17 20  1  0  0  0  0
 20 21  1  0  0  0  0
 20 22  1  0  0  0  0
 20 23  1  0  0  0  0
 23 24  1  0  0  0  0
 23 25  1  0  0  0  0
 23 26  1  0  0  0  0
 26 27  1  0  0  0  0
 26 28  1  0  0  0  0
 26 29  1  0  0  0  0
M  END
> <VM2 Rank>
269

> <Conf_Id>
835

> <Probability>
0.01

> <Sum Probability>
99.45

> <Delta G>
3.872

> <G>
62.019

> <E>
24.311

> <-TS>
37.708

> <U+W>
0.166

> <U>
52.635

> <W>
-52.469

> <W(PB)>
-54.906

> <W(SA)>
2.437

> <Valence>
5.624

> <Coulomb>
46.167

> <VdW>
0.844

> <VdW6>
-9.932

> <VdW12>
10.776

> <Bond>
0.284

> <Angle>
1.571

> <Pdih>
3.769

> <Idih>
0.000

> <Tether>
0.000

$$$$
VeraChem MOL file


 29 28  0  0  0  0  0  0  0  0999 V2000     
   21.0472   19.9754   21.4111 C   0  0  0  0  0  0  0  0  0  0  0  0
   21.6866   19.2014   21.8547 H   0  0  0  0  0  0  0  0  0  0  0  0
   21.6872   20.6397   20.8161 H   0  0  0  0  0  0  0  0  0  0  0  0
   20.6127   20.5769   22.2190 H   0  0  0  0  0  0  0  0  0  0  0  0
   19.9480   19.3498   20.5250 C   0  0  0  0  0  0  0  0  0  0  0  0
   20.4214   18.9037   19.6392 H   0  0  0  0  0  0  0  0  0  0  0  0
   19.2874   20.1436   20.1495 H   0  0  0  0  0  0  0  0  0  0  0  0
   19.1012   18.2601   21.2308 C   0  0  0  0  0  0  0  0  0  0  0  0
   18.3945   17.8602   20.4904 H   0  0  0  0  0  0  0  0  0  0  0  0
   19.7393   17.4132   21.5182 H   0  0  0  0  0  0  0  0  0  0  0  0
   18.2880   18.7610   22.4528 C   0  0  0  0  0  0  0  0  0  0  0  0
   17.3312   18.2214   22.4783 H   0  0  0  0  0  0  0  0  0  0  0  0
   18.0349   19.8226   22.3265 H   0  0  0  0  0  0  0  0  0  0  0  0
   19.0064   18.5336   23.8052 C   0  0  0  0  0  0  0  0  0  0  0  0
   19.1914   17.4592   23.9417 H   0  0  0  0  0  0  0  0  0  0  0  0
   19.9876   19.0210   23.7962 H   0  0  0  0  0  0  0  0  0  0  0  0
   18.1696   19.0653   24.9932 C   0  0  0  0  0  0  0  0  0  0  0  0
   17.1761   18.5962   24.9743 H   0  0  0  0  0  0  0  0  0  0  0  0
   18.0054   20.1456   24.8766 H   0  0  0  0  0  0  0  0  0  0  0  0
   18.8228   18.7890   26.3677 C   0  0  0  0  0  0  0  0  0  0  0  0
   18.1345   19.1111   27.1604 H   0  0  0  0  0  0  0  0  0  0  0  0
   18.9676   17.7081   26.4969 H   0  0  0  0  0  0  0  0  0  0  0  0
   20.1687   19.5167   26.5439 C   0  0  0  0  0  0  0  0  0  0  0  0
   20.0246   20.5929   26.4158 H   0  0  0  0  0  0  0  0  0  0  0  0
   20.8785   19.1714   25.7879 H   0  0  0  0  0  0  0  0  0  0  0  0
   20.7921   19.2870   27.9053 N   0  3  0  0  0  0  0  0  0  0  0  0
   20.1855   19.6168   28.6635 H   0  0  0  0  0  0  0  0  0  0  0  0
   21.6868   19.7796   28.0028 H   0  0  0  0  0  0  0  0  0  0  0  0
   20.9776   18.2934   28.0776 H   0  0  0  0  0  0  0  0  0  0  0  0
  1  2  1  0  0  0  0
  1  3  1  0  0  0  0
  1  4  1  0  0  0  0
  1  5  1  0  0  0  0
  5  6  1  0  0  0  0
  5  7  1  0  0  0  0
  5  8  1  0  0  0  0
  8  9  1  0  0  0  0
  8 10  1  0  0  0  0
  8 11  1  0  0  0  0
 11 12  1  0  0  0  0
 11 13  1  0  0  0  0
 11 14  1  0  0  0  0
 14 15  1  0  0  0  0
 14 16  1  0  0  0  0
 14 17  1  0  0  0  0
 17 18  1  0  0  0  0
 17 19  1  0  0  0  0
 17 20  1  0  0  0  0
 20 21  1  0  0  0  0
 20 22  1  0  0  0  0
 20 23  1  0  0  0  0
 23 24  1  0  0  0  0
 23 25  1  0  0  0  0
 23 26  1  0  0  0  0
 26 27  1  0  0  0  0
 26 28  1  0  0  0  0
 26 29  1  0  0  0  0
M  END
> <VM2 Rank>
270

> <Conf_Id>
274

> <Probability>
0.01

> <Sum Probability>
99.46

> <Delta G>
3.890

> <G>
62.037

> <E>
24.389

> <-TS>
37.647

> <U+W>
0.245

> <U>
52.045

> <W>
-51.800

> <W(PB)>
-54.288

> <W(SA)>
2.488

> <Valence>
5.850

> <Coulomb>
45.356

> <VdW>
0.839

> <VdW6>
-9.171

> <VdW12>
10.009

> <Bond>
0.253

> <Angle>
1.262

> <Pdih>
4.335

> <Idih>
0.000

> <Tether>
0.000

$$$$
VeraChem MOL file


 29 28  0  0  0  0  0  0  0  0999 V2000     
   20.3023   17.4558   21.0387 C   0  0  0  0  0  0  0  0  0  0  0  0
   19.2747   17.1143   21.2137 H   0  0  0  0  0  0  0  0  0  0  0  0
   20.6702   16.9462   20.1388 H   0  0  0  0  0  0  0  0  0  0  0  0
   20.9217   17.1314   21.8850 H   0  0  0  0  0  0  0  0  0  0  0  0
   20.3691   18.9891   20.8568 C   0  0  0  0  0  0  0  0  0  0  0  0
   19.7190   19.2925   20.0243 H   0  0  0  0  0  0  0  0  0  0  0  0
   21.3918   19.2658   20.5650 H   0  0  0  0  0  0  0  0  0  0  0  0
   19.9879   19.7750   22.1342 C   0  0  0  0  0  0  0  0  0  0  0  0
   20.6493   19.4716   22.9541 H   0  0  0  0  0  0  0  0  0  0  0  0
   20.1905   20.8405   21.9587 H   0  0  0  0  0  0  0  0  0  0  0  0
   18.4997   19.6088   22.5372 C   0  0  0  0  0  0  0  0  0  0  0  0
   18.2545   18.5528   22.7082 H   0  0  0  0  0  0  0  0  0  0  0  0
   17.8792   19.9315   21.6899 H   0  0  0  0  0  0  0  0  0  0  0  0
   18.1033   20.4447   23.7822 C   0  0  0  0  0  0  0  0  0  0  0  0
   18.7264   21.3470   23.8510 H   0  0  0  0  0  0  0  0  0  0  0  0
   17.0756   20.8060   23.6385 H   0  0  0  0  0  0  0  0  0  0  0  0
   18.1408   19.6676   25.1235 C   0  0  0  0  0  0  0  0  0  0  0  0
   17.4247   18.8351   25.0829 H   0  0  0  0  0  0  0  0  0  0  0  0
   17.7862   20.3368   25.9198 H   0  0  0  0  0  0  0  0  0  0  0  0
   19.5355   19.1248   25.5086 C   0  0  0  0  0  0  0  0  0  0  0  0
   19.8479   18.3573   24.7893 H   0  0  0  0  0  0  0  0  0  0  0  0
   20.2738   19.9365   25.4679 H   0  0  0  0  0  0  0  0  0  0  0  0
   19.5277   18.5102   26.9191 C   0  0  0  0  0  0  0  0  0  0  0  0
   18.8039   17.6917   26.9601 H   0  0  0  0  0  0  0  0  0  0  0  0
   19.2322   19.2682   27.6495 H   0  0  0  0  0  0  0  0  0  0  0  0
   20.8776   17.9620   27.3347 N   0  3  0  0  0  0  0  0  0  0  0  0
   21.5992   18.6905   27.3429 H   0  0  0  0  0  0  0  0  0  0  0  0
   21.2009   17.2229   26.7019 H   0  0  0  0  0  0  0  0  0  0  0  0
   20.8503   17.5578   28.2773 H   0  0  0  0  0  0  0  0  0  0  0  0
  1  2  1  0  0  0  0
  1  3  1  0  0  0  0
  1  4  1  0  0  0  0
  1  5  1  0  0  0  0
  5  6  1  0  0  0  0
  5  7  1  0  0  0  0
  5  8  1  0  0  0  0
  8  9  1  0  0  0  0
  8 10  1  0  0  0  0
  8 11  1  0  0  0  0
 11 12  1  0  0  0  0
 11 13  1  0  0  0  0
 11 14  1  0  0  0  0
 14 15  1  0  0  0  0
 14 16  1  0  0  0  0
 14 17  1  0  0  0  0
 17 18  1  0  0  0  0
 17 19  1  0  0  0  0
 17 20  1  0  0  0  0
 20 21  1  0  0  0  0
 20 22  1  0  0  0  0
 20 23  1  0  0  0  0
 23 24  1  0  0  0  0
 23 25  1  0  0  0  0
 23 26  1  0  0  0  0
 26 27  1  0  0  0  0
 26 28  1  0  0  0  0
 26 29  1  0  0  0  0
M  END
> <VM2 Rank>
271

> <Conf_Id>
1691

> <Probability>
0.01

> <Sum Probability>
99.46

> <Delta G>
3.902

> <G>
62.048

> <E>
24.403

> <-TS>
37.646

> <U+W>
0.258

> <U>
52.527

> <W>
-52.269

> <W(PB)>
-54.752

> <W(SA)>
2.483

> <Valence>
6.102

> <Coulomb>
45.609

> <VdW>
0.817

> <VdW6>
-9.371

> <VdW12>
10.188

> <Bond>
0.273

> <Angle>
1.408

> <Pdih>
4.421

> <Idih>
0.000

> <Tether>
0.000

$$$$
VeraChem MOL file


 29 28  0  0  0  0  0  0  0  0999 V2000     
   19.9084   19.5759   19.7896 C   0  0  0  0  0  0  0  0  0  0  0  0
   20.9449   19.4168   20.1120 H   0  0  0  0  0  0  0  0  0  0  0  0
   19.8737   19.4250   18.7029 H   0  0  0  0  0  0  0  0  0  0  0  0
   19.6414   20.6212   19.9922 H   0  0  0  0  0  0  0  0  0  0  0  0
   18.9380   18.6067   20.5016 C   0  0  0  0  0  0  0  0  0  0  0  0
   19.2418   17.5690   20.3053 H   0  0  0  0  0  0  0  0  0  0  0  0
   17.9366   18.7220   20.0637 H   0  0  0  0  0  0  0  0  0  0  0  0
   18.8435   18.8449   22.0279 C   0  0  0  0  0  0  0  0  0  0  0  0
   18.5114   19.8754   22.2105 H   0  0  0  0  0  0  0  0  0  0  0  0
   18.0623   18.1891   22.4360 H   0  0  0  0  0  0  0  0  0  0  0  0
   20.1739   18.5742   22.7747 C   0  0  0  0  0  0  0  0  0  0  0  0
   20.9363   19.2993   22.4608 H   0  0  0  0  0  0  0  0  0  0  0  0
   20.5516   17.5833   22.4874 H   0  0  0  0  0  0  0  0  0  0  0  0
   20.0325   18.6199   24.3157 C   0  0  0  0  0  0  0  0  0  0  0  0
   19.2971   17.8669   24.6251 H   0  0  0  0  0  0  0  0  0  0  0  0
   20.9940   18.3311   24.7621 H   0  0  0  0  0  0  0  0  0  0  0  0
   19.6199   20.0140   24.8503 C   0  0  0  0  0  0  0  0  0  0  0  0
   18.5865   20.2365   24.5527 H   0  0  0  0  0  0  0  0  0  0  0  0
   20.2493   20.7779   24.3731 H   0  0  0  0  0  0  0  0  0  0  0  0
   19.7495   20.1729   26.3866 C   0  0  0  0  0  0  0  0  0  0  0  0
   20.7877   20.0052   26.7027 H   0  0  0  0  0  0  0  0  0  0  0  0
   19.5233   21.2178   26.6372 H   0  0  0  0  0  0  0  0  0  0  0  0
   18.7962   19.2772   27.2045 C   0  0  0  0  0  0  0  0  0  0  0  0
   17.8120   19.2516   26.7293 H   0  0  0  0  0  0  0  0  0  0  0  0
   18.6790   19.7023   28.2050 H   0  0  0  0  0  0  0  0  0  0  0  0
   19.2821   17.8524   27.3842 N   0  3  0  0  0  0  0  0  0  0  0  0
   19.4103   17.3795   26.4851 H   0  0  0  0  0  0  0  0  0  0  0  0
   18.6200   17.2909   27.9310 H   0  0  0  0  0  0  0  0  0  0  0  0
   20.1811   17.8178   27.8760 H   0  0  0  0  0  0  0  0  0  0  0  0
  1  2  1  0  0  0  0
  1  3  1  0  0  0  0
  1  4  1  0  0  0  0
  1  5  1  0  0  0  0
  5  6  1  0  0  0  0
  5  7  1  0  0  0  0
  5  8  1  0  0  0  0
  8  9  1  0  0  0  0
  8 10  1  0  0  0  0
  8 11  1  0  0  0  0
 11 12  1  0  0  0  0
 11 13  1  0  0  0  0
 11 14  1  0  0  0  0
 14 15  1  0  0  0  0
 14 16  1  0  0  0  0
 14 17  1  0  0  0  0
 17 18  1  0  0  0  0
 17 19  1  0  0  0  0
 17 20  1  0  0  0  0
 20 21  1  0  0  0  0
 20 22  1  0  0  0  0
 20 23  1  0  0  0  0
 23 24  1  0  0  0  0
 23 25  1  0  0  0  0
 23 26  1  0  0  0  0
 26 27  1  0  0  0  0
 26 28  1  0  0  0  0
 26 29  1  0  0  0  0
M  END
> <VM2 Rank>
272

> <Conf_Id>
968

> <Probability>
0.01

> <Sum Probability>
99.47

> <Delta G>
3.910

> <G>
62.056

> <E>
24.445

> <-TS>
37.611

> <U+W>
0.300

> <U>
52.339

> <W>
-52.039

> <W(PB)>
-54.496

> <W(SA)>
2.457

> <Valence>
5.123

> <Coulomb>
46.319

> <VdW>
0.897

> <VdW6>
-9.792

> <VdW12>
10.689

> <Bond>
0.276

> <Angle>
1.343

> <Pdih>
3.505

> <Idih>
0.000

> <Tether>
0.000

$$$$
VeraChem MOL file


 29 28  0  0  0  0  0  0  0  0999 V2000     
   19.3191   18.7568   19.5081 C   0  0  0  0  0  0  0  0  0  0  0  0
   20.3208   19.0780   19.1939 H   0  0  0  0  0  0  0  0  0  0  0  0
   19.2336   17.6773   19.3273 H   0  0  0  0  0  0  0  0  0  0  0  0
   18.5859   19.2646   18.8680 H   0  0  0  0  0  0  0  0  0  0  0  0
   19.0702   19.0923   20.9938 C   0  0  0  0  0  0  0  0  0  0  0  0
   18.0515   18.7869   21.2706 H   0  0  0  0  0  0  0  0  0  0  0  0
   19.1241   20.1810   21.1277 H   0  0  0  0  0  0  0  0  0  0  0  0
   20.0947   18.3903   21.9160 C   0  0  0  0  0  0  0  0  0  0  0  0
   20.0753   17.3102   21.7158 H   0  0  0  0  0  0  0  0  0  0  0  0
   21.1096   18.7312   21.6691 H   0  0  0  0  0  0  0  0  0  0  0  0
   19.8235   18.6161   23.4236 C   0  0  0  0  0  0  0  0  0  0  0  0
   20.5339   18.0086   24.0008 H   0  0  0  0  0  0  0  0  0  0  0  0
   18.8190   18.2438   23.6611 H   0  0  0  0  0  0  0  0  0  0  0  0
   19.9502   20.0979   23.8546 C   0  0  0  0  0  0  0  0  0  0  0  0
   20.8675   20.5173   23.4190 H   0  0  0  0  0  0  0  0  0  0  0  0
   19.1182   20.6789   23.4350 H   0  0  0  0  0  0  0  0  0  0  0  0
   20.0016   20.3201   25.3884 C   0  0  0  0  0  0  0  0  0  0  0  0
   20.1614   21.3938   25.5585 H   0  0  0  0  0  0  0  0  0  0  0  0
   20.8843   19.8230   25.8107 H   0  0  0  0  0  0  0  0  0  0  0  0
   18.7179   19.9039   26.1556 C   0  0  0  0  0  0  0  0  0  0  0  0
   18.6577   20.4833   27.0865 H   0  0  0  0  0  0  0  0  0  0  0  0
   17.8318   20.1828   25.5702 H   0  0  0  0  0  0  0  0  0  0  0  0
   18.6404   18.4061   26.5193 C   0  0  0  0  0  0  0  0  0  0  0  0
   18.7077   17.7918   25.6202 H   0  0  0  0  0  0  0  0  0  0  0  0
   17.6778   18.2018   26.9959 H   0  0  0  0  0  0  0  0  0  0  0  0
   19.7265   17.9545   27.4756 N   0  3  0  0  0  0  0  0  0  0  0  0
   19.6965   18.4757   28.3580 H   0  0  0  0  0  0  0  0  0  0  0  0
   20.6612   18.0866   27.0773 H   0  0  0  0  0  0  0  0  0  0  0  0
   19.6370   16.9601   27.7116 H   0  0  0  0  0  0  0  0  0  0  0  0
  1  2  1  0  0  0  0
  1  3  1  0  0  0  0
  1  4  1  0  0  0  0
  1  5  1  0  0  0  0
  5  6  1  0  0  0  0
  5  7  1  0  0  0  0
  5  8  1  0  0  0  0
  8  9  1  0  0  0  0
  8 10  1  0  0  0  0
  8 11  1  0  0  0  0
 11 12  1  0  0  0  0
 11 13  1  0  0  0  0
 11 14  1  0  0  0  0
 14 15  1  0  0  0  0
 14 16  1  0  0  0  0
 14 17  1  0  0  0  0
 17 18  1  0  0  0  0
 17 19  1  0  0  0  0
 17 20  1  0  0  0  0
 20 21  1  0  0  0  0
 20 22  1  0  0  0  0
 20 23  1  0  0  0  0
 23 24  1  0  0  0  0
 23 25  1  0  0  0  0
 23 26  1  0  0  0  0
 26 27  1  0  0  0  0
 26 28  1  0  0  0  0
 26 29  1  0  0  0  0
M  END
> <VM2 Rank>
273

> <Conf_Id>
2472

> <Probability>
0.01

> <Sum Probability>
99.48

> <Delta G>
3.911

> <G>
62.057

> <E>
24.354

> <-TS>
37.703

> <U+W>
0.210

> <U>
52.451

> <W>
-52.241

> <W(PB)>
-54.686

> <W(SA)>
2.445

> <Valence>
5.609

> <Coulomb>
46.005

> <VdW>
0.837

> <VdW6>
-9.912

> <VdW12>
10.749

> <Bond>
0.284

> <Angle>
1.564

> <Pdih>
3.761

> <Idih>
0.000

> <Tether>
0.000

$$$$
VeraChem MOL file


 29 28  0  0  0  0  0  0  0  0999 V2000     
   19.5462   18.5548   19.7666 C   0  0  0  0  0  0  0  0  0  0  0  0
   19.6299   18.7369   18.6874 H   0  0  0  0  0  0  0  0  0  0  0  0
   20.4464   18.0119   20.0805 H   0  0  0  0  0  0  0  0  0  0  0  0
   18.6771   17.9047   19.9312 H   0  0  0  0  0  0  0  0  0  0  0  0
   19.3939   19.8897   20.5303 C   0  0  0  0  0  0  0  0  0  0  0  0
   18.5503   20.4490   20.1022 H   0  0  0  0  0  0  0  0  0  0  0  0
   20.2867   20.5104   20.3712 H   0  0  0  0  0  0  0  0  0  0  0  0
   19.1487   19.7039   22.0470 C   0  0  0  0  0  0  0  0  0  0  0  0
   18.9503   20.6887   22.4919 H   0  0  0  0  0  0  0  0  0  0  0  0
   18.2385   19.1074   22.1931 H   0  0  0  0  0  0  0  0  0  0  0  0
   20.3411   19.0450   22.7852 C   0  0  0  0  0  0  0  0  0  0  0  0
   21.2632   19.5860   22.5320 H   0  0  0  0  0  0  0  0  0  0  0  0
   20.4796   18.0146   22.4322 H   0  0  0  0  0  0  0  0  0  0  0  0
   20.1808   19.0378   24.3250 C   0  0  0  0  0  0  0  0  0  0  0  0
   21.1026   18.6371   24.7689 H   0  0  0  0  0  0  0  0  0  0  0  0
   20.0812   20.0730   24.6743 H   0  0  0  0  0  0  0  0  0  0  0  0
   18.9735   18.1970   24.8097 C   0  0  0  0  0  0  0  0  0  0  0  0
   18.9863   17.2269   24.2939 H   0  0  0  0  0  0  0  0  0  0  0  0
   18.0358   18.6886   24.5182 H   0  0  0  0  0  0  0  0  0  0  0  0
   18.9523   17.9313   26.3367 C   0  0  0  0  0  0  0  0  0  0  0  0
   18.1137   17.2548   26.5489 H   0  0  0  0  0  0  0  0  0  0  0  0
   19.8588   17.3933   26.6444 H   0  0  0  0  0  0  0  0  0  0  0  0
   18.7669   19.1944   27.2027 C   0  0  0  0  0  0  0  0  0  0  0  0
   18.3935   18.8995   28.1871 H   0  0  0  0  0  0  0  0  0  0  0  0
   18.0265   19.8544   26.7427 H   0  0  0  0  0  0  0  0  0  0  0  0
   20.0406   19.9841   27.4318 N   0  3  0  0  0  0  0  0  0  0  0  0
   20.4513   20.3049   26.5505 H   0  0  0  0  0  0  0  0  0  0  0  0
   20.7525   19.4239   27.9121 H   0  0  0  0  0  0  0  0  0  0  0  0
   19.8739   20.8154   28.0096 H   0  0  0  0  0  0  0  0  0  0  0  0
  1  2  1  0  0  0  0
  1  3  1  0  0  0  0
  1  4  1  0  0  0  0
  1  5  1  0  0  0  0
  5  6  1  0  0  0  0
  5  7  1  0  0  0  0
  5  8  1  0  0  0  0
  8  9  1  0  0  0  0
  8 10  1  0  0  0  0
  8 11  1  0  0  0  0
 11 12  1  0  0  0  0
 11 13  1  0  0  0  0
 11 14  1  0  0  0  0
 14 15  1  0  0  0  0
 14 16  1  0  0  0  0
 14 17  1  0  0  0  0
 17 18  1  0  0  0  0
 17 19  1  0  0  0  0
 17 20  1  0  0  0  0
 20 21  1  0  0  0  0
 20 22  1  0  0  0  0
 20 23  1  0  0  0  0
 23 24  1  0  0  0  0
 23 25  1  0  0  0  0
 23 26  1  0  0  0  0
 26 27  1  0  0  0  0
 26 28  1  0  0  0  0
 26 29  1  0  0  0  0
M  END
> <VM2 Rank>
274

> <Conf_Id>
2321

> <Probability>
0.01

> <Sum Probability>
99.48

> <Delta G>
3.927

> <G>
62.073

> <E>
24.462

> <-TS>
37.612

> <U+W>
0.317

> <U>
52.339

> <W>
-52.022

> <W(PB)>
-54.481

> <W(SA)>
2.459

> <Valence>
5.124

> <Coulomb>
46.319

> <VdW>
0.897

> <VdW6>
-9.793

> <VdW12>
10.689

> <Bond>
0.276

> <Angle>
1.342

> <Pdih>
3.505

> <Idih>
0.000

> <Tether>
0.000

$$$$
VeraChem MOL file


 29 28  0  0  0  0  0  0  0  0999 V2000     
   19.6091   19.5723   19.5263 C   0  0  0  0  0  0  0  0  0  0  0  0
   20.2268   20.4695   19.3896 H   0  0  0  0  0  0  0  0  0  0  0  0
   20.1875   18.7036   19.1855 H   0  0  0  0  0  0  0  0  0  0  0  0
   18.7290   19.6671   18.8771 H   0  0  0  0  0  0  0  0  0  0  0  0
   19.1835   19.4106   21.0009 C   0  0  0  0  0  0  0  0  0  0  0  0
   18.5361   18.5281   21.0909 H   0  0  0  0  0  0  0  0  0  0  0  0
   18.5824   20.2793   21.3039 H   0  0  0  0  0  0  0  0  0  0  0  0
   20.4080   19.2712   21.9357 C   0  0  0  0  0  0  0  0  0  0  0  0
   20.9834   18.3763   21.6611 H   0  0  0  0  0  0  0  0  0  0  0  0
   21.0776   20.1280   21.7787 H   0  0  0  0  0  0  0  0  0  0  0  0
   20.0340   19.2078   23.4368 C   0  0  0  0  0  0  0  0  0  0  0  0
   19.4868   20.1208   23.7030 H   0  0  0  0  0  0  0  0  0  0  0  0
   20.9602   19.2069   24.0275 H   0  0  0  0  0  0  0  0  0  0  0  0
   19.1908   17.9630   23.8070 C   0  0  0  0  0  0  0  0  0  0  0  0
   18.1848   18.0549   23.3765 H   0  0  0  0  0  0  0  0  0  0  0  0
   19.6435   17.0763   23.3421 H   0  0  0  0  0  0  0  0  0  0  0  0
   19.0687   17.6976   25.3298 C   0  0  0  0  0  0  0  0  0  0  0  0
   20.0611   17.5087   25.7590 H   0  0  0  0  0  0  0  0  0  0  0  0
   18.5124   16.7584   25.4550 H   0  0  0  0  0  0  0  0  0  0  0  0
   18.3252   18.8000   26.1309 C   0  0  0  0  0  0  0  0  0  0  0  0
   17.4703   19.1665   25.5474 H   0  0  0  0  0  0  0  0  0  0  0  0
   17.8996   18.3523   27.0388 H   0  0  0  0  0  0  0  0  0  0  0  0
   19.2054   19.9946   26.5548 C   0  0  0  0  0  0  0  0  0  0  0  0
   18.5812   20.7416   27.0526 H   0  0  0  0  0  0  0  0  0  0  0  0
   19.6581   20.4636   25.6798 H   0  0  0  0  0  0  0  0  0  0  0  0
   20.3193   19.6209   27.5128 N   0  3  0  0  0  0  0  0  0  0  0  0
   20.9664   18.9445   27.0963 H   0  0  0  0  0  0  0  0  0  0  0  0
   19.9546   19.2010   28.3741 H   0  0  0  0  0  0  0  0  0  0  0  0
   20.8742   20.4383   27.7893 H   0  0  0  0  0  0  0  0  0  0  0  0
  1  2  1  0  0  0  0
  1  3  1  0  0  0  0
  1  4  1  0  0  0  0
  1  5  1  0  0  0  0
  5  6  1  0  0  0  0
  5  7  1  0  0  0  0
  5  8  1  0  0  0  0
  8  9  1  0  0  0  0
  8 10  1  0  0  0  0
  8 11  1  0  0  0  0
 11 12  1  0  0  0  0
 11 13  1  0  0  0  0
 11 14  1  0  0  0  0
 14 15  1  0  0  0  0
 14 16  1  0  0  0  0
 14 17  1  0  0  0  0
 17 18  1  0  0  0  0
 17 19  1  0  0  0  0
 17 20  1  0  0  0  0
 20 21  1  0  0  0  0
 20 22  1  0  0  0  0
 20 23  1  0  0  0  0
 23 24  1  0  0  0  0
 23 25  1  0  0  0  0
 23 26  1  0  0  0  0
 26 27  1  0  0  0  0
 26 28  1  0  0  0  0
 26 29  1  0  0  0  0
M  END
> <VM2 Rank>
275

> <Conf_Id>
2871

> <Probability>
0.01

> <Sum Probability>
99.49

> <Delta G>
3.943

> <G>
62.089

> <E>
24.387

> <-TS>
37.702

> <U+W>
0.242

> <U>
52.451

> <W>
-52.209

> <W(PB)>
-54.696

> <W(SA)>
2.487

> <Valence>
5.608

> <Coulomb>
46.006

> <VdW>
0.837

> <VdW6>
-9.912

> <VdW12>
10.749

> <Bond>
0.283

> <Angle>
1.564

> <Pdih>
3.761

> <Idih>
0.000

> <Tether>
0.000

$$$$
VeraChem MOL file


 29 28  0  0  0  0  0  0  0  0999 V2000     
   21.0430   19.5207   20.4247 C   0  0  0  0  0  0  0  0  0  0  0  0
   21.0012   20.6045   20.5948 H   0  0  0  0  0  0  0  0  0  0  0  0
   22.0994   19.2315   20.3504 H   0  0  0  0  0  0  0  0  0  0  0  0
   20.5665   19.3073   19.4590 H   0  0  0  0  0  0  0  0  0  0  0  0
   20.3474   18.7532   21.5687 C   0  0  0  0  0  0  0  0  0  0  0  0
   20.8755   18.9605   22.5089 H   0  0  0  0  0  0  0  0  0  0  0  0
   20.4308   17.6727   21.3867 H   0  0  0  0  0  0  0  0  0  0  0  0
   18.8571   19.1477   21.6960 C   0  0  0  0  0  0  0  0  0  0  0  0
   18.7749   20.2194   21.9204 H   0  0  0  0  0  0  0  0  0  0  0  0
   18.3664   19.0051   20.7233 H   0  0  0  0  0  0  0  0  0  0  0  0
   18.0841   18.3224   22.7571 C   0  0  0  0  0  0  0  0  0  0  0  0
   18.0809   17.2663   22.4542 H   0  0  0  0  0  0  0  0  0  0  0  0
   17.0320   18.6389   22.7516 H   0  0  0  0  0  0  0  0  0  0  0  0
   18.6322   18.4251   24.2037 C   0  0  0  0  0  0  0  0  0  0  0  0
   18.0022   17.8052   24.8564 H   0  0  0  0  0  0  0  0  0  0  0  0
   19.6387   17.9925   24.2388 H   0  0  0  0  0  0  0  0  0  0  0  0
   18.6564   19.8749   24.7480 C   0  0  0  0  0  0  0  0  0  0  0  0
   17.6866   20.3478   24.5406 H   0  0  0  0  0  0  0  0  0  0  0  0
   19.4085   20.4637   24.2059 H   0  0  0  0  0  0  0  0  0  0  0  0
   18.9310   19.9818   26.2696 C   0  0  0  0  0  0  0  0  0  0  0  0
   18.8331   21.0374   26.5557 H   0  0  0  0  0  0  0  0  0  0  0  0
   18.1603   19.4431   26.8368 H   0  0  0  0  0  0  0  0  0  0  0  0
   20.3342   19.5069   26.7001 C   0  0  0  0  0  0  0  0  0  0  0  0
   20.5813   19.9562   27.6658 H   0  0  0  0  0  0  0  0  0  0  0  0
   21.0782   19.8389   25.9711 H   0  0  0  0  0  0  0  0  0  0  0  0
   20.4587   18.0052   26.8671 N   0  3  0  0  0  0  0  0  0  0  0  0
   19.8172   17.6496   27.5836 H   0  0  0  0  0  0  0  0  0  0  0  0
   21.4058   17.7315   27.1511 H   0  0  0  0  0  0  0  0  0  0  0  0
   20.2469   17.5081   25.9975 H   0  0  0  0  0  0  0  0  0  0  0  0
  1  2  1  0  0  0  0
  1  3  1  0  0  0  0
  1  4  1  0  0  0  0
  1  5  1  0  0  0  0
  5  6  1  0  0  0  0
  5  7  1  0  0  0  0
  5  8  1  0  0  0  0
  8  9  1  0  0  0  0
  8 10  1  0  0  0  0
  8 11  1  0  0  0  0
 11 12  1  0  0  0  0
 11 13  1  0  0  0  0
 11 14  1  0  0  0  0
 14 15  1  0  0  0  0
 14 16  1  0  0  0  0
 14 17  1  0  0  0  0
 17 18  1  0  0  0  0
 17 19  1  0  0  0  0
 17 20  1  0  0  0  0
 20 21  1  0  0  0  0
 20 22  1  0  0  0  0
 20 23  1  0  0  0  0
 23 24  1  0  0  0  0
 23 25  1  0  0  0  0
 23 26  1  0  0  0  0
 26 27  1  0  0  0  0
 26 28  1  0  0  0  0
 26 29  1  0  0  0  0
M  END
> <VM2 Rank>
276

> <Conf_Id>
144

> <Probability>
0.01

> <Sum Probability>
99.50

> <Delta G>
3.948

> <G>
62.094

> <E>
24.288

> <-TS>
37.806

> <U+W>
0.143

> <U>
52.644

> <W>
-52.501

> <W(PB)>
-54.934

> <W(SA)>
2.433

> <Valence>
5.097

> <Coulomb>
46.891

> <VdW>
0.657

> <VdW6>
-10.249

> <VdW12>
10.906

> <Bond>
0.285

> <Angle>
1.535

> <Pdih>
3.277

> <Idih>
0.000

> <Tether>
0.000

$$$$
VeraChem MOL file


 29 28  0  0  0  0  0  0  0  0999 V2000     
   21.2806   18.6280   20.4299 C   0  0  0  0  0  0  0  0  0  0  0  0
   21.6167   17.6748   20.8584 H   0  0  0  0  0  0  0  0  0  0  0  0
   21.4188   18.5760   19.3421 H   0  0  0  0  0  0  0  0  0  0  0  0
   21.9310   19.4243   20.8146 H   0  0  0  0  0  0  0  0  0  0  0  0
   19.8024   18.9022   20.7787 C   0  0  0  0  0  0  0  0  0  0  0  0
   19.1742   18.1081   20.3513 H   0  0  0  0  0  0  0  0  0  0  0  0
   19.4855   19.8444   20.3099 H   0  0  0  0  0  0  0  0  0  0  0  0
   19.5806   18.9792   22.3053 C   0  0  0  0  0  0  0  0  0  0  0  0
   19.8937   18.0337   22.7691 H   0  0  0  0  0  0  0  0  0  0  0  0
   20.2189   19.7716   22.7166 H   0  0  0  0  0  0  0  0  0  0  0  0
   18.1028   19.2665   22.6578 C   0  0  0  0  0  0  0  0  0  0  0  0
   17.4632   18.5465   22.1288 H   0  0  0  0  0  0  0  0  0  0  0  0
   17.8233   20.2592   22.2788 H   0  0  0  0  0  0  0  0  0  0  0  0
   17.7774   19.1816   24.1713 C   0  0  0  0  0  0  0  0  0  0  0  0
   16.6985   19.3560   24.2850 H   0  0  0  0  0  0  0  0  0  0  0  0
   17.9479   18.1591   24.5320 H   0  0  0  0  0  0  0  0  0  0  0  0
   18.5261   20.2150   25.0568 C   0  0  0  0  0  0  0  0  0  0  0  0
   17.8553   20.5360   25.8659 H   0  0  0  0  0  0  0  0  0  0  0  0
   18.7359   21.1205   24.4710 H   0  0  0  0  0  0  0  0  0  0  0  0
   19.8361   19.6921   25.6989 C   0  0  0  0  0  0  0  0  0  0  0  0
   20.5268   19.3286   24.9300 H   0  0  0  0  0  0  0  0  0  0  0  0
   20.3410   20.5292   26.1991 H   0  0  0  0  0  0  0  0  0  0  0  0
   19.5845   18.5769   26.7313 C   0  0  0  0  0  0  0  0  0  0  0  0
   19.1183   17.7168   26.2444 H   0  0  0  0  0  0  0  0  0  0  0  0
   18.9075   18.9414   27.5085 H   0  0  0  0  0  0  0  0  0  0  0  0
   20.8536   18.0966   27.4050 N   0  3  0  0  0  0  0  0  0  0  0  0
   21.3286   18.8535   27.9079 H   0  0  0  0  0  0  0  0  0  0  0  0
   21.5240   17.7153   26.7293 H   0  0  0  0  0  0  0  0  0  0  0  0
   20.6645   17.3559   28.0893 H   0  0  0  0  0  0  0  0  0  0  0  0
  1  2  1  0  0  0  0
  1  3  1  0  0  0  0
  1  4  1  0  0  0  0
  1  5  1  0  0  0  0
  5  6  1  0  0  0  0
  5  7  1  0  0  0  0
  5  8  1  0  0  0  0
  8  9  1  0  0  0  0
  8 10  1  0  0  0  0
  8 11  1  0  0  0  0
 11 12  1  0  0  0  0
 11 13  1  0  0  0  0
 11 14  1  0  0  0  0
 14 15  1  0  0  0  0
 14 16  1  0  0  0  0
 14 17  1  0  0  0  0
 17 18  1  0  0  0  0
 17 19  1  0  0  0  0
 17 20  1  0  0  0  0
 20 21  1  0  0  0  0
 20 22  1  0  0  0  0
 20 23  1  0  0  0  0
 23 24  1  0  0  0  0
 23 25  1  0  0  0  0
 23 26  1  0  0  0  0
 26 27  1  0  0  0  0
 26 28  1  0  0  0  0
 26 29  1  0  0  0  0
M  END
> <VM2 Rank>
277

> <Conf_Id>
1056

> <Probability>
0.01

> <Sum Probability>
99.51

> <Delta G>
3.952

> <G>
62.099

> <E>
24.475

> <-TS>
37.624

> <U+W>
0.330

> <U>
52.594

> <W>
-52.264

> <W(PB)>
-54.747

> <W(SA)>
2.483

> <Valence>
6.024

> <Coulomb>
45.774

> <VdW>
0.796

> <VdW6>
-9.191

> <VdW12>
9.987

> <Bond>
0.266

> <Angle>
1.394

> <Pdih>
4.364

> <Idih>
0.000

> <Tether>
0.000

$$$$
VeraChem MOL file


 29 28  0  0  0  0  0  0  0  0999 V2000     
   21.0867   18.5644   21.0944 C   0  0  0  0  0  0  0  0  0  0  0  0
   21.7916   17.9417   20.5287 H   0  0  0  0  0  0  0  0  0  0  0  0
   21.3716   19.6141   20.9465 H   0  0  0  0  0  0  0  0  0  0  0  0
   21.2080   18.3145   22.1556 H   0  0  0  0  0  0  0  0  0  0  0  0
   19.6397   18.3077   20.6205 C   0  0  0  0  0  0  0  0  0  0  0  0
   19.3621   17.2684   20.8454 H   0  0  0  0  0  0  0  0  0  0  0  0
   19.6055   18.4016   19.5261 H   0  0  0  0  0  0  0  0  0  0  0  0
   18.5877   19.2697   21.2292 C   0  0  0  0  0  0  0  0  0  0  0  0
   18.7956   20.3023   20.9168 H   0  0  0  0  0  0  0  0  0  0  0  0
   17.6144   19.0172   20.7862 H   0  0  0  0  0  0  0  0  0  0  0  0
   18.4513   19.1893   22.7721 C   0  0  0  0  0  0  0  0  0  0  0  0
   18.7014   18.1757   23.1104 H   0  0  0  0  0  0  0  0  0  0  0  0
   17.3966   19.3475   23.0359 H   0  0  0  0  0  0  0  0  0  0  0  0
   19.2995   20.2503   23.5202 C   0  0  0  0  0  0  0  0  0  0  0  0
   20.3645   20.1271   23.2913 H   0  0  0  0  0  0  0  0  0  0  0  0
   19.0232   21.2477   23.1516 H   0  0  0  0  0  0  0  0  0  0  0  0
   19.1016   20.2269   25.0556 C   0  0  0  0  0  0  0  0  0  0  0  0
   18.0369   20.3587   25.2932 H   0  0  0  0  0  0  0  0  0  0  0  0
   19.6232   21.0927   25.4869 H   0  0  0  0  0  0  0  0  0  0  0  0
   19.6317   18.9381   25.7266 C   0  0  0  0  0  0  0  0  0  0  0  0
   19.0682   18.0665   25.3713 H   0  0  0  0  0  0  0  0  0  0  0  0
   20.6821   18.7811   25.4473 H   0  0  0  0  0  0  0  0  0  0  0  0
   19.5169   19.0174   27.2590 C   0  0  0  0  0  0  0  0  0  0  0  0
   18.4703   19.1572   27.5429 H   0  0  0  0  0  0  0  0  0  0  0  0
   20.0908   19.8718   27.6276 H   0  0  0  0  0  0  0  0  0  0  0  0
   20.0288   17.7742   27.9573 N   0  3  0  0  0  0  0  0  0  0  0  0
   21.0185   17.6013   27.7521 H   0  0  0  0  0  0  0  0  0  0  0  0
   19.5104   16.9361   27.6740 H   0  0  0  0  0  0  0  0  0  0  0  0
   19.9435   17.8480   28.9771 H   0  0  0  0  0  0  0  0  0  0  0  0
  1  2  1  0  0  0  0
  1  3  1  0  0  0  0
  1  4  1  0  0  0  0
  1  5  1  0  0  0  0
  5  6  1  0  0  0  0
  5  7  1  0  0  0  0
  5  8  1  0  0  0  0
  8  9  1  0  0  0  0
  8 10  1  0  0  0  0
  8 11  1  0  0  0  0
 11 12  1  0  0  0  0
 11 13  1  0  0  0  0
 11 14  1  0  0  0  0
 14 15  1  0  0  0  0
 14 16  1  0  0  0  0
 14 17  1  0  0  0  0
 17 18  1  0  0  0  0
 17 19  1  0  0  0  0
 17 20  1  0  0  0  0
 20 21  1  0  0  0  0
 20 22  1  0  0  0  0
 20 23  1  0  0  0  0
 23 24  1  0  0  0  0
 23 25  1  0  0  0  0
 23 26  1  0  0  0  0
 26 27  1  0  0  0  0
 26 28  1  0  0  0  0
 26 29  1  0  0  0  0
M  END
> <VM2 Rank>
278

> <Conf_Id>
924

> <Probability>
0.01

> <Sum Probability>
99.51

> <Delta G>
3.955

> <G>
62.101

> <E>
24.503

> <-TS>
37.598

> <U+W>
0.359

> <U>
52.144

> <W>
-51.785

> <W(PB)>
-54.246

> <W(SA)>
2.461

> <Valence>
6.080

> <Coulomb>
45.181

> <VdW>
0.883

> <VdW6>
-9.251

> <VdW12>
10.134

> <Bond>
0.274

> <Angle>
1.423

> <Pdih>
4.382

> <Idih>
0.000

> <Tether>
0.000

$$$$
VeraChem MOL file


 29 28  0  0  0  0  0  0  0  0999 V2000     
   19.9583   17.4145   20.7823 C   0  0  0  0  0  0  0  0  0  0  0  0
   20.9809   17.7171   20.5220 H   0  0  0  0  0  0  0  0  0  0  0  0
   19.9816   16.9350   21.7688 H   0  0  0  0  0  0  0  0  0  0  0  0
   19.6366   16.6576   20.0553 H   0  0  0  0  0  0  0  0  0  0  0  0
   18.9985   18.6256   20.7624 C   0  0  0  0  0  0  0  0  0  0  0  0
   17.9901   18.3025   21.0565 H   0  0  0  0  0  0  0  0  0  0  0  0
   18.9146   18.9944   19.7306 H   0  0  0  0  0  0  0  0  0  0  0  0
   19.4600   19.7911   21.6702 C   0  0  0  0  0  0  0  0  0  0  0  0
   20.4566   20.1289   21.3542 H   0  0  0  0  0  0  0  0  0  0  0  0
   18.7819   20.6422   21.5178 H   0  0  0  0  0  0  0  0  0  0  0  0
   19.4841   19.4275   23.1741 C   0  0  0  0  0  0  0  0  0  0  0  0
   20.2196   18.6328   23.3541 H   0  0  0  0  0  0  0  0  0  0  0  0
   18.4992   19.0360   23.4575 H   0  0  0  0  0  0  0  0  0  0  0  0
   19.8291   20.6519   24.0533 C   0  0  0  0  0  0  0  0  0  0  0  0
   20.7261   21.1398   23.6475 H   0  0  0  0  0  0  0  0  0  0  0  0
   19.0205   21.3924   23.9811 H   0  0  0  0  0  0  0  0  0  0  0  0
   20.0953   20.3214   25.5448 C   0  0  0  0  0  0  0  0  0  0  0  0
   20.3740   21.2598   26.0439 H   0  0  0  0  0  0  0  0  0  0  0  0
   20.9751   19.6710   25.6330 H   0  0  0  0  0  0  0  0  0  0  0  0
   18.8878   19.7155   26.3091 C   0  0  0  0  0  0  0  0  0  0  0  0
   18.9890   19.9508   27.3769 H   0  0  0  0  0  0  0  0  0  0  0  0
   17.9607   20.2037   25.9805 H   0  0  0  0  0  0  0  0  0  0  0  0
   18.7397   18.1857   26.1685 C   0  0  0  0  0  0  0  0  0  0  0  0
   18.6577   17.9058   25.1170 H   0  0  0  0  0  0  0  0  0  0  0  0
   17.8255   17.8652   26.6754 H   0  0  0  0  0  0  0  0  0  0  0  0
   19.8912   17.4046   26.7703 N   0  3  0  0  0  0  0  0  0  0  0  0
   20.0017   17.6011   27.7705 H   0  0  0  0  0  0  0  0  0  0  0  0
   20.7815   17.6318   26.3168 H   0  0  0  0  0  0  0  0  0  0  0  0
   19.7548   16.3922   26.6769 H   0  0  0  0  0  0  0  0  0  0  0  0
  1  2  1  0  0  0  0
  1  3  1  0  0  0  0
  1  4  1  0  0  0  0
  1  5  1  0  0  0  0
  5  6  1  0  0  0  0
  5  7  1  0  0  0  0
  5  8  1  0  0  0  0
  8  9  1  0  0  0  0
  8 10  1  0  0  0  0
  8 11  1  0  0  0  0
 11 12  1  0  0  0  0
 11 13  1  0  0  0  0
 11 14  1  0  0  0  0
 14 15  1  0  0  0  0
 14 16  1  0  0  0  0
 14 17  1  0  0  0  0
 17 18  1  0  0  0  0
 17 19  1  0  0  0  0
 17 20  1  0  0  0  0
 20 21  1  0  0  0  0
 20 22  1  0  0  0  0
 20 23  1  0  0  0  0
 23 24  1  0  0  0  0
 23 25  1  0  0  0  0
 23 26  1  0  0  0  0
 26 27  1  0  0  0  0
 26 28  1  0  0  0  0
 26 29  1  0  0  0  0
M  END
> <VM2 Rank>
279

> <Conf_Id>
2922

> <Probability>
0.01

> <Sum Probability>
99.52

> <Delta G>
3.956

> <G>
62.102

> <E>
24.393

> <-TS>
37.709

> <U+W>
0.249

> <U>
52.677

> <W>
-52.429

> <W(PB)>
-54.882

> <W(SA)>
2.453

> <Valence>
5.621

> <Coulomb>
46.222

> <VdW>
0.835

> <VdW6>
-9.923

> <VdW12>
10.758

> <Bond>
0.281

> <Angle>
1.572

> <Pdih>
3.767

> <Idih>
0.000

> <Tether>
0.000

$$$$
VeraChem MOL file


 29 28  0  0  0  0  0  0  0  0999 V2000     
   20.3856   20.1210   20.3113 C   0  0  0  0  0  0  0  0  0  0  0  0
   20.8218   20.8926   20.9588 H   0  0  0  0  0  0  0  0  0  0  0  0
   20.8967   20.1681   19.3410 H   0  0  0  0  0  0  0  0  0  0  0  0
   19.3308   20.3705   20.1413 H   0  0  0  0  0  0  0  0  0  0  0  0
   20.5418   18.7168   20.9375 C   0  0  0  0  0  0  0  0  0  0  0  0
   21.6106   18.4650   20.9822 H   0  0  0  0  0  0  0  0  0  0  0  0
   20.0763   17.9665   20.2832 H   0  0  0  0  0  0  0  0  0  0  0  0
   19.9460   18.6114   22.3619 C   0  0  0  0  0  0  0  0  0  0  0  0
   20.1837   17.6186   22.7677 H   0  0  0  0  0  0  0  0  0  0  0  0
   20.4407   19.3466   23.0098 H   0  0  0  0  0  0  0  0  0  0  0  0
   18.4130   18.8232   22.4022 C   0  0  0  0  0  0  0  0  0  0  0  0
   17.9462   18.1972   21.6294 H   0  0  0  0  0  0  0  0  0  0  0  0
   18.1751   19.8627   22.1404 H   0  0  0  0  0  0  0  0  0  0  0  0
   17.7570   18.4828   23.7652 C   0  0  0  0  0  0  0  0  0  0  0  0
   16.6724   18.6168   23.6512 H   0  0  0  0  0  0  0  0  0  0  0  0
   17.8999   17.4188   23.9991 H   0  0  0  0  0  0  0  0  0  0  0  0
   18.2291   19.3644   24.9509 C   0  0  0  0  0  0  0  0  0  0  0  0
   17.3745   19.5308   25.6215 H   0  0  0  0  0  0  0  0  0  0  0  0
   18.5272   20.3577   24.5877 H   0  0  0  0  0  0  0  0  0  0  0  0
   19.3709   18.7274   25.7786 C   0  0  0  0  0  0  0  0  0  0  0  0
   19.0376   17.7612   26.1801 H   0  0  0  0  0  0  0  0  0  0  0  0
   20.2414   18.5242   25.1449 H   0  0  0  0  0  0  0  0  0  0  0  0
   19.7953   19.6412   26.9414 C   0  0  0  0  0  0  0  0  0  0  0  0
   18.9383   19.8289   27.5939 H   0  0  0  0  0  0  0  0  0  0  0  0
   20.1448   20.5995   26.5478 H   0  0  0  0  0  0  0  0  0  0  0  0
   20.9053   19.0499   27.7861 N   0  3  0  0  0  0  0  0  0  0  0  0
   20.6293   18.1571   28.2084 H   0  0  0  0  0  0  0  0  0  0  0  0
   21.1722   19.6743   28.5552 H   0  0  0  0  0  0  0  0  0  0  0  0
   21.7525   18.8749   27.2356 H   0  0  0  0  0  0  0  0  0  0  0  0
  1  2  1  0  0  0  0
  1  3  1  0  0  0  0
  1  4  1  0  0  0  0
  1  5  1  0  0  0  0
  5  6  1  0  0  0  0
  5  7  1  0  0  0  0
  5  8  1  0  0  0  0
  8  9  1  0  0  0  0
  8 10  1  0  0  0  0
  8 11  1  0  0  0  0
 11 12  1  0  0  0  0
 11 13  1  0  0  0  0
 11 14  1  0  0  0  0
 14 15  1  0  0  0  0
 14 16  1  0  0  0  0
 14 17  1  0  0  0  0
 17 18  1  0  0  0  0
 17 19  1  0  0  0  0
 17 20  1  0  0  0  0
 20 21  1  0  0  0  0
 20 22  1  0  0  0  0
 20 23  1  0  0  0  0
 23 24  1  0  0  0  0
 23 25  1  0  0  0  0
 23 26  1  0  0  0  0
 26 27  1  0  0  0  0
 26 28  1  0  0  0  0
 26 29  1  0  0  0  0
M  END
> <VM2 Rank>
280

> <Conf_Id>
1627

> <Probability>
0.01

> <Sum Probability>
99.53

> <Delta G>
3.968

> <G>
62.114

> <E>
24.426

> <-TS>
37.688

> <U+W>
0.282

> <U>
52.336

> <W>
-52.055

> <W(PB)>
-54.553

> <W(SA)>
2.498

> <Valence>
6.070

> <Coulomb>
45.396

> <VdW>
0.870

> <VdW6>
-9.253

> <VdW12>
10.123

> <Bond>
0.266

> <Angle>
1.373

> <Pdih>
4.431

> <Idih>
0.000

> <Tether>
0.000

$$$$
VeraChem MOL file


 29 28  0  0  0  0  0  0  0  0999 V2000     
   20.4488   17.8549   20.3873 C   0  0  0  0  0  0  0  0  0  0  0  0
   19.7285   17.0363   20.5147 H   0  0  0  0  0  0  0  0  0  0  0  0
   20.2285   18.3598   19.4377 H   0  0  0  0  0  0  0  0  0  0  0  0
   21.4508   17.4134   20.3095 H   0  0  0  0  0  0  0  0  0  0  0  0
   20.3794   18.8432   21.5706 C   0  0  0  0  0  0  0  0  0  0  0  0
   21.1300   19.6334   21.4306 H   0  0  0  0  0  0  0  0  0  0  0  0
   20.6439   18.3114   22.4942 H   0  0  0  0  0  0  0  0  0  0  0  0
   18.9740   19.4755   21.7033 C   0  0  0  0  0  0  0  0  0  0  0  0
   18.6979   19.9349   20.7441 H   0  0  0  0  0  0  0  0  0  0  0  0
   18.2293   18.6896   21.8860 H   0  0  0  0  0  0  0  0  0  0  0  0
   18.8822   20.5606   22.8073 C   0  0  0  0  0  0  0  0  0  0  0  0
   17.8673   20.9814   22.8042 H   0  0  0  0  0  0  0  0  0  0  0  0
   19.5519   21.3917   22.5467 H   0  0  0  0  0  0  0  0  0  0  0  0
   19.2213   20.0770   24.2407 C   0  0  0  0  0  0  0  0  0  0  0  0
   20.2740   19.7738   24.2787 H   0  0  0  0  0  0  0  0  0  0  0  0
   19.1161   20.9289   24.9264 H   0  0  0  0  0  0  0  0  0  0  0  0
   18.3156   18.9182   24.7264 C   0  0  0  0  0  0  0  0  0  0  0  0
   18.5338   18.0087   24.1508 H   0  0  0  0  0  0  0  0  0  0  0  0
   17.2684   19.1737   24.5140 H   0  0  0  0  0  0  0  0  0  0  0  0
   18.4390   18.6014   26.2385 C   0  0  0  0  0  0  0  0  0  0  0  0
   18.1741   19.4828   26.8375 H   0  0  0  0  0  0  0  0  0  0  0  0
   17.6920   17.8348   26.4837 H   0  0  0  0  0  0  0  0  0  0  0  0
   19.8203   18.0650   26.6679 C   0  0  0  0  0  0  0  0  0  0  0  0
   20.1975   17.3669   25.9159 H   0  0  0  0  0  0  0  0  0  0  0  0
   19.7140   17.5227   27.6114 H   0  0  0  0  0  0  0  0  0  0  0  0
   20.8633   19.1421   26.8930 N   0  3  0  0  0  0  0  0  0  0  0  0
   21.0258   19.6953   26.0469 H   0  0  0  0  0  0  0  0  0  0  0  0
   21.7662   18.7441   27.1743 H   0  0  0  0  0  0  0  0  0  0  0  0
   20.5807   19.7942   27.6321 H   0  0  0  0  0  0  0  0  0  0  0  0
  1  2  1  0  0  0  0
  1  3  1  0  0  0  0
  1  4  1  0  0  0  0
  1  5  1  0  0  0  0
  5  6  1  0  0  0  0
  5  7  1  0  0  0  0
  5  8  1  0  0  0  0
  8  9  1  0  0  0  0
  8 10  1  0  0  0  0
  8 11  1  0  0  0  0
 11 12  1  0  0  0  0
 11 13  1  0  0  0  0
 11 14  1  0  0  0  0
 14 15  1  0  0  0  0
 14 16  1  0  0  0  0
 14 17  1  0  0  0  0
 17 18  1  0  0  0  0
 17 19  1  0  0  0  0
 17 20  1  0  0  0  0
 20 21  1  0  0  0  0
 20 22  1  0  0  0  0
 20 23  1  0  0  0  0
 23 24  1  0  0  0  0
 23 25  1  0  0  0  0
 23 26  1  0  0  0  0
 26 27  1  0  0  0  0
 26 28  1  0  0  0  0
 26 29  1  0  0  0  0
M  END
> <VM2 Rank>
281

> <Conf_Id>
525

> <Probability>
0.01

> <Sum Probability>
99.53

> <Delta G>
3.973

> <G>
62.119

> <E>
24.311

> <-TS>
37.808

> <U+W>
0.166

> <U>
52.644

> <W>
-52.478

> <W(PB)>
-54.891

> <W(SA)>
2.412

> <Valence>
5.097

> <Coulomb>
46.891

> <VdW>
0.657

> <VdW6>
-10.250

> <VdW12>
10.907

> <Bond>
0.285

> <Angle>
1.535

> <Pdih>
3.277

> <Idih>
0.000

> <Tether>
0.000

$$$$
VeraChem MOL file


 29 28  0  0  0  0  0  0  0  0999 V2000     
   20.9305   20.1366   20.8817 C   0  0  0  0  0  0  0  0  0  0  0  0
   21.5219   19.2456   20.6340 H   0  0  0  0  0  0  0  0  0  0  0  0
   21.2151   20.9335   20.1825 H   0  0  0  0  0  0  0  0  0  0  0  0
   21.2110   20.4671   21.8894 H   0  0  0  0  0  0  0  0  0  0  0  0
   19.4163   19.8442   20.7806 C   0  0  0  0  0  0  0  0  0  0  0  0
   19.1644   19.6413   19.7303 H   0  0  0  0  0  0  0  0  0  0  0  0
   18.8472   20.7401   21.0657 H   0  0  0  0  0  0  0  0  0  0  0  0
   18.9624   18.6403   21.6410 C   0  0  0  0  0  0  0  0  0  0  0  0
   17.9042   18.4382   21.4251 H   0  0  0  0  0  0  0  0  0  0  0  0
   19.5173   17.7419   21.3373 H   0  0  0  0  0  0  0  0  0  0  0  0
   19.1345   18.8705   23.1615 C   0  0  0  0  0  0  0  0  0  0  0  0
   18.6172   19.7946   23.4534 H   0  0  0  0  0  0  0  0  0  0  0  0
   20.1992   19.0038   23.3856 H   0  0  0  0  0  0  0  0  0  0  0  0
   18.5863   17.6831   23.9869 C   0  0  0  0  0  0  0  0  0  0  0  0
   17.5700   17.4474   23.6420 H   0  0  0  0  0  0  0  0  0  0  0  0
   19.1917   16.7888   23.7847 H   0  0  0  0  0  0  0  0  0  0  0  0
   18.5275   17.9328   25.5162 C   0  0  0  0  0  0  0  0  0  0  0  0
   18.0799   17.0414   25.9770 H   0  0  0  0  0  0  0  0  0  0  0  0
   17.8336   18.7547   25.7350 H   0  0  0  0  0  0  0  0  0  0  0  0
   19.9015   18.1810   26.1947 C   0  0  0  0  0  0  0  0  0  0  0  0
   19.8380   17.8759   27.2477 H   0  0  0  0  0  0  0  0  0  0  0  0
   20.6606   17.5317   25.7390 H   0  0  0  0  0  0  0  0  0  0  0  0
   20.3852   19.6460   26.1495 C   0  0  0  0  0  0  0  0  0  0  0  0
   20.4392   19.9980   25.1181 H   0  0  0  0  0  0  0  0  0  0  0  0
   21.3884   19.7064   26.5801 H   0  0  0  0  0  0  0  0  0  0  0  0
   19.4999   20.6034   26.9229 N   0  3  0  0  0  0  0  0  0  0  0  0
   18.5460   20.6234   26.5493 H   0  0  0  0  0  0  0  0  0  0  0  0
   19.8573   21.5644   26.8889 H   0  0  0  0  0  0  0  0  0  0  0  0
   19.4327   20.3435   27.9124 H   0  0  0  0  0  0  0  0  0  0  0  0
  1  2  1  0  0  0  0
  1  3  1  0  0  0  0
  1  4  1  0  0  0  0
  1  5  1  0  0  0  0
  5  6  1  0  0  0  0
  5  7  1  0  0  0  0
  5  8  1  0  0  0  0
  8  9  1  0  0  0  0
  8 10  1  0  0  0  0
  8 11  1  0  0  0  0
 11 12  1  0  0  0  0
 11 13  1  0  0  0  0
 11 14  1  0  0  0  0
 14 15  1  0  0  0  0
 14 16  1  0  0  0  0
 14 17  1  0  0  0  0
 17 18  1  0  0  0  0
 17 19  1  0  0  0  0
 17 20  1  0  0  0  0
 20 21  1  0  0  0  0
 20 22  1  0  0  0  0
 20 23  1  0  0  0  0
 23 24  1  0  0  0  0
 23 25  1  0  0  0  0
 23 26  1  0  0  0  0
 26 27  1  0  0  0  0
 26 28  1  0  0  0  0
 26 29  1  0  0  0  0
M  END
> <VM2 Rank>
282

> <Conf_Id>
77

> <Probability>
0.01

> <Sum Probability>
99.54

> <Delta G>
3.984

> <G>
62.130

> <E>
24.423

> <-TS>
37.707

> <U+W>
0.279

> <U>
52.635

> <W>
-52.357

> <W(PB)>
-54.801

> <W(SA)>
2.445

> <Valence>
5.624

> <Coulomb>
46.167

> <VdW>
0.845

> <VdW6>
-9.932

> <VdW12>
10.776

> <Bond>
0.284

> <Angle>
1.571

> <Pdih>
3.768

> <Idih>
0.000

> <Tether>
0.000

$$$$
VeraChem MOL file


 29 28  0  0  0  0  0  0  0  0999 V2000     
   20.3560   18.1464   20.2595 C   0  0  0  0  0  0  0  0  0  0  0  0
   19.5850   17.9566   19.5016 H   0  0  0  0  0  0  0  0  0  0  0  0
   21.3316   17.9394   19.8008 H   0  0  0  0  0  0  0  0  0  0  0  0
   20.2137   17.4273   21.0733 H   0  0  0  0  0  0  0  0  0  0  0  0
   20.2926   19.6094   20.7567 C   0  0  0  0  0  0  0  0  0  0  0  0
   20.4797   20.2668   19.8961 H   0  0  0  0  0  0  0  0  0  0  0  0
   21.1055   19.8059   21.4695 H   0  0  0  0  0  0  0  0  0  0  0  0
   18.9254   19.9915   21.3800 C   0  0  0  0  0  0  0  0  0  0  0  0
   18.7213   21.0430   21.1353 H   0  0  0  0  0  0  0  0  0  0  0  0
   18.1175   19.4160   20.9075 H   0  0  0  0  0  0  0  0  0  0  0  0
   18.8508   19.8504   22.9223 C   0  0  0  0  0  0  0  0  0  0  0  0
   17.8734   20.2260   23.2549 H   0  0  0  0  0  0  0  0  0  0  0  0
   19.6041   20.5069   23.3775 H   0  0  0  0  0  0  0  0  0  0  0  0
   19.0356   18.4026   23.4385 C   0  0  0  0  0  0  0  0  0  0  0  0
   18.3896   17.7291   22.8588 H   0  0  0  0  0  0  0  0  0  0  0  0
   20.0693   18.0758   23.2665 H   0  0  0  0  0  0  0  0  0  0  0  0
   18.6978   18.2368   24.9404 C   0  0  0  0  0  0  0  0  0  0  0  0
   18.7611   17.1701   25.1967 H   0  0  0  0  0  0  0  0  0  0  0  0
   17.6554   18.5353   25.1189 H   0  0  0  0  0  0  0  0  0  0  0  0
   19.6360   19.0353   25.8753 C   0  0  0  0  0  0  0  0  0  0  0  0
   20.6807   18.7705   25.6647 H   0  0  0  0  0  0  0  0  0  0  0  0
   19.5300   20.1113   25.6874 H   0  0  0  0  0  0  0  0  0  0  0  0
   19.3251   18.7518   27.3554 C   0  0  0  0  0  0  0  0  0  0  0  0
   19.4458   17.6844   27.5591 H   0  0  0  0  0  0  0  0  0  0  0  0
   18.2904   19.0293   27.5739 H   0  0  0  0  0  0  0  0  0  0  0  0
   20.2246   19.5137   28.3069 N   0  3  0  0  0  0  0  0  0  0  0  0
   20.1377   20.5282   28.1849 H   0  0  0  0  0  0  0  0  0  0  0  0
   21.2129   19.2765   28.1705 H   0  0  0  0  0  0  0  0  0  0  0  0
   20.0010   19.3103   29.2874 H   0  0  0  0  0  0  0  0  0  0  0  0
  1  2  1  0  0  0  0
  1  3  1  0  0  0  0
  1  4  1  0  0  0  0
  1  5  1  0  0  0  0
  5  6  1  0  0  0  0
  5  7  1  0  0  0  0
  5  8  1  0  0  0  0
  8  9  1  0  0  0  0
  8 10  1  0  0  0  0
  8 11  1  0  0  0  0
 11 12  1  0  0  0  0
 11 13  1  0  0  0  0
 11 14  1  0  0  0  0
 14 15  1  0  0  0  0
 14 16  1  0  0  0  0
 14 17  1  0  0  0  0
 17 18  1  0  0  0  0
 17 19  1  0  0  0  0
 17 20  1  0  0  0  0
 20 21  1  0  0  0  0
 20 22  1  0  0  0  0
 20 23  1  0  0  0  0
 23 24  1  0  0  0  0
 23 25  1  0  0  0  0
 23 26  1  0  0  0  0
 26 27  1  0  0  0  0
 26 28  1  0  0  0  0
 26 29  1  0  0  0  0
M  END
> <VM2 Rank>
283

> <Conf_Id>
2644

> <Probability>
0.01

> <Sum Probability>
99.55

> <Delta G>
4.017

> <G>
62.163

> <E>
24.519

> <-TS>
37.645

> <U+W>
0.374

> <U>
51.963

> <W>
-51.589

> <W(PB)>
-54.078

> <W(SA)>
2.490

> <Valence>
6.066

> <Coulomb>
44.963

> <VdW>
0.933

> <VdW6>
-9.161

> <VdW12>
10.094

> <Bond>
0.266

> <Angle>
1.416

> <Pdih>
4.385

> <Idih>
0.000

> <Tether>
0.000

$$$$
VeraChem MOL file


 29 28  0  0  0  0  0  0  0  0999 V2000     
   21.1015   18.3783   21.1852 C   0  0  0  0  0  0  0  0  0  0  0  0
   21.0018   17.2878   21.1088 H   0  0  0  0  0  0  0  0  0  0  0  0
   21.9066   18.6907   20.5076 H   0  0  0  0  0  0  0  0  0  0  0  0
   21.4156   18.6247   22.2071 H   0  0  0  0  0  0  0  0  0  0  0  0
   19.7776   19.0840   20.8143 C   0  0  0  0  0  0  0  0  0  0  0  0
   19.5676   18.9054   19.7505 H   0  0  0  0  0  0  0  0  0  0  0  0
   19.8953   20.1709   20.9193 H   0  0  0  0  0  0  0  0  0  0  0  0
   18.5644   18.5943   21.6454 C   0  0  0  0  0  0  0  0  0  0  0  0
   17.6621   19.1136   21.2945 H   0  0  0  0  0  0  0  0  0  0  0  0
   18.3976   17.5284   21.4374 H   0  0  0  0  0  0  0  0  0  0  0  0
   18.6939   18.7883   23.1781 C   0  0  0  0  0  0  0  0  0  0  0  0
   19.5274   18.1800   23.5493 H   0  0  0  0  0  0  0  0  0  0  0  0
   17.7852   18.3971   23.6555 H   0  0  0  0  0  0  0  0  0  0  0  0
   18.8914   20.2664   23.5946 C   0  0  0  0  0  0  0  0  0  0  0  0
   19.8777   20.6161   23.2616 H   0  0  0  0  0  0  0  0  0  0  0  0
   18.1522   20.8859   23.0684 H   0  0  0  0  0  0  0  0  0  0  0  0
   18.7483   20.5295   25.1159 C   0  0  0  0  0  0  0  0  0  0  0  0
   17.7336   20.2731   25.4506 H   0  0  0  0  0  0  0  0  0  0  0  0
   18.8494   21.6119   25.2754 H   0  0  0  0  0  0  0  0  0  0  0  0
   19.7976   19.8124   26.0023 C   0  0  0  0  0  0  0  0  0  0  0  0
   20.7711   19.7938   25.4946 H   0  0  0  0  0  0  0  0  0  0  0  0
   19.9377   20.3984   26.9205 H   0  0  0  0  0  0  0  0  0  0  0  0
   19.3763   18.3861   26.4055 C   0  0  0  0  0  0  0  0  0  0  0  0
   19.2367   17.7665   25.5179 H   0  0  0  0  0  0  0  0  0  0  0  0
   18.4277   18.4243   26.9478 H   0  0  0  0  0  0  0  0  0  0  0  0
   20.3929   17.6988   27.2937 N   0  3  0  0  0  0  0  0  0  0  0  0
   21.3036   17.6069   26.8315 H   0  0  0  0  0  0  0  0  0  0  0  0
   20.0931   16.7531   27.5552 H   0  0  0  0  0  0  0  0  0  0  0  0
   20.5478   18.2148   28.1662 H   0  0  0  0  0  0  0  0  0  0  0  0
  1  2  1  0  0  0  0
  1  3  1  0  0  0  0
  1  4  1  0  0  0  0
  1  5  1  0  0  0  0
  5  6  1  0  0  0  0
  5  7  1  0  0  0  0
  5  8  1  0  0  0  0
  8  9  1  0  0  0  0
  8 10  1  0  0  0  0
  8 11  1  0  0  0  0
 11 12  1  0  0  0  0
 11 13  1  0  0  0  0
 11 14  1  0  0  0  0
 14 15  1  0  0  0  0
 14 16  1  0  0  0  0
 14 17  1  0  0  0  0
 17 18  1  0  0  0  0
 17 19  1  0  0  0  0
 17 20  1  0  0  0  0
 20 21  1  0  0  0  0
 20 22  1  0  0  0  0
 20 23  1  0  0  0  0
 23 24  1  0  0  0  0
 23 25  1  0  0  0  0
 23 26  1  0  0  0  0
 26 27  1  0  0  0  0
 26 28  1  0  0  0  0
 26 29  1  0  0  0  0
M  END
> <VM2 Rank>
284

> <Conf_Id>
651

> <Probability>
0.01

> <Sum Probability>
99.55

> <Delta G>
4.023

> <G>
62.170

> <E>
24.211

> <-TS>
37.959

> <U+W>
0.066

> <U>
52.537

> <W>
-52.471

> <W(PB)>
-54.905

> <W(SA)>
2.434

> <Valence>
5.863

> <Coulomb>
45.962

> <VdW>
0.712

> <VdW6>
-10.331

> <VdW12>
11.043

> <Bond>
0.291

> <Angle>
1.697

> <Pdih>
3.875

> <Idih>
0.000

> <Tether>
0.000

$$$$
VeraChem MOL file


 29 28  0  0  0  0  0  0  0  0999 V2000     
   20.5871   19.8602   19.9264 C   0  0  0  0  0  0  0  0  0  0  0  0
   20.2591   19.2804   19.0538 H   0  0  0  0  0  0  0  0  0  0  0  0
   20.7404   20.8980   19.6032 H   0  0  0  0  0  0  0  0  0  0  0  0
   21.5560   19.4633   20.2563 H   0  0  0  0  0  0  0  0  0  0  0  0
   19.5445   19.7914   21.0621 C   0  0  0  0  0  0  0  0  0  0  0  0
   18.5983   20.2269   20.7115 H   0  0  0  0  0  0  0  0  0  0  0  0
   19.8823   20.4147   21.8988 H   0  0  0  0  0  0  0  0  0  0  0  0
   19.3026   18.3350   21.5266 C   0  0  0  0  0  0  0  0  0  0  0  0
   18.9276   17.7610   20.6679 H   0  0  0  0  0  0  0  0  0  0  0  0
   20.2510   17.8616   21.8158 H   0  0  0  0  0  0  0  0  0  0  0  0
   18.2741   18.2196   22.6817 C   0  0  0  0  0  0  0  0  0  0  0  0
   17.6778   17.3111   22.5188 H   0  0  0  0  0  0  0  0  0  0  0  0
   17.5593   19.0529   22.6408 H   0  0  0  0  0  0  0  0  0  0  0  0
   18.8960   18.1207   24.0987 C   0  0  0  0  0  0  0  0  0  0  0  0
   18.0779   17.9707   24.8152 H   0  0  0  0  0  0  0  0  0  0  0  0
   19.5233   17.2206   24.1583 H   0  0  0  0  0  0  0  0  0  0  0  0
   19.7309   19.3565   24.5159 C   0  0  0  0  0  0  0  0  0  0  0  0
   19.1327   20.2699   24.3927 H   0  0  0  0  0  0  0  0  0  0  0  0
   20.5968   19.4510   23.8482 H   0  0  0  0  0  0  0  0  0  0  0  0
   20.2537   19.2739   25.9694 C   0  0  0  0  0  0  0  0  0  0  0  0
   20.8500   18.3604   26.0961 H   0  0  0  0  0  0  0  0  0  0  0  0
   20.9307   20.1190   26.1517 H   0  0  0  0  0  0  0  0  0  0  0  0
   19.1223   19.3047   27.0141 C   0  0  0  0  0  0  0  0  0  0  0  0
   18.4659   18.4418   26.8764 H   0  0  0  0  0  0  0  0  0  0  0  0
   18.5284   20.2137   26.8865 H   0  0  0  0  0  0  0  0  0  0  0  0
   19.6328   19.2760   28.4401 N   0  3  0  0  0  0  0  0  0  0  0  0
   20.1794   18.4301   28.6330 H   0  0  0  0  0  0  0  0  0  0  0  0
   18.8649   19.2975   29.1202 H   0  0  0  0  0  0  0  0  0  0  0  0
   20.2364   20.0791   28.6458 H   0  0  0  0  0  0  0  0  0  0  0  0
  1  2  1  0  0  0  0
  1  3  1  0  0  0  0
  1  4  1  0  0  0  0
  1  5  1  0  0  0  0
  5  6  1  0  0  0  0
  5  7  1  0  0  0  0
  5  8  1  0  0  0  0
  8  9  1  0  0  0  0
  8 10  1  0  0  0  0
  8 11  1  0  0  0  0
 11 12  1  0  0  0  0
 11 13  1  0  0  0  0
 11 14  1  0  0  0  0
 14 15  1  0  0  0  0
 14 16  1  0  0  0  0
 14 17  1  0  0  0  0
 17 18  1  0  0  0  0
 17 19  1  0  0  0  0
 17 20  1  0  0  0  0
 20 21  1  0  0  0  0
 20 22  1  0  0  0  0
 20 23  1  0  0  0  0
 23 24  1  0  0  0  0
 23 25  1  0  0  0  0
 23 26  1  0  0  0  0
 26 27  1  0  0  0  0
 26 28  1  0  0  0  0
 26 29  1  0  0  0  0
M  END
> <VM2 Rank>
285

> <Conf_Id>
262

> <Probability>
0.01

> <Sum Probability>
99.56

> <Delta G>
4.040

> <G>
62.186

> <E>
24.529

> <-TS>
37.657

> <U+W>
0.384

> <U>
51.978

> <W>
-51.594

> <W(PB)>
-54.085

> <W(SA)>
2.491

> <Valence>
6.000

> <Coulomb>
45.081

> <VdW>
0.898

> <VdW6>
-9.133

> <VdW12>
10.031

> <Bond>
0.258

> <Angle>
1.316

> <Pdih>
4.427

> <Idih>
0.000

> <Tether>
0.000

$$$$
VeraChem MOL file


 29 28  0  0  0  0  0  0  0  0999 V2000     
   19.8892   17.9003   19.8828 C   0  0  0  0  0  0  0  0  0  0  0  0
   19.3571   17.0127   19.5168 H   0  0  0  0  0  0  0  0  0  0  0  0
   20.0133   18.5909   19.0384 H   0  0  0  0  0  0  0  0  0  0  0  0
   20.8864   17.5828   20.2143 H   0  0  0  0  0  0  0  0  0  0  0  0
   19.1086   18.5672   21.0350 C   0  0  0  0  0  0  0  0  0  0  0  0
   18.9652   17.8382   21.8416 H   0  0  0  0  0  0  0  0  0  0  0  0
   18.1050   18.8414   20.6809 H   0  0  0  0  0  0  0  0  0  0  0  0
   19.8345   19.8293   21.5599 C   0  0  0  0  0  0  0  0  0  0  0  0
   20.8646   19.5855   21.8540 H   0  0  0  0  0  0  0  0  0  0  0  0
   19.9182   20.5445   20.7299 H   0  0  0  0  0  0  0  0  0  0  0  0
   19.0941   20.5226   22.7332 C   0  0  0  0  0  0  0  0  0  0  0  0
   18.0141   20.3306   22.6694 H   0  0  0  0  0  0  0  0  0  0  0  0
   19.2080   21.6091   22.6147 H   0  0  0  0  0  0  0  0  0  0  0  0
   19.6187   20.1503   24.1440 C   0  0  0  0  0  0  0  0  0  0  0  0
   20.6726   20.4487   24.2304 H   0  0  0  0  0  0  0  0  0  0  0  0
   19.0691   20.7547   24.8774 H   0  0  0  0  0  0  0  0  0  0  0  0
   19.4795   18.6495   24.5001 C   0  0  0  0  0  0  0  0  0  0  0  0
   20.1007   18.0560   23.8171 H   0  0  0  0  0  0  0  0  0  0  0  0
   18.4407   18.3249   24.3491 H   0  0  0  0  0  0  0  0  0  0  0  0
   19.9164   18.3258   25.9482 C   0  0  0  0  0  0  0  0  0  0  0  0
   19.9051   17.2366   26.0873 H   0  0  0  0  0  0  0  0  0  0  0  0
   20.9536   18.6517   26.1028 H   0  0  0  0  0  0  0  0  0  0  0  0
   19.0047   18.9748   27.0066 C   0  0  0  0  0  0  0  0  0  0  0  0
   17.9722   18.6507   26.8513 H   0  0  0  0  0  0  0  0  0  0  0  0
   19.0426   20.0630   26.9125 H   0  0  0  0  0  0  0  0  0  0  0  0
   19.3983   18.6181   28.4253 N   0  3  0  0  0  0  0  0  0  0  0  0
   19.3565   17.6069   28.5904 H   0  0  0  0  0  0  0  0  0  0  0  0
   18.7796   19.0593   29.1147 H   0  0  0  0  0  0  0  0  0  0  0  0
   20.3534   18.9206   28.6440 H   0  0  0  0  0  0  0  0  0  0  0  0
  1  2  1  0  0  0  0
  1  3  1  0  0  0  0
  1  4  1  0  0  0  0
  1  5  1  0  0  0  0
  5  6  1  0  0  0  0
  5  7  1  0  0  0  0
  5  8  1  0  0  0  0
  8  9  1  0  0  0  0
  8 10  1  0  0  0  0
  8 11  1  0  0  0  0
 11 12  1  0  0  0  0
 11 13  1  0  0  0  0
 11 14  1  0  0  0  0
 14 15  1  0  0  0  0
 14 16  1  0  0  0  0
 14 17  1  0  0  0  0
 17 18  1  0  0  0  0
 17 19  1  0  0  0  0
 17 20  1  0  0  0  0
 20 21  1  0  0  0  0
 20 22  1  0  0  0  0
 20 23  1  0  0  0  0
 23 24  1  0  0  0  0
 23 25  1  0  0  0  0
 23 26  1  0  0  0  0
 26 27  1  0  0  0  0
 26 28  1  0  0  0  0
 26 29  1  0  0  0  0
M  END
> <VM2 Rank>
286

> <Conf_Id>
2288

> <Probability>
0.01

> <Sum Probability>
99.56

> <Delta G>
4.045

> <G>
62.191

> <E>
24.534

> <-TS>
37.657

> <U+W>
0.390

> <U>
51.979

> <W>
-51.589

> <W(PB)>
-54.087

> <W(SA)>
2.498

> <Valence>
6.000

> <Coulomb>
45.081

> <VdW>
0.898

> <VdW6>
-9.134

> <VdW12>
10.032

> <Bond>
0.258

> <Angle>
1.316

> <Pdih>
4.426

> <Idih>
0.000

> <Tether>
0.000

$$$$
VeraChem MOL file


 29 28  0  0  0  0  0  0  0  0999 V2000     
   21.4501   18.6429   20.7924 C   0  0  0  0  0  0  0  0  0  0  0  0
   21.3577   17.5523   20.7066 H   0  0  0  0  0  0  0  0  0  0  0  0
   21.8291   19.0253   19.8357 H   0  0  0  0  0  0  0  0  0  0  0  0
   22.1993   18.8631   21.5640 H   0  0  0  0  0  0  0  0  0  0  0  0
   20.0917   19.2891   21.1376 C   0  0  0  0  0  0  0  0  0  0  0  0
   19.3739   19.0813   20.3317 H   0  0  0  0  0  0  0  0  0  0  0  0
   20.2088   20.3808   21.1844 H   0  0  0  0  0  0  0  0  0  0  0  0
   19.5353   18.7667   22.4803 C   0  0  0  0  0  0  0  0  0  0  0  0
   19.4185   17.6756   22.4254 H   0  0  0  0  0  0  0  0  0  0  0  0
   20.2676   18.9652   23.2704 H   0  0  0  0  0  0  0  0  0  0  0  0
   18.1724   19.4141   22.8273 C   0  0  0  0  0  0  0  0  0  0  0  0
   17.4748   19.1978   22.0063 H   0  0  0  0  0  0  0  0  0  0  0  0
   18.2665   20.5081   22.8641 H   0  0  0  0  0  0  0  0  0  0  0  0
   17.5468   18.8882   24.1459 C   0  0  0  0  0  0  0  0  0  0  0  0
   16.4554   18.8770   24.0184 H   0  0  0  0  0  0  0  0  0  0  0  0
   17.8290   17.8403   24.3142 H   0  0  0  0  0  0  0  0  0  0  0  0
   17.8520   19.7483   25.4019 C   0  0  0  0  0  0  0  0  0  0  0  0
   17.2760   19.3469   26.2473 H   0  0  0  0  0  0  0  0  0  0  0  0
   17.4729   20.7667   25.2395 H   0  0  0  0  0  0  0  0  0  0  0  0
   19.3409   19.8287   25.8144 C   0  0  0  0  0  0  0  0  0  0  0  0
   19.9181   20.3426   25.0360 H   0  0  0  0  0  0  0  0  0  0  0  0
   19.4239   20.4509   26.7154 H   0  0  0  0  0  0  0  0  0  0  0  0
   19.9512   18.4450   26.1054 C   0  0  0  0  0  0  0  0  0  0  0  0
   19.8919   17.8190   25.2115 H   0  0  0  0  0  0  0  0  0  0  0  0
   19.3885   17.9562   26.9053 H   0  0  0  0  0  0  0  0  0  0  0  0
   21.4037   18.5150   26.5298 N   0  3  0  0  0  0  0  0  0  0  0  0
   21.9928   18.9438   25.8086 H   0  0  0  0  0  0  0  0  0  0  0  0
   21.7904   17.5837   26.7185 H   0  0  0  0  0  0  0  0  0  0  0  0
   21.5240   19.0668   27.3856 H   0  0  0  0  0  0  0  0  0  0  0  0
  1  2  1  0  0  0  0
  1  3  1  0  0  0  0
  1  4  1  0  0  0  0
  1  5  1  0  0  0  0
  5  6  1  0  0  0  0
  5  7  1  0  0  0  0
  5  8  1  0  0  0  0
  8  9  1  0  0  0  0
  8 10  1  0  0  0  0
  8 11  1  0  0  0  0
 11 12  1  0  0  0  0
 11 13  1  0  0  0  0
 11 14  1  0  0  0  0
 14 15  1  0  0  0  0
 14 16  1  0  0  0  0
 14 17  1  0  0  0  0
 17 18  1  0  0  0  0
 17 19  1  0  0  0  0
 17 20  1  0  0  0  0
 20 21  1  0  0  0  0
 20 22  1  0  0  0  0
 20 23  1  0  0  0  0
 23 24  1  0  0  0  0
 23 25  1  0  0  0  0
 23 26  1  0  0  0  0
 26 27  1  0  0  0  0
 26 28  1  0  0  0  0
 26 29  1  0  0  0  0
M  END
> <VM2 Rank>
287

> <Conf_Id>
2966

> <Probability>
0.01

> <Sum Probability>
99.57

> <Delta G>
4.050

> <G>
62.197

> <E>
24.263

> <-TS>
37.933

> <U+W>
0.119

> <U>
52.874

> <W>
-52.756

> <W(PB)>
-55.191

> <W(SA)>
2.436

> <Valence>
5.909

> <Coulomb>
46.598

> <VdW>
0.368

> <VdW6>
-9.909

> <VdW12>
10.277

> <Bond>
0.262

> <Angle>
1.570

> <Pdih>
4.076

> <Idih>
0.000

> <Tether>
0.000

$$$$
VeraChem MOL file


 29 28  0  0  0  0  0  0  0  0999 V2000     
   20.4375   18.6615   19.7943 C   0  0  0  0  0  0  0  0  0  0  0  0
   20.8314   17.6648   20.0317 H   0  0  0  0  0  0  0  0  0  0  0  0
   20.3482   18.7358   18.7028 H   0  0  0  0  0  0  0  0  0  0  0  0
   21.1738   19.4084   20.1156 H   0  0  0  0  0  0  0  0  0  0  0  0
   19.0642   18.8906   20.4654 C   0  0  0  0  0  0  0  0  0  0  0  0
   18.3338   18.2026   20.0170 H   0  0  0  0  0  0  0  0  0  0  0  0
   18.7075   19.9057   20.2419 H   0  0  0  0  0  0  0  0  0  0  0  0
   19.0797   18.6664   21.9969 C   0  0  0  0  0  0  0  0  0  0  0  0
   18.0444   18.7178   22.3575 H   0  0  0  0  0  0  0  0  0  0  0  0
   19.4344   17.6497   22.2150 H   0  0  0  0  0  0  0  0  0  0  0  0
   19.9461   19.6986   22.7625 C   0  0  0  0  0  0  0  0  0  0  0  0
   19.5915   20.7152   22.5435 H   0  0  0  0  0  0  0  0  0  0  0  0
   20.9809   19.6478   22.4003 H   0  0  0  0  0  0  0  0  0  0  0  0
   19.9635   19.4737   24.2944 C   0  0  0  0  0  0  0  0  0  0  0  0
   20.3328   18.4609   24.4981 H   0  0  0  0  0  0  0  0  0  0  0  0
   20.6852   20.1730   24.7388 H   0  0  0  0  0  0  0  0  0  0  0  0
   18.5810   19.6780   24.9630 C   0  0  0  0  0  0  0  0  0  0  0  0
   17.8997   18.8690   24.6678 H   0  0  0  0  0  0  0  0  0  0  0  0
   18.1372   20.6090   24.5843 H   0  0  0  0  0  0  0  0  0  0  0  0
   18.6265   19.7598   26.5102 C   0  0  0  0  0  0  0  0  0  0  0  0
   19.2633   20.5949   26.8311 H   0  0  0  0  0  0  0  0  0  0  0  0
   17.6150   19.9987   26.8645 H   0  0  0  0  0  0  0  0  0  0  0  0
   19.0719   18.4570   27.2062 C   0  0  0  0  0  0  0  0  0  0  0  0
   18.6156   17.5964   26.7097 H   0  0  0  0  0  0  0  0  0  0  0  0
   18.7275   18.4720   28.2438 H   0  0  0  0  0  0  0  0  0  0  0  0
   20.5736   18.2525   27.2421 N   0  3  0  0  0  0  0  0  0  0  0  0
   21.0471   19.0093   27.7464 H   0  0  0  0  0  0  0  0  0  0  0  0
   20.9740   18.2190   26.3003 H   0  0  0  0  0  0  0  0  0  0  0  0
   20.8269   17.3759   27.7112 H   0  0  0  0  0  0  0  0  0  0  0  0
  1  2  1  0  0  0  0
  1  3  1  0  0  0  0
  1  4  1  0  0  0  0
  1  5  1  0  0  0  0
  5  6  1  0  0  0  0
  5  7  1  0  0  0  0
  5  8  1  0  0  0  0
  8  9  1  0  0  0  0
  8 10  1  0  0  0  0
  8 11  1  0  0  0  0
 11 12  1  0  0  0  0
 11 13  1  0  0  0  0
 11 14  1  0  0  0  0
 14 15  1  0  0  0  0
 14 16  1  0  0  0  0
 14 17  1  0  0  0  0
 17 18  1  0  0  0  0
 17 19  1  0  0  0  0
 17 20  1  0  0  0  0
 20 21  1  0  0  0  0
 20 22  1  0  0  0  0
 20 23  1  0  0  0  0
 23 24  1  0  0  0  0
 23 25  1  0  0  0  0
 23 26  1  0  0  0  0
 26 27  1  0  0  0  0
 26 28  1  0  0  0  0
 26 29  1  0  0  0  0
M  END
> <VM2 Rank>
288

> <Conf_Id>
1050

> <Probability>
0.01

> <Sum Probability>
99.58

> <Delta G>
4.053

> <G>
62.199

> <E>
24.646

> <-TS>
37.553

> <U+W>
0.501

> <U>
52.537

> <W>
-52.036

> <W(PB)>
-54.494

> <W(SA)>
2.458

> <Valence>
5.216

> <Coulomb>
46.351

> <VdW>
0.970

> <VdW6>
-9.713

> <VdW12>
10.683

> <Bond>
0.284

> <Angle>
1.429

> <Pdih>
3.502

> <Idih>
0.000

> <Tether>
0.000

$$$$
VeraChem MOL file


 29 28  0  0  0  0  0  0  0  0999 V2000     
   21.0697   18.1519   21.0240 C   0  0  0  0  0  0  0  0  0  0  0  0
   20.5419   17.2576   21.3774 H   0  0  0  0  0  0  0  0  0  0  0  0
   21.6105   17.8756   20.1097 H   0  0  0  0  0  0  0  0  0  0  0  0
   21.8126   18.4349   21.7809 H   0  0  0  0  0  0  0  0  0  0  0  0
   20.0920   19.3154   20.7428 C   0  0  0  0  0  0  0  0  0  0  0  0
   19.3411   18.9989   20.0055 H   0  0  0  0  0  0  0  0  0  0  0  0
   20.6497   20.1409   20.2787 H   0  0  0  0  0  0  0  0  0  0  0  0
   19.3882   19.8456   22.0149 C   0  0  0  0  0  0  0  0  0  0  0  0
   20.1468   20.1687   22.7372 H   0  0  0  0  0  0  0  0  0  0  0  0
   18.8202   20.7469   21.7464 H   0  0  0  0  0  0  0  0  0  0  0  0
   18.4208   18.8171   22.6559 C   0  0  0  0  0  0  0  0  0  0  0  0
   18.9523   17.8971   22.9311 H   0  0  0  0  0  0  0  0  0  0  0  0
   17.6817   18.5258   21.8970 H   0  0  0  0  0  0  0  0  0  0  0  0
   17.6632   19.3712   23.8908 C   0  0  0  0  0  0  0  0  0  0  0  0
   17.5275   20.4577   23.8008 H   0  0  0  0  0  0  0  0  0  0  0  0
   16.6499   18.9461   23.8890 H   0  0  0  0  0  0  0  0  0  0  0  0
   18.3107   19.0253   25.2565 C   0  0  0  0  0  0  0  0  0  0  0  0
   18.3357   17.9338   25.3756 H   0  0  0  0  0  0  0  0  0  0  0  0
   17.6578   19.4066   26.0539 H   0  0  0  0  0  0  0  0  0  0  0  0
   19.7324   19.6048   25.4523 C   0  0  0  0  0  0  0  0  0  0  0  0
   20.4355   19.1251   24.7598 H   0  0  0  0  0  0  0  0  0  0  0  0
   19.7261   20.6765   25.2137 H   0  0  0  0  0  0  0  0  0  0  0  0
   20.2497   19.4279   26.8927 C   0  0  0  0  0  0  0  0  0  0  0  0
   19.5569   19.9018   27.5933 H   0  0  0  0  0  0  0  0  0  0  0  0
   21.2229   19.9162   26.9919 H   0  0  0  0  0  0  0  0  0  0  0  0
   20.4172   17.9787   27.3051 N   0  3  0  0  0  0  0  0  0  0  0  0
   19.5289   17.4692   27.2664 H   0  0  0  0  0  0  0  0  0  0  0  0
   20.7710   17.8944   28.2644 H   0  0  0  0  0  0  0  0  0  0  0  0
   21.0779   17.4840   26.6969 H   0  0  0  0  0  0  0  0  0  0  0  0
  1  2  1  0  0  0  0
  1  3  1  0  0  0  0
  1  4  1  0  0  0  0
  1  5  1  0  0  0  0
  5  6  1  0  0  0  0
  5  7  1  0  0  0  0
  5  8  1  0  0  0  0
  8  9  1  0  0  0  0
  8 10  1  0  0  0  0
  8 11  1  0  0  0  0
 11 12  1  0  0  0  0
 11 13  1  0  0  0  0
 11 14  1  0  0  0  0
 14 15  1  0  0  0  0
 14 16  1  0  0  0  0
 14 17  1  0  0  0  0
 17 18  1  0  0  0  0
 17 19  1  0  0  0  0
 17 20  1  0  0  0  0
 20 21  1  0  0  0  0
 20 22  1  0  0  0  0
 20 23  1  0  0  0  0
 23 24  1  0  0  0  0
 23 25  1  0  0  0  0
 23 26  1  0  0  0  0
 26 27  1  0  0  0  0
 26 28  1  0  0  0  0
 26 29  1  0  0  0  0
M  END
> <VM2 Rank>
289

> <Conf_Id>
553

> <Probability>
0.01

> <Sum Probability>
99.58

> <Delta G>
4.065

> <G>
62.211

> <E>
24.462

> <-TS>
37.749

> <U+W>
0.318

> <U>
52.709

> <W>
-52.392

> <W(PB)>
-54.821

> <W(SA)>
2.429

> <Valence>
6.186

> <Coulomb>
45.602

> <VdW>
0.922

> <VdW6>
-9.884

> <VdW12>
10.805

> <Bond>
0.292

> <Angle>
1.416

> <Pdih>
4.478

> <Idih>
0.000

> <Tether>
0.000

$$$$
VeraChem MOL file


 29 28  0  0  0  0  0  0  0  0999 V2000     
   21.2853   19.3714   21.6931 C   0  0  0  0  0  0  0  0  0  0  0  0
   21.4141   20.4417   21.9000 H   0  0  0  0  0  0  0  0  0  0  0  0
   21.2308   18.8441   22.6512 H   0  0  0  0  0  0  0  0  0  0  0  0
   22.1882   19.0215   21.1762 H   0  0  0  0  0  0  0  0  0  0  0  0
   20.0343   19.1233   20.8187 C   0  0  0  0  0  0  0  0  0  0  0  0
   19.9305   18.0520   20.5973 H   0  0  0  0  0  0  0  0  0  0  0  0
   20.1987   19.6167   19.8505 H   0  0  0  0  0  0  0  0  0  0  0  0
   18.7214   19.6765   21.4317 C   0  0  0  0  0  0  0  0  0  0  0  0
   18.9228   20.5822   22.0186 H   0  0  0  0  0  0  0  0  0  0  0  0
   18.0795   20.0073   20.6035 H   0  0  0  0  0  0  0  0  0  0  0  0
   17.9022   18.6510   22.2614 C   0  0  0  0  0  0  0  0  0  0  0  0
   17.6355   17.8051   21.6130 H   0  0  0  0  0  0  0  0  0  0  0  0
   16.9492   19.1160   22.5488 H   0  0  0  0  0  0  0  0  0  0  0  0
   18.5876   18.1004   23.5363 C   0  0  0  0  0  0  0  0  0  0  0  0
   17.9166   17.3614   23.9954 H   0  0  0  0  0  0  0  0  0  0  0  0
   19.4955   17.5481   23.2638 H   0  0  0  0  0  0  0  0  0  0  0  0
   18.9138   19.1935   24.5823 C   0  0  0  0  0  0  0  0  0  0  0  0
   17.9942   19.7341   24.8458 H   0  0  0  0  0  0  0  0  0  0  0  0
   19.6038   19.9323   24.1549 H   0  0  0  0  0  0  0  0  0  0  0  0
   19.5433   18.5947   25.8590 C   0  0  0  0  0  0  0  0  0  0  0  0
   18.8544   17.8644   26.3041 H   0  0  0  0  0  0  0  0  0  0  0  0
   20.4630   18.0539   25.5986 H   0  0  0  0  0  0  0  0  0  0  0  0
   19.8678   19.6878   26.8920 C   0  0  0  0  0  0  0  0  0  0  0  0
   18.9521   20.2185   27.1665 H   0  0  0  0  0  0  0  0  0  0  0  0
   20.5667   20.4083   26.4586 H   0  0  0  0  0  0  0  0  0  0  0  0
   20.4883   19.1393   28.1605 N   0  3  0  0  0  0  0  0  0  0  0  0
   19.8674   18.4734   28.6322 H   0  0  0  0  0  0  0  0  0  0  0  0
   20.6965   19.8836   28.8354 H   0  0  0  0  0  0  0  0  0  0  0  0
   21.3699   18.6501   27.9737 H   0  0  0  0  0  0  0  0  0  0  0  0
  1  2  1  0  0  0  0
  1  3  1  0  0  0  0
  1  4  1  0  0  0  0
  1  5  1  0  0  0  0
  5  6  1  0  0  0  0
  5  7  1  0  0  0  0
  5  8  1  0  0  0  0
  8  9  1  0  0  0  0
  8 10  1  0  0  0  0
  8 11  1  0  0  0  0
 11 12  1  0  0  0  0
 11 13  1  0  0  0  0
 11 14  1  0  0  0  0
 14 15  1  0  0  0  0
 14 16  1  0  0  0  0
 14 17  1  0  0  0  0
 17 18  1  0  0  0  0
 17 19  1  0  0  0  0
 17 20  1  0  0  0  0
 20 21  1  0  0  0  0
 20 22  1  0  0  0  0
 20 23  1  0  0  0  0
 23 24  1  0  0  0  0
 23 25  1  0  0  0  0
 23 26  1  0  0  0  0
 26 27  1  0  0  0  0
 26 28  1  0  0  0  0
 26 29  1  0  0  0  0
M  END
> <VM2 Rank>
290

> <Conf_Id>
2277

> <Probability>
0.01

> <Sum Probability>
99.59

> <Delta G>
4.078

> <G>
62.224

> <E>
24.203

> <-TS>
38.021

> <U+W>
0.059

> <U>
51.871

> <W>
-51.813

> <W(PB)>
-54.239

> <W(SA)>
2.426

> <Valence>
6.159

> <Coulomb>
45.192

> <VdW>
0.520

> <VdW6>
-9.792

> <VdW12>
10.312

> <Bond>
0.277

> <Angle>
1.832

> <Pdih>
4.050

> <Idih>
0.000

> <Tether>
0.000

$$$$
VeraChem MOL file


 29 28  0  0  0  0  0  0  0  0999 V2000     
   19.5309   18.4266   19.8281 C   0  0  0  0  0  0  0  0  0  0  0  0
   19.4697   17.6061   19.1015 H   0  0  0  0  0  0  0  0  0  0  0  0
   18.5366   18.8859   19.8912 H   0  0  0  0  0  0  0  0  0  0  0  0
   20.2313   19.1737   19.4328 H   0  0  0  0  0  0  0  0  0  0  0  0
   19.9998   17.8979   21.2025 C   0  0  0  0  0  0  0  0  0  0  0  0
   20.9381   17.3422   21.0669 H   0  0  0  0  0  0  0  0  0  0  0  0
   19.2677   17.1755   21.5896 H   0  0  0  0  0  0  0  0  0  0  0  0
   20.2316   19.0169   22.2462 C   0  0  0  0  0  0  0  0  0  0  0  0
   20.6690   18.5652   23.1443 H   0  0  0  0  0  0  0  0  0  0  0  0
   20.9836   19.7212   21.8647 H   0  0  0  0  0  0  0  0  0  0  0  0
   18.9399   19.7905   22.6158 C   0  0  0  0  0  0  0  0  0  0  0  0
   18.1325   19.0905   22.8707 H   0  0  0  0  0  0  0  0  0  0  0  0
   18.5977   20.3404   21.7292 H   0  0  0  0  0  0  0  0  0  0  0  0
   19.1436   20.8104   23.7664 C   0  0  0  0  0  0  0  0  0  0  0  0
   20.1819   21.1696   23.7784 H   0  0  0  0  0  0  0  0  0  0  0  0
   18.5276   21.6950   23.5528 H   0  0  0  0  0  0  0  0  0  0  0  0
   18.7415   20.2906   25.1708 C   0  0  0  0  0  0  0  0  0  0  0  0
   17.6730   20.0338   25.1723 H   0  0  0  0  0  0  0  0  0  0  0  0
   18.8589   21.1131   25.8901 H   0  0  0  0  0  0  0  0  0  0  0  0
   19.5614   19.0757   25.6609 C   0  0  0  0  0  0  0  0  0  0  0  0
   19.3644   18.2089   25.0176 H   0  0  0  0  0  0  0  0  0  0  0  0
   20.6340   19.3007   25.5928 H   0  0  0  0  0  0  0  0  0  0  0  0
   19.2069   18.7094   27.1126 C   0  0  0  0  0  0  0  0  0  0  0  0
   18.1423   18.4705   27.1825 H   0  0  0  0  0  0  0  0  0  0  0  0
   19.4127   19.5601   27.7678 H   0  0  0  0  0  0  0  0  0  0  0  0
   19.9884   17.5199   27.6317 N   0  3  0  0  0  0  0  0  0  0  0  0
   20.9992   17.6916   27.6177 H   0  0  0  0  0  0  0  0  0  0  0  0
   19.8169   16.6771   27.0734 H   0  0  0  0  0  0  0  0  0  0  0  0
   19.7373   17.2930   28.6003 H   0  0  0  0  0  0  0  0  0  0  0  0
  1  2  1  0  0  0  0
  1  3  1  0  0  0  0
  1  4  1  0  0  0  0
  1  5  1  0  0  0  0
  5  6  1  0  0  0  0
  5  7  1  0  0  0  0
  5  8  1  0  0  0  0
  8  9  1  0  0  0  0
  8 10  1  0  0  0  0
  8 11  1  0  0  0  0
 11 12  1  0  0  0  0
 11 13  1  0  0  0  0
 11 14  1  0  0  0  0
 14 15  1  0  0  0  0
 14 16  1  0  0  0  0
 14 17  1  0  0  0  0
 17 18  1  0  0  0  0
 17 19  1  0  0  0  0
 17 20  1  0  0  0  0
 20 21  1  0  0  0  0
 20 22  1  0  0  0  0
 20 23  1  0  0  0  0
 23 24  1  0  0  0  0
 23 25  1  0  0  0  0
 23 26  1  0  0  0  0
 26 27  1  0  0  0  0
 26 28  1  0  0  0  0
 26 29  1  0  0  0  0
M  END
> <VM2 Rank>
291

> <Conf_Id>
1152

> <Probability>
0.01

> <Sum Probability>
99.59

> <Delta G>
4.093

> <G>
62.239

> <E>
24.525

> <-TS>
37.714

> <U+W>
0.380

> <U>
52.467

> <W>
-52.087

> <W(PB)>
-54.581

> <W(SA)>
2.494

> <Valence>
6.151

> <Coulomb>
45.416

> <VdW>
0.901

> <VdW6>
-9.247

> <VdW12>
10.148

> <Bond>
0.270

> <Angle>
1.360

> <Pdih>
4.520

> <Idih>
0.000

> <Tether>
0.000

$$$$
VeraChem MOL file


 29 28  0  0  0  0  0  0  0  0999 V2000     
   19.3572   20.2000   20.2866 C   0  0  0  0  0  0  0  0  0  0  0  0
   18.8516   20.6750   21.1365 H   0  0  0  0  0  0  0  0  0  0  0  0
   20.4210   20.4690   20.3172 H   0  0  0  0  0  0  0  0  0  0  0  0
   18.9291   20.6262   19.3701 H   0  0  0  0  0  0  0  0  0  0  0  0
   19.1696   18.6674   20.3077 C   0  0  0  0  0  0  0  0  0  0  0  0
   19.5541   18.2523   19.3656 H   0  0  0  0  0  0  0  0  0  0  0  0
   18.0963   18.4322   20.3282 H   0  0  0  0  0  0  0  0  0  0  0  0
   19.8798   17.9537   21.4863 C   0  0  0  0  0  0  0  0  0  0  0  0
   19.7189   16.8737   21.3636 H   0  0  0  0  0  0  0  0  0  0  0  0
   20.9664   18.1008   21.4180 H   0  0  0  0  0  0  0  0  0  0  0  0
   19.3682   18.3622   22.8923 C   0  0  0  0  0  0  0  0  0  0  0  0
   19.3816   17.4698   23.5315 H   0  0  0  0  0  0  0  0  0  0  0  0
   18.3183   18.6802   22.8325 H   0  0  0  0  0  0  0  0  0  0  0  0
   20.2302   19.4632   23.5620 C   0  0  0  0  0  0  0  0  0  0  0  0
   21.2449   19.0793   23.7357 H   0  0  0  0  0  0  0  0  0  0  0  0
   20.3426   20.3150   22.8809 H   0  0  0  0  0  0  0  0  0  0  0  0
   19.6399   19.9829   24.8958 C   0  0  0  0  0  0  0  0  0  0  0  0
   18.6343   20.3892   24.7192 H   0  0  0  0  0  0  0  0  0  0  0  0
   20.2552   20.8239   25.2448 H   0  0  0  0  0  0  0  0  0  0  0  0
   19.5802   18.9094   26.0076 C   0  0  0  0  0  0  0  0  0  0  0  0
   18.9025   18.0980   25.7137 H   0  0  0  0  0  0  0  0  0  0  0  0
   20.5753   18.4667   26.1481 H   0  0  0  0  0  0  0  0  0  0  0  0
   19.0950   19.5091   27.3390 C   0  0  0  0  0  0  0  0  0  0  0  0
   18.0973   19.9369   27.2082 H   0  0  0  0  0  0  0  0  0  0  0  0
   19.7735   20.3072   27.6523 H   0  0  0  0  0  0  0  0  0  0  0  0
   19.0239   18.4900   28.4577 N   0  3  0  0  0  0  0  0  0  0  0  0
   18.3789   17.7242   28.2363 H   0  0  0  0  0  0  0  0  0  0  0  0
   18.6990   18.9102   29.3355 H   0  0  0  0  0  0  0  0  0  0  0  0
   19.9390   18.0686   28.6489 H   0  0  0  0  0  0  0  0  0  0  0  0
  1  2  1  0  0  0  0
  1  3  1  0  0  0  0
  1  4  1  0  0  0  0
  1  5  1  0  0  0  0
  5  6  1  0  0  0  0
  5  7  1  0  0  0  0
  5  8  1  0  0  0  0
  8  9  1  0  0  0  0
  8 10  1  0  0  0  0
  8 11  1  0  0  0  0
 11 12  1  0  0  0  0
 11 13  1  0  0  0  0
 11 14  1  0  0  0  0
 14 15  1  0  0  0  0
 14 16  1  0  0  0  0
 14 17  1  0  0  0  0
 17 18  1  0  0  0  0
 17 19  1  0  0  0  0
 17 20  1  0  0  0  0
 20 21  1  0  0  0  0
 20 22  1  0  0  0  0
 20 23  1  0  0  0  0
 23 24  1  0  0  0  0
 23 25  1  0  0  0  0
 23 26  1  0  0  0  0
 26 27  1  0  0  0  0
 26 28  1  0  0  0  0
 26 29  1  0  0  0  0
M  END
> <VM2 Rank>
292

> <Conf_Id>
1902

> <Probability>
0.01

> <Sum Probability>
99.60

> <Delta G>
4.094

> <G>
62.240

> <E>
24.559

> <-TS>
37.681

> <U+W>
0.414

> <U>
51.971

> <W>
-51.557

> <W(PB)>
-54.039

> <W(SA)>
2.482

> <Valence>
6.137

> <Coulomb>
44.874

> <VdW>
0.960

> <VdW6>
-9.150

> <VdW12>
10.110

> <Bond>
0.271

> <Angle>
1.364

> <Pdih>
4.502

> <Idih>
0.000

> <Tether>
0.000

$$$$
VeraChem MOL file


 29 28  0  0  0  0  0  0  0  0999 V2000     
   20.5321   18.9282   19.8001 C   0  0  0  0  0  0  0  0  0  0  0  0
   21.4640   19.4412   20.0713 H   0  0  0  0  0  0  0  0  0  0  0  0
   20.6261   17.8721   20.0809 H   0  0  0  0  0  0  0  0  0  0  0  0
   20.4313   18.9706   18.7079 H   0  0  0  0  0  0  0  0  0  0  0  0
   19.3138   19.5921   20.4812 C   0  0  0  0  0  0  0  0  0  0  0  0
   18.3990   19.0406   20.2227 H   0  0  0  0  0  0  0  0  0  0  0  0
   19.1888   20.6039   20.0708 H   0  0  0  0  0  0  0  0  0  0  0  0
   19.4461   19.6950   22.0199 C   0  0  0  0  0  0  0  0  0  0  0  0
   20.3601   20.2495   22.2730 H   0  0  0  0  0  0  0  0  0  0  0  0
   18.6060   20.2949   22.3930 H   0  0  0  0  0  0  0  0  0  0  0  0
   19.4549   18.3182   22.7316 C   0  0  0  0  0  0  0  0  0  0  0  0
   20.2943   17.7184   22.3571 H   0  0  0  0  0  0  0  0  0  0  0  0
   18.5412   17.7637   22.4775 H   0  0  0  0  0  0  0  0  0  0  0  0
   19.5888   18.4205   24.2709 C   0  0  0  0  0  0  0  0  0  0  0  0
   19.7006   17.4057   24.6768 H   0  0  0  0  0  0  0  0  0  0  0  0
   20.5118   18.9636   24.5094 H   0  0  0  0  0  0  0  0  0  0  0  0
   18.3785   19.1086   24.9503 C   0  0  0  0  0  0  0  0  0  0  0  0
   17.4519   18.6828   24.5413 H   0  0  0  0  0  0  0  0  0  0  0  0
   18.3651   20.1770   24.6972 H   0  0  0  0  0  0  0  0  0  0  0  0
   18.3403   18.9551   26.4923 C   0  0  0  0  0  0  0  0  0  0  0  0
   17.4000   19.3944   26.8511 H   0  0  0  0  0  0  0  0  0  0  0  0
   18.3025   17.8935   26.7708 H   0  0  0  0  0  0  0  0  0  0  0  0
   19.4981   19.6555   27.2331 C   0  0  0  0  0  0  0  0  0  0  0  0
   19.2070   19.8199   28.2741 H   0  0  0  0  0  0  0  0  0  0  0  0
   19.6944   20.6299   26.7777 H   0  0  0  0  0  0  0  0  0  0  0  0
   20.7914   18.8647   27.2557 N   0  3  0  0  0  0  0  0  0  0  0  0
   20.6738   17.9595   27.7226 H   0  0  0  0  0  0  0  0  0  0  0  0
   21.5344   19.3652   27.7556 H   0  0  0  0  0  0  0  0  0  0  0  0
   21.1363   18.6755   26.3103 H   0  0  0  0  0  0  0  0  0  0  0  0
  1  2  1  0  0  0  0
  1  3  1  0  0  0  0
  1  4  1  0  0  0  0
  1  5  1  0  0  0  0
  5  6  1  0  0  0  0
  5  7  1  0  0  0  0
  5  8  1  0  0  0  0
  8  9  1  0  0  0  0
  8 10  1  0  0  0  0
  8 11  1  0  0  0  0
 11 12  1  0  0  0  0
 11 13  1  0  0  0  0
 11 14  1  0  0  0  0
 14 15  1  0  0  0  0
 14 16  1  0  0  0  0
 14 17  1  0  0  0  0
 17 18  1  0  0  0  0
 17 19  1  0  0  0  0
 17 20  1  0  0  0  0
 20 21  1  0  0  0  0
 20 22  1  0  0  0  0
 20 23  1  0  0  0  0
 23 24  1  0  0  0  0
 23 25  1  0  0  0  0
 23 26  1  0  0  0  0
 26 27  1  0  0  0  0
 26 28  1  0  0  0  0
 26 29  1  0  0  0  0
M  END
> <VM2 Rank>
293

> <Conf_Id>
948

> <Probability>
0.01

> <Sum Probability>
99.60

> <Delta G>
4.096

> <G>
62.242

> <E>
24.689

> <-TS>
37.553

> <U+W>
0.545

> <U>
52.537

> <W>
-51.992

> <W(PB)>
-54.469

> <W(SA)>
2.477

> <Valence>
5.216

> <Coulomb>
46.351

> <VdW>
0.970

> <VdW6>
-9.713

> <VdW12>
10.683

> <Bond>
0.284

> <Angle>
1.430

> <Pdih>
3.502

> <Idih>
0.000

> <Tether>
0.000

$$$$
VeraChem MOL file


 29 28  0  0  0  0  0  0  0  0999 V2000     
   20.7143   17.7677   21.6571 C   0  0  0  0  0  0  0  0  0  0  0  0
   20.9914   18.1722   22.6362 H   0  0  0  0  0  0  0  0  0  0  0  0
   20.1353   16.8495   21.8193 H   0  0  0  0  0  0  0  0  0  0  0  0
   21.6426   17.4890   21.1420 H   0  0  0  0  0  0  0  0  0  0  0  0
   19.9138   18.7849   20.8111 C   0  0  0  0  0  0  0  0  0  0  0  0
   19.7433   18.3376   19.8218 H   0  0  0  0  0  0  0  0  0  0  0  0
   20.5132   19.6887   20.6341 H   0  0  0  0  0  0  0  0  0  0  0  0
   18.5381   19.1615   21.4202 C   0  0  0  0  0  0  0  0  0  0  0  0
   17.8433   19.3437   20.5887 H   0  0  0  0  0  0  0  0  0  0  0  0
   18.1139   18.3099   21.9678 H   0  0  0  0  0  0  0  0  0  0  0  0
   18.5392   20.4402   22.3013 C   0  0  0  0  0  0  0  0  0  0  0  0
   17.5027   20.6707   22.5835 H   0  0  0  0  0  0  0  0  0  0  0  0
   18.8759   21.2892   21.6908 H   0  0  0  0  0  0  0  0  0  0  0  0
   19.4002   20.3829   23.5873 C   0  0  0  0  0  0  0  0  0  0  0  0
   20.4566   20.2477   23.3241 H   0  0  0  0  0  0  0  0  0  0  0  0
   19.3406   21.3608   24.0847 H   0  0  0  0  0  0  0  0  0  0  0  0
   18.9478   19.2892   24.5846 C   0  0  0  0  0  0  0  0  0  0  0  0
   19.0216   18.2983   24.1185 H   0  0  0  0  0  0  0  0  0  0  0  0
   17.8899   19.4414   24.8394 H   0  0  0  0  0  0  0  0  0  0  0  0
   19.7961   19.3044   25.8748 C   0  0  0  0  0  0  0  0  0  0  0  0
   20.8541   19.1522   25.6230 H   0  0  0  0  0  0  0  0  0  0  0  0
   19.7175   20.2875   26.3581 H   0  0  0  0  0  0  0  0  0  0  0  0
   19.3422   18.2125   26.8592 C   0  0  0  0  0  0  0  0  0  0  0  0
   19.4344   17.2303   26.3878 H   0  0  0  0  0  0  0  0  0  0  0  0
   18.2935   18.3696   27.1255 H   0  0  0  0  0  0  0  0  0  0  0  0
   20.1522   18.1946   28.1393 N   0  3  0  0  0  0  0  0  0  0  0  0
   19.8337   17.4603   28.7813 H   0  0  0  0  0  0  0  0  0  0  0  0
   20.0854   19.0837   28.6457 H   0  0  0  0  0  0  0  0  0  0  0  0
   21.1470   18.0233   27.9594 H   0  0  0  0  0  0  0  0  0  0  0  0
  1  2  1  0  0  0  0
  1  3  1  0  0  0  0
  1  4  1  0  0  0  0
  1  5  1  0  0  0  0
  5  6  1  0  0  0  0
  5  7  1  0  0  0  0
  5  8  1  0  0  0  0
  8  9  1  0  0  0  0
  8 10  1  0  0  0  0
  8 11  1  0  0  0  0
 11 12  1  0  0  0  0
 11 13  1  0  0  0  0
 11 14  1  0  0  0  0
 14 15  1  0  0  0  0
 14 16  1  0  0  0  0
 14 17  1  0  0  0  0
 17 18  1  0  0  0  0
 17 19  1  0  0  0  0
 17 20  1  0  0  0  0
 20 21  1  0  0  0  0
 20 22  1  0  0  0  0
 20 23  1  0  0  0  0
 23 24  1  0  0  0  0
 23 25  1  0  0  0  0
 23 26  1  0  0  0  0
 26 27  1  0  0  0  0
 26 28  1  0  0  0  0
 26 29  1  0  0  0  0
M  END
> <VM2 Rank>
294

> <Conf_Id>
1637

> <Probability>
0.01

> <Sum Probability>
99.61

> <Delta G>
4.104

> <G>
62.251

> <E>
24.230

> <-TS>
38.020

> <U+W>
0.086

> <U>
51.871

> <W>
-51.786

> <W(PB)>
-54.225

> <W(SA)>
2.439

> <Valence>
6.159

> <Coulomb>
45.192

> <VdW>
0.520

> <VdW6>
-9.791

> <VdW12>
10.311

> <Bond>
0.277

> <Angle>
1.831

> <Pdih>
4.051

> <Idih>
0.000

> <Tether>
0.000

$$$$
VeraChem MOL file


 29 28  0  0  0  0  0  0  0  0999 V2000     
   18.2932   17.9623   21.1813 C   0  0  0  0  0  0  0  0  0  0  0  0
   17.7607   18.4678   21.9957 H   0  0  0  0  0  0  0  0  0  0  0  0
   17.9358   18.3786   20.2305 H   0  0  0  0  0  0  0  0  0  0  0  0
   18.0132   16.9014   21.2094 H   0  0  0  0  0  0  0  0  0  0  0  0
   19.8250   18.1219   21.3130 C   0  0  0  0  0  0  0  0  0  0  0  0
   20.3067   17.5359   20.5179 H   0  0  0  0  0  0  0  0  0  0  0  0
   20.1749   17.6841   22.2564 H   0  0  0  0  0  0  0  0  0  0  0  0
   20.3006   19.5905   21.1951 C   0  0  0  0  0  0  0  0  0  0  0  0
   21.3991   19.6080   21.2103 H   0  0  0  0  0  0  0  0  0  0  0  0
   20.0117   19.9726   20.2063 H   0  0  0  0  0  0  0  0  0  0  0  0
   19.7687   20.5693   22.2766 C   0  0  0  0  0  0  0  0  0  0  0  0
   18.6737   20.6371   22.2357 H   0  0  0  0  0  0  0  0  0  0  0  0
   20.1300   21.5721   22.0101 H   0  0  0  0  0  0  0  0  0  0  0  0
   20.2438   20.2649   23.7218 C   0  0  0  0  0  0  0  0  0  0  0  0
   21.2285   19.7783   23.7005 H   0  0  0  0  0  0  0  0  0  0  0  0
   20.3896   21.2208   24.2438 H   0  0  0  0  0  0  0  0  0  0  0  0
   19.2417   19.4181   24.5438 C   0  0  0  0  0  0  0  0  0  0  0  0
   19.0716   18.4492   24.0610 H   0  0  0  0  0  0  0  0  0  0  0  0
   18.2698   19.9298   24.5745 H   0  0  0  0  0  0  0  0  0  0  0  0
   19.7405   19.1814   25.9861 C   0  0  0  0  0  0  0  0  0  0  0  0
   20.7110   18.6679   25.9617 H   0  0  0  0  0  0  0  0  0  0  0  0
   19.8983   20.1460   26.4867 H   0  0  0  0  0  0  0  0  0  0  0  0
   18.7380   18.3420   26.7974 C   0  0  0  0  0  0  0  0  0  0  0  0
   18.5906   17.3736   26.3118 H   0  0  0  0  0  0  0  0  0  0  0  0
   17.7744   18.8572   26.8380 H   0  0  0  0  0  0  0  0  0  0  0  0
   19.1924   18.0876   28.2199 N   0  3  0  0  0  0  0  0  0  0  0  0
   20.0832   17.5805   28.2514 H   0  0  0  0  0  0  0  0  0  0  0  0
   18.5107   17.5270   28.7431 H   0  0  0  0  0  0  0  0  0  0  0  0
   19.3236   18.9610   28.7409 H   0  0  0  0  0  0  0  0  0  0  0  0
  1  2  1  0  0  0  0
  1  3  1  0  0  0  0
  1  4  1  0  0  0  0
  1  5  1  0  0  0  0
  5  6  1  0  0  0  0
  5  7  1  0  0  0  0
  5  8  1  0  0  0  0
  8  9  1  0  0  0  0
  8 10  1  0  0  0  0
  8 11  1  0  0  0  0
 11 12  1  0  0  0  0
 11 13  1  0  0  0  0
 11 14  1  0  0  0  0
 14 15  1  0  0  0  0
 14 16  1  0  0  0  0
 14 17  1  0  0  0  0
 17 18  1  0  0  0  0
 17 19  1  0  0  0  0
 17 20  1  0  0  0  0
 20 21  1  0  0  0  0
 20 22  1  0  0  0  0
 20 23  1  0  0  0  0
 23 24  1  0  0  0  0
 23 25  1  0  0  0  0
 23 26  1  0  0  0  0
 26 27  1  0  0  0  0
 26 28  1  0  0  0  0
 26 29  1  0  0  0  0
M  END
> <VM2 Rank>
295

> <Conf_Id>
1991

> <Probability>
0.01

> <Sum Probability>
99.61

> <Delta G>
4.115

> <G>
62.261

> <E>
24.260

> <-TS>
38.001

> <U+W>
0.115

> <U>
51.870

> <W>
-51.755

> <W(PB)>
-54.197

> <W(SA)>
2.442

> <Valence>
6.196

> <Coulomb>
45.072

> <VdW>
0.602

> <VdW6>
-9.621

> <VdW12>
10.223

> <Bond>
0.275

> <Angle>
1.754

> <Pdih>
4.167

> <Idih>
0.000

> <Tether>
0.000

$$$$
VeraChem MOL file


 29 28  0  0  0  0  0  0  0  0999 V2000     
   18.6996   19.0833   19.8138 C   0  0  0  0  0  0  0  0  0  0  0  0
   18.0349   18.3375   20.2671 H   0  0  0  0  0  0  0  0  0  0  0  0
   18.2718   20.0787   19.9908 H   0  0  0  0  0  0  0  0  0  0  0  0
   18.7037   18.9072   18.7303 H   0  0  0  0  0  0  0  0  0  0  0  0
   20.1330   18.9856   20.3832 C   0  0  0  0  0  0  0  0  0  0  0  0
   20.7856   19.6678   19.8206 H   0  0  0  0  0  0  0  0  0  0  0  0
   20.5287   17.9741   20.2163 H   0  0  0  0  0  0  0  0  0  0  0  0
   20.2205   19.3409   21.8870 C   0  0  0  0  0  0  0  0  0  0  0  0
   21.2783   19.3441   22.1838 H   0  0  0  0  0  0  0  0  0  0  0  0
   19.8529   20.3646   22.0336 H   0  0  0  0  0  0  0  0  0  0  0  0
   19.4415   18.3560   22.7954 C   0  0  0  0  0  0  0  0  0  0  0  0
   19.7305   17.3287   22.5343 H   0  0  0  0  0  0  0  0  0  0  0  0
   18.3638   18.4337   22.5998 H   0  0  0  0  0  0  0  0  0  0  0  0
   19.7021   18.5676   24.3072 C   0  0  0  0  0  0  0  0  0  0  0  0
   19.2317   17.7347   24.8434 H   0  0  0  0  0  0  0  0  0  0  0  0
   20.7809   18.5067   24.5063 H   0  0  0  0  0  0  0  0  0  0  0  0
   19.1390   19.9054   24.8496 C   0  0  0  0  0  0  0  0  0  0  0  0
   18.0487   19.9241   24.7155 H   0  0  0  0  0  0  0  0  0  0  0  0
   19.5352   20.7377   24.2545 H   0  0  0  0  0  0  0  0  0  0  0  0
   19.4801   20.1878   26.3352 C   0  0  0  0  0  0  0  0  0  0  0  0
   20.5682   20.2360   26.4751 H   0  0  0  0  0  0  0  0  0  0  0  0
   19.1003   21.1881   26.5822 H   0  0  0  0  0  0  0  0  0  0  0  0
   18.8616   19.1911   27.3372 C   0  0  0  0  0  0  0  0  0  0  0  0
   17.8519   18.9202   27.0169 H   0  0  0  0  0  0  0  0  0  0  0  0
   18.7895   19.6704   28.3173 H   0  0  0  0  0  0  0  0  0  0  0  0
   19.6667   17.9202   27.5265 N   0  3  0  0  0  0  0  0  0  0  0  0
   19.2208   17.2840   28.1966 H   0  0  0  0  0  0  0  0  0  0  0  0
   20.6078   18.1175   27.8824 H   0  0  0  0  0  0  0  0  0  0  0  0
   19.7773   17.4059   26.6480 H   0  0  0  0  0  0  0  0  0  0  0  0
  1  2  1  0  0  0  0
  1  3  1  0  0  0  0
  1  4  1  0  0  0  0
  1  5  1  0  0  0  0
  5  6  1  0  0  0  0
  5  7  1  0  0  0  0
  5  8  1  0  0  0  0
  8  9  1  0  0  0  0
  8 10  1  0  0  0  0
  8 11  1  0  0  0  0
 11 12  1  0  0  0  0
 11 13  1  0  0  0  0
 11 14  1  0  0  0  0
 14 15  1  0  0  0  0
 14 16  1  0  0  0  0
 14 17  1  0  0  0  0
 17 18  1  0  0  0  0
 17 19  1  0  0  0  0
 17 20  1  0  0  0  0
 20 21  1  0  0  0  0
 20 22  1  0  0  0  0
 20 23  1  0  0  0  0
 23 24  1  0  0  0  0
 23 25  1  0  0  0  0
 23 26  1  0  0  0  0
 26 27  1  0  0  0  0
 26 28  1  0  0  0  0
 26 29  1  0  0  0  0
M  END
> <VM2 Rank>
296

> <Conf_Id>
1040

> <Probability>
0.01

> <Sum Probability>
99.62

> <Delta G>
4.116

> <G>
62.262

> <E>
24.772

> <-TS>
37.491

> <U+W>
0.627

> <U>
52.530

> <W>
-51.903

> <W(PB)>
-54.375

> <W(SA)>
2.472

> <Valence>
5.331

> <Coulomb>
46.214

> <VdW>
0.984

> <VdW6>
-9.653

> <VdW12>
10.637

> <Bond>
0.286

> <Angle>
1.481

> <Pdih>
3.564

> <Idih>
0.000

> <Tether>
0.000

$$$$
VeraChem MOL file


 29 28  0  0  0  0  0  0  0  0999 V2000     
   19.9776   19.6817   19.8562 C   0  0  0  0  0  0  0  0  0  0  0  0
   20.0541   18.6765   19.4217 H   0  0  0  0  0  0  0  0  0  0  0  0
   18.9159   19.9516   19.9151 H   0  0  0  0  0  0  0  0  0  0  0  0
   20.4587   20.3845   19.1637 H   0  0  0  0  0  0  0  0  0  0  0  0
   20.6556   19.7402   21.2437 C   0  0  0  0  0  0  0  0  0  0  0  0
   20.5391   20.7466   21.6695 H   0  0  0  0  0  0  0  0  0  0  0  0
   21.7359   19.5831   21.1169 H   0  0  0  0  0  0  0  0  0  0  0  0
   20.1138   18.6859   22.2388 C   0  0  0  0  0  0  0  0  0  0  0  0
   20.2572   17.6808   21.8190 H   0  0  0  0  0  0  0  0  0  0  0  0
   20.7255   18.7237   23.1478 H   0  0  0  0  0  0  0  0  0  0  0  0
   18.6187   18.8882   22.5957 C   0  0  0  0  0  0  0  0  0  0  0  0
   18.0186   18.7138   21.6929 H   0  0  0  0  0  0  0  0  0  0  0  0
   18.4315   19.9301   22.8895 H   0  0  0  0  0  0  0  0  0  0  0  0
   18.1162   17.9243   23.7019 C   0  0  0  0  0  0  0  0  0  0  0  0
   17.0831   17.6369   23.4621 H   0  0  0  0  0  0  0  0  0  0  0  0
   18.6941   16.9900   23.6851 H   0  0  0  0  0  0  0  0  0  0  0  0
   18.1130   18.5251   25.1314 C   0  0  0  0  0  0  0  0  0  0  0  0
   17.6745   17.7856   25.8158 H   0  0  0  0  0  0  0  0  0  0  0  0
   17.4469   19.3987   25.1582 H   0  0  0  0  0  0  0  0  0  0  0  0
   19.5090   18.9285   25.6575 C   0  0  0  0  0  0  0  0  0  0  0  0
   20.1993   18.0796   25.5655 H   0  0  0  0  0  0  0  0  0  0  0  0
   19.9128   19.7497   25.0519 H   0  0  0  0  0  0  0  0  0  0  0  0
   19.4451   19.3786   27.1275 C   0  0  0  0  0  0  0  0  0  0  0  0
   19.0581   18.5640   27.7456 H   0  0  0  0  0  0  0  0  0  0  0  0
   18.7698   20.2333   27.2219 H   0  0  0  0  0  0  0  0  0  0  0  0
   20.7949   19.7855   27.6823 N   0  3  0  0  0  0  0  0  0  0  0  0
   21.4702   19.0146   27.6471 H   0  0  0  0  0  0  0  0  0  0  0  0
   20.7299   20.0813   28.6626 H   0  0  0  0  0  0  0  0  0  0  0  0
   21.2021   20.5685   27.1603 H   0  0  0  0  0  0  0  0  0  0  0  0
  1  2  1  0  0  0  0
  1  3  1  0  0  0  0
  1  4  1  0  0  0  0
  1  5  1  0  0  0  0
  5  6  1  0  0  0  0
  5  7  1  0  0  0  0
  5  8  1  0  0  0  0
  8  9  1  0  0  0  0
  8 10  1  0  0  0  0
  8 11  1  0  0  0  0
 11 12  1  0  0  0  0
 11 13  1  0  0  0  0
 11 14  1  0  0  0  0
 14 15  1  0  0  0  0
 14 16  1  0  0  0  0
 14 17  1  0  0  0  0
 17 18  1  0  0  0  0
 17 19  1  0  0  0  0
 17 20  1  0  0  0  0
 20 21  1  0  0  0  0
 20 22  1  0  0  0  0
 20 23  1  0  0  0  0
 23 24  1  0  0  0  0
 23 25  1  0  0  0  0
 23 26  1  0  0  0  0
 26 27  1  0  0  0  0
 26 28  1  0  0  0  0
 26 29  1  0  0  0  0
M  END
> <VM2 Rank>
297

> <Conf_Id>
2087

> <Probability>
0.01

> <Sum Probability>
99.63

> <Delta G>
4.128

> <G>
62.274

> <E>
24.559

> <-TS>
37.714

> <U+W>
0.415

> <U>
52.467

> <W>
-52.052

> <W(PB)>
-54.538

> <W(SA)>
2.486

> <Valence>
6.151

> <Coulomb>
45.416

> <VdW>
0.901

> <VdW6>
-9.247

> <VdW12>
10.148

> <Bond>
0.270

> <Angle>
1.359

> <Pdih>
4.521

> <Idih>
0.000

> <Tether>
0.000

$$$$
VeraChem MOL file


 29 28  0  0  0  0  0  0  0  0999 V2000     
   20.3845   19.2258   19.8651 C   0  0  0  0  0  0  0  0  0  0  0  0
   21.2754   18.6230   20.0839 H   0  0  0  0  0  0  0  0  0  0  0  0
   19.5578   18.5450   19.6284 H   0  0  0  0  0  0  0  0  0  0  0  0
   20.5924   19.8164   18.9634 H   0  0  0  0  0  0  0  0  0  0  0  0
   20.0369   20.1546   21.0506 C   0  0  0  0  0  0  0  0  0  0  0  0
   19.1234   20.7214   20.8225 H   0  0  0  0  0  0  0  0  0  0  0  0
   20.8394   20.8972   21.1619 H   0  0  0  0  0  0  0  0  0  0  0  0
   19.8675   19.4052   22.3944 C   0  0  0  0  0  0  0  0  0  0  0  0
   20.7773   18.8290   22.6111 H   0  0  0  0  0  0  0  0  0  0  0  0
   19.7722   20.1572   23.1879 H   0  0  0  0  0  0  0  0  0  0  0  0
   18.6323   18.4715   22.4294 C   0  0  0  0  0  0  0  0  0  0  0  0
   18.6855   17.7615   21.5945 H   0  0  0  0  0  0  0  0  0  0  0  0
   17.7221   19.0655   22.2688 H   0  0  0  0  0  0  0  0  0  0  0  0
   18.4875   17.6521   23.7380 C   0  0  0  0  0  0  0  0  0  0  0  0
   17.6069   17.0045   23.6259 H   0  0  0  0  0  0  0  0  0  0  0  0
   19.3419   16.9709   23.8522 H   0  0  0  0  0  0  0  0  0  0  0  0
   18.3008   18.5027   25.0214 C   0  0  0  0  0  0  0  0  0  0  0  0
   17.5901   17.9862   25.6817 H   0  0  0  0  0  0  0  0  0  0  0  0
   17.8363   19.4668   24.7721 H   0  0  0  0  0  0  0  0  0  0  0  0
   19.6148   18.7228   25.8085 C   0  0  0  0  0  0  0  0  0  0  0  0
   20.0274   17.7511   26.1111 H   0  0  0  0  0  0  0  0  0  0  0  0
   20.3692   19.2033   25.1752 H   0  0  0  0  0  0  0  0  0  0  0  0
   19.3794   19.5862   27.0601 C   0  0  0  0  0  0  0  0  0  0  0  0
   18.6467   19.1004   27.7101 H   0  0  0  0  0  0  0  0  0  0  0  0
   18.9843   20.5621   26.7651 H   0  0  0  0  0  0  0  0  0  0  0  0
   20.6404   19.8169   27.8675 N   0  3  0  0  0  0  0  0  0  0  0  0
   21.3622   20.2972   27.3200 H   0  0  0  0  0  0  0  0  0  0  0  0
   21.0480   18.9362   28.1987 H   0  0  0  0  0  0  0  0  0  0  0  0
   20.4611   20.3937   28.6969 H   0  0  0  0  0  0  0  0  0  0  0  0
  1  2  1  0  0  0  0
  1  3  1  0  0  0  0
  1  4  1  0  0  0  0
  1  5  1  0  0  0  0
  5  6  1  0  0  0  0
  5  7  1  0  0  0  0
  5  8  1  0  0  0  0
  8  9  1  0  0  0  0
  8 10  1  0  0  0  0
  8 11  1  0  0  0  0
 11 12  1  0  0  0  0
 11 13  1  0  0  0  0
 11 14  1  0  0  0  0
 14 15  1  0  0  0  0
 14 16  1  0  0  0  0
 14 17  1  0  0  0  0
 17 18  1  0  0  0  0
 17 19  1  0  0  0  0
 17 20  1  0  0  0  0
 20 21  1  0  0  0  0
 20 22  1  0  0  0  0
 20 23  1  0  0  0  0
 23 24  1  0  0  0  0
 23 25  1  0  0  0  0
 23 26  1  0  0  0  0
 26 27  1  0  0  0  0
 26 28  1  0  0  0  0
 26 29  1  0  0  0  0
M  END
> <VM2 Rank>
298

> <Conf_Id>
192

> <Probability>
0.01

> <Sum Probability>
99.63

> <Delta G>
4.135

> <G>
62.281

> <E>
24.649

> <-TS>
37.632

> <U+W>
0.504

> <U>
52.577

> <W>
-52.073

> <W(PB)>
-54.551

> <W(SA)>
2.478

> <Valence>
6.244

> <Coulomb>
45.374

> <VdW>
0.959

> <VdW6>
-9.152

> <VdW12>
10.112

> <Bond>
0.274

> <Angle>
1.455

> <Pdih>
4.515

> <Idih>
0.000

> <Tether>
0.000

$$$$
VeraChem MOL file


 29 28  0  0  0  0  0  0  0  0999 V2000     
   21.0277   19.1958   20.4407 C   0  0  0  0  0  0  0  0  0  0  0  0
   21.8499   19.5681   21.0657 H   0  0  0  0  0  0  0  0  0  0  0  0
   21.2807   18.1792   20.1125 H   0  0  0  0  0  0  0  0  0  0  0  0
   20.9674   19.8326   19.5485 H   0  0  0  0  0  0  0  0  0  0  0  0
   19.6922   19.2133   21.2138 C   0  0  0  0  0  0  0  0  0  0  0  0
   18.8845   18.8651   20.5550 H   0  0  0  0  0  0  0  0  0  0  0  0
   19.4539   20.2490   21.4905 H   0  0  0  0  0  0  0  0  0  0  0  0
   19.7541   18.3252   22.4783 C   0  0  0  0  0  0  0  0  0  0  0  0
   20.0604   17.3112   22.1869 H   0  0  0  0  0  0  0  0  0  0  0  0
   20.5386   18.6965   23.1495 H   0  0  0  0  0  0  0  0  0  0  0  0
   18.4025   18.2290   23.2328 C   0  0  0  0  0  0  0  0  0  0  0  0
   18.4998   17.5257   24.0691 H   0  0  0  0  0  0  0  0  0  0  0  0
   17.6590   17.7766   22.5623 H   0  0  0  0  0  0  0  0  0  0  0  0
   17.8358   19.5761   23.7533 C   0  0  0  0  0  0  0  0  0  0  0  0
   17.5646   20.2034   22.8938 H   0  0  0  0  0  0  0  0  0  0  0  0
   16.8898   19.3788   24.2759 H   0  0  0  0  0  0  0  0  0  0  0  0
   18.7629   20.3966   24.6904 C   0  0  0  0  0  0  0  0  0  0  0  0
   18.2598   21.3529   24.8895 H   0  0  0  0  0  0  0  0  0  0  0  0
   19.6982   20.6610   24.1793 H   0  0  0  0  0  0  0  0  0  0  0  0
   19.0651   19.7301   26.0565 C   0  0  0  0  0  0  0  0  0  0  0  0
   19.3115   20.5184   26.7803 H   0  0  0  0  0  0  0  0  0  0  0  0
   18.1654   19.2298   26.4383 H   0  0  0  0  0  0  0  0  0  0  0  0
   20.2446   18.7406   26.0093 C   0  0  0  0  0  0  0  0  0  0  0  0
   21.1415   19.2566   25.6562 H   0  0  0  0  0  0  0  0  0  0  0  0
   20.0257   17.9242   25.3191 H   0  0  0  0  0  0  0  0  0  0  0  0
   20.5591   18.1312   27.3599 N   0  3  0  0  0  0  0  0  0  0  0  0
   20.8064   18.8457   28.0526 H   0  0  0  0  0  0  0  0  0  0  0  0
   21.3488   17.4782   27.3091 H   0  0  0  0  0  0  0  0  0  0  0  0
   19.7621   17.6081   27.7374 H   0  0  0  0  0  0  0  0  0  0  0  0
  1  2  1  0  0  0  0
  1  3  1  0  0  0  0
  1  4  1  0  0  0  0
  1  5  1  0  0  0  0
  5  6  1  0  0  0  0
  5  7  1  0  0  0  0
  5  8  1  0  0  0  0
  8  9  1  0  0  0  0
  8 10  1  0  0  0  0
  8 11  1  0  0  0  0
 11 12  1  0  0  0  0
 11 13  1  0  0  0  0
 11 14  1  0  0  0  0
 14 15  1  0  0  0  0
 14 16  1  0  0  0  0
 14 17  1  0  0  0  0
 17 18  1  0  0  0  0
 17 19  1  0  0  0  0
 17 20  1  0  0  0  0
 20 21  1  0  0  0  0
 20 22  1  0  0  0  0
 20 23  1  0  0  0  0
 23 24  1  0  0  0  0
 23 25  1  0  0  0  0
 23 26  1  0  0  0  0
 26 27  1  0  0  0  0
 26 28  1  0  0  0  0
 26 29  1  0  0  0  0
M  END
> <VM2 Rank>
299

> <Conf_Id>
985

> <Probability>
0.01

> <Sum Probability>
99.64

> <Delta G>
4.140

> <G>
62.286

> <E>
24.023

> <-TS>
38.263

> <U+W>
-0.121

> <U>
52.441

> <W>
-52.562

> <W(PB)>
-54.977

> <W(SA)>
2.415

> <Valence>
5.943

> <Coulomb>
46.128

> <VdW>
0.370

> <VdW6>
-10.817

> <VdW12>
11.187

> <Bond>
0.305

> <Angle>
2.098

> <Pdih>
3.540

> <Idih>
0.000

> <Tether>
0.000

$$$$
VeraChem MOL file


 29 28  0  0  0  0  0  0  0  0999 V2000     
   21.3267   18.8737   21.0395 C   0  0  0  0  0  0  0  0  0  0  0  0
   21.7130   18.1553   21.7741 H   0  0  0  0  0  0  0  0  0  0  0  0
   21.9330   18.7817   20.1291 H   0  0  0  0  0  0  0  0  0  0  0  0
   21.4781   19.8855   21.4352 H   0  0  0  0  0  0  0  0  0  0  0  0
   19.8377   18.6022   20.7267 C   0  0  0  0  0  0  0  0  0  0  0  0
   19.7544   17.6291   20.2228 H   0  0  0  0  0  0  0  0  0  0  0  0
   19.4661   19.3509   20.0132 H   0  0  0  0  0  0  0  0  0  0  0  0
   18.9397   18.5866   21.9869 C   0  0  0  0  0  0  0  0  0  0  0  0
   17.9336   18.2588   21.6913 H   0  0  0  0  0  0  0  0  0  0  0  0
   19.3131   17.8285   22.6850 H   0  0  0  0  0  0  0  0  0  0  0  0
   18.8315   19.9687   22.6816 C   0  0  0  0  0  0  0  0  0  0  0  0
   18.4538   20.6914   21.9453 H   0  0  0  0  0  0  0  0  0  0  0  0
   19.8210   20.3338   22.9854 H   0  0  0  0  0  0  0  0  0  0  0  0
   17.8769   19.9703   23.9042 C   0  0  0  0  0  0  0  0  0  0  0  0
   17.3609   20.9399   23.9335 H   0  0  0  0  0  0  0  0  0  0  0  0
   17.0860   19.2190   23.7732 H   0  0  0  0  0  0  0  0  0  0  0  0
   18.5779   19.7744   25.2732 C   0  0  0  0  0  0  0  0  0  0  0  0
   17.8198   19.8607   26.0640 H   0  0  0  0  0  0  0  0  0  0  0  0
   19.2858   20.5983   25.4351 H   0  0  0  0  0  0  0  0  0  0  0  0
   19.3099   18.4193   25.4260 C   0  0  0  0  0  0  0  0  0  0  0  0
   18.6307   17.6036   25.1451 H   0  0  0  0  0  0  0  0  0  0  0  0
   20.1676   18.3732   24.7432 H   0  0  0  0  0  0  0  0  0  0  0  0
   19.8018   18.1720   26.8648 C   0  0  0  0  0  0  0  0  0  0  0  0
   20.2454   17.1749   26.9310 H   0  0  0  0  0  0  0  0  0  0  0  0
   18.9556   18.2157   27.5557 H   0  0  0  0  0  0  0  0  0  0  0  0
   20.8420   19.1709   27.3321 N   0  3  0  0  0  0  0  0  0  0  0  0
   20.4768   20.1284   27.3261 H   0  0  0  0  0  0  0  0  0  0  0  0
   21.6753   19.1600   26.7348 H   0  0  0  0  0  0  0  0  0  0  0  0
   21.1557   18.9744   28.2889 H   0  0  0  0  0  0  0  0  0  0  0  0
  1  2  1  0  0  0  0
  1  3  1  0  0  0  0
  1  4  1  0  0  0  0
  1  5  1  0  0  0  0
  5  6  1  0  0  0  0
  5  7  1  0  0  0  0
  5  8  1  0  0  0  0
  8  9  1  0  0  0  0
  8 10  1  0  0  0  0
  8 11  1  0  0  0  0
 11 12  1  0  0  0  0
 11 13  1  0  0  0  0
 11 14  1  0  0  0  0
 14 15  1  0  0  0  0
 14 16  1  0  0  0  0
 14 17  1  0  0  0  0
 17 18  1  0  0  0  0
 17 19  1  0  0  0  0
 17 20  1  0  0  0  0
 20 21  1  0  0  0  0
 20 22  1  0  0  0  0
 20 23  1  0  0  0  0
 23 24  1  0  0  0  0
 23 25  1  0  0  0  0
 23 26  1  0  0  0  0
 26 27  1  0  0  0  0
 26 28  1  0  0  0  0
 26 29  1  0  0  0  0
M  END
> <VM2 Rank>
300

> <Conf_Id>
2929

> <Probability>
0.01

> <Sum Probability>
99.64

> <Delta G>
4.143

> <G>
62.289

> <E>
24.541

> <-TS>
37.748

> <U+W>
0.396

> <U>
52.709

> <W>
-52.313

> <W(PB)>
-54.740

> <W(SA)>
2.427

> <Valence>
6.186

> <Coulomb>
45.601

> <VdW>
0.922

> <VdW6>
-9.883

> <VdW12>
10.805

> <Bond>
0.292

> <Angle>
1.417

> <Pdih>
4.477

> <Idih>
0.000

> <Tether>
0.000

$$$$
VeraChem MOL file


 29 28  0  0  0  0  0  0  0  0999 V2000     
   18.6872   20.1623   20.3018 C   0  0  0  0  0  0  0  0  0  0  0  0
   19.3875   20.9158   20.6816 H   0  0  0  0  0  0  0  0  0  0  0  0
   19.0684   19.7946   19.3403 H   0  0  0  0  0  0  0  0  0  0  0  0
   17.7310   20.6668   20.1114 H   0  0  0  0  0  0  0  0  0  0  0  0
   18.4950   19.0009   21.3039 C   0  0  0  0  0  0  0  0  0  0  0  0
   17.7171   18.3300   20.9135 H   0  0  0  0  0  0  0  0  0  0  0  0
   18.1087   19.3954   22.2512 H   0  0  0  0  0  0  0  0  0  0  0  0
   19.7866   18.1748   21.5360 C   0  0  0  0  0  0  0  0  0  0  0  0
   19.5356   17.2366   22.0497 H   0  0  0  0  0  0  0  0  0  0  0  0
   20.1823   17.8750   20.5558 H   0  0  0  0  0  0  0  0  0  0  0  0
   20.9047   18.9122   22.3222 C   0  0  0  0  0  0  0  0  0  0  0  0
   20.8606   19.9940   22.1455 H   0  0  0  0  0  0  0  0  0  0  0  0
   21.8738   18.5885   21.9182 H   0  0  0  0  0  0  0  0  0  0  0  0
   20.9192   18.6292   23.8466 C   0  0  0  0  0  0  0  0  0  0  0  0
   21.0743   17.5549   24.0172 H   0  0  0  0  0  0  0  0  0  0  0  0
   21.7913   19.1366   24.2816 H   0  0  0  0  0  0  0  0  0  0  0  0
   19.6452   19.0903   24.5916 C   0  0  0  0  0  0  0  0  0  0  0  0
   18.7845   18.4993   24.2525 H   0  0  0  0  0  0  0  0  0  0  0  0
   19.4353   20.1410   24.3478 H   0  0  0  0  0  0  0  0  0  0  0  0
   19.7867   18.9349   26.1216 C   0  0  0  0  0  0  0  0  0  0  0  0
   19.9983   17.8859   26.3686 H   0  0  0  0  0  0  0  0  0  0  0  0
   20.6394   19.5286   26.4772 H   0  0  0  0  0  0  0  0  0  0  0  0
   18.5100   19.3855   26.8529 C   0  0  0  0  0  0  0  0  0  0  0  0
   17.6607   18.7859   26.5146 H   0  0  0  0  0  0  0  0  0  0  0  0
   18.3046   20.4344   26.6228 H   0  0  0  0  0  0  0  0  0  0  0  0
   18.6094   19.2479   28.3583 N   0  3  0  0  0  0  0  0  0  0  0  0
   19.3749   19.8109   28.7435 H   0  0  0  0  0  0  0  0  0  0  0  0
   18.7758   18.2769   28.6428 H   0  0  0  0  0  0  0  0  0  0  0  0
   17.7489   19.5532   28.8264 H   0  0  0  0  0  0  0  0  0  0  0  0
  1  2  1  0  0  0  0
  1  3  1  0  0  0  0
  1  4  1  0  0  0  0
  1  5  1  0  0  0  0
  5  6  1  0  0  0  0
  5  7  1  0  0  0  0
  5  8  1  0  0  0  0
  8  9  1  0  0  0  0
  8 10  1  0  0  0  0
  8 11  1  0  0  0  0
 11 12  1  0  0  0  0
 11 13  1  0  0  0  0
 11 14  1  0  0  0  0
 14 15  1  0  0  0  0
 14 16  1  0  0  0  0
 14 17  1  0  0  0  0
 17 18  1  0  0  0  0
 17 19  1  0  0  0  0
 17 20  1  0  0  0  0
 20 21  1  0  0  0  0
 20 22  1  0  0  0  0
 20 23  1  0  0  0  0
 23 24  1  0  0  0  0
 23 25  1  0  0  0  0
 23 26  1  0  0  0  0
 26 27  1  0  0  0  0
 26 28  1  0  0  0  0
 26 29  1  0  0  0  0
M  END
> <VM2 Rank>
301

> <Conf_Id>
1689

> <Probability>
0.01

> <Sum Probability>
99.65

> <Delta G>
4.148

> <G>
62.294

> <E>
24.687

> <-TS>
37.606

> <U+W>
0.543

> <U>
52.136

> <W>
-51.594

> <W(PB)>
-54.070

> <W(SA)>
2.477

> <Valence>
6.312

> <Coulomb>
44.908

> <VdW>
0.916

> <VdW6>
-9.106

> <VdW12>
10.022

> <Bond>
0.279

> <Angle>
1.476

> <Pdih>
4.558

> <Idih>
0.000

> <Tether>
0.000

$$$$
VeraChem MOL file


 29 28  0  0  0  0  0  0  0  0999 V2000     
   19.2962   18.7508   19.4538 C   0  0  0  0  0  0  0  0  0  0  0  0
   19.2177   17.6684   19.2885 H   0  0  0  0  0  0  0  0  0  0  0  0
   18.5834   19.2466   18.7822 H   0  0  0  0  0  0  0  0  0  0  0  0
   20.3071   19.0683   19.1665 H   0  0  0  0  0  0  0  0  0  0  0  0
   18.9996   19.1109   20.9250 C   0  0  0  0  0  0  0  0  0  0  0  0
   17.9731   18.8076   21.1738 H   0  0  0  0  0  0  0  0  0  0  0  0
   19.0458   20.2017   21.0395 H   0  0  0  0  0  0  0  0  0  0  0  0
   19.9954   18.4254   21.8907 C   0  0  0  0  0  0  0  0  0  0  0  0
   19.9867   17.3438   21.6974 H   0  0  0  0  0  0  0  0  0  0  0  0
   21.0173   18.7679   21.6771 H   0  0  0  0  0  0  0  0  0  0  0  0
   19.6712   18.6556   23.3875 C   0  0  0  0  0  0  0  0  0  0  0  0
   20.3209   17.9931   23.9725 H   0  0  0  0  0  0  0  0  0  0  0  0
   18.6365   18.3482   23.5920 H   0  0  0  0  0  0  0  0  0  0  0  0
   19.8924   20.1165   23.8521 C   0  0  0  0  0  0  0  0  0  0  0  0
   20.9531   20.3781   23.7359 H   0  0  0  0  0  0  0  0  0  0  0  0
   19.3371   20.7991   23.1971 H   0  0  0  0  0  0  0  0  0  0  0  0
   19.4474   20.4026   25.3100 C   0  0  0  0  0  0  0  0  0  0  0  0
   18.3640   20.2549   25.4059 H   0  0  0  0  0  0  0  0  0  0  0  0
   19.6149   21.4719   25.4997 H   0  0  0  0  0  0  0  0  0  0  0  0
   20.2082   19.6005   26.3996 C   0  0  0  0  0  0  0  0  0  0  0  0
   21.2615   19.4904   26.1095 H   0  0  0  0  0  0  0  0  0  0  0  0
   20.2126   20.1817   27.3313 H   0  0  0  0  0  0  0  0  0  0  0  0
   19.6112   18.2106   26.7055 C   0  0  0  0  0  0  0  0  0  0  0  0
   20.2587   17.6898   27.4162 H   0  0  0  0  0  0  0  0  0  0  0  0
   19.5571   17.6105   25.7956 H   0  0  0  0  0  0  0  0  0  0  0  0
   18.2224   18.2649   27.3109 N   0  3  0  0  0  0  0  0  0  0  0  0
   18.2115   18.7921   28.1902 H   0  0  0  0  0  0  0  0  0  0  0  0
   17.8604   17.3278   27.5187 H   0  0  0  0  0  0  0  0  0  0  0  0
   17.5510   18.7139   26.6803 H   0  0  0  0  0  0  0  0  0  0  0  0
  1  2  1  0  0  0  0
  1  3  1  0  0  0  0
  1  4  1  0  0  0  0
  1  5  1  0  0  0  0
  5  6  1  0  0  0  0
  5  7  1  0  0  0  0
  5  8  1  0  0  0  0
  8  9  1  0  0  0  0
  8 10  1  0  0  0  0
  8 11  1  0  0  0  0
 11 12  1  0  0  0  0
 11 13  1  0  0  0  0
 11 14  1  0  0  0  0
 14 15  1  0  0  0  0
 14 16  1  0  0  0  0
 14 17  1  0  0  0  0
 17 18  1  0  0  0  0
 17 19  1  0  0  0  0
 17 20  1  0  0  0  0
 20 21  1  0  0  0  0
 20 22  1  0  0  0  0
 20 23  1  0  0  0  0
 23 24  1  0  0  0  0
 23 25  1  0  0  0  0
 23 26  1  0  0  0  0
 26 27  1  0  0  0  0
 26 28  1  0  0  0  0
 26 29  1  0  0  0  0
M  END
> <VM2 Rank>
302

> <Conf_Id>
618

> <Probability>
0.01

> <Sum Probability>
99.65

> <Delta G>
4.150

> <G>
62.297

> <E>
24.675

> <-TS>
37.622

> <U+W>
0.530

> <U>
52.762

> <W>
-52.232

> <W(PB)>
-54.710

> <W(SA)>
2.478

> <Valence>
5.840

> <Coulomb>
45.969

> <VdW>
0.953

> <VdW6>
-9.740

> <VdW12>
10.693

> <Bond>
0.293

> <Angle>
1.654

> <Pdih>
3.893

> <Idih>
0.000

> <Tether>
0.000

$$$$
VeraChem MOL file


 29 28  0  0  0  0  0  0  0  0999 V2000     
   20.3852   18.2945   19.9684 C   0  0  0  0  0  0  0  0  0  0  0  0
   19.9546   18.8632   19.1339 H   0  0  0  0  0  0  0  0  0  0  0  0
   21.4307   18.0707   19.7195 H   0  0  0  0  0  0  0  0  0  0  0  0
   19.8459   17.3416   20.0475 H   0  0  0  0  0  0  0  0  0  0  0  0
   20.2979   19.0917   21.2870 C   0  0  0  0  0  0  0  0  0  0  0  0
   20.8700   20.0247   21.1882 H   0  0  0  0  0  0  0  0  0  0  0  0
   20.7728   18.5087   22.0874 H   0  0  0  0  0  0  0  0  0  0  0  0
   18.8325   19.4150   21.6618 C   0  0  0  0  0  0  0  0  0  0  0  0
   18.3527   19.9256   20.8155 H   0  0  0  0  0  0  0  0  0  0  0  0
   18.2713   18.4824   21.8047 H   0  0  0  0  0  0  0  0  0  0  0  0
   18.6946   20.3183   22.9151 C   0  0  0  0  0  0  0  0  0  0  0  0
   17.6276   20.5041   23.1000 H   0  0  0  0  0  0  0  0  0  0  0  0
   19.1348   21.2998   22.6913 H   0  0  0  0  0  0  0  0  0  0  0  0
   19.3425   19.7714   24.2140 C   0  0  0  0  0  0  0  0  0  0  0  0
   20.4284   19.6785   24.0812 H   0  0  0  0  0  0  0  0  0  0  0  0
   19.1886   20.5234   24.9969 H   0  0  0  0  0  0  0  0  0  0  0  0
   18.7493   18.4191   24.6826 C   0  0  0  0  0  0  0  0  0  0  0  0
   18.8295   17.6846   23.8713 H   0  0  0  0  0  0  0  0  0  0  0  0
   17.6760   18.5402   24.8835 H   0  0  0  0  0  0  0  0  0  0  0  0
   19.4429   17.8138   25.9298 C   0  0  0  0  0  0  0  0  0  0  0  0
   18.9959   16.8284   26.1168 H   0  0  0  0  0  0  0  0  0  0  0  0
   20.5054   17.6280   25.7239 H   0  0  0  0  0  0  0  0  0  0  0  0
   19.2914   18.6487   27.2182 C   0  0  0  0  0  0  0  0  0  0  0  0
   19.4188   17.9932   28.0839 H   0  0  0  0  0  0  0  0  0  0  0  0
   18.2885   19.0815   27.2649 H   0  0  0  0  0  0  0  0  0  0  0  0
   20.3076   19.7654   27.3581 N   0  3  0  0  0  0  0  0  0  0  0  0
   20.2500   20.4312   26.5824 H   0  0  0  0  0  0  0  0  0  0  0  0
   21.2671   19.4044   27.3768 H   0  0  0  0  0  0  0  0  0  0  0  0
   20.1713   20.2970   28.2250 H   0  0  0  0  0  0  0  0  0  0  0  0
  1  2  1  0  0  0  0
  1  3  1  0  0  0  0
  1  4  1  0  0  0  0
  1  5  1  0  0  0  0
  5  6  1  0  0  0  0
  5  7  1  0  0  0  0
  5  8  1  0  0  0  0
  8  9  1  0  0  0  0
  8 10  1  0  0  0  0
  8 11  1  0  0  0  0
 11 12  1  0  0  0  0
 11 13  1  0  0  0  0
 11 14  1  0  0  0  0
 14 15  1  0  0  0  0
 14 16  1  0  0  0  0
 14 17  1  0  0  0  0
 17 18  1  0  0  0  0
 17 19  1  0  0  0  0
 17 20  1  0  0  0  0
 20 21  1  0  0  0  0
 20 22  1  0  0  0  0
 20 23  1  0  0  0  0
 23 24  1  0  0  0  0
 23 25  1  0  0  0  0
 23 26  1  0  0  0  0
 26 27  1  0  0  0  0
 26 28  1  0  0  0  0
 26 29  1  0  0  0  0
M  END
> <VM2 Rank>
303

> <Conf_Id>
2932

> <Probability>
0.00

> <Sum Probability>
99.66

> <Delta G>
4.157

> <G>
62.303

> <E>
24.597

> <-TS>
37.706

> <U+W>
0.453

> <U>
52.652

> <W>
-52.199

> <W(PB)>
-54.651

> <W(SA)>
2.452

> <Valence>
5.305

> <Coulomb>
46.543

> <VdW>
0.805

> <VdW6>
-10.062

> <VdW12>
10.867

> <Bond>
0.297

> <Angle>
1.771

> <Pdih>
3.236

> <Idih>
0.000

> <Tether>
0.000

$$$$
VeraChem MOL file


 29 28  0  0  0  0  0  0  0  0999 V2000     
   21.4178   18.2047   21.2759 C   0  0  0  0  0  0  0  0  0  0  0  0
   21.6059   17.4902   22.0878 H   0  0  0  0  0  0  0  0  0  0  0  0
   21.1125   17.6388   20.3861 H   0  0  0  0  0  0  0  0  0  0  0  0
   22.3645   18.7102   21.0453 H   0  0  0  0  0  0  0  0  0  0  0  0
   20.3371   19.2298   21.6792 C   0  0  0  0  0  0  0  0  0  0  0  0
   20.1933   19.9492   20.8610 H   0  0  0  0  0  0  0  0  0  0  0  0
   20.6941   19.8035   22.5439 H   0  0  0  0  0  0  0  0  0  0  0  0
   18.9916   18.5397   22.0062 C   0  0  0  0  0  0  0  0  0  0  0  0
   18.6713   17.9611   21.1289 H   0  0  0  0  0  0  0  0  0  0  0  0
   19.1226   17.8070   22.8121 H   0  0  0  0  0  0  0  0  0  0  0  0
   17.8606   19.5328   22.3714 C   0  0  0  0  0  0  0  0  0  0  0  0
   16.9261   18.9692   22.4988 H   0  0  0  0  0  0  0  0  0  0  0  0
   17.6898   20.1997   21.5151 H   0  0  0  0  0  0  0  0  0  0  0  0
   18.0950   20.4026   23.6362 C   0  0  0  0  0  0  0  0  0  0  0  0
   18.9688   21.0543   23.5054 H   0  0  0  0  0  0  0  0  0  0  0  0
   17.2379   21.0847   23.7216 H   0  0  0  0  0  0  0  0  0  0  0  0
   18.2005   19.6082   24.9647 C   0  0  0  0  0  0  0  0  0  0  0  0
   17.6023   18.6885   24.9036 H   0  0  0  0  0  0  0  0  0  0  0  0
   17.7466   20.2117   25.7631 H   0  0  0  0  0  0  0  0  0  0  0  0
   19.6531   19.2781   25.3836 C   0  0  0  0  0  0  0  0  0  0  0  0
   20.1436   18.6593   24.6247 H   0  0  0  0  0  0  0  0  0  0  0  0
   20.2331   20.2071   25.4628 H   0  0  0  0  0  0  0  0  0  0  0  0
   19.6911   18.5391   26.7325 C   0  0  0  0  0  0  0  0  0  0  0  0
   19.1288   17.6045   26.6562 H   0  0  0  0  0  0  0  0  0  0  0  0
   19.2268   19.1582   27.5048 H   0  0  0  0  0  0  0  0  0  0  0  0
   21.0973   18.2031   27.1854 N   0  3  0  0  0  0  0  0  0  0  0  0
   21.6717   19.0444   27.3027 H   0  0  0  0  0  0  0  0  0  0  0  0
   21.5807   17.5980   26.5135 H   0  0  0  0  0  0  0  0  0  0  0  0
   21.0996   17.7118   28.0861 H   0  0  0  0  0  0  0  0  0  0  0  0
  1  2  1  0  0  0  0
  1  3  1  0  0  0  0
  1  4  1  0  0  0  0
  1  5  1  0  0  0  0
  5  6  1  0  0  0  0
  5  7  1  0  0  0  0
  5  8  1  0  0  0  0
  8  9  1  0  0  0  0
  8 10  1  0  0  0  0
  8 11  1  0  0  0  0
 11 12  1  0  0  0  0
 11 13  1  0  0  0  0
 11 14  1  0  0  0  0
 14 15  1  0  0  0  0
 14 16  1  0  0  0  0
 14 17  1  0  0  0  0
 17 18  1  0  0  0  0
 17 19  1  0  0  0  0
 17 20  1  0  0  0  0
 20 21  1  0  0  0  0
 20 22  1  0  0  0  0
 20 23  1  0  0  0  0
 23 24  1  0  0  0  0
 23 25  1  0  0  0  0
 23 26  1  0  0  0  0
 26 27  1  0  0  0  0
 26 28  1  0  0  0  0
 26 29  1  0  0  0  0
M  END
> <VM2 Rank>
304

> <Conf_Id>
2293

> <Probability>
0.00

> <Sum Probability>
99.66

> <Delta G>
4.157

> <G>
62.304

> <E>
24.261

> <-TS>
38.043

> <U+W>
0.116

> <U>
52.554

> <W>
-52.438

> <W(PB)>
-54.873

> <W(SA)>
2.435

> <Valence>
6.204

> <Coulomb>
45.905

> <VdW>
0.445

> <VdW6>
-9.915

> <VdW12>
10.361

> <Bond>
0.280

> <Angle>
1.806

> <Pdih>
4.118

> <Idih>
0.000

> <Tether>
0.000

$$$$
VeraChem MOL file


 29 28  0  0  0  0  0  0  0  0999 V2000     
   19.2919   20.7690   21.2440 C   0  0  0  0  0  0  0  0  0  0  0  0
   18.5483   20.6815   22.0452 H   0  0  0  0  0  0  0  0  0  0  0  0
   19.7442   21.7664   21.3181 H   0  0  0  0  0  0  0  0  0  0  0  0
   18.7654   20.7100   20.2826 H   0  0  0  0  0  0  0  0  0  0  0  0
   20.3769   19.6730   21.3477 C   0  0  0  0  0  0  0  0  0  0  0  0
   20.9113   19.7538   22.3027 H   0  0  0  0  0  0  0  0  0  0  0  0
   21.1316   19.8544   20.5697 H   0  0  0  0  0  0  0  0  0  0  0  0
   19.8201   18.2401   21.1649 C   0  0  0  0  0  0  0  0  0  0  0  0
   19.3688   18.1658   20.1660 H   0  0  0  0  0  0  0  0  0  0  0  0
   20.6605   17.5324   21.1639 H   0  0  0  0  0  0  0  0  0  0  0  0
   18.7745   17.7750   22.2142 C   0  0  0  0  0  0  0  0  0  0  0  0
   18.4253   16.7808   21.9031 H   0  0  0  0  0  0  0  0  0  0  0  0
   17.8832   18.4155   22.1862 H   0  0  0  0  0  0  0  0  0  0  0  0
   19.3146   17.6536   23.6635 C   0  0  0  0  0  0  0  0  0  0  0  0
   18.8169   16.8004   24.1450 H   0  0  0  0  0  0  0  0  0  0  0  0
   20.3857   17.4095   23.6476 H   0  0  0  0  0  0  0  0  0  0  0  0
   19.0606   18.9094   24.5325 C   0  0  0  0  0  0  0  0  0  0  0  0
   17.9836   19.1255   24.5566 H   0  0  0  0  0  0  0  0  0  0  0  0
   19.5472   19.7864   24.0909 H   0  0  0  0  0  0  0  0  0  0  0  0
   19.5767   18.7208   25.9758 C   0  0  0  0  0  0  0  0  0  0  0  0
   19.0831   17.8541   26.4355 H   0  0  0  0  0  0  0  0  0  0  0  0
   20.6537   18.5069   25.9580 H   0  0  0  0  0  0  0  0  0  0  0  0
   19.3176   19.9715   26.8338 C   0  0  0  0  0  0  0  0  0  0  0  0
   18.2446   20.1790   26.8677 H   0  0  0  0  0  0  0  0  0  0  0  0
   19.8213   20.8341   26.3890 H   0  0  0  0  0  0  0  0  0  0  0  0
   19.8109   19.8255   28.2587 N   0  3  0  0  0  0  0  0  0  0  0  0
   20.8213   19.6550   28.2974 H   0  0  0  0  0  0  0  0  0  0  0  0
   19.3542   19.0454   28.7427 H   0  0  0  0  0  0  0  0  0  0  0  0
   19.6286   20.6693   28.8133 H   0  0  0  0  0  0  0  0  0  0  0  0
  1  2  1  0  0  0  0
  1  3  1  0  0  0  0
  1  4  1  0  0  0  0
  1  5  1  0  0  0  0
  5  6  1  0  0  0  0
  5  7  1  0  0  0  0
  5  8  1  0  0  0  0
  8  9  1  0  0  0  0
  8 10  1  0  0  0  0
  8 11  1  0  0  0  0
 11 12  1  0  0  0  0
 11 13  1  0  0  0  0
 11 14  1  0  0  0  0
 14 15  1  0  0  0  0
 14 16  1  0  0  0  0
 14 17  1  0  0  0  0
 17 18  1  0  0  0  0
 17 19  1  0  0  0  0
 17 20  1  0  0  0  0
 20 21  1  0  0  0  0
 20 22  1  0  0  0  0
 20 23  1  0  0  0  0
 23 24  1  0  0  0  0
 23 25  1  0  0  0  0
 23 26  1  0  0  0  0
 26 27  1  0  0  0  0
 26 28  1  0  0  0  0
 26 29  1  0  0  0  0
M  END
> <VM2 Rank>
305

> <Conf_Id>
1631

> <Probability>
0.00

> <Sum Probability>
99.67

> <Delta G>
4.177

> <G>
62.323

> <E>
24.322

> <-TS>
38.001

> <U+W>
0.177

> <U>
51.870

> <W>
-51.693

> <W(PB)>
-54.129

> <W(SA)>
2.436

> <Valence>
6.196

> <Coulomb>
45.072

> <VdW>
0.602

> <VdW6>
-9.621

> <VdW12>
10.223

> <Bond>
0.275

> <Angle>
1.754

> <Pdih>
4.167

> <Idih>
0.000

> <Tether>
0.000

$$$$
VeraChem MOL file


 29 28  0  0  0  0  0  0  0  0999 V2000     
   20.6425   18.1154   20.4163 C   0  0  0  0  0  0  0  0  0  0  0  0
   21.4860   18.7550   20.1253 H   0  0  0  0  0  0  0  0  0  0  0  0
   21.0350   17.2826   21.0143 H   0  0  0  0  0  0  0  0  0  0  0  0
   20.2058   17.6965   19.5005 H   0  0  0  0  0  0  0  0  0  0  0  0
   19.5861   18.9157   21.2070 C   0  0  0  0  0  0  0  0  0  0  0  0
   18.7426   18.2542   21.4456 H   0  0  0  0  0  0  0  0  0  0  0  0
   19.1901   19.7221   20.5741 H   0  0  0  0  0  0  0  0  0  0  0  0
   20.1777   19.5132   22.5049 C   0  0  0  0  0  0  0  0  0  0  0  0
   20.5409   18.7032   23.1496 H   0  0  0  0  0  0  0  0  0  0  0  0
   21.0604   20.1155   22.2498 H   0  0  0  0  0  0  0  0  0  0  0  0
   19.1810   20.4124   23.2817 C   0  0  0  0  0  0  0  0  0  0  0  0
   18.9008   21.2592   22.6402 H   0  0  0  0  0  0  0  0  0  0  0  0
   19.6892   20.8618   24.1438 H   0  0  0  0  0  0  0  0  0  0  0  0
   17.8828   19.7080   23.7562 C   0  0  0  0  0  0  0  0  0  0  0  0
   17.2674   20.4382   24.2994 H   0  0  0  0  0  0  0  0  0  0  0  0
   17.2883   19.4281   22.8765 H   0  0  0  0  0  0  0  0  0  0  0  0
   18.0688   18.4499   24.6471 C   0  0  0  0  0  0  0  0  0  0  0  0
   18.6332   17.6741   24.1128 H   0  0  0  0  0  0  0  0  0  0  0  0
   17.0716   18.0204   24.8153 H   0  0  0  0  0  0  0  0  0  0  0  0
   18.7051   18.7205   26.0341 C   0  0  0  0  0  0  0  0  0  0  0  0
   18.3195   19.6617   26.4477 H   0  0  0  0  0  0  0  0  0  0  0  0
   18.3870   17.9265   26.7227 H   0  0  0  0  0  0  0  0  0  0  0  0
   20.2450   18.7416   26.0094 C   0  0  0  0  0  0  0  0  0  0  0  0
   20.6018   19.5385   25.3547 H   0  0  0  0  0  0  0  0  0  0  0  0
   20.6181   17.7889   25.6240 H   0  0  0  0  0  0  0  0  0  0  0  0
   20.8550   18.9613   27.3784 N   0  3  0  0  0  0  0  0  0  0  0  0
   20.5847   18.2253   28.0391 H   0  0  0  0  0  0  0  0  0  0  0  0
   20.5635   19.8555   27.7869 H   0  0  0  0  0  0  0  0  0  0  0  0
   21.8803   18.9688   27.3423 H   0  0  0  0  0  0  0  0  0  0  0  0
  1  2  1  0  0  0  0
  1  3  1  0  0  0  0
  1  4  1  0  0  0  0
  1  5  1  0  0  0  0
  5  6  1  0  0  0  0
  5  7  1  0  0  0  0
  5  8  1  0  0  0  0
  8  9  1  0  0  0  0
  8 10  1  0  0  0  0
  8 11  1  0  0  0  0
 11 12  1  0  0  0  0
 11 13  1  0  0  0  0
 11 14  1  0  0  0  0
 14 15  1  0  0  0  0
 14 16  1  0  0  0  0
 14 17  1  0  0  0  0
 17 18  1  0  0  0  0
 17 19  1  0  0  0  0
 17 20  1  0  0  0  0
 20 21  1  0  0  0  0
 20 22  1  0  0  0  0
 20 23  1  0  0  0  0
 23 24  1  0  0  0  0
 23 25  1  0  0  0  0
 23 26  1  0  0  0  0
 26 27  1  0  0  0  0
 26 28  1  0  0  0  0
 26 29  1  0  0  0  0
M  END
> <VM2 Rank>
306

> <Conf_Id>
2455

> <Probability>
0.00

> <Sum Probability>
99.67

> <Delta G>
4.179

> <G>
62.326

> <E>
24.063

> <-TS>
38.262

> <U+W>
-0.081

> <U>
52.441

> <W>
-52.523

> <W(PB)>
-54.951

> <W(SA)>
2.428

> <Valence>
5.944

> <Coulomb>
46.128

> <VdW>
0.370

> <VdW6>
-10.817

> <VdW12>
11.187

> <Bond>
0.305

> <Angle>
2.097

> <Pdih>
3.541

> <Idih>
0.000

> <Tether>
0.000

$$$$
VeraChem MOL file


 29 28  0  0  0  0  0  0  0  0999 V2000     
   20.3212   18.0651   20.5694 C   0  0  0  0  0  0  0  0  0  0  0  0
   21.2515   17.6112   20.2040 H   0  0  0  0  0  0  0  0  0  0  0  0
   19.8803   17.3736   21.2983 H   0  0  0  0  0  0  0  0  0  0  0  0
   19.6333   18.1536   19.7186 H   0  0  0  0  0  0  0  0  0  0  0  0
   20.6044   19.4469   21.2004 C   0  0  0  0  0  0  0  0  0  0  0  0
   21.1507   20.0628   20.4725 H   0  0  0  0  0  0  0  0  0  0  0  0
   21.2776   19.3308   22.0601 H   0  0  0  0  0  0  0  0  0  0  0  0
   19.3208   20.2060   21.6231 C   0  0  0  0  0  0  0  0  0  0  0  0
   19.6070   21.1849   22.0317 H   0  0  0  0  0  0  0  0  0  0  0  0
   18.7228   20.4183   20.7261 H   0  0  0  0  0  0  0  0  0  0  0  0
   18.4255   19.4715   22.6542 C   0  0  0  0  0  0  0  0  0  0  0  0
   18.0360   18.5429   22.2163 H   0  0  0  0  0  0  0  0  0  0  0  0
   17.5479   20.1000   22.8593 H   0  0  0  0  0  0  0  0  0  0  0  0
   19.1456   19.1612   23.9880 C   0  0  0  0  0  0  0  0  0  0  0  0
   19.9766   18.4664   23.8084 H   0  0  0  0  0  0  0  0  0  0  0  0
   19.5708   20.0920   24.3825 H   0  0  0  0  0  0  0  0  0  0  0  0
   18.1804   18.5435   25.0270 C   0  0  0  0  0  0  0  0  0  0  0  0
   17.6466   17.7038   24.5608 H   0  0  0  0  0  0  0  0  0  0  0  0
   17.4128   19.2814   25.2987 H   0  0  0  0  0  0  0  0  0  0  0  0
   18.8712   18.0210   26.3125 C   0  0  0  0  0  0  0  0  0  0  0  0
   18.1053   17.5364   26.9326 H   0  0  0  0  0  0  0  0  0  0  0  0
   19.5983   17.2365   26.0639 H   0  0  0  0  0  0  0  0  0  0  0  0
   19.5448   19.1144   27.1672 C   0  0  0  0  0  0  0  0  0  0  0  0
   19.6510   18.7499   28.1925 H   0  0  0  0  0  0  0  0  0  0  0  0
   18.9165   20.0088   27.1884 H   0  0  0  0  0  0  0  0  0  0  0  0
   20.9301   19.5084   26.6933 N   0  3  0  0  0  0  0  0  0  0  0  0
   21.5762   18.7124   26.7085 H   0  0  0  0  0  0  0  0  0  0  0  0
   21.3410   20.2386   27.2855 H   0  0  0  0  0  0  0  0  0  0  0  0
   20.9148   19.8681   25.7347 H   0  0  0  0  0  0  0  0  0  0  0  0
  1  2  1  0  0  0  0
  1  3  1  0  0  0  0
  1  4  1  0  0  0  0
  1  5  1  0  0  0  0
  5  6  1  0  0  0  0
  5  7  1  0  0  0  0
  5  8  1  0  0  0  0
  8  9  1  0  0  0  0
  8 10  1  0  0  0  0
  8 11  1  0  0  0  0
 11 12  1  0  0  0  0
 11 13  1  0  0  0  0
 11 14  1  0  0  0  0
 14 15  1  0  0  0  0
 14 16  1  0  0  0  0
 14 17  1  0  0  0  0
 17 18  1  0  0  0  0
 17 19  1  0  0  0  0
 17 20  1  0  0  0  0
 20 21  1  0  0  0  0
 20 22  1  0  0  0  0
 20 23  1  0  0  0  0
 23 24  1  0  0  0  0
 23 25  1  0  0  0  0
 23 26  1  0  0  0  0
 26 27  1  0  0  0  0
 26 28  1  0  0  0  0
 26 29  1  0  0  0  0
M  END
> <VM2 Rank>
307

> <Conf_Id>
206

> <Probability>
0.00

> <Sum Probability>
99.67

> <Delta G>
4.181

> <G>
62.327

> <E>
24.542

> <-TS>
37.785

> <U+W>
0.398

> <U>
52.666

> <W>
-52.268

> <W(PB)>
-54.696

> <W(SA)>
2.428

> <Valence>
5.120

> <Coulomb>
46.798

> <VdW>
0.748

> <VdW6>
-10.097

> <VdW12>
10.844

> <Bond>
0.281

> <Angle>
1.589

> <Pdih>
3.250

> <Idih>
0.000

> <Tether>
0.000

$$$$
VeraChem MOL file


 29 28  0  0  0  0  0  0  0  0999 V2000     
   20.1336   18.5223   19.8491 C   0  0  0  0  0  0  0  0  0  0  0  0
   21.2020   18.4179   20.0788 H   0  0  0  0  0  0  0  0  0  0  0  0
   19.9344   17.9694   18.9220 H   0  0  0  0  0  0  0  0  0  0  0  0
   19.9259   19.5810   19.6513 H   0  0  0  0  0  0  0  0  0  0  0  0
   19.2613   17.9754   21.0019 C   0  0  0  0  0  0  0  0  0  0  0  0
   19.4130   16.8892   21.0723 H   0  0  0  0  0  0  0  0  0  0  0  0
   18.1983   18.1224   20.7647 H   0  0  0  0  0  0  0  0  0  0  0  0
   19.5845   18.6095   22.3765 C   0  0  0  0  0  0  0  0  0  0  0  0
   19.0248   18.0558   23.1410 H   0  0  0  0  0  0  0  0  0  0  0  0
   20.6507   18.4725   22.6028 H   0  0  0  0  0  0  0  0  0  0  0  0
   19.2160   20.1111   22.4660 C   0  0  0  0  0  0  0  0  0  0  0  0
   18.1376   20.2323   22.2949 H   0  0  0  0  0  0  0  0  0  0  0  0
   19.7174   20.6605   21.6592 H   0  0  0  0  0  0  0  0  0  0  0  0
   19.6029   20.7852   23.8079 C   0  0  0  0  0  0  0  0  0  0  0  0
   20.6939   20.7685   23.9370 H   0  0  0  0  0  0  0  0  0  0  0  0
   19.3309   21.8472   23.7340 H   0  0  0  0  0  0  0  0  0  0  0  0
   18.9027   20.1937   25.0591 C   0  0  0  0  0  0  0  0  0  0  0  0
   17.9373   19.7503   24.7784 H   0  0  0  0  0  0  0  0  0  0  0  0
   18.6687   21.0163   25.7492 H   0  0  0  0  0  0  0  0  0  0  0  0
   19.7712   19.1622   25.8185 C   0  0  0  0  0  0  0  0  0  0  0  0
   20.0615   18.3388   25.1560 H   0  0  0  0  0  0  0  0  0  0  0  0
   20.7005   19.6420   26.1534 H   0  0  0  0  0  0  0  0  0  0  0  0
   19.0257   18.5928   27.0381 C   0  0  0  0  0  0  0  0  0  0  0  0
   18.1072   18.0985   26.7102 H   0  0  0  0  0  0  0  0  0  0  0  0
   18.7555   19.4061   27.7171 H   0  0  0  0  0  0  0  0  0  0  0  0
   19.8460   17.5858   27.8179 N   0  3  0  0  0  0  0  0  0  0  0  0
   20.7136   17.9971   28.1779 H   0  0  0  0  0  0  0  0  0  0  0  0
   20.1099   16.7797   27.2417 H   0  0  0  0  0  0  0  0  0  0  0  0
   19.3311   17.2197   28.6263 H   0  0  0  0  0  0  0  0  0  0  0  0
  1  2  1  0  0  0  0
  1  3  1  0  0  0  0
  1  4  1  0  0  0  0
  1  5  1  0  0  0  0
  5  6  1  0  0  0  0
  5  7  1  0  0  0  0
  5  8  1  0  0  0  0
  8  9  1  0  0  0  0
  8 10  1  0  0  0  0
  8 11  1  0  0  0  0
 11 12  1  0  0  0  0
 11 13  1  0  0  0  0
 11 14  1  0  0  0  0
 14 15  1  0  0  0  0
 14 16  1  0  0  0  0
 14 17  1  0  0  0  0
 17 18  1  0  0  0  0
 17 19  1  0  0  0  0
 17 20  1  0  0  0  0
 20 21  1  0  0  0  0
 20 22  1  0  0  0  0
 20 23  1  0  0  0  0
 23 24  1  0  0  0  0
 23 25  1  0  0  0  0
 23 26  1  0  0  0  0
 26 27  1  0  0  0  0
 26 28  1  0  0  0  0
 26 29  1  0  0  0  0
M  END
> <VM2 Rank>
308

> <Conf_Id>
2750

> <Probability>
0.00

> <Sum Probability>
99.68

> <Delta G>
4.190

> <G>
62.336

> <E>
24.704

> <-TS>
37.632

> <U+W>
0.559

> <U>
52.577

> <W>
-52.017

> <W(PB)>
-54.493

> <W(SA)>
2.476

> <Valence>
6.244

> <Coulomb>
45.374

> <VdW>
0.959

> <VdW6>
-9.152

> <VdW12>
10.111

> <Bond>
0.274

> <Angle>
1.455

> <Pdih>
4.516

> <Idih>
0.000

> <Tether>
0.000

$$$$
VeraChem MOL file


 29 28  0  0  0  0  0  0  0  0999 V2000     
   21.2314   19.1974   20.4385 C   0  0  0  0  0  0  0  0  0  0  0  0
   21.3032   19.5446   19.3996 H   0  0  0  0  0  0  0  0  0  0  0  0
   21.8972   19.8211   21.0492 H   0  0  0  0  0  0  0  0  0  0  0  0
   21.6015   18.1645   20.4751 H   0  0  0  0  0  0  0  0  0  0  0  0
   19.7750   19.2827   20.9419 C   0  0  0  0  0  0  0  0  0  0  0  0
   19.1284   18.6772   20.2913 H   0  0  0  0  0  0  0  0  0  0  0  0
   19.4221   20.3205   20.8627 H   0  0  0  0  0  0  0  0  0  0  0  0
   19.6460   18.7987   22.4030 C   0  0  0  0  0  0  0  0  0  0  0  0
   19.9982   17.7604   22.4743 H   0  0  0  0  0  0  0  0  0  0  0  0
   20.3072   19.4001   23.0362 H   0  0  0  0  0  0  0  0  0  0  0  0
   18.1850   18.8835   22.9082 C   0  0  0  0  0  0  0  0  0  0  0  0
   17.5573   18.2860   22.2325 H   0  0  0  0  0  0  0  0  0  0  0  0
   17.8137   19.9148   22.8331 H   0  0  0  0  0  0  0  0  0  0  0  0
   17.9861   18.3489   24.3508 C   0  0  0  0  0  0  0  0  0  0  0  0
   16.9860   17.8968   24.4043 H   0  0  0  0  0  0  0  0  0  0  0  0
   18.6861   17.5283   24.5565 H   0  0  0  0  0  0  0  0  0  0  0  0
   18.0589   19.4290   25.4638 C   0  0  0  0  0  0  0  0  0  0  0  0
   17.7660   18.9686   26.4170 H   0  0  0  0  0  0  0  0  0  0  0  0
   17.3000   20.1983   25.2652 H   0  0  0  0  0  0  0  0  0  0  0  0
   19.4341   20.1202   25.6423 C   0  0  0  0  0  0  0  0  0  0  0  0
   19.6610   20.7238   24.7550 H   0  0  0  0  0  0  0  0  0  0  0  0
   19.3720   20.8319   26.4762 H   0  0  0  0  0  0  0  0  0  0  0  0
   20.5956   19.1408   25.9061 C   0  0  0  0  0  0  0  0  0  0  0  0
   21.5325   19.6993   25.9823 H   0  0  0  0  0  0  0  0  0  0  0  0
   20.6836   18.4390   25.0729 H   0  0  0  0  0  0  0  0  0  0  0  0
   20.4322   18.3368   27.1803 N   0  3  0  0  0  0  0  0  0  0  0  0
   20.3733   18.9415   28.0061 H   0  0  0  0  0  0  0  0  0  0  0  0
   21.2196   17.6970   27.3317 H   0  0  0  0  0  0  0  0  0  0  0  0
   19.5799   17.7681   27.1596 H   0  0  0  0  0  0  0  0  0  0  0  0
  1  2  1  0  0  0  0
  1  3  1  0  0  0  0
  1  4  1  0  0  0  0
  1  5  1  0  0  0  0
  5  6  1  0  0  0  0
  5  7  1  0  0  0  0
  5  8  1  0  0  0  0
  8  9  1  0  0  0  0
  8 10  1  0  0  0  0
  8 11  1  0  0  0  0
 11 12  1  0  0  0  0
 11 13  1  0  0  0  0
 11 14  1  0  0  0  0
 14 15  1  0  0  0  0
 14 16  1  0  0  0  0
 14 17  1  0  0  0  0
 17 18  1  0  0  0  0
 17 19  1  0  0  0  0
 17 20  1  0  0  0  0
 20 21  1  0  0  0  0
 20 22  1  0  0  0  0
 20 23  1  0  0  0  0
 23 24  1  0  0  0  0
 23 25  1  0  0  0  0
 23 26  1  0  0  0  0
 26 27  1  0  0  0  0
 26 28  1  0  0  0  0
 26 29  1  0  0  0  0
M  END
> <VM2 Rank>
309

> <Conf_Id>
344

> <Probability>
0.00

> <Sum Probability>
99.68

> <Delta G>
4.197

> <G>
62.343

> <E>
24.266

> <-TS>
38.077

> <U+W>
0.122

> <U>
52.559

> <W>
-52.437

> <W(PB)>
-54.855

> <W(SA)>
2.418

> <Valence>
5.998

> <Coulomb>
46.093

> <VdW>
0.467

> <VdW6>
-10.461

> <VdW12>
10.928

> <Bond>
0.286

> <Angle>
1.671

> <Pdih>
4.041

> <Idih>
0.000

> <Tether>
0.000

$$$$
VeraChem MOL file


 29 28  0  0  0  0  0  0  0  0999 V2000     
   21.0473   17.9973   21.6768 C   0  0  0  0  0  0  0  0  0  0  0  0
   22.0742   18.0745   21.2968 H   0  0  0  0  0  0  0  0  0  0  0  0
   21.0941   18.0683   22.7704 H   0  0  0  0  0  0  0  0  0  0  0  0
   20.6642   17.0034   21.4115 H   0  0  0  0  0  0  0  0  0  0  0  0
   20.1625   19.1123   21.0751 C   0  0  0  0  0  0  0  0  0  0  0  0
   20.2476   19.0794   19.9800 H   0  0  0  0  0  0  0  0  0  0  0  0
   20.5495   20.0949   21.3762 H   0  0  0  0  0  0  0  0  0  0  0  0
   18.6654   18.9862   21.4566 C   0  0  0  0  0  0  0  0  0  0  0  0
   18.1075   19.8022   20.9771 H   0  0  0  0  0  0  0  0  0  0  0  0
   18.2674   18.0569   21.0264 H   0  0  0  0  0  0  0  0  0  0  0  0
   18.3672   18.9957   22.9780 C   0  0  0  0  0  0  0  0  0  0  0  0
   18.8216   18.1142   23.4425 H   0  0  0  0  0  0  0  0  0  0  0  0
   17.2834   18.8804   23.1156 H   0  0  0  0  0  0  0  0  0  0  0  0
   18.8273   20.2955   23.6875 C   0  0  0  0  0  0  0  0  0  0  0  0
   19.9134   20.4264   23.5957 H   0  0  0  0  0  0  0  0  0  0  0  0
   18.3720   21.1477   23.1644 H   0  0  0  0  0  0  0  0  0  0  0  0
   18.4199   20.3684   25.1823 C   0  0  0  0  0  0  0  0  0  0  0  0
   17.4459   19.8841   25.3366 H   0  0  0  0  0  0  0  0  0  0  0  0
   18.2708   21.4252   25.4438 H   0  0  0  0  0  0  0  0  0  0  0  0
   19.4671   19.7884   26.1662 C   0  0  0  0  0  0  0  0  0  0  0  0
   20.4136   20.3347   26.0588 H   0  0  0  0  0  0  0  0  0  0  0  0
   19.1195   19.9683   27.1923 H   0  0  0  0  0  0  0  0  0  0  0  0
   19.7237   18.2823   25.9852 C   0  0  0  0  0  0  0  0  0  0  0  0
   20.1670   18.1009   25.0033 H   0  0  0  0  0  0  0  0  0  0  0  0
   18.7783   17.7366   26.0473 H   0  0  0  0  0  0  0  0  0  0  0  0
   20.6636   17.7118   27.0272 N   0  3  0  0  0  0  0  0  0  0  0  0
   20.8241   16.7082   26.8874 H   0  0  0  0  0  0  0  0  0  0  0  0
   20.2944   17.8257   27.9770 H   0  0  0  0  0  0  0  0  0  0  0  0
   21.5817   18.1678   27.0037 H   0  0  0  0  0  0  0  0  0  0  0  0
  1  2  1  0  0  0  0
  1  3  1  0  0  0  0
  1  4  1  0  0  0  0
  1  5  1  0  0  0  0
  5  6  1  0  0  0  0
  5  7  1  0  0  0  0
  5  8  1  0  0  0  0
  8  9  1  0  0  0  0
  8 10  1  0  0  0  0
  8 11  1  0  0  0  0
 11 12  1  0  0  0  0
 11 13  1  0  0  0  0
 11 14  1  0  0  0  0
 14 15  1  0  0  0  0
 14 16  1  0  0  0  0
 14 17  1  0  0  0  0
 17 18  1  0  0  0  0
 17 19  1  0  0  0  0
 17 20  1  0  0  0  0
 20 21  1  0  0  0  0
 20 22  1  0  0  0  0
 20 23  1  0  0  0  0
 23 24  1  0  0  0  0
 23 25  1  0  0  0  0
 23 26  1  0  0  0  0
 26 27  1  0  0  0  0
 26 28  1  0  0  0  0
 26 29  1  0  0  0  0
M  END
> <VM2 Rank>
310

> <Conf_Id>
2910

> <Probability>
0.00

> <Sum Probability>
99.69

> <Delta G>
4.210

> <G>
62.356

> <E>
24.464

> <-TS>
37.892

> <U+W>
0.320

> <U>
52.867

> <W>
-52.548

> <W(PB)>
-54.993

> <W(SA)>
2.445

> <Valence>
6.036

> <Coulomb>
46.191

> <VdW>
0.641

> <VdW6>
-10.428

> <VdW12>
11.069

> <Bond>
0.311

> <Angle>
1.746

> <Pdih>
3.979

> <Idih>
0.000

> <Tether>
0.000

$$$$
VeraChem MOL file


 29 28  0  0  0  0  0  0  0  0999 V2000     
   20.8284   19.5650   20.8080 C   0  0  0  0  0  0  0  0  0  0  0  0
   21.5334   18.8833   21.3010 H   0  0  0  0  0  0  0  0  0  0  0  0
   21.3204   19.9684   19.9135 H   0  0  0  0  0  0  0  0  0  0  0  0
   20.6286   20.4086   21.4801 H   0  0  0  0  0  0  0  0  0  0  0  0
   19.5237   18.8345   20.4228 C   0  0  0  0  0  0  0  0  0  0  0  0
   19.7462   18.1150   19.6225 H   0  0  0  0  0  0  0  0  0  0  0  0
   18.8148   19.5567   19.9942 H   0  0  0  0  0  0  0  0  0  0  0  0
   18.8476   18.0745   21.5924 C   0  0  0  0  0  0  0  0  0  0  0  0
   17.9665   17.5593   21.1855 H   0  0  0  0  0  0  0  0  0  0  0  0
   19.5113   17.2800   21.9601 H   0  0  0  0  0  0  0  0  0  0  0  0
   18.3810   18.9736   22.7670 C   0  0  0  0  0  0  0  0  0  0  0  0
   17.4470   18.5595   23.1712 H   0  0  0  0  0  0  0  0  0  0  0  0
   18.1328   19.9776   22.3963 H   0  0  0  0  0  0  0  0  0  0  0  0
   19.4086   19.0614   23.9217 C   0  0  0  0  0  0  0  0  0  0  0  0
   19.6017   18.0509   24.3052 H   0  0  0  0  0  0  0  0  0  0  0  0
   20.3671   19.4442   23.5521 H   0  0  0  0  0  0  0  0  0  0  0  0
   18.9042   19.9713   25.0671 C   0  0  0  0  0  0  0  0  0  0  0  0
   17.9623   19.5751   25.4695 H   0  0  0  0  0  0  0  0  0  0  0  0
   18.6683   20.9642   24.6600 H   0  0  0  0  0  0  0  0  0  0  0  0
   19.9362   20.1409   26.2101 C   0  0  0  0  0  0  0  0  0  0  0  0
   20.8406   20.6204   25.8127 H   0  0  0  0  0  0  0  0  0  0  0  0
   19.5318   20.8283   26.9650 H   0  0  0  0  0  0  0  0  0  0  0  0
   20.3376   18.8189   26.8951 C   0  0  0  0  0  0  0  0  0  0  0  0
   21.0829   19.0225   27.6688 H   0  0  0  0  0  0  0  0  0  0  0  0
   20.7855   18.1433   26.1619 H   0  0  0  0  0  0  0  0  0  0  0  0
   19.1767   18.0980   27.5508 N   0  3  0  0  0  0  0  0  0  0  0  0
   18.7308   18.6737   28.2725 H   0  0  0  0  0  0  0  0  0  0  0  0
   19.4751   17.2268   28.0029 H   0  0  0  0  0  0  0  0  0  0  0  0
   18.4527   17.8519   26.8684 H   0  0  0  0  0  0  0  0  0  0  0  0
  1  2  1  0  0  0  0
  1  3  1  0  0  0  0
  1  4  1  0  0  0  0
  1  5  1  0  0  0  0
  5  6  1  0  0  0  0
  5  7  1  0  0  0  0
  5  8  1  0  0  0  0
  8  9  1  0  0  0  0
  8 10  1  0  0  0  0
  8 11  1  0  0  0  0
 11 12  1  0  0  0  0
 11 13  1  0  0  0  0
 11 14  1  0  0  0  0
 14 15  1  0  0  0  0
 14 16  1  0  0  0  0
 14 17  1  0  0  0  0
 17 18  1  0  0  0  0
 17 19  1  0  0  0  0
 17 20  1  0  0  0  0
 20 21  1  0  0  0  0
 20 22  1  0  0  0  0
 20 23  1  0  0  0  0
 23 24  1  0  0  0  0
 23 25  1  0  0  0  0
 23 26  1  0  0  0  0
 26 27  1  0  0  0  0
 26 28  1  0  0  0  0
 26 29  1  0  0  0  0
M  END
> <VM2 Rank>
311

> <Conf_Id>
2968

> <Probability>
0.00

> <Sum Probability>
99.69

> <Delta G>
4.213

> <G>
62.359

> <E>
24.535

> <-TS>
37.824

> <U+W>
0.390

> <U>
52.379

> <W>
-51.989

> <W(PB)>
-54.433

> <W(SA)>
2.444

> <Valence>
5.934

> <Coulomb>
45.562

> <VdW>
0.884

> <VdW6>
-9.845

> <VdW12>
10.729

> <Bond>
0.276

> <Angle>
1.390

> <Pdih>
4.268

> <Idih>
0.000

> <Tether>
0.000

$$$$
VeraChem MOL file


 29 28  0  0  0  0  0  0  0  0999 V2000     
   20.4921   17.8193   21.0084 C   0  0  0  0  0  0  0  0  0  0  0  0
   21.4089   18.4221   21.0401 H   0  0  0  0  0  0  0  0  0  0  0  0
   20.2999   17.4204   22.0119 H   0  0  0  0  0  0  0  0  0  0  0  0
   20.6749   16.9638   20.3454 H   0  0  0  0  0  0  0  0  0  0  0  0
   19.2956   18.6512   20.4979 C   0  0  0  0  0  0  0  0  0  0  0  0
   18.3824   18.0417   20.5440 H   0  0  0  0  0  0  0  0  0  0  0  0
   19.4543   18.8813   19.4350 H   0  0  0  0  0  0  0  0  0  0  0  0
   19.0709   19.9821   21.2602 C   0  0  0  0  0  0  0  0  0  0  0  0
   19.9375   20.6440   21.1267 H   0  0  0  0  0  0  0  0  0  0  0  0
   18.2278   20.4986   20.7808 H   0  0  0  0  0  0  0  0  0  0  0  0
   18.7430   19.8189   22.7674 C   0  0  0  0  0  0  0  0  0  0  0  0
   18.2269   18.8641   22.9291 H   0  0  0  0  0  0  0  0  0  0  0  0
   18.0295   20.6037   23.0539 H   0  0  0  0  0  0  0  0  0  0  0  0
   19.9879   19.9416   23.6841 C   0  0  0  0  0  0  0  0  0  0  0  0
   20.7276   19.1702   23.4395 H   0  0  0  0  0  0  0  0  0  0  0  0
   20.4776   20.9050   23.4863 H   0  0  0  0  0  0  0  0  0  0  0  0
   19.6536   19.8675   25.1941 C   0  0  0  0  0  0  0  0  0  0  0  0
   18.9090   20.6355   25.4454 H   0  0  0  0  0  0  0  0  0  0  0  0
   20.5613   20.1217   25.7571 H   0  0  0  0  0  0  0  0  0  0  0  0
   19.1432   18.4758   25.6451 C   0  0  0  0  0  0  0  0  0  0  0  0
   18.2139   18.2304   25.1167 H   0  0  0  0  0  0  0  0  0  0  0  0
   19.8730   17.7012   25.3744 H   0  0  0  0  0  0  0  0  0  0  0  0
   18.8604   18.4092   27.1583 C   0  0  0  0  0  0  0  0  0  0  0  0
   18.4142   17.4409   27.4010 H   0  0  0  0  0  0  0  0  0  0  0  0
   18.1484   19.1916   27.4346 H   0  0  0  0  0  0  0  0  0  0  0  0
   20.0974   18.5724   28.0195 N   0  3  0  0  0  0  0  0  0  0  0  0
   20.7972   17.8497   27.8210 H   0  0  0  0  0  0  0  0  0  0  0  0
   19.8762   18.5093   29.0193 H   0  0  0  0  0  0  0  0  0  0  0  0
   20.5478   19.4804   27.8683 H   0  0  0  0  0  0  0  0  0  0  0  0
  1  2  1  0  0  0  0
  1  3  1  0  0  0  0
  1  4  1  0  0  0  0
  1  5  1  0  0  0  0
  5  6  1  0  0  0  0
  5  7  1  0  0  0  0
  5  8  1  0  0  0  0
  8  9  1  0  0  0  0
  8 10  1  0  0  0  0
  8 11  1  0  0  0  0
 11 12  1  0  0  0  0
 11 13  1  0  0  0  0
 11 14  1  0  0  0  0
 14 15  1  0  0  0  0
 14 16  1  0  0  0  0
 14 17  1  0  0  0  0
 17 18  1  0  0  0  0
 17 19  1  0  0  0  0
 17 20  1  0  0  0  0
 20 21  1  0  0  0  0
 20 22  1  0  0  0  0
 20 23  1  0  0  0  0
 23 24  1  0  0  0  0
 23 25  1  0  0  0  0
 23 26  1  0  0  0  0
 26 27  1  0  0  0  0
 26 28  1  0  0  0  0
 26 29  1  0  0  0  0
M  END
> <VM2 Rank>
312

> <Conf_Id>
677

> <Probability>
0.00

> <Sum Probability>
99.70

> <Delta G>
4.222

> <G>
62.369

> <E>
24.695

> <-TS>
37.674

> <U+W>
0.550

> <U>
52.421

> <W>
-51.871

> <W(PB)>
-54.325

> <W(SA)>
2.455

> <Valence>
6.205

> <Coulomb>
45.185

> <VdW>
1.031

> <VdW6>
-9.741

> <VdW12>
10.772

> <Bond>
0.301

> <Angle>
1.486

> <Pdih>
4.417

> <Idih>
0.000

> <Tether>
0.000

$$$$
VeraChem MOL file


 29 28  0  0  0  0  0  0  0  0999 V2000     
   20.9184   19.5354   20.8751 C   0  0  0  0  0  0  0  0  0  0  0  0
   21.2149   18.4842   20.7663 H   0  0  0  0  0  0  0  0  0  0  0  0
   21.5322   20.1309   20.1870 H   0  0  0  0  0  0  0  0  0  0  0  0
   21.1574   19.8634   21.8942 H   0  0  0  0  0  0  0  0  0  0  0  0
   19.4183   19.7265   20.5627 C   0  0  0  0  0  0  0  0  0  0  0  0
   19.2572   19.5536   19.4895 H   0  0  0  0  0  0  0  0  0  0  0  0
   19.1385   20.7730   20.7475 H   0  0  0  0  0  0  0  0  0  0  0  0
   18.4753   18.7883   21.3584 C   0  0  0  0  0  0  0  0  0  0  0  0
   17.4492   18.9872   21.0197 H   0  0  0  0  0  0  0  0  0  0  0  0
   18.6756   17.7407   21.0952 H   0  0  0  0  0  0  0  0  0  0  0  0
   18.5206   18.9765   22.8974 C   0  0  0  0  0  0  0  0  0  0  0  0
   17.5098   18.8151   23.2965 H   0  0  0  0  0  0  0  0  0  0  0  0
   18.7788   20.0169   23.1328 H   0  0  0  0  0  0  0  0  0  0  0  0
   19.4829   17.9907   23.6092 C   0  0  0  0  0  0  0  0  0  0  0  0
   19.1946   16.9634   23.3472 H   0  0  0  0  0  0  0  0  0  0  0  0
   20.5089   18.1193   23.2450 H   0  0  0  0  0  0  0  0  0  0  0  0
   19.4683   18.1225   25.1516 C   0  0  0  0  0  0  0  0  0  0  0  0
   20.0692   17.3063   25.5763 H   0  0  0  0  0  0  0  0  0  0  0  0
   18.4438   17.9767   25.5192 H   0  0  0  0  0  0  0  0  0  0  0  0
   20.0293   19.4746   25.6584 C   0  0  0  0  0  0  0  0  0  0  0  0
   21.0164   19.6501   25.2104 H   0  0  0  0  0  0  0  0  0  0  0  0
   19.3856   20.3029   25.3371 H   0  0  0  0  0  0  0  0  0  0  0  0
   20.1749   19.5161   27.1915 C   0  0  0  0  0  0  0  0  0  0  0  0
   20.6444   20.4585   27.4866 H   0  0  0  0  0  0  0  0  0  0  0  0
   20.8177   18.6960   27.5227 H   0  0  0  0  0  0  0  0  0  0  0  0
   18.8558   19.4074   27.9307 N   0  3  0  0  0  0  0  0  0  0  0  0
   18.2150   20.1672   27.6790 H   0  0  0  0  0  0  0  0  0  0  0  0
   18.9847   19.4478   28.9477 H   0  0  0  0  0  0  0  0  0  0  0  0
   18.3771   18.5254   27.7231 H   0  0  0  0  0  0  0  0  0  0  0  0
  1  2  1  0  0  0  0
  1  3  1  0  0  0  0
  1  4  1  0  0  0  0
  1  5  1  0  0  0  0
  5  6  1  0  0  0  0
  5  7  1  0  0  0  0
  5  8  1  0  0  0  0
  8  9  1  0  0  0  0
  8 10  1  0  0  0  0
  8 11  1  0  0  0  0
 11 12  1  0  0  0  0
 11 13  1  0  0  0  0
 11 14  1  0  0  0  0
 14 15  1  0  0  0  0
 14 16  1  0  0  0  0
 14 17  1  0  0  0  0
 17 18  1  0  0  0  0
 17 19  1  0  0  0  0
 17 20  1  0  0  0  0
 20 21  1  0  0  0  0
 20 22  1  0  0  0  0
 20 23  1  0  0  0  0
 23 24  1  0  0  0  0
 23 25  1  0  0  0  0
 23 26  1  0  0  0  0
 26 27  1  0  0  0  0
 26 28  1  0  0  0  0
 26 29  1  0  0  0  0
M  END
> <VM2 Rank>
313

> <Conf_Id>
644

> <Probability>
0.00

> <Sum Probability>
99.70

> <Delta G>
4.227

> <G>
62.374

> <E>
24.656

> <-TS>
37.717

> <U+W>
0.512

> <U>
52.420

> <W>
-51.909

> <W(PB)>
-54.348

> <W(SA)>
2.440

> <Valence>
6.172

> <Coulomb>
45.274

> <VdW>
0.975

> <VdW6>
-9.789

> <VdW12>
10.764

> <Bond>
0.295

> <Angle>
1.438

> <Pdih>
4.439

> <Idih>
0.000

> <Tether>
0.000

$$$$
VeraChem MOL file


 29 28  0  0  0  0  0  0  0  0999 V2000     
   20.7208   19.2390   19.9891 C   0  0  0  0  0  0  0  0  0  0  0  0
   20.0395   19.1038   19.1390 H   0  0  0  0  0  0  0  0  0  0  0  0
   20.9034   20.3144   20.1136 H   0  0  0  0  0  0  0  0  0  0  0  0
   21.6761   18.7620   19.7343 H   0  0  0  0  0  0  0  0  0  0  0  0
   20.1314   18.6245   21.2763 C   0  0  0  0  0  0  0  0  0  0  0  0
   20.8565   18.7441   22.0922 H   0  0  0  0  0  0  0  0  0  0  0  0
   19.9871   17.5446   21.1324 H   0  0  0  0  0  0  0  0  0  0  0  0
   18.7860   19.2847   21.6590 C   0  0  0  0  0  0  0  0  0  0  0  0
   18.9379   20.3555   21.8468 H   0  0  0  0  0  0  0  0  0  0  0  0
   18.1033   19.2260   20.8001 H   0  0  0  0  0  0  0  0  0  0  0  0
   18.0912   18.6224   22.8773 C   0  0  0  0  0  0  0  0  0  0  0  0
   17.8157   17.5933   22.6086 H   0  0  0  0  0  0  0  0  0  0  0  0
   17.1441   19.1450   23.0700 H   0  0  0  0  0  0  0  0  0  0  0  0
   18.9208   18.5851   24.1874 C   0  0  0  0  0  0  0  0  0  0  0  0
   18.3156   18.0691   24.9421 H   0  0  0  0  0  0  0  0  0  0  0  0
   19.8230   17.9764   24.0429 H   0  0  0  0  0  0  0  0  0  0  0  0
   19.3086   19.9882   24.7175 C   0  0  0  0  0  0  0  0  0  0  0  0
   18.3974   20.5646   24.9285 H   0  0  0  0  0  0  0  0  0  0  0  0
   19.8463   20.5382   23.9349 H   0  0  0  0  0  0  0  0  0  0  0  0
   20.2109   19.9693   25.9779 C   0  0  0  0  0  0  0  0  0  0  0  0
   21.1545   19.4495   25.7648 H   0  0  0  0  0  0  0  0  0  0  0  0
   20.4849   21.0072   26.2096 H   0  0  0  0  0  0  0  0  0  0  0  0
   19.5476   19.3684   27.2344 C   0  0  0  0  0  0  0  0  0  0  0  0
   18.4964   19.6658   27.2781 H   0  0  0  0  0  0  0  0  0  0  0  0
   20.0485   19.7612   28.1233 H   0  0  0  0  0  0  0  0  0  0  0  0
   19.6268   17.8564   27.3162 N   0  3  0  0  0  0  0  0  0  0  0  0
   20.5980   17.5284   27.3356 H   0  0  0  0  0  0  0  0  0  0  0  0
   19.1720   17.4081   26.5158 H   0  0  0  0  0  0  0  0  0  0  0  0
   19.1729   17.4973   28.1634 H   0  0  0  0  0  0  0  0  0  0  0  0
  1  2  1  0  0  0  0
  1  3  1  0  0  0  0
  1  4  1  0  0  0  0
  1  5  1  0  0  0  0
  5  6  1  0  0  0  0
  5  7  1  0  0  0  0
  5  8  1  0  0  0  0
  8  9  1  0  0  0  0
  8 10  1  0  0  0  0
  8 11  1  0  0  0  0
 11 12  1  0  0  0  0
 11 13  1  0  0  0  0
 11 14  1  0  0  0  0
 14 15  1  0  0  0  0
 14 16  1  0  0  0  0
 14 17  1  0  0  0  0
 17 18  1  0  0  0  0
 17 19  1  0  0  0  0
 17 20  1  0  0  0  0
 20 21  1  0  0  0  0
 20 22  1  0  0  0  0
 20 23  1  0  0  0  0
 23 24  1  0  0  0  0
 23 25  1  0  0  0  0
 23 26  1  0  0  0  0
 26 27  1  0  0  0  0
 26 28  1  0  0  0  0
 26 29  1  0  0  0  0
M  END
> <VM2 Rank>
314

> <Conf_Id>
320

> <Probability>
0.00

> <Sum Probability>
99.71

> <Delta G>
4.228

> <G>
62.374

> <E>
24.670

> <-TS>
37.704

> <U+W>
0.526

> <U>
52.652

> <W>
-52.126

> <W(PB)>
-54.594

> <W(SA)>
2.468

> <Valence>
5.305

> <Coulomb>
46.543

> <VdW>
0.805

> <VdW6>
-10.061

> <VdW12>
10.866

> <Bond>
0.297

> <Angle>
1.772

> <Pdih>
3.236

> <Idih>
0.000

> <Tether>
0.000

$$$$
VeraChem MOL file


 29 28  0  0  0  0  0  0  0  0999 V2000     
   20.4852   19.4637   19.7403 C   0  0  0  0  0  0  0  0  0  0  0  0
   21.2776   18.7098   19.8331 H   0  0  0  0  0  0  0  0  0  0  0  0
   20.3481   19.6767   18.6723 H   0  0  0  0  0  0  0  0  0  0  0  0
   20.8317   20.3884   20.2181 H   0  0  0  0  0  0  0  0  0  0  0  0
   19.1637   18.9609   20.3647 C   0  0  0  0  0  0  0  0  0  0  0  0
   18.7936   18.1136   19.7707 H   0  0  0  0  0  0  0  0  0  0  0  0
   18.3976   19.7454   20.2914 H   0  0  0  0  0  0  0  0  0  0  0  0
   19.3089   18.5067   21.8374 C   0  0  0  0  0  0  0  0  0  0  0  0
   18.3625   18.0434   22.1425 H   0  0  0  0  0  0  0  0  0  0  0  0
   20.0739   17.7211   21.9043 H   0  0  0  0  0  0  0  0  0  0  0  0
   19.6613   19.6637   22.8073 C   0  0  0  0  0  0  0  0  0  0  0  0
   18.9014   20.4541   22.7376 H   0  0  0  0  0  0  0  0  0  0  0  0
   20.6099   20.1193   22.4954 H   0  0  0  0  0  0  0  0  0  0  0  0
   19.8119   19.2149   24.2820 C   0  0  0  0  0  0  0  0  0  0  0  0
   20.5251   18.3813   24.3415 H   0  0  0  0  0  0  0  0  0  0  0  0
   20.2527   20.0513   24.8376 H   0  0  0  0  0  0  0  0  0  0  0  0
   18.4715   18.8157   24.9493 C   0  0  0  0  0  0  0  0  0  0  0  0
   17.9737   18.0470   24.3454 H   0  0  0  0  0  0  0  0  0  0  0  0
   17.7961   19.6823   24.9589 H   0  0  0  0  0  0  0  0  0  0  0  0
   18.6148   18.2593   26.3892 C   0  0  0  0  0  0  0  0  0  0  0  0
   17.6193   17.9416   26.7266 H   0  0  0  0  0  0  0  0  0  0  0  0
   19.2357   17.3536   26.3889 H   0  0  0  0  0  0  0  0  0  0  0  0
   19.1572   19.2723   27.4186 C   0  0  0  0  0  0  0  0  0  0  0  0
   18.8425   18.9653   28.4197 H   0  0  0  0  0  0  0  0  0  0  0  0
   18.7398   20.2632   27.2206 H   0  0  0  0  0  0  0  0  0  0  0  0
   20.6694   19.3807   27.4461 N   0  3  0  0  0  0  0  0  0  0  0  0
   21.0463   19.6699   26.5391 H   0  0  0  0  0  0  0  0  0  0  0  0
   21.1090   18.4857   27.6852 H   0  0  0  0  0  0  0  0  0  0  0  0
   20.9889   20.0656   28.1400 H   0  0  0  0  0  0  0  0  0  0  0  0
  1  2  1  0  0  0  0
  1  3  1  0  0  0  0
  1  4  1  0  0  0  0
  1  5  1  0  0  0  0
  5  6  1  0  0  0  0
  5  7  1  0  0  0  0
  5  8  1  0  0  0  0
  8  9  1  0  0  0  0
  8 10  1  0  0  0  0
  8 11  1  0  0  0  0
 11 12  1  0  0  0  0
 11 13  1  0  0  0  0
 11 14  1  0  0  0  0
 14 15  1  0  0  0  0
 14 16  1  0  0  0  0
 14 17  1  0  0  0  0
 17 18  1  0  0  0  0
 17 19  1  0  0  0  0
 17 20  1  0  0  0  0
 20 21  1  0  0  0  0
 20 22  1  0  0  0  0
 20 23  1  0  0  0  0
 23 24  1  0  0  0  0
 23 25  1  0  0  0  0
 23 26  1  0  0  0  0
 26 27  1  0  0  0  0
 26 28  1  0  0  0  0
 26 29  1  0  0  0  0
M  END
> <VM2 Rank>
315

> <Conf_Id>
2753

> <Probability>
0.00

> <Sum Probability>
99.71

> <Delta G>
4.230

> <G>
62.377

> <E>
24.985

> <-TS>
37.392

> <U+W>
0.841

> <U>
52.756

> <W>
-51.915

> <W(PB)>
-54.383

> <W(SA)>
2.468

> <Valence>
5.463

> <Coulomb>
46.244

> <VdW>
1.049

> <VdW6>
-9.558

> <VdW12>
10.607

> <Bond>
0.295

> <Angle>
1.568

> <Pdih>
3.600

> <Idih>
0.000

> <Tether>
0.000

$$$$
VeraChem MOL file


 29 28  0  0  0  0  0  0  0  0999 V2000     
   19.3615   17.5219   20.6923 C   0  0  0  0  0  0  0  0  0  0  0  0
   19.8079   16.8257   21.4141 H   0  0  0  0  0  0  0  0  0  0  0  0
   18.3074   17.6655   20.9594 H   0  0  0  0  0  0  0  0  0  0  0  0
   19.3890   17.0443   19.7043 H   0  0  0  0  0  0  0  0  0  0  0  0
   20.1295   18.8629   20.6657 C   0  0  0  0  0  0  0  0  0  0  0  0
   19.6472   19.5526   19.9590 H   0  0  0  0  0  0  0  0  0  0  0  0
   21.1415   18.6824   20.2773 H   0  0  0  0  0  0  0  0  0  0  0  0
   20.2440   19.5313   22.0567 C   0  0  0  0  0  0  0  0  0  0  0  0
   20.7350   18.8385   22.7501 H   0  0  0  0  0  0  0  0  0  0  0  0
   20.9124   20.3989   21.9700 H   0  0  0  0  0  0  0  0  0  0  0  0
   18.8814   20.0052   22.6253 C   0  0  0  0  0  0  0  0  0  0  0  0
   18.1779   19.1671   22.7108 H   0  0  0  0  0  0  0  0  0  0  0  0
   18.4353   20.7036   21.9039 H   0  0  0  0  0  0  0  0  0  0  0  0
   19.0048   20.7249   23.9938 C   0  0  0  0  0  0  0  0  0  0  0  0
   19.9878   21.2069   24.0849 H   0  0  0  0  0  0  0  0  0  0  0  0
   18.2718   21.5431   24.0172 H   0  0  0  0  0  0  0  0  0  0  0  0
   18.7375   19.8242   25.2274 C   0  0  0  0  0  0  0  0  0  0  0  0
   17.7083   19.4418   25.1829 H   0  0  0  0  0  0  0  0  0  0  0  0
   18.7903   20.4552   26.1243 H   0  0  0  0  0  0  0  0  0  0  0  0
   19.7187   18.6358   25.3742 C   0  0  0  0  0  0  0  0  0  0  0  0
   19.5949   17.9529   24.5246 H   0  0  0  0  0  0  0  0  0  0  0  0
   20.7557   18.9958   25.3484 H   0  0  0  0  0  0  0  0  0  0  0  0
   19.4857   17.8280   26.6655 C   0  0  0  0  0  0  0  0  0  0  0  0
   20.1304   16.9449   26.6612 H   0  0  0  0  0  0  0  0  0  0  0  0
   18.4464   17.4913   26.7069 H   0  0  0  0  0  0  0  0  0  0  0  0
   19.7810   18.6040   27.9340 N   0  3  0  0  0  0  0  0  0  0  0  0
   20.7530   18.9287   27.9638 H   0  0  0  0  0  0  0  0  0  0  0  0
   19.6293   18.0336   28.7732 H   0  0  0  0  0  0  0  0  0  0  0  0
   19.1823   19.4311   28.0210 H   0  0  0  0  0  0  0  0  0  0  0  0
  1  2  1  0  0  0  0
  1  3  1  0  0  0  0
  1  4  1  0  0  0  0
  1  5  1  0  0  0  0
  5  6  1  0  0  0  0
  5  7  1  0  0  0  0
  5  8  1  0  0  0  0
  8  9  1  0  0  0  0
  8 10  1  0  0  0  0
  8 11  1  0  0  0  0
 11 12  1  0  0  0  0
 11 13  1  0  0  0  0
 11 14  1  0  0  0  0
 14 15  1  0  0  0  0
 14 16  1  0  0  0  0
 14 17  1  0  0  0  0
 17 18  1  0  0  0  0
 17 19  1  0  0  0  0
 17 20  1  0  0  0  0
 20 21  1  0  0  0  0
 20 22  1  0  0  0  0
 20 23  1  0  0  0  0
 23 24  1  0  0  0  0
 23 25  1  0  0  0  0
 23 26  1  0  0  0  0
 26 27  1  0  0  0  0
 26 28  1  0  0  0  0
 26 29  1  0  0  0  0
M  END
> <VM2 Rank>
316

> <Conf_Id>
509

> <Probability>
0.00

> <Sum Probability>
99.72

> <Delta G>
4.233

> <G>
62.379

> <E>
24.633

> <-TS>
37.746

> <U+W>
0.488

> <U>
52.520

> <W>
-52.032

> <W(PB)>
-54.435

> <W(SA)>
2.403

> <Valence>
6.252

> <Coulomb>
45.283

> <VdW>
0.985

> <VdW6>
-9.837

> <VdW12>
10.822

> <Bond>
0.297

> <Angle>
1.468

> <Pdih>
4.487

> <Idih>
0.000

> <Tether>
0.000

$$$$
VeraChem MOL file


 29 28  0  0  0  0  0  0  0  0999 V2000     
   21.1391   17.9436   21.6941 C   0  0  0  0  0  0  0  0  0  0  0  0
   20.9918   17.1587   22.4472 H   0  0  0  0  0  0  0  0  0  0  0  0
   21.7578   17.5244   20.8901 H   0  0  0  0  0  0  0  0  0  0  0  0
   21.7075   18.7610   22.1546 H   0  0  0  0  0  0  0  0  0  0  0  0
   19.7860   18.4367   21.1328 C   0  0  0  0  0  0  0  0  0  0  0  0
   19.3093   17.6119   20.5848 H   0  0  0  0  0  0  0  0  0  0  0  0
   19.9579   19.2355   20.3979 H   0  0  0  0  0  0  0  0  0  0  0  0
   18.8132   18.9321   22.2291 C   0  0  0  0  0  0  0  0  0  0  0  0
   17.8366   19.1327   21.7676 H   0  0  0  0  0  0  0  0  0  0  0  0
   18.6501   18.1244   22.9534 H   0  0  0  0  0  0  0  0  0  0  0  0
   19.3013   20.2162   22.9466 C   0  0  0  0  0  0  0  0  0  0  0  0
   19.4790   20.9946   22.1919 H   0  0  0  0  0  0  0  0  0  0  0  0
   20.2694   20.0499   23.4325 H   0  0  0  0  0  0  0  0  0  0  0  0
   18.2894   20.7656   23.9828 C   0  0  0  0  0  0  0  0  0  0  0  0
   18.6839   21.7056   24.3926 H   0  0  0  0  0  0  0  0  0  0  0  0
   17.3622   21.0364   23.4593 H   0  0  0  0  0  0  0  0  0  0  0  0
   17.9332   19.8184   25.1609 C   0  0  0  0  0  0  0  0  0  0  0  0
   17.4229   18.9177   24.7945 H   0  0  0  0  0  0  0  0  0  0  0  0
   17.1929   20.3382   25.7847 H   0  0  0  0  0  0  0  0  0  0  0  0
   19.1279   19.4266   26.0674 C   0  0  0  0  0  0  0  0  0  0  0  0
   19.8080   20.2808   26.1835 H   0  0  0  0  0  0  0  0  0  0  0  0
   18.7440   19.1978   27.0705 H   0  0  0  0  0  0  0  0  0  0  0  0
   19.9004   18.1938   25.5596 C   0  0  0  0  0  0  0  0  0  0  0  0
   20.3063   18.3847   24.5645 H   0  0  0  0  0  0  0  0  0  0  0  0
   19.2222   17.3389   25.4933 H   0  0  0  0  0  0  0  0  0  0  0  0
   21.0534   17.8050   26.4617 N   0  3  0  0  0  0  0  0  0  0  0  0
   21.7431   18.5589   26.5458 H   0  0  0  0  0  0  0  0  0  0  0  0
   21.5519   16.9805   26.1096 H   0  0  0  0  0  0  0  0  0  0  0  0
   20.7358   17.5795   27.4102 H   0  0  0  0  0  0  0  0  0  0  0  0
  1  2  1  0  0  0  0
  1  3  1  0  0  0  0
  1  4  1  0  0  0  0
  1  5  1  0  0  0  0
  5  6  1  0  0  0  0
  5  7  1  0  0  0  0
  5  8  1  0  0  0  0
  8  9  1  0  0  0  0
  8 10  1  0  0  0  0
  8 11  1  0  0  0  0
 11 12  1  0  0  0  0
 11 13  1  0  0  0  0
 11 14  1  0  0  0  0
 14 15  1  0  0  0  0
 14 16  1  0  0  0  0
 14 17  1  0  0  0  0
 17 18  1  0  0  0  0
 17 19  1  0  0  0  0
 17 20  1  0  0  0  0
 20 21  1  0  0  0  0
 20 22  1  0  0  0  0
 20 23  1  0  0  0  0
 23 24  1  0  0  0  0
 23 25  1  0  0  0  0
 23 26  1  0  0  0  0
 26 27  1  0  0  0  0
 26 28  1  0  0  0  0
 26 29  1  0  0  0  0
M  END
> <VM2 Rank>
317

> <Conf_Id>
961

> <Probability>
0.00

> <Sum Probability>
99.72

> <Delta G>
4.234

> <G>
62.380

> <E>
24.084

> <-TS>
38.296

> <U+W>
-0.061

> <U>
52.818

> <W>
-52.879

> <W(PB)>
-55.252

> <W(SA)>
2.373

> <Valence>
5.947

> <Coulomb>
46.653

> <VdW>
0.217

> <VdW6>
-11.208

> <VdW12>
11.426

> <Bond>
0.301

> <Angle>
1.903

> <Pdih>
3.744

> <Idih>
0.000

> <Tether>
0.000

$$$$
VeraChem MOL file


 29 28  0  0  0  0  0  0  0  0999 V2000     
   20.8084   19.4325   20.6001 C   0  0  0  0  0  0  0  0  0  0  0  0
   20.2314   19.8323   19.7561 H   0  0  0  0  0  0  0  0  0  0  0  0
   20.8931   20.2175   21.3619 H   0  0  0  0  0  0  0  0  0  0  0  0
   21.8212   19.2106   20.2400 H   0  0  0  0  0  0  0  0  0  0  0  0
   20.1457   18.1589   21.1717 C   0  0  0  0  0  0  0  0  0  0  0  0
   20.7287   17.7894   22.0258 H   0  0  0  0  0  0  0  0  0  0  0  0
   20.1903   17.3659   20.4123 H   0  0  0  0  0  0  0  0  0  0  0  0
   18.6653   18.3656   21.5819 C   0  0  0  0  0  0  0  0  0  0  0  0
   18.0805   18.6146   20.6858 H   0  0  0  0  0  0  0  0  0  0  0  0
   18.2629   17.4108   21.9473 H   0  0  0  0  0  0  0  0  0  0  0  0
   18.4210   19.4590   22.6539 C   0  0  0  0  0  0  0  0  0  0  0  0
   17.3409   19.5188   22.8463 H   0  0  0  0  0  0  0  0  0  0  0  0
   18.7121   20.4413   22.2588 H   0  0  0  0  0  0  0  0  0  0  0  0
   19.1562   19.1913   23.9886 C   0  0  0  0  0  0  0  0  0  0  0  0
   18.8921   18.1864   24.3399 H   0  0  0  0  0  0  0  0  0  0  0  0
   20.2417   19.2113   23.8251 H   0  0  0  0  0  0  0  0  0  0  0  0
   18.7837   20.2381   25.0649 C   0  0  0  0  0  0  0  0  0  0  0  0
   17.7189   20.1410   25.3179 H   0  0  0  0  0  0  0  0  0  0  0  0
   18.9071   21.2439   24.6399 H   0  0  0  0  0  0  0  0  0  0  0  0
   19.6311   20.1553   26.3602 C   0  0  0  0  0  0  0  0  0  0  0  0
   20.6938   20.3131   26.1327 H   0  0  0  0  0  0  0  0  0  0  0  0
   19.3349   20.9896   27.0098 H   0  0  0  0  0  0  0  0  0  0  0  0
   19.4505   18.8493   27.1612 C   0  0  0  0  0  0  0  0  0  0  0  0
   18.3982   18.5529   27.1558 H   0  0  0  0  0  0  0  0  0  0  0  0
   19.7485   19.0238   28.1986 H   0  0  0  0  0  0  0  0  0  0  0  0
   20.2820   17.6880   26.6525 N   0  3  0  0  0  0  0  0  0  0  0  0
   20.0564   17.4572   25.6808 H   0  0  0  0  0  0  0  0  0  0  0  0
   20.1309   16.8396   27.2094 H   0  0  0  0  0  0  0  0  0  0  0  0
   21.2854   17.8955   26.6901 H   0  0  0  0  0  0  0  0  0  0  0  0
  1  2  1  0  0  0  0
  1  3  1  0  0  0  0
  1  4  1  0  0  0  0
  1  5  1  0  0  0  0
  5  6  1  0  0  0  0
  5  7  1  0  0  0  0
  5  8  1  0  0  0  0
  8  9  1  0  0  0  0
  8 10  1  0  0  0  0
  8 11  1  0  0  0  0
 11 12  1  0  0  0  0
 11 13  1  0  0  0  0
 11 14  1  0  0  0  0
 14 15  1  0  0  0  0
 14 16  1  0  0  0  0
 14 17  1  0  0  0  0
 17 18  1  0  0  0  0
 17 19  1  0  0  0  0
 17 20  1  0  0  0  0
 20 21  1  0  0  0  0
 20 22  1  0  0  0  0
 20 23  1  0  0  0  0
 23 24  1  0  0  0  0
 23 25  1  0  0  0  0
 23 26  1  0  0  0  0
 26 27  1  0  0  0  0
 26 28  1  0  0  0  0
 26 29  1  0  0  0  0
M  END
> <VM2 Rank>
318

> <Conf_Id>
829

> <Probability>
0.00

> <Sum Probability>
99.72

> <Delta G>
4.237

> <G>
62.383

> <E>
24.599

> <-TS>
37.784

> <U+W>
0.454

> <U>
52.666

> <W>
-52.211

> <W(PB)>
-54.642

> <W(SA)>
2.431

> <Valence>
5.120

> <Coulomb>
46.798

> <VdW>
0.748

> <VdW6>
-10.097

> <VdW12>
10.844

> <Bond>
0.281

> <Angle>
1.589

> <Pdih>
3.250

> <Idih>
0.000

> <Tether>
0.000

$$$$
VeraChem MOL file


 29 28  0  0  0  0  0  0  0  0999 V2000     
   20.6876   17.8704   21.0537 C   0  0  0  0  0  0  0  0  0  0  0  0
   20.5984   16.9681   20.4350 H   0  0  0  0  0  0  0  0  0  0  0  0
   21.6779   18.3056   20.8665 H   0  0  0  0  0  0  0  0  0  0  0  0
   20.6497   17.5582   22.1030 H   0  0  0  0  0  0  0  0  0  0  0  0
   19.5676   18.8781   20.7045 C   0  0  0  0  0  0  0  0  0  0  0  0
   18.5807   18.4110   20.8291 H   0  0  0  0  0  0  0  0  0  0  0  0
   19.6536   19.1223   19.6364 H   0  0  0  0  0  0  0  0  0  0  0  0
   19.6474   20.1945   21.5195 C   0  0  0  0  0  0  0  0  0  0  0  0
   20.6909   20.4159   21.7824 H   0  0  0  0  0  0  0  0  0  0  0  0
   19.3252   21.0192   20.8688 H   0  0  0  0  0  0  0  0  0  0  0  0
   18.7587   20.2296   22.7897 C   0  0  0  0  0  0  0  0  0  0  0  0
   17.7049   20.1154   22.5006 H   0  0  0  0  0  0  0  0  0  0  0  0
   18.8454   21.2273   23.2417 H   0  0  0  0  0  0  0  0  0  0  0  0
   19.1192   19.1638   23.8500 C   0  0  0  0  0  0  0  0  0  0  0  0
   18.9058   18.1632   23.4524 H   0  0  0  0  0  0  0  0  0  0  0  0
   20.1964   19.2100   24.0571 H   0  0  0  0  0  0  0  0  0  0  0  0
   18.3186   19.3641   25.1589 C   0  0  0  0  0  0  0  0  0  0  0  0
   17.2447   19.3708   24.9264 H   0  0  0  0  0  0  0  0  0  0  0  0
   18.5444   20.3503   25.5859 H   0  0  0  0  0  0  0  0  0  0  0  0
   18.5880   18.2601   26.2119 C   0  0  0  0  0  0  0  0  0  0  0  0
   17.9623   18.4412   27.0959 H   0  0  0  0  0  0  0  0  0  0  0  0
   18.2723   17.2893   25.8071 H   0  0  0  0  0  0  0  0  0  0  0  0
   20.0630   18.1569   26.6499 C   0  0  0  0  0  0  0  0  0  0  0  0
   20.6910   17.9296   25.7847 H   0  0  0  0  0  0  0  0  0  0  0  0
   20.1714   17.3425   27.3714 H   0  0  0  0  0  0  0  0  0  0  0  0
   20.5939   19.4205   27.2970 N   0  3  0  0  0  0  0  0  0  0  0  0
   20.5464   20.2196   26.6570 H   0  0  0  0  0  0  0  0  0  0  0  0
   21.5739   19.3197   27.5832 H   0  0  0  0  0  0  0  0  0  0  0  0
   20.0602   19.6709   28.1358 H   0  0  0  0  0  0  0  0  0  0  0  0
  1  2  1  0  0  0  0
  1  3  1  0  0  0  0
  1  4  1  0  0  0  0
  1  5  1  0  0  0  0
  5  6  1  0  0  0  0
  5  7  1  0  0  0  0
  5  8  1  0  0  0  0
  8  9  1  0  0  0  0
  8 10  1  0  0  0  0
  8 11  1  0  0  0  0
 11 12  1  0  0  0  0
 11 13  1  0  0  0  0
 11 14  1  0  0  0  0
 14 15  1  0  0  0  0
 14 16  1  0  0  0  0
 14 17  1  0  0  0  0
 17 18  1  0  0  0  0
 17 19  1  0  0  0  0
 17 20  1  0  0  0  0
 20 21  1  0  0  0  0
 20 22  1  0  0  0  0
 20 23  1  0  0  0  0
 23 24  1  0  0  0  0
 23 25  1  0  0  0  0
 23 26  1  0  0  0  0
 26 27  1  0  0  0  0
 26 28  1  0  0  0  0
 26 29  1  0  0  0  0
M  END
> <VM2 Rank>
319

> <Conf_Id>
1290

> <Probability>
0.00

> <Sum Probability>
99.73

> <Delta G>
4.243

> <G>
62.389

> <E>
24.564

> <-TS>
37.825

> <U+W>
0.420

> <U>
52.518

> <W>
-52.098

> <W(PB)>
-54.555

> <W(SA)>
2.457

> <Valence>
5.952

> <Coulomb>
45.696

> <VdW>
0.869

> <VdW6>
-9.888

> <VdW12>
10.757

> <Bond>
0.275

> <Angle>
1.422

> <Pdih>
4.256

> <Idih>
0.000

> <Tether>
0.000

$$$$
VeraChem MOL file


 29 28  0  0  0  0  0  0  0  0999 V2000     
   21.5031   18.9647   21.7179 C   0  0  0  0  0  0  0  0  0  0  0  0
   21.4204   17.9548   22.1381 H   0  0  0  0  0  0  0  0  0  0  0  0
   22.2589   18.9296   20.9227 H   0  0  0  0  0  0  0  0  0  0  0  0
   21.8741   19.6359   22.5032 H   0  0  0  0  0  0  0  0  0  0  0  0
   20.1511   19.4601   21.1559 C   0  0  0  0  0  0  0  0  0  0  0  0
   19.7900   18.7619   20.3879 H   0  0  0  0  0  0  0  0  0  0  0  0
   20.3107   20.4212   20.6475 H   0  0  0  0  0  0  0  0  0  0  0  0
   19.0684   19.6484   22.2450 C   0  0  0  0  0  0  0  0  0  0  0  0
   19.4421   20.3480   23.0029 H   0  0  0  0  0  0  0  0  0  0  0  0
   18.1916   20.1286   21.7893 H   0  0  0  0  0  0  0  0  0  0  0  0
   18.6245   18.3178   22.9042 C   0  0  0  0  0  0  0  0  0  0  0  0
   19.4727   17.8152   23.3826 H   0  0  0  0  0  0  0  0  0  0  0  0
   18.2806   17.6331   22.1169 H   0  0  0  0  0  0  0  0  0  0  0  0
   17.4787   18.4916   23.9320 C   0  0  0  0  0  0  0  0  0  0  0  0
   16.5966   18.8890   23.4114 H   0  0  0  0  0  0  0  0  0  0  0  0
   17.1842   17.4986   24.2988 H   0  0  0  0  0  0  0  0  0  0  0  0
   17.7851   19.4030   25.1516 C   0  0  0  0  0  0  0  0  0  0  0  0
   16.8743   19.4442   25.7649 H   0  0  0  0  0  0  0  0  0  0  0  0
   17.9643   20.4371   24.8284 H   0  0  0  0  0  0  0  0  0  0  0  0
   18.9456   18.9150   26.0559 C   0  0  0  0  0  0  0  0  0  0  0  0
   18.7789   19.2950   27.0726 H   0  0  0  0  0  0  0  0  0  0  0  0
   18.9309   17.8194   26.1284 H   0  0  0  0  0  0  0  0  0  0  0  0
   20.3306   19.4007   25.5862 C   0  0  0  0  0  0  0  0  0  0  0  0
   20.3466   20.4936   25.5636 H   0  0  0  0  0  0  0  0  0  0  0  0
   20.5382   19.0360   24.5786 H   0  0  0  0  0  0  0  0  0  0  0  0
   21.4570   18.9367   26.4863 N   0  3  0  0  0  0  0  0  0  0  0  0
   21.3403   19.2742   27.4475 H   0  0  0  0  0  0  0  0  0  0  0  0
   22.3694   19.2736   26.1600 H   0  0  0  0  0  0  0  0  0  0  0  0
   21.5135   17.9139   26.5305 H   0  0  0  0  0  0  0  0  0  0  0  0
  1  2  1  0  0  0  0
  1  3  1  0  0  0  0
  1  4  1  0  0  0  0
  1  5  1  0  0  0  0
  5  6  1  0  0  0  0
  5  7  1  0  0  0  0
  5  8  1  0  0  0  0
  8  9  1  0  0  0  0
  8 10  1  0  0  0  0
  8 11  1  0  0  0  0
 11 12  1  0  0  0  0
 11 13  1  0  0  0  0
 11 14  1  0  0  0  0
 14 15  1  0  0  0  0
 14 16  1  0  0  0  0
 14 17  1  0  0  0  0
 17 18  1  0  0  0  0
 17 19  1  0  0  0  0
 17 20  1  0  0  0  0
 20 21  1  0  0  0  0
 20 22  1  0  0  0  0
 20 23  1  0  0  0  0
 23 24  1  0  0  0  0
 23 25  1  0  0  0  0
 23 26  1  0  0  0  0
 26 27  1  0  0  0  0
 26 28  1  0  0  0  0
 26 29  1  0  0  0  0
M  END
> <VM2 Rank>
320

> <Conf_Id>
271

> <Probability>
0.00

> <Sum Probability>
99.73

> <Delta G>
4.245

> <G>
62.391

> <E>
24.095

> <-TS>
38.297

> <U+W>
-0.050

> <U>
52.819

> <W>
-52.869

> <W(PB)>
-55.238

> <W(SA)>
2.370

> <Valence>
5.947

> <Coulomb>
46.654

> <VdW>
0.217

> <VdW6>
-11.210

> <VdW12>
11.428

> <Bond>
0.301

> <Angle>
1.903

> <Pdih>
3.744

> <Idih>
0.000

> <Tether>
0.000

$$$$
VeraChem MOL file


 29 28  0  0  0  0  0  0  0  0999 V2000     
   20.8001   17.9863   20.4115 C   0  0  0  0  0  0  0  0  0  0  0  0
   21.7391   18.5504   20.4840 H   0  0  0  0  0  0  0  0  0  0  0  0
   20.9131   17.0584   20.9873 H   0  0  0  0  0  0  0  0  0  0  0  0
   20.6512   17.7135   19.3587 H   0  0  0  0  0  0  0  0  0  0  0  0
   19.6105   18.8206   20.9316 C   0  0  0  0  0  0  0  0  0  0  0  0
   18.6823   18.2435   20.8161 H   0  0  0  0  0  0  0  0  0  0  0  0
   19.5014   19.7237   20.3148 H   0  0  0  0  0  0  0  0  0  0  0  0
   19.7955   19.2186   22.4125 C   0  0  0  0  0  0  0  0  0  0  0  0
   19.9189   18.3101   23.0118 H   0  0  0  0  0  0  0  0  0  0  0  0
   20.7234   19.7970   22.5200 H   0  0  0  0  0  0  0  0  0  0  0  0
   18.6024   20.0559   22.9344 C   0  0  0  0  0  0  0  0  0  0  0  0
   17.6642   19.4952   22.8235 H   0  0  0  0  0  0  0  0  0  0  0  0
   18.5031   20.9418   22.2919 H   0  0  0  0  0  0  0  0  0  0  0  0
   18.7654   20.5381   24.3998 C   0  0  0  0  0  0  0  0  0  0  0  0
   19.8235   20.7232   24.6280 H   0  0  0  0  0  0  0  0  0  0  0  0
   18.2751   21.5178   24.4853 H   0  0  0  0  0  0  0  0  0  0  0  0
   18.1239   19.6117   25.4679 C   0  0  0  0  0  0  0  0  0  0  0  0
   17.0526   19.5032   25.2495 H   0  0  0  0  0  0  0  0  0  0  0  0
   18.1740   20.1153   26.4426 H   0  0  0  0  0  0  0  0  0  0  0  0
   18.7508   18.2008   25.5994 C   0  0  0  0  0  0  0  0  0  0  0  0
   18.2415   17.6560   26.4053 H   0  0  0  0  0  0  0  0  0  0  0  0
   18.5580   17.6253   24.6858 H   0  0  0  0  0  0  0  0  0  0  0  0
   20.2660   18.2152   25.8854 C   0  0  0  0  0  0  0  0  0  0  0  0
   20.7893   18.7360   25.0795 H   0  0  0  0  0  0  0  0  0  0  0  0
   20.6385   17.1880   25.9263 H   0  0  0  0  0  0  0  0  0  0  0  0
   20.6292   18.8906   27.1926 N   0  3  0  0  0  0  0  0  0  0  0  0
   21.6416   18.8827   27.3581 H   0  0  0  0  0  0  0  0  0  0  0  0
   20.1900   18.4269   27.9945 H   0  0  0  0  0  0  0  0  0  0  0  0
   20.3280   19.8701   27.2063 H   0  0  0  0  0  0  0  0  0  0  0  0
  1  2  1  0  0  0  0
  1  3  1  0  0  0  0
  1  4  1  0  0  0  0
  1  5  1  0  0  0  0
  5  6  1  0  0  0  0
  5  7  1  0  0  0  0
  5  8  1  0  0  0  0
  8  9  1  0  0  0  0
  8 10  1  0  0  0  0
  8 11  1  0  0  0  0
 11 12  1  0  0  0  0
 11 13  1  0  0  0  0
 11 14  1  0  0  0  0
 14 15  1  0  0  0  0
 14 16  1  0  0  0  0
 14 17  1  0  0  0  0
 17 18  1  0  0  0  0
 17 19  1  0  0  0  0
 17 20  1  0  0  0  0
 20 21  1  0  0  0  0
 20 22  1  0  0  0  0
 20 23  1  0  0  0  0
 23 24  1  0  0  0  0
 23 25  1  0  0  0  0
 23 26  1  0  0  0  0
 26 27  1  0  0  0  0
 26 28  1  0  0  0  0
 26 29  1  0  0  0  0
M  END
> <VM2 Rank>
321

> <Conf_Id>
321

> <Probability>
0.00

> <Sum Probability>
99.74

> <Delta G>
4.249

> <G>
62.395

> <E>
24.319

> <-TS>
38.076

> <U+W>
0.175

> <U>
52.559

> <W>
-52.384

> <W(PB)>
-54.811

> <W(SA)>
2.427

> <Valence>
5.998

> <Coulomb>
46.093

> <VdW>
0.468

> <VdW6>
-10.461

> <VdW12>
10.929

> <Bond>
0.286

> <Angle>
1.671

> <Pdih>
4.041

> <Idih>
0.000

> <Tether>
0.000

$$$$
VeraChem MOL file


 29 28  0  0  0  0  0  0  0  0999 V2000     
   20.7982   19.4384   20.2601 C   0  0  0  0  0  0  0  0  0  0  0  0
   21.6926   19.4836   20.8949 H   0  0  0  0  0  0  0  0  0  0  0  0
   21.1266   19.2510   19.2296 H   0  0  0  0  0  0  0  0  0  0  0  0
   20.3131   20.4223   20.2784 H   0  0  0  0  0  0  0  0  0  0  0  0
   19.8373   18.3241   20.7328 C   0  0  0  0  0  0  0  0  0  0  0  0
   20.3251   17.3500   20.5880 H   0  0  0  0  0  0  0  0  0  0  0  0
   18.9402   18.3160   20.0981 H   0  0  0  0  0  0  0  0  0  0  0  0
   19.4264   18.4586   22.2187 C   0  0  0  0  0  0  0  0  0  0  0  0
   18.8278   17.5803   22.4965 H   0  0  0  0  0  0  0  0  0  0  0  0
   20.3301   18.4373   22.8416 H   0  0  0  0  0  0  0  0  0  0  0  0
   18.6130   19.7419   22.5161 C   0  0  0  0  0  0  0  0  0  0  0  0
   17.8012   19.8279   21.7808 H   0  0  0  0  0  0  0  0  0  0  0  0
   19.2493   20.6257   22.3759 H   0  0  0  0  0  0  0  0  0  0  0  0
   17.9910   19.7882   23.9356 C   0  0  0  0  0  0  0  0  0  0  0  0
   17.3953   20.7090   24.0043 H   0  0  0  0  0  0  0  0  0  0  0  0
   17.2759   18.9638   24.0632 H   0  0  0  0  0  0  0  0  0  0  0  0
   19.0217   19.7931   25.0946 C   0  0  0  0  0  0  0  0  0  0  0  0
   18.6360   20.4419   25.8922 H   0  0  0  0  0  0  0  0  0  0  0  0
   19.9635   20.2494   24.7595 H   0  0  0  0  0  0  0  0  0  0  0  0
   19.2854   18.3864   25.6894 C   0  0  0  0  0  0  0  0  0  0  0  0
   18.3555   17.9777   26.1065 H   0  0  0  0  0  0  0  0  0  0  0  0
   19.5996   17.6930   24.9014 H   0  0  0  0  0  0  0  0  0  0  0  0
   20.3728   18.3989   26.7809 C   0  0  0  0  0  0  0  0  0  0  0  0
   21.2994   18.8110   26.3724 H   0  0  0  0  0  0  0  0  0  0  0  0
   20.5701   17.3744   27.1082 H   0  0  0  0  0  0  0  0  0  0  0  0
   19.9982   19.2085   28.0067 N   0  3  0  0  0  0  0  0  0  0  0  0
   19.8335   20.1930   27.7748 H   0  0  0  0  0  0  0  0  0  0  0  0
   20.7372   19.1866   28.7180 H   0  0  0  0  0  0  0  0  0  0  0  0
   19.1444   18.8542   28.4502 H   0  0  0  0  0  0  0  0  0  0  0  0
  1  2  1  0  0  0  0
  1  3  1  0  0  0  0
  1  4  1  0  0  0  0
  1  5  1  0  0  0  0
  5  6  1  0  0  0  0
  5  7  1  0  0  0  0
  5  8  1  0  0  0  0
  8  9  1  0  0  0  0
  8 10  1  0  0  0  0
  8 11  1  0  0  0  0
 11 12  1  0  0  0  0
 11 13  1  0  0  0  0
 11 14  1  0  0  0  0
 14 15  1  0  0  0  0
 14 16  1  0  0  0  0
 14 17  1  0  0  0  0
 17 18  1  0  0  0  0
 17 19  1  0  0  0  0
 17 20  1  0  0  0  0
 20 21  1  0  0  0  0
 20 22  1  0  0  0  0
 20 23  1  0  0  0  0
 23 24  1  0  0  0  0
 23 25  1  0  0  0  0
 23 26  1  0  0  0  0
 26 27  1  0  0  0  0
 26 28  1  0  0  0  0
 26 29  1  0  0  0  0
M  END
> <VM2 Rank>
322

> <Conf_Id>
329

> <Probability>
0.00

> <Sum Probability>
99.74

> <Delta G>
4.255

> <G>
62.401

> <E>
24.592

> <-TS>
37.809

> <U+W>
0.447

> <U>
52.441

> <W>
-51.994

> <W(PB)>
-54.440

> <W(SA)>
2.447

> <Valence>
6.199

> <Coulomb>
45.232

> <VdW>
1.010

> <VdW6>
-9.757

> <VdW12>
10.767

> <Bond>
0.290

> <Angle>
1.372

> <Pdih>
4.538

> <Idih>
0.000

> <Tether>
0.000

$$$$
VeraChem MOL file


 29 28  0  0  0  0  0  0  0  0999 V2000     
   21.1106   18.2695   20.4154 C   0  0  0  0  0  0  0  0  0  0  0  0
   21.6345   19.1440   20.0079 H   0  0  0  0  0  0  0  0  0  0  0  0
   21.7564   17.8060   21.1727 H   0  0  0  0  0  0  0  0  0  0  0  0
   20.9758   17.5473   19.5997 H   0  0  0  0  0  0  0  0  0  0  0  0
   19.7479   18.6702   21.0192 C   0  0  0  0  0  0  0  0  0  0  0  0
   19.2371   17.7670   21.3771 H   0  0  0  0  0  0  0  0  0  0  0  0
   19.1144   19.1006   20.2311 H   0  0  0  0  0  0  0  0  0  0  0  0
   19.9134   19.6902   22.1709 C   0  0  0  0  0  0  0  0  0  0  0  0
   20.5420   19.2568   22.9576 H   0  0  0  0  0  0  0  0  0  0  0  0
   20.4604   20.5634   21.7894 H   0  0  0  0  0  0  0  0  0  0  0  0
   18.5631   20.1790   22.7575 C   0  0  0  0  0  0  0  0  0  0  0  0
   17.9260   20.5093   21.9256 H   0  0  0  0  0  0  0  0  0  0  0  0
   18.7322   21.0756   23.3696 H   0  0  0  0  0  0  0  0  0  0  0  0
   17.7894   19.1224   23.5927 C   0  0  0  0  0  0  0  0  0  0  0  0
   16.7147   19.2768   23.4240 H   0  0  0  0  0  0  0  0  0  0  0  0
   17.9993   18.1071   23.2344 H   0  0  0  0  0  0  0  0  0  0  0  0
   18.0354   19.2001   25.1216 C   0  0  0  0  0  0  0  0  0  0  0  0
   17.3831   18.4648   25.6132 H   0  0  0  0  0  0  0  0  0  0  0  0
   17.7200   20.1848   25.4936 H   0  0  0  0  0  0  0  0  0  0  0  0
   19.4975   18.9347   25.5457 C   0  0  0  0  0  0  0  0  0  0  0  0
   19.8465   17.9919   25.1040 H   0  0  0  0  0  0  0  0  0  0  0  0
   20.1457   19.7357   25.1690 H   0  0  0  0  0  0  0  0  0  0  0  0
   19.6328   18.8640   27.0767 C   0  0  0  0  0  0  0  0  0  0  0  0
   19.0028   18.0593   27.4653 H   0  0  0  0  0  0  0  0  0  0  0  0
   19.2999   19.8065   27.5197 H   0  0  0  0  0  0  0  0  0  0  0  0
   21.0538   18.6079   27.5353 N   0  3  0  0  0  0  0  0  0  0  0  0
   21.4176   17.7200   27.1735 H   0  0  0  0  0  0  0  0  0  0  0  0
   21.1215   18.5639   28.5581 H   0  0  0  0  0  0  0  0  0  0  0  0
   21.6943   19.3461   27.2250 H   0  0  0  0  0  0  0  0  0  0  0  0
  1  2  1  0  0  0  0
  1  3  1  0  0  0  0
  1  4  1  0  0  0  0
  1  5  1  0  0  0  0
  5  6  1  0  0  0  0
  5  7  1  0  0  0  0
  5  8  1  0  0  0  0
  8  9  1  0  0  0  0
  8 10  1  0  0  0  0
  8 11  1  0  0  0  0
 11 12  1  0  0  0  0
 11 13  1  0  0  0  0
 11 14  1  0  0  0  0
 14 15  1  0  0  0  0
 14 16  1  0  0  0  0
 14 17  1  0  0  0  0
 17 18  1  0  0  0  0
 17 19  1  0  0  0  0
 17 20  1  0  0  0  0
 20 21  1  0  0  0  0
 20 22  1  0  0  0  0
 20 23  1  0  0  0  0
 23 24  1  0  0  0  0
 23 25  1  0  0  0  0
 23 26  1  0  0  0  0
 26 27  1  0  0  0  0
 26 28  1  0  0  0  0
 26 29  1  0  0  0  0
M  END
> <VM2 Rank>
323

> <Conf_Id>
2610

> <Probability>
0.00

> <Sum Probability>
99.75

> <Delta G>
4.259

> <G>
62.406

> <E>
24.787

> <-TS>
37.619

> <U+W>
0.642

> <U>
52.710

> <W>
-52.068

> <W(PB)>
-54.551

> <W(SA)>
2.483

> <Valence>
6.349

> <Coulomb>
45.488

> <VdW>
0.873

> <VdW6>
-9.182

> <VdW12>
10.055

> <Bond>
0.284

> <Angle>
1.470

> <Pdih>
4.595

> <Idih>
0.000

> <Tether>
0.000

$$$$
VeraChem MOL file


 29 28  0  0  0  0  0  0  0  0999 V2000     
   20.2968   18.0683   20.2287 C   0  0  0  0  0  0  0  0  0  0  0  0
   19.2914   17.6293   20.2149 H   0  0  0  0  0  0  0  0  0  0  0  0
   20.6834   18.0408   19.2017 H   0  0  0  0  0  0  0  0  0  0  0  0
   20.9420   17.4317   20.8478 H   0  0  0  0  0  0  0  0  0  0  0  0
   20.2742   19.5196   20.7595 C   0  0  0  0  0  0  0  0  0  0  0  0
   19.6030   20.1296   20.1390 H   0  0  0  0  0  0  0  0  0  0  0  0
   21.2772   19.9543   20.6465 H   0  0  0  0  0  0  0  0  0  0  0  0
   19.8521   19.6224   22.2448 C   0  0  0  0  0  0  0  0  0  0  0  0
   20.5475   19.0310   22.8547 H   0  0  0  0  0  0  0  0  0  0  0  0
   19.9570   20.6676   22.5662 H   0  0  0  0  0  0  0  0  0  0  0  0
   18.3988   19.1554   22.5029 C   0  0  0  0  0  0  0  0  0  0  0  0
   18.3172   18.0761   22.3183 H   0  0  0  0  0  0  0  0  0  0  0  0
   17.7335   19.6424   21.7767 H   0  0  0  0  0  0  0  0  0  0  0  0
   17.8730   19.4647   23.9284 C   0  0  0  0  0  0  0  0  0  0  0  0
   17.8562   20.5499   24.0991 H   0  0  0  0  0  0  0  0  0  0  0  0
   16.8230   19.1432   23.9690 H   0  0  0  0  0  0  0  0  0  0  0  0
   18.6406   18.7501   25.0711 C   0  0  0  0  0  0  0  0  0  0  0  0
   19.0706   17.8077   24.7045 H   0  0  0  0  0  0  0  0  0  0  0  0
   17.9158   18.4721   25.8479 H   0  0  0  0  0  0  0  0  0  0  0  0
   19.7408   19.6298   25.7174 C   0  0  0  0  0  0  0  0  0  0  0  0
   20.4398   19.9871   24.9531 H   0  0  0  0  0  0  0  0  0  0  0  0
   19.2880   20.5253   26.1633 H   0  0  0  0  0  0  0  0  0  0  0  0
   20.5472   18.8758   26.7921 C   0  0  0  0  0  0  0  0  0  0  0  0
   21.3541   19.5173   27.1567 H   0  0  0  0  0  0  0  0  0  0  0  0
   20.9950   17.9795   26.3547 H   0  0  0  0  0  0  0  0  0  0  0  0
   19.7206   18.4519   27.9902 N   0  3  0  0  0  0  0  0  0  0  0  0
   19.2905   19.2558   28.4592 H   0  0  0  0  0  0  0  0  0  0  0  0
   20.2887   17.9639   28.6914 H   0  0  0  0  0  0  0  0  0  0  0  0
   18.9629   17.8162   27.7219 H   0  0  0  0  0  0  0  0  0  0  0  0
  1  2  1  0  0  0  0
  1  3  1  0  0  0  0
  1  4  1  0  0  0  0
  1  5  1  0  0  0  0
  5  6  1  0  0  0  0
  5  7  1  0  0  0  0
  5  8  1  0  0  0  0
  8  9  1  0  0  0  0
  8 10  1  0  0  0  0
  8 11  1  0  0  0  0
 11 12  1  0  0  0  0
 11 13  1  0  0  0  0
 11 14  1  0  0  0  0
 14 15  1  0  0  0  0
 14 16  1  0  0  0  0
 14 17  1  0  0  0  0
 17 18  1  0  0  0  0
 17 19  1  0  0  0  0
 17 20  1  0  0  0  0
 20 21  1  0  0  0  0
 20 22  1  0  0  0  0
 20 23  1  0  0  0  0
 23 24  1  0  0  0  0
 23 25  1  0  0  0  0
 23 26  1  0  0  0  0
 26 27  1  0  0  0  0
 26 28  1  0  0  0  0
 26 29  1  0  0  0  0
M  END
> <VM2 Rank>
324

> <Conf_Id>
1592

> <Probability>
0.00

> <Sum Probability>
99.75

> <Delta G>
4.260

> <G>
62.407

> <E>
24.597

> <-TS>
37.809

> <U+W>
0.453

> <U>
52.441

> <W>
-51.988

> <W(PB)>
-54.438

> <W(SA)>
2.451

> <Valence>
6.199

> <Coulomb>
45.232

> <VdW>
1.010

> <VdW6>
-9.756

> <VdW12>
10.766

> <Bond>
0.290

> <Angle>
1.373

> <Pdih>
4.536

> <Idih>
0.000

> <Tether>
0.000

$$$$
VeraChem MOL file


 29 28  0  0  0  0  0  0  0  0999 V2000     
   20.0634   18.2792   19.7139 C   0  0  0  0  0  0  0  0  0  0  0  0
   21.1526   18.3585   19.8254 H   0  0  0  0  0  0  0  0  0  0  0  0
   19.7410   17.3256   20.1496 H   0  0  0  0  0  0  0  0  0  0  0  0
   19.8378   18.2433   18.6403 H   0  0  0  0  0  0  0  0  0  0  0  0
   19.3481   19.4786   20.3763 C   0  0  0  0  0  0  0  0  0  0  0  0
   18.2598   19.3583   20.2828 H   0  0  0  0  0  0  0  0  0  0  0  0
   19.6050   20.3918   19.8217 H   0  0  0  0  0  0  0  0  0  0  0  0
   19.7269   19.6800   21.8637 C   0  0  0  0  0  0  0  0  0  0  0  0
   20.8152   19.8023   21.9509 H   0  0  0  0  0  0  0  0  0  0  0  0
   19.2817   20.6245   22.2003 H   0  0  0  0  0  0  0  0  0  0  0  0
   19.2554   18.5232   22.7818 C   0  0  0  0  0  0  0  0  0  0  0  0
   19.7074   17.5837   22.4388 H   0  0  0  0  0  0  0  0  0  0  0  0
   18.1681   18.3940   22.6914 H   0  0  0  0  0  0  0  0  0  0  0  0
   19.6346   18.7172   24.2709 C   0  0  0  0  0  0  0  0  0  0  0  0
   19.4403   17.7691   24.7866 H   0  0  0  0  0  0  0  0  0  0  0  0
   20.7131   18.9100   24.3535 H   0  0  0  0  0  0  0  0  0  0  0  0
   18.8380   19.8462   24.9723 C   0  0  0  0  0  0  0  0  0  0  0  0
   17.7671   19.6011   24.9572 H   0  0  0  0  0  0  0  0  0  0  0  0
   18.9459   20.7797   24.4064 H   0  0  0  0  0  0  0  0  0  0  0  0
   19.2801   20.1297   26.4309 C   0  0  0  0  0  0  0  0  0  0  0  0
   20.3334   20.4392   26.4577 H   0  0  0  0  0  0  0  0  0  0  0  0
   18.7040   20.9908   26.7947 H   0  0  0  0  0  0  0  0  0  0  0  0
   19.0468   18.9618   27.4117 C   0  0  0  0  0  0  0  0  0  0  0  0
   18.1004   18.4657   27.1806 H   0  0  0  0  0  0  0  0  0  0  0  0
   18.9826   19.3586   28.4285 H   0  0  0  0  0  0  0  0  0  0  0  0
   20.1506   17.9222   27.4134 N   0  3  0  0  0  0  0  0  0  0  0  0
   20.2729   17.4961   26.4904 H   0  0  0  0  0  0  0  0  0  0  0  0
   19.9563   17.1625   28.0751 H   0  0  0  0  0  0  0  0  0  0  0  0
   21.0531   18.3283   27.6815 H   0  0  0  0  0  0  0  0  0  0  0  0
  1  2  1  0  0  0  0
  1  3  1  0  0  0  0
  1  4  1  0  0  0  0
  1  5  1  0  0  0  0
  5  6  1  0  0  0  0
  5  7  1  0  0  0  0
  5  8  1  0  0  0  0
  8  9  1  0  0  0  0
  8 10  1  0  0  0  0
  8 11  1  0  0  0  0
 11 12  1  0  0  0  0
 11 13  1  0  0  0  0
 11 14  1  0  0  0  0
 14 15  1  0  0  0  0
 14 16  1  0  0  0  0
 14 17  1  0  0  0  0
 17 18  1  0  0  0  0
 17 19  1  0  0  0  0
 17 20  1  0  0  0  0
 20 21  1  0  0  0  0
 20 22  1  0  0  0  0
 20 23  1  0  0  0  0
 23 24  1  0  0  0  0
 23 25  1  0  0  0  0
 23 26  1  0  0  0  0
 26 27  1  0  0  0  0
 26 28  1  0  0  0  0
 26 29  1  0  0  0  0
M  END
> <VM2 Rank>
325

> <Conf_Id>
291

> <Probability>
0.00

> <Sum Probability>
99.75

> <Delta G>
4.262

> <G>
62.408

> <E>
25.016

> <-TS>
37.392

> <U+W>
0.871

> <U>
52.756

> <W>
-51.884

> <W(PB)>
-54.369

> <W(SA)>
2.485

> <Valence>
5.462

> <Coulomb>
46.244

> <VdW>
1.049

> <VdW6>
-9.558

> <VdW12>
10.607

> <Bond>
0.295

> <Angle>
1.567

> <Pdih>
3.600

> <Idih>
0.000

> <Tether>
0.000

$$$$
VeraChem MOL file


 29 28  0  0  0  0  0  0  0  0999 V2000     
   20.4344   19.8525   20.1076 C   0  0  0  0  0  0  0  0  0  0  0  0
   21.2749   19.2250   19.7839 H   0  0  0  0  0  0  0  0  0  0  0  0
   20.2299   20.5744   19.3064 H   0  0  0  0  0  0  0  0  0  0  0  0
   20.7561   20.4168   20.9899 H   0  0  0  0  0  0  0  0  0  0  0  0
   19.1819   18.9913   20.3926 C   0  0  0  0  0  0  0  0  0  0  0  0
   18.9122   18.4683   19.4643 H   0  0  0  0  0  0  0  0  0  0  0  0
   18.3242   19.6330   20.6377 H   0  0  0  0  0  0  0  0  0  0  0  0
   19.4032   17.9372   21.5078 C   0  0  0  0  0  0  0  0  0  0  0  0
   18.8533   17.0270   21.2314 H   0  0  0  0  0  0  0  0  0  0  0  0
   20.4609   17.6423   21.5478 H   0  0  0  0  0  0  0  0  0  0  0  0
   18.9169   18.3655   22.9166 C   0  0  0  0  0  0  0  0  0  0  0  0
   19.0607   17.5129   23.5920 H   0  0  0  0  0  0  0  0  0  0  0  0
   17.8349   18.5539   22.8866 H   0  0  0  0  0  0  0  0  0  0  0  0
   19.6394   19.6102   23.4887 C   0  0  0  0  0  0  0  0  0  0  0  0
   20.7267   19.4551   23.4647 H   0  0  0  0  0  0  0  0  0  0  0  0
   19.4298   20.4727   22.8435 H   0  0  0  0  0  0  0  0  0  0  0  0
   19.1974   19.9780   24.9267 C   0  0  0  0  0  0  0  0  0  0  0  0
   18.1070   20.1115   24.9550 H   0  0  0  0  0  0  0  0  0  0  0  0
   19.6337   20.9531   25.1845 H   0  0  0  0  0  0  0  0  0  0  0  0
   19.6262   18.9432   25.9936 C   0  0  0  0  0  0  0  0  0  0  0  0
   19.1340   17.9804   25.8089 H   0  0  0  0  0  0  0  0  0  0  0  0
   20.7089   18.7719   25.9285 H   0  0  0  0  0  0  0  0  0  0  0  0
   19.2694   19.4221   27.4117 C   0  0  0  0  0  0  0  0  0  0  0  0
   18.1899   19.5786   27.4867 H   0  0  0  0  0  0  0  0  0  0  0  0
   19.7702   20.3723   27.6164 H   0  0  0  0  0  0  0  0  0  0  0  0
   19.6753   18.4382   28.4898 N   0  3  0  0  0  0  0  0  0  0  0  0
   20.6865   18.2677   28.4900 H   0  0  0  0  0  0  0  0  0  0  0  0
   19.2157   17.5294   28.3701 H   0  0  0  0  0  0  0  0  0  0  0  0
   19.4291   18.7766   29.4265 H   0  0  0  0  0  0  0  0  0  0  0  0
  1  2  1  0  0  0  0
  1  3  1  0  0  0  0
  1  4  1  0  0  0  0
  1  5  1  0  0  0  0
  5  6  1  0  0  0  0
  5  7  1  0  0  0  0
  5  8  1  0  0  0  0
  8  9  1  0  0  0  0
  8 10  1  0  0  0  0
  8 11  1  0  0  0  0
 11 12  1  0  0  0  0
 11 13  1  0  0  0  0
 11 14  1  0  0  0  0
 14 15  1  0  0  0  0
 14 16  1  0  0  0  0
 14 17  1  0  0  0  0
 17 18  1  0  0  0  0
 17 19  1  0  0  0  0
 17 20  1  0  0  0  0
 20 21  1  0  0  0  0
 20 22  1  0  0  0  0
 20 23  1  0  0  0  0
 23 24  1  0  0  0  0
 23 25  1  0  0  0  0
 23 26  1  0  0  0  0
 26 27  1  0  0  0  0
 26 28  1  0  0  0  0
 26 29  1  0  0  0  0
M  END
> <VM2 Rank>
326

> <Conf_Id>
1024

> <Probability>
0.00

> <Sum Probability>
99.76

> <Delta G>
4.275

> <G>
62.422

> <E>
24.848

> <-TS>
37.574

> <U+W>
0.704

> <U>
52.141

> <W>
-51.437

> <W(PB)>
-53.913

> <W(SA)>
2.475

> <Valence>
6.258

> <Coulomb>
44.846

> <VdW>
1.036

> <VdW6>
-9.043

> <VdW12>
10.080

> <Bond>
0.275

> <Angle>
1.500

> <Pdih>
4.484

> <Idih>
0.000

> <Tether>
0.000

$$$$
VeraChem MOL file


 29 28  0  0  0  0  0  0  0  0999 V2000     
   20.2216   19.4773   19.8677 C   0  0  0  0  0  0  0  0  0  0  0  0
   21.0527   19.5807   19.1581 H   0  0  0  0  0  0  0  0  0  0  0  0
   19.4057   18.9514   19.3551 H   0  0  0  0  0  0  0  0  0  0  0  0
   19.8756   20.4875   20.1196 H   0  0  0  0  0  0  0  0  0  0  0  0
   20.6776   18.7037   21.1255 C   0  0  0  0  0  0  0  0  0  0  0  0
   21.4724   19.2650   21.6363 H   0  0  0  0  0  0  0  0  0  0  0  0
   21.1269   17.7511   20.8117 H   0  0  0  0  0  0  0  0  0  0  0  0
   19.5270   18.4074   22.1172 C   0  0  0  0  0  0  0  0  0  0  0  0
   18.7477   17.8242   21.6077 H   0  0  0  0  0  0  0  0  0  0  0  0
   19.9163   17.7616   22.9129 H   0  0  0  0  0  0  0  0  0  0  0  0
   18.8987   19.6853   22.7300 C   0  0  0  0  0  0  0  0  0  0  0  0
   18.4049   20.2496   21.9278 H   0  0  0  0  0  0  0  0  0  0  0  0
   19.6817   20.3446   23.1289 H   0  0  0  0  0  0  0  0  0  0  0  0
   17.8441   19.3862   23.8272 C   0  0  0  0  0  0  0  0  0  0  0  0
   17.0407   20.1310   23.7415 H   0  0  0  0  0  0  0  0  0  0  0  0
   17.3665   18.4141   23.6430 H   0  0  0  0  0  0  0  0  0  0  0  0
   18.3857   19.4501   25.2786 C   0  0  0  0  0  0  0  0  0  0  0  0
   17.5432   19.3016   25.9683 H   0  0  0  0  0  0  0  0  0  0  0  0
   18.7682   20.4608   25.4744 H   0  0  0  0  0  0  0  0  0  0  0  0
   19.4826   18.4051   25.5953 C   0  0  0  0  0  0  0  0  0  0  0  0
   19.1333   17.4079   25.2967 H   0  0  0  0  0  0  0  0  0  0  0  0
   20.3876   18.6165   25.0119 H   0  0  0  0  0  0  0  0  0  0  0  0
   19.8481   18.3663   27.0914 C   0  0  0  0  0  0  0  0  0  0  0  0
   20.5699   17.5643   27.2685 H   0  0  0  0  0  0  0  0  0  0  0  0
   18.9532   18.1570   27.6836 H   0  0  0  0  0  0  0  0  0  0  0  0
   20.4587   19.6564   27.6022 N   0  3  0  0  0  0  0  0  0  0  0  0
   21.3196   19.8951   27.0993 H   0  0  0  0  0  0  0  0  0  0  0  0
   20.6993   19.5958   28.5977 H   0  0  0  0  0  0  0  0  0  0  0  0
   19.8158   20.4475   27.4960 H   0  0  0  0  0  0  0  0  0  0  0  0
  1  2  1  0  0  0  0
  1  3  1  0  0  0  0
  1  4  1  0  0  0  0
  1  5  1  0  0  0  0
  5  6  1  0  0  0  0
  5  7  1  0  0  0  0
  5  8  1  0  0  0  0
  8  9  1  0  0  0  0
  8 10  1  0  0  0  0
  8 11  1  0  0  0  0
 11 12  1  0  0  0  0
 11 13  1  0  0  0  0
 11 14  1  0  0  0  0
 14 15  1  0  0  0  0
 14 16  1  0  0  0  0
 14 17  1  0  0  0  0
 17 18  1  0  0  0  0
 17 19  1  0  0  0  0
 17 20  1  0  0  0  0
 20 21  1  0  0  0  0
 20 22  1  0  0  0  0
 20 23  1  0  0  0  0
 23 24  1  0  0  0  0
 23 25  1  0  0  0  0
 23 26  1  0  0  0  0
 26 27  1  0  0  0  0
 26 28  1  0  0  0  0
 26 29  1  0  0  0  0
M  END
> <VM2 Rank>
327

> <Conf_Id>
199

> <Probability>
0.00

> <Sum Probability>
99.76

> <Delta G>
4.281

> <G>
62.427

> <E>
24.611

> <-TS>
37.816

> <U+W>
0.466

> <U>
52.654

> <W>
-52.187

> <W(PB)>
-54.637

> <W(SA)>
2.450

> <Valence>
6.239

> <Coulomb>
45.412

> <VdW>
1.003

> <VdW6>
-9.762

> <VdW12>
10.765

> <Bond>
0.289

> <Angle>
1.372

> <Pdih>
4.577

> <Idih>
0.000

> <Tether>
0.000

$$$$
VeraChem MOL file


 29 28  0  0  0  0  0  0  0  0999 V2000     
   19.5349   20.3414   20.4826 C   0  0  0  0  0  0  0  0  0  0  0  0
   18.9114   20.7548   21.2852 H   0  0  0  0  0  0  0  0  0  0  0  0
   20.4990   20.8662   20.4898 H   0  0  0  0  0  0  0  0  0  0  0  0
   19.0376   20.5642   19.5298 H   0  0  0  0  0  0  0  0  0  0  0  0
   19.7310   18.8176   20.6476 C   0  0  0  0  0  0  0  0  0  0  0  0
   20.2520   18.4304   19.7608 H   0  0  0  0  0  0  0  0  0  0  0  0
   18.7537   18.3175   20.6611 H   0  0  0  0  0  0  0  0  0  0  0  0
   20.5503   18.4325   21.9061 C   0  0  0  0  0  0  0  0  0  0  0  0
   20.6525   17.3392   21.9416 H   0  0  0  0  0  0  0  0  0  0  0  0
   21.5703   18.8255   21.7949 H   0  0  0  0  0  0  0  0  0  0  0  0
   19.9754   18.9298   23.2581 C   0  0  0  0  0  0  0  0  0  0  0  0
   19.9509   20.0272   23.2748 H   0  0  0  0  0  0  0  0  0  0  0  0
   20.6756   18.6232   24.0450 H   0  0  0  0  0  0  0  0  0  0  0  0
   18.5706   18.3641   23.5824 C   0  0  0  0  0  0  0  0  0  0  0  0
   17.8851   18.5905   22.7560 H   0  0  0  0  0  0  0  0  0  0  0  0
   18.6248   17.2686   23.6447 H   0  0  0  0  0  0  0  0  0  0  0  0
   17.9363   18.9243   24.8820 C   0  0  0  0  0  0  0  0  0  0  0  0
   16.9360   18.4800   24.9797 H   0  0  0  0  0  0  0  0  0  0  0  0
   17.7722   20.0065   24.7852 H   0  0  0  0  0  0  0  0  0  0  0  0
   18.7266   18.6214   26.1798 C   0  0  0  0  0  0  0  0  0  0  0  0
   18.0178   18.5691   27.0170 H   0  0  0  0  0  0  0  0  0  0  0  0
   19.2000   17.6329   26.1122 H   0  0  0  0  0  0  0  0  0  0  0  0
   19.7774   19.6992   26.5106 C   0  0  0  0  0  0  0  0  0  0  0  0
   19.2833   20.6673   26.6289 H   0  0  0  0  0  0  0  0  0  0  0  0
   20.5024   19.7842   25.6991 H   0  0  0  0  0  0  0  0  0  0  0  0
   20.5415   19.4077   27.7857 N   0  3  0  0  0  0  0  0  0  0  0  0
   19.9188   19.3478   28.5983 H   0  0  0  0  0  0  0  0  0  0  0  0
   21.2321   20.1379   27.9917 H   0  0  0  0  0  0  0  0  0  0  0  0
   21.0519   18.5201   27.7306 H   0  0  0  0  0  0  0  0  0  0  0  0
  1  2  1  0  0  0  0
  1  3  1  0  0  0  0
  1  4  1  0  0  0  0
  1  5  1  0  0  0  0
  5  6  1  0  0  0  0
  5  7  1  0  0  0  0
  5  8  1  0  0  0  0
  8  9  1  0  0  0  0
  8 10  1  0  0  0  0
  8 11  1  0  0  0  0
 11 12  1  0  0  0  0
 11 13  1  0  0  0  0
 11 14  1  0  0  0  0
 14 15  1  0  0  0  0
 14 16  1  0  0  0  0
 14 17  1  0  0  0  0
 17 18  1  0  0  0  0
 17 19  1  0  0  0  0
 17 20  1  0  0  0  0
 20 21  1  0  0  0  0
 20 22  1  0  0  0  0
 20 23  1  0  0  0  0
 23 24  1  0  0  0  0
 23 25  1  0  0  0  0
 23 26  1  0  0  0  0
 26 27  1  0  0  0  0
 26 28  1  0  0  0  0
 26 29  1  0  0  0  0
M  END
> <VM2 Rank>
328

> <Conf_Id>
302

> <Probability>
0.00

> <Sum Probability>
99.77

> <Delta G>
4.289

> <G>
62.436

> <E>
24.533

> <-TS>
37.903

> <U+W>
0.388

> <U>
52.651

> <W>
-52.263

> <W(PB)>
-54.692

> <W(SA)>
2.429

> <Valence>
6.081

> <Coulomb>
45.696

> <VdW>
0.874

> <VdW6>
-10.147

> <VdW12>
11.021

> <Bond>
0.303

> <Angle>
1.914

> <Pdih>
3.864

> <Idih>
0.000

> <Tether>
0.000

$$$$
VeraChem MOL file


 29 28  0  0  0  0  0  0  0  0999 V2000     
   20.4061   20.4548   20.7585 C   0  0  0  0  0  0  0  0  0  0  0  0
   19.4947   20.9992   21.0347 H   0  0  0  0  0  0  0  0  0  0  0  0
   21.1817   20.6827   21.5012 H   0  0  0  0  0  0  0  0  0  0  0  0
   20.7432   20.8466   19.7902 H   0  0  0  0  0  0  0  0  0  0  0  0
   20.1541   18.9327   20.6674 C   0  0  0  0  0  0  0  0  0  0  0  0
   21.0579   18.4483   20.2719 H   0  0  0  0  0  0  0  0  0  0  0  0
   19.3545   18.7319   19.9407 H   0  0  0  0  0  0  0  0  0  0  0  0
   19.8008   18.2873   22.0287 C   0  0  0  0  0  0  0  0  0  0  0  0
   19.7718   17.1968   21.8979 H   0  0  0  0  0  0  0  0  0  0  0  0
   20.6093   18.4855   22.7422 H   0  0  0  0  0  0  0  0  0  0  0  0
   18.4374   18.7586   22.5975 C   0  0  0  0  0  0  0  0  0  0  0  0
   17.6606   18.5284   21.8554 H   0  0  0  0  0  0  0  0  0  0  0  0
   18.4204   19.8484   22.7261 H   0  0  0  0  0  0  0  0  0  0  0  0
   18.0593   18.0692   23.9345 C   0  0  0  0  0  0  0  0  0  0  0  0
   16.9739   17.8978   23.9359 H   0  0  0  0  0  0  0  0  0  0  0  0
   18.5155   17.0714   23.9925 H   0  0  0  0  0  0  0  0  0  0  0  0
   18.4037   18.8865   25.2065 C   0  0  0  0  0  0  0  0  0  0  0  0
   18.0335   18.3290   26.0768 H   0  0  0  0  0  0  0  0  0  0  0  0
   17.8481   19.8344   25.1916 H   0  0  0  0  0  0  0  0  0  0  0  0
   19.9129   19.1809   25.3862 C   0  0  0  0  0  0  0  0  0  0  0  0
   20.4896   18.2482   25.3317 H   0  0  0  0  0  0  0  0  0  0  0  0
   20.2602   19.8214   24.5661 H   0  0  0  0  0  0  0  0  0  0  0  0
   20.2245   19.9026   26.7115 C   0  0  0  0  0  0  0  0  0  0  0  0
   19.6310   20.8182   26.7807 H   0  0  0  0  0  0  0  0  0  0  0  0
   21.2821   20.1792   26.7330 H   0  0  0  0  0  0  0  0  0  0  0  0
   19.9452   19.0653   27.9442 N   0  3  0  0  0  0  0  0  0  0  0  0
   20.4931   18.1987   27.9475 H   0  0  0  0  0  0  0  0  0  0  0  0
   18.9575   18.7998   28.0069 H   0  0  0  0  0  0  0  0  0  0  0  0
   20.1762   19.5697   28.8072 H   0  0  0  0  0  0  0  0  0  0  0  0
  1  2  1  0  0  0  0
  1  3  1  0  0  0  0
  1  4  1  0  0  0  0
  1  5  1  0  0  0  0
  5  6  1  0  0  0  0
  5  7  1  0  0  0  0
  5  8  1  0  0  0  0
  8  9  1  0  0  0  0
  8 10  1  0  0  0  0
  8 11  1  0  0  0  0
 11 12  1  0  0  0  0
 11 13  1  0  0  0  0
 11 14  1  0  0  0  0
 14 15  1  0  0  0  0
 14 16  1  0  0  0  0
 14 17  1  0  0  0  0
 17 18  1  0  0  0  0
 17 19  1  0  0  0  0
 17 20  1  0  0  0  0
 20 21  1  0  0  0  0
 20 22  1  0  0  0  0
 20 23  1  0  0  0  0
 23 24  1  0  0  0  0
 23 25  1  0  0  0  0
 23 26  1  0  0  0  0
 26 27  1  0  0  0  0
 26 28  1  0  0  0  0
 26 29  1  0  0  0  0
M  END
> <VM2 Rank>
329

> <Conf_Id>
2489

> <Probability>
0.00

> <Sum Probability>
99.77

> <Delta G>
4.296

> <G>
62.443

> <E>
24.697

> <-TS>
37.746

> <U+W>
0.552

> <U>
52.520

> <W>
-51.968

> <W(PB)>
-54.398

> <W(SA)>
2.429

> <Valence>
6.252

> <Coulomb>
45.283

> <VdW>
0.985

> <VdW6>
-9.837

> <VdW12>
10.823

> <Bond>
0.297

> <Angle>
1.468

> <Pdih>
4.488

> <Idih>
0.000

> <Tether>
0.000

$$$$
VeraChem MOL file


 29 28  0  0  0  0  0  0  0  0999 V2000     
   21.2934   18.7819   20.4275 C   0  0  0  0  0  0  0  0  0  0  0  0
   21.6570   19.4587   19.6434 H   0  0  0  0  0  0  0  0  0  0  0  0
   22.0758   18.7021   21.1934 H   0  0  0  0  0  0  0  0  0  0  0  0
   21.1524   17.7904   19.9777 H   0  0  0  0  0  0  0  0  0  0  0  0
   19.9757   19.3089   21.0340 C   0  0  0  0  0  0  0  0  0  0  0  0
   19.2240   19.4078   20.2384 H   0  0  0  0  0  0  0  0  0  0  0  0
   20.1456   20.3163   21.4352 H   0  0  0  0  0  0  0  0  0  0  0  0
   19.4426   18.3686   22.1414 C   0  0  0  0  0  0  0  0  0  0  0  0
   19.3203   17.3625   21.7174 H   0  0  0  0  0  0  0  0  0  0  0  0
   20.1923   18.2754   22.9358 H   0  0  0  0  0  0  0  0  0  0  0  0
   18.0789   18.8200   22.7270 C   0  0  0  0  0  0  0  0  0  0  0  0
   17.6348   17.9948   23.3002 H   0  0  0  0  0  0  0  0  0  0  0  0
   17.3884   19.0000   21.8915 H   0  0  0  0  0  0  0  0  0  0  0  0
   18.1348   20.0935   23.6144 C   0  0  0  0  0  0  0  0  0  0  0  0
   18.9437   20.7614   23.2938 H   0  0  0  0  0  0  0  0  0  0  0  0
   17.2065   20.6594   23.4551 H   0  0  0  0  0  0  0  0  0  0  0  0
   18.2549   19.8172   25.1353 C   0  0  0  0  0  0  0  0  0  0  0  0
   17.3834   19.2391   25.4725 H   0  0  0  0  0  0  0  0  0  0  0  0
   18.2067   20.7789   25.6650 H   0  0  0  0  0  0  0  0  0  0  0  0
   19.5500   19.0825   25.5488 C   0  0  0  0  0  0  0  0  0  0  0  0
   19.5519   18.0678   25.1316 H   0  0  0  0  0  0  0  0  0  0  0  0
   20.4222   19.6096   25.1397 H   0  0  0  0  0  0  0  0  0  0  0  0
   19.6783   18.9913   27.0793 C   0  0  0  0  0  0  0  0  0  0  0  0
   18.8188   18.4542   27.4895 H   0  0  0  0  0  0  0  0  0  0  0  0
   19.6928   19.9969   27.5083 H   0  0  0  0  0  0  0  0  0  0  0  0
   20.9353   18.2740   27.5274 N   0  3  0  0  0  0  0  0  0  0  0  0
   21.0013   18.2249   28.5501 H   0  0  0  0  0  0  0  0  0  0  0  0
   21.7830   18.7461   27.1957 H   0  0  0  0  0  0  0  0  0  0  0  0
   20.9698   17.3102   27.1792 H   0  0  0  0  0  0  0  0  0  0  0  0
  1  2  1  0  0  0  0
  1  3  1  0  0  0  0
  1  4  1  0  0  0  0
  1  5  1  0  0  0  0
  5  6  1  0  0  0  0
  5  7  1  0  0  0  0
  5  8  1  0  0  0  0
  8  9  1  0  0  0  0
  8 10  1  0  0  0  0
  8 11  1  0  0  0  0
 11 12  1  0  0  0  0
 11 13  1  0  0  0  0
 11 14  1  0  0  0  0
 14 15  1  0  0  0  0
 14 16  1  0  0  0  0
 14 17  1  0  0  0  0
 17 18  1  0  0  0  0
 17 19  1  0  0  0  0
 17 20  1  0  0  0  0
 20 21  1  0  0  0  0
 20 22  1  0  0  0  0
 20 23  1  0  0  0  0
 23 24  1  0  0  0  0
 23 25  1  0  0  0  0
 23 26  1  0  0  0  0
 26 27  1  0  0  0  0
 26 28  1  0  0  0  0
 26 29  1  0  0  0  0
M  END
> <VM2 Rank>
330

> <Conf_Id>
2006

> <Probability>
0.00

> <Sum Probability>
99.77

> <Delta G>
4.296

> <G>
62.443

> <E>
24.825

> <-TS>
37.618

> <U+W>
0.680

> <U>
52.710

> <W>
-52.030

> <W(PB)>
-54.518

> <W(SA)>
2.488

> <Valence>
6.349

> <Coulomb>
45.489

> <VdW>
0.873

> <VdW6>
-9.182

> <VdW12>
10.055

> <Bond>
0.284

> <Angle>
1.472

> <Pdih>
4.593

> <Idih>
0.000

> <Tether>
0.000

$$$$
VeraChem MOL file


 29 28  0  0  0  0  0  0  0  0999 V2000     
   19.7504   17.5293   20.9221 C   0  0  0  0  0  0  0  0  0  0  0  0
   19.1181   17.7256   20.0465 H   0  0  0  0  0  0  0  0  0  0  0  0
   20.3918   16.6698   20.6880 H   0  0  0  0  0  0  0  0  0  0  0  0
   19.1011   17.2393   21.7575 H   0  0  0  0  0  0  0  0  0  0  0  0
   20.6086   18.7651   21.2749 C   0  0  0  0  0  0  0  0  0  0  0  0
   21.3223   18.9445   20.4587 H   0  0  0  0  0  0  0  0  0  0  0  0
   21.2175   18.5522   22.1635 H   0  0  0  0  0  0  0  0  0  0  0  0
   19.7747   20.0535   21.4921 C   0  0  0  0  0  0  0  0  0  0  0  0
   20.4587   20.8839   21.7151 H   0  0  0  0  0  0  0  0  0  0  0  0
   19.2792   20.3181   20.5479 H   0  0  0  0  0  0  0  0  0  0  0  0
   18.7020   19.9707   22.6087 C   0  0  0  0  0  0  0  0  0  0  0  0
   17.9428   19.2229   22.3437 H   0  0  0  0  0  0  0  0  0  0  0  0
   18.1751   20.9338   22.6515 H   0  0  0  0  0  0  0  0  0  0  0  0
   19.2860   19.6514   24.0055 C   0  0  0  0  0  0  0  0  0  0  0  0
   19.7504   18.6591   23.9799 H   0  0  0  0  0  0  0  0  0  0  0  0
   20.0718   20.3799   24.2484 H   0  0  0  0  0  0  0  0  0  0  0  0
   18.1941   19.6775   25.1010 C   0  0  0  0  0  0  0  0  0  0  0  0
   17.4668   18.8759   24.9118 H   0  0  0  0  0  0  0  0  0  0  0  0
   17.6362   20.6211   25.0261 H   0  0  0  0  0  0  0  0  0  0  0  0
   18.7349   19.5520   26.5483 C   0  0  0  0  0  0  0  0  0  0  0  0
   19.4151   20.3836   26.7757 H   0  0  0  0  0  0  0  0  0  0  0  0
   17.8852   19.6612   27.2353 H   0  0  0  0  0  0  0  0  0  0  0  0
   19.4220   18.2066   26.8611 C   0  0  0  0  0  0  0  0  0  0  0  0
   18.8714   17.3894   26.3873 H   0  0  0  0  0  0  0  0  0  0  0  0
   19.4087   18.0429   27.9420 H   0  0  0  0  0  0  0  0  0  0  0  0
   20.8711   18.1319   26.4213 N   0  3  0  0  0  0  0  0  0  0  0  0
   21.4443   18.8451   26.8844 H   0  0  0  0  0  0  0  0  0  0  0  0
   20.9689   18.2730   25.4120 H   0  0  0  0  0  0  0  0  0  0  0  0
   21.2892   17.2217   26.6435 H   0  0  0  0  0  0  0  0  0  0  0  0
  1  2  1  0  0  0  0
  1  3  1  0  0  0  0
  1  4  1  0  0  0  0
  1  5  1  0  0  0  0
  5  6  1  0  0  0  0
  5  7  1  0  0  0  0
  5  8  1  0  0  0  0
  8  9  1  0  0  0  0
  8 10  1  0  0  0  0
  8 11  1  0  0  0  0
 11 12  1  0  0  0  0
 11 13  1  0  0  0  0
 11 14  1  0  0  0  0
 14 15  1  0  0  0  0
 14 16  1  0  0  0  0
 14 17  1  0  0  0  0
 17 18  1  0  0  0  0
 17 19  1  0  0  0  0
 17 20  1  0  0  0  0
 20 21  1  0  0  0  0
 20 22  1  0  0  0  0
 20 23  1  0  0  0  0
 23 24  1  0  0  0  0
 23 25  1  0  0  0  0
 23 26  1  0  0  0  0
 26 27  1  0  0  0  0
 26 28  1  0  0  0  0
 26 29  1  0  0  0  0
M  END
> <VM2 Rank>
331

> <Conf_Id>
2333

> <Probability>
0.00

> <Sum Probability>
99.78

> <Delta G>
4.304

> <G>
62.450

> <E>
24.676

> <-TS>
37.774

> <U+W>
0.532

> <U>
52.871

> <W>
-52.339

> <W(PB)>
-54.758

> <W(SA)>
2.419

> <Valence>
5.127

> <Coulomb>
47.022

> <VdW>
0.721

> <VdW6>
-10.158

> <VdW12>
10.879

> <Bond>
0.284

> <Angle>
1.604

> <Pdih>
3.240

> <Idih>
0.000

> <Tether>
0.000

$$$$
VeraChem MOL file


 29 28  0  0  0  0  0  0  0  0999 V2000     
   20.6716   18.0911   20.5389 C   0  0  0  0  0  0  0  0  0  0  0  0
   21.1777   18.0761   19.5650 H   0  0  0  0  0  0  0  0  0  0  0  0
   21.3158   17.5720   21.2604 H   0  0  0  0  0  0  0  0  0  0  0  0
   19.7405   17.5200   20.4360 H   0  0  0  0  0  0  0  0  0  0  0  0
   20.3980   19.5454   20.9843 C   0  0  0  0  0  0  0  0  0  0  0  0
   19.7325   20.0348   20.2595 H   0  0  0  0  0  0  0  0  0  0  0  0
   21.3424   20.1069   20.9624 H   0  0  0  0  0  0  0  0  0  0  0  0
   19.7915   19.6474   22.4043 C   0  0  0  0  0  0  0  0  0  0  0  0
   20.4801   19.1793   23.1195 H   0  0  0  0  0  0  0  0  0  0  0  0
   19.7201   20.7087   22.6789 H   0  0  0  0  0  0  0  0  0  0  0  0
   18.3915   18.9970   22.5209 C   0  0  0  0  0  0  0  0  0  0  0  0
   18.4761   17.9094   22.3956 H   0  0  0  0  0  0  0  0  0  0  0  0
   17.7626   19.3535   21.6936 H   0  0  0  0  0  0  0  0  0  0  0  0
   17.6573   19.2965   23.8533 C   0  0  0  0  0  0  0  0  0  0  0  0
   17.4720   20.3751   23.9493 H   0  0  0  0  0  0  0  0  0  0  0  0
   16.6639   18.8307   23.7937 H   0  0  0  0  0  0  0  0  0  0  0  0
   18.3675   18.7550   25.1214 C   0  0  0  0  0  0  0  0  0  0  0  0
   18.9425   17.8542   24.8691 H   0  0  0  0  0  0  0  0  0  0  0  0
   17.5991   18.4341   25.8385 H   0  0  0  0  0  0  0  0  0  0  0  0
   19.2667   19.8058   25.8214 C   0  0  0  0  0  0  0  0  0  0  0  0
   20.0545   20.1617   25.1482 H   0  0  0  0  0  0  0  0  0  0  0  0
   18.6605   20.6843   26.0790 H   0  0  0  0  0  0  0  0  0  0  0  0
   19.9101   19.2663   27.1129 C   0  0  0  0  0  0  0  0  0  0  0  0
   19.1309   18.9062   27.7901 H   0  0  0  0  0  0  0  0  0  0  0  0
   20.4512   20.0737   27.6138 H   0  0  0  0  0  0  0  0  0  0  0  0
   20.8897   18.1335   26.8775 N   0  3  0  0  0  0  0  0  0  0  0  0
   20.4369   17.3265   26.4372 H   0  0  0  0  0  0  0  0  0  0  0  0
   21.3066   17.8029   27.7547 H   0  0  0  0  0  0  0  0  0  0  0  0
   21.6624   18.4193   26.2672 H   0  0  0  0  0  0  0  0  0  0  0  0
  1  2  1  0  0  0  0
  1  3  1  0  0  0  0
  1  4  1  0  0  0  0
  1  5  1  0  0  0  0
  5  6  1  0  0  0  0
  5  7  1  0  0  0  0
  5  8  1  0  0  0  0
  8  9  1  0  0  0  0
  8 10  1  0  0  0  0
  8 11  1  0  0  0  0
 11 12  1  0  0  0  0
 11 13  1  0  0  0  0
 11 14  1  0  0  0  0
 14 15  1  0  0  0  0
 14 16  1  0  0  0  0
 14 17  1  0  0  0  0
 17 18  1  0  0  0  0
 17 19  1  0  0  0  0
 17 20  1  0  0  0  0
 20 21  1  0  0  0  0
 20 22  1  0  0  0  0
 20 23  1  0  0  0  0
 23 24  1  0  0  0  0
 23 25  1  0  0  0  0
 23 26  1  0  0  0  0
 26 27  1  0  0  0  0
 26 28  1  0  0  0  0
 26 29  1  0  0  0  0
M  END
> <VM2 Rank>
332

> <Conf_Id>
315

> <Probability>
0.00

> <Sum Probability>
99.78

> <Delta G>
4.308

> <G>
62.454

> <E>
24.674

> <-TS>
37.781

> <U+W>
0.529

> <U>
53.096

> <W>
-52.567

> <W(PB)>
-55.017

> <W(SA)>
2.450

> <Valence>
6.150

> <Coulomb>
46.035

> <VdW>
0.911

> <VdW6>
-9.858

> <VdW12>
10.769

> <Bond>
0.290

> <Angle>
1.426

> <Pdih>
4.434

> <Idih>
0.000

> <Tether>
0.000

$$$$
VeraChem MOL file


 29 28  0  0  0  0  0  0  0  0999 V2000     
   20.6985   20.1945   20.9812 C   0  0  0  0  0  0  0  0  0  0  0  0
   20.0966   20.4760   20.1075 H   0  0  0  0  0  0  0  0  0  0  0  0
   20.3663   20.7962   21.8364 H   0  0  0  0  0  0  0  0  0  0  0  0
   21.7416   20.4646   20.7722 H   0  0  0  0  0  0  0  0  0  0  0  0
   20.5790   18.6817   21.2731 C   0  0  0  0  0  0  0  0  0  0  0  0
   21.1731   18.4273   22.1608 H   0  0  0  0  0  0  0  0  0  0  0  0
   21.0307   18.1243   20.4406 H   0  0  0  0  0  0  0  0  0  0  0  0
   19.1160   18.2015   21.4509 C   0  0  0  0  0  0  0  0  0  0  0  0
   18.5780   18.3466   20.5040 H   0  0  0  0  0  0  0  0  0  0  0  0
   19.1191   17.1177   21.6315 H   0  0  0  0  0  0  0  0  0  0  0  0
   18.3207   18.8988   22.5848 C   0  0  0  0  0  0  0  0  0  0  0  0
   17.3035   18.4838   22.5969 H   0  0  0  0  0  0  0  0  0  0  0  0
   18.2079   19.9677   22.3602 H   0  0  0  0  0  0  0  0  0  0  0  0
   18.9554   18.7222   23.9849 C   0  0  0  0  0  0  0  0  0  0  0  0
   19.1011   17.6524   24.1879 H   0  0  0  0  0  0  0  0  0  0  0  0
   19.9424   19.1984   23.9920 H   0  0  0  0  0  0  0  0  0  0  0  0
   18.0770   19.3484   25.0936 C   0  0  0  0  0  0  0  0  0  0  0  0
   17.0496   18.9731   24.9893 H   0  0  0  0  0  0  0  0  0  0  0  0
   18.0221   20.4360   24.9463 H   0  0  0  0  0  0  0  0  0  0  0  0
   18.5549   19.0470   26.5370 C   0  0  0  0  0  0  0  0  0  0  0  0
   17.8177   19.4721   27.2310 H   0  0  0  0  0  0  0  0  0  0  0  0
   18.5535   17.9645   26.7219 H   0  0  0  0  0  0  0  0  0  0  0  0
   19.9330   19.6422   26.8930 C   0  0  0  0  0  0  0  0  0  0  0  0
   20.0108   19.7348   27.9797 H   0  0  0  0  0  0  0  0  0  0  0  0
   20.0292   20.6412   26.4595 H   0  0  0  0  0  0  0  0  0  0  0  0
   21.1095   18.8017   26.4365 N   0  3  0  0  0  0  0  0  0  0  0  0
   21.1103   18.6704   25.4211 H   0  0  0  0  0  0  0  0  0  0  0  0
   21.0967   17.8694   26.8631 H   0  0  0  0  0  0  0  0  0  0  0  0
   22.0055   19.2336   26.6884 H   0  0  0  0  0  0  0  0  0  0  0  0
  1  2  1  0  0  0  0
  1  3  1  0  0  0  0
  1  4  1  0  0  0  0
  1  5  1  0  0  0  0
  5  6  1  0  0  0  0
  5  7  1  0  0  0  0
  5  8  1  0  0  0  0
  8  9  1  0  0  0  0
  8 10  1  0  0  0  0
  8 11  1  0  0  0  0
 11 12  1  0  0  0  0
 11 13  1  0  0  0  0
 11 14  1  0  0  0  0
 14 15  1  0  0  0  0
 14 16  1  0  0  0  0
 14 17  1  0  0  0  0
 17 18  1  0  0  0  0
 17 19  1  0  0  0  0
 17 20  1  0  0  0  0
 20 21  1  0  0  0  0
 20 22  1  0  0  0  0
 20 23  1  0  0  0  0
 23 24  1  0  0  0  0
 23 25  1  0  0  0  0
 23 26  1  0  0  0  0
 26 27  1  0  0  0  0
 26 28  1  0  0  0  0
 26 29  1  0  0  0  0
M  END
> <VM2 Rank>
333

> <Conf_Id>
2921

> <Probability>
0.00

> <Sum Probability>
99.78

> <Delta G>
4.309

> <G>
62.455

> <E>
24.681

> <-TS>
37.774

> <U+W>
0.537

> <U>
52.871

> <W>
-52.335

> <W(PB)>
-54.773

> <W(SA)>
2.438

> <Valence>
5.127

> <Coulomb>
47.022

> <VdW>
0.721

> <VdW6>
-10.158

> <VdW12>
10.880

> <Bond>
0.284

> <Angle>
1.604

> <Pdih>
3.240

> <Idih>
0.000

> <Tether>
0.000

$$$$
VeraChem MOL file


 29 28  0  0  0  0  0  0  0  0999 V2000     
   19.8474   18.1455   19.8333 C   0  0  0  0  0  0  0  0  0  0  0  0
   20.9027   18.3918   19.6573 H   0  0  0  0  0  0  0  0  0  0  0  0
   19.7163   17.0715   19.6479 H   0  0  0  0  0  0  0  0  0  0  0  0
   19.2417   18.6906   19.0977 H   0  0  0  0  0  0  0  0  0  0  0  0
   19.4273   18.5049   21.2742 C   0  0  0  0  0  0  0  0  0  0  0  0
   20.0290   17.9127   21.9763 H   0  0  0  0  0  0  0  0  0  0  0  0
   18.3765   18.2231   21.4284 H   0  0  0  0  0  0  0  0  0  0  0  0
   19.6130   20.0119   21.5630 C   0  0  0  0  0  0  0  0  0  0  0  0
   20.6782   20.2697   21.4842 H   0  0  0  0  0  0  0  0  0  0  0  0
   19.1004   20.5904   20.7821 H   0  0  0  0  0  0  0  0  0  0  0  0
   19.0730   20.4717   22.9419 C   0  0  0  0  0  0  0  0  0  0  0  0
   17.9868   20.3148   22.9938 H   0  0  0  0  0  0  0  0  0  0  0  0
   19.2178   21.5590   23.0070 H   0  0  0  0  0  0  0  0  0  0  0  0
   19.7715   19.8173   24.1622 C   0  0  0  0  0  0  0  0  0  0  0  0
   20.7993   19.5318   23.8992 H   0  0  0  0  0  0  0  0  0  0  0  0
   19.8596   20.5750   24.9522 H   0  0  0  0  0  0  0  0  0  0  0  0
   18.9995   18.5982   24.7291 C   0  0  0  0  0  0  0  0  0  0  0  0
   18.8101   17.8691   23.9326 H   0  0  0  0  0  0  0  0  0  0  0  0
   18.0103   18.9205   25.0804 H   0  0  0  0  0  0  0  0  0  0  0  0
   19.7551   17.8813   25.8759 C   0  0  0  0  0  0  0  0  0  0  0  0
   19.1726   17.0111   26.2062 H   0  0  0  0  0  0  0  0  0  0  0  0
   20.7045   17.4859   25.4910 H   0  0  0  0  0  0  0  0  0  0  0  0
   20.0514   18.7813   27.0926 C   0  0  0  0  0  0  0  0  0  0  0  0
   20.6686   19.6290   26.7843 H   0  0  0  0  0  0  0  0  0  0  0  0
   20.6085   18.2097   27.8400 H   0  0  0  0  0  0  0  0  0  0  0  0
   18.8056   19.3258   27.7626 N   0  3  0  0  0  0  0  0  0  0  0  0
   18.2513   19.8983   27.1182 H   0  0  0  0  0  0  0  0  0  0  0  0
   19.0338   19.9149   28.5709 H   0  0  0  0  0  0  0  0  0  0  0  0
   18.1968   18.5737   28.1013 H   0  0  0  0  0  0  0  0  0  0  0  0
  1  2  1  0  0  0  0
  1  3  1  0  0  0  0
  1  4  1  0  0  0  0
  1  5  1  0  0  0  0
  5  6  1  0  0  0  0
  5  7  1  0  0  0  0
  5  8  1  0  0  0  0
  8  9  1  0  0  0  0
  8 10  1  0  0  0  0
  8 11  1  0  0  0  0
 11 12  1  0  0  0  0
 11 13  1  0  0  0  0
 11 14  1  0  0  0  0
 14 15  1  0  0  0  0
 14 16  1  0  0  0  0
 14 17  1  0  0  0  0
 17 18  1  0  0  0  0
 17 19  1  0  0  0  0
 17 20  1  0  0  0  0
 20 21  1  0  0  0  0
 20 22  1  0  0  0  0
 20 23  1  0  0  0  0
 23 24  1  0  0  0  0
 23 25  1  0  0  0  0
 23 26  1  0  0  0  0
 26 27  1  0  0  0  0
 26 28  1  0  0  0  0
 26 29  1  0  0  0  0
M  END
> <VM2 Rank>
334

> <Conf_Id>
1047

> <Probability>
0.00

> <Sum Probability>
99.79

> <Delta G>
4.310

> <G>
62.456

> <E>
24.578

> <-TS>
37.879

> <U+W>
0.433

> <U>
52.490

> <W>
-52.056

> <W(PB)>
-54.496

> <W(SA)>
2.440

> <Valence>
6.033

> <Coulomb>
45.582

> <VdW>
0.875

> <VdW6>
-9.906

> <VdW12>
10.781

> <Bond>
0.281

> <Angle>
1.358

> <Pdih>
4.393

> <Idih>
0.000

> <Tether>
0.000

$$$$
VeraChem MOL file


 29 28  0  0  0  0  0  0  0  0999 V2000     
   19.8796   18.0920   20.2741 C   0  0  0  0  0  0  0  0  0  0  0  0
   19.5448   18.9405   19.6634 H   0  0  0  0  0  0  0  0  0  0  0  0
   20.9297   18.2560   20.5455 H   0  0  0  0  0  0  0  0  0  0  0  0
   19.8379   17.1910   19.6486 H   0  0  0  0  0  0  0  0  0  0  0  0
   18.9889   17.9226   21.5257 C   0  0  0  0  0  0  0  0  0  0  0  0
   19.3645   17.0901   22.1368 H   0  0  0  0  0  0  0  0  0  0  0  0
   17.9781   17.6359   21.2036 H   0  0  0  0  0  0  0  0  0  0  0  0
   18.8890   19.2026   22.3899 C   0  0  0  0  0  0  0  0  0  0  0  0
   18.4988   20.0284   21.7795 H   0  0  0  0  0  0  0  0  0  0  0  0
   18.1450   19.0240   23.1758 H   0  0  0  0  0  0  0  0  0  0  0  0
   20.2382   19.6206   23.0283 C   0  0  0  0  0  0  0  0  0  0  0  0
   20.9562   19.8509   22.2307 H   0  0  0  0  0  0  0  0  0  0  0  0
   20.6739   18.7824   23.5858 H   0  0  0  0  0  0  0  0  0  0  0  0
   20.1325   20.8678   23.9418 C   0  0  0  0  0  0  0  0  0  0  0  0
   21.1411   21.1322   24.2881 H   0  0  0  0  0  0  0  0  0  0  0  0
   19.7953   21.7193   23.3348 H   0  0  0  0  0  0  0  0  0  0  0  0
   19.2003   20.7428   25.1776 C   0  0  0  0  0  0  0  0  0  0  0  0
   18.1559   20.6094   24.8658 H   0  0  0  0  0  0  0  0  0  0  0  0
   19.2245   21.7079   25.7024 H   0  0  0  0  0  0  0  0  0  0  0  0
   19.6030   19.6411   26.1905 C   0  0  0  0  0  0  0  0  0  0  0  0
   20.6968   19.5831   26.2684 H   0  0  0  0  0  0  0  0  0  0  0  0
   19.2364   19.9304   27.1844 H   0  0  0  0  0  0  0  0  0  0  0  0
   19.0173   18.2573   25.8499 C   0  0  0  0  0  0  0  0  0  0  0  0
   19.3675   17.9287   24.8697 H   0  0  0  0  0  0  0  0  0  0  0  0
   17.9262   18.3193   25.8194 H   0  0  0  0  0  0  0  0  0  0  0  0
   19.3952   17.1911   26.8572 N   0  3  0  0  0  0  0  0  0  0  0  0
   18.9928   16.2788   26.6160 H   0  0  0  0  0  0  0  0  0  0  0  0
   19.0654   17.4231   27.8000 H   0  0  0  0  0  0  0  0  0  0  0  0
   20.4110   17.0642   26.9157 H   0  0  0  0  0  0  0  0  0  0  0  0
  1  2  1  0  0  0  0
  1  3  1  0  0  0  0
  1  4  1  0  0  0  0
  1  5  1  0  0  0  0
  5  6  1  0  0  0  0
  5  7  1  0  0  0  0
  5  8  1  0  0  0  0
  8  9  1  0  0  0  0
  8 10  1  0  0  0  0
  8 11  1  0  0  0  0
 11 12  1  0  0  0  0
 11 13  1  0  0  0  0
 11 14  1  0  0  0  0
 14 15  1  0  0  0  0
 14 16  1  0  0  0  0
 14 17  1  0  0  0  0
 17 18  1  0  0  0  0
 17 19  1  0  0  0  0
 17 20  1  0  0  0  0
 20 21  1  0  0  0  0
 20 22  1  0  0  0  0
 20 23  1  0  0  0  0
 23 24  1  0  0  0  0
 23 25  1  0  0  0  0
 23 26  1  0  0  0  0
 26 27  1  0  0  0  0
 26 28  1  0  0  0  0
 26 29  1  0  0  0  0
M  END
> <VM2 Rank>
335

> <Conf_Id>
1444

> <Probability>
0.00

> <Sum Probability>
99.79

> <Delta G>
4.311

> <G>
62.457

> <E>
24.289

> <-TS>
38.168

> <U+W>
0.145

> <U>
52.832

> <W>
-52.687

> <W(PB)>
-55.127

> <W(SA)>
2.440

> <Valence>
6.054

> <Coulomb>
46.264

> <VdW>
0.513

> <VdW6>
-10.689

> <VdW12>
11.203

> <Bond>
0.303

> <Angle>
2.010

> <Pdih>
3.740

> <Idih>
0.000

> <Tether>
0.000

$$$$
VeraChem MOL file


 29 28  0  0  0  0  0  0  0  0999 V2000     
   18.9387   19.2262   20.0467 C   0  0  0  0  0  0  0  0  0  0  0  0
   18.8417   20.2905   19.7959 H   0  0  0  0  0  0  0  0  0  0  0  0
   18.8768   18.6535   19.1123 H   0  0  0  0  0  0  0  0  0  0  0  0
   18.0810   18.9392   20.6677 H   0  0  0  0  0  0  0  0  0  0  0  0
   20.2772   18.9453   20.7661 C   0  0  0  0  0  0  0  0  0  0  0  0
   21.1019   19.1357   20.0651 H   0  0  0  0  0  0  0  0  0  0  0  0
   20.3432   17.8799   21.0242 H   0  0  0  0  0  0  0  0  0  0  0  0
   20.4930   19.8176   22.0290 C   0  0  0  0  0  0  0  0  0  0  0  0
   21.4764   19.5812   22.4582 H   0  0  0  0  0  0  0  0  0  0  0  0
   20.5432   20.8726   21.7264 H   0  0  0  0  0  0  0  0  0  0  0  0
   19.4137   19.6681   23.1323 C   0  0  0  0  0  0  0  0  0  0  0  0
   18.4410   20.0038   22.7491 H   0  0  0  0  0  0  0  0  0  0  0  0
   19.6649   20.3577   23.9460 H   0  0  0  0  0  0  0  0  0  0  0  0
   19.2864   18.2228   23.6791 C   0  0  0  0  0  0  0  0  0  0  0  0
   18.9316   17.5745   22.8671 H   0  0  0  0  0  0  0  0  0  0  0  0
   20.2723   17.8355   23.9706 H   0  0  0  0  0  0  0  0  0  0  0  0
   18.2922   18.0923   24.8622 C   0  0  0  0  0  0  0  0  0  0  0  0
   17.8224   17.1005   24.8068 H   0  0  0  0  0  0  0  0  0  0  0  0
   17.4729   18.8162   24.7526 H   0  0  0  0  0  0  0  0  0  0  0  0
   18.9396   18.2244   26.2637 C   0  0  0  0  0  0  0  0  0  0  0  0
   18.1698   18.0387   27.0245 H   0  0  0  0  0  0  0  0  0  0  0  0
   19.6984   17.4410   26.3917 H   0  0  0  0  0  0  0  0  0  0  0  0
   19.5774   19.5999   26.5255 C   0  0  0  0  0  0  0  0  0  0  0  0
   18.8337   20.3865   26.3719 H   0  0  0  0  0  0  0  0  0  0  0  0
   20.4029   19.7607   25.8275 H   0  0  0  0  0  0  0  0  0  0  0  0
   20.1257   19.7413   27.9306 N   0  3  0  0  0  0  0  0  0  0  0  0
   20.5483   20.6636   28.0838 H   0  0  0  0  0  0  0  0  0  0  0  0
   20.8503   19.0436   28.1295 H   0  0  0  0  0  0  0  0  0  0  0  0
   19.3936   19.6268   28.6393 H   0  0  0  0  0  0  0  0  0  0  0  0
  1  2  1  0  0  0  0
  1  3  1  0  0  0  0
  1  4  1  0  0  0  0
  1  5  1  0  0  0  0
  5  6  1  0  0  0  0
  5  7  1  0  0  0  0
  5  8  1  0  0  0  0
  8  9  1  0  0  0  0
  8 10  1  0  0  0  0
  8 11  1  0  0  0  0
 11 12  1  0  0  0  0
 11 13  1  0  0  0  0
 11 14  1  0  0  0  0
 14 15  1  0  0  0  0
 14 16  1  0  0  0  0
 14 17  1  0  0  0  0
 17 18  1  0  0  0  0
 17 19  1  0  0  0  0
 17 20  1  0  0  0  0
 20 21  1  0  0  0  0
 20 22  1  0  0  0  0
 20 23  1  0  0  0  0
 23 24  1  0  0  0  0
 23 25  1  0  0  0  0
 23 26  1  0  0  0  0
 26 27  1  0  0  0  0
 26 28  1  0  0  0  0
 26 29  1  0  0  0  0
M  END
> <VM2 Rank>
336

> <Conf_Id>
2625

> <Probability>
0.00

> <Sum Probability>
99.80

> <Delta G>
4.327

> <G>
62.473

> <E>
24.639

> <-TS>
37.834

> <U+W>
0.494

> <U>
52.510

> <W>
-52.016

> <W(PB)>
-54.486

> <W(SA)>
2.471

> <Valence>
6.159

> <Coulomb>
45.451

> <VdW>
0.900

> <VdW6>
-10.010

> <VdW12>
10.911

> <Bond>
0.308

> <Angle>
1.698

> <Pdih>
4.153

> <Idih>
0.000

> <Tether>
0.000

$$$$
VeraChem MOL file


 29 28  0  0  0  0  0  0  0  0999 V2000     
   20.3416   18.2527   19.7232 C   0  0  0  0  0  0  0  0  0  0  0  0
   20.4111   19.2364   19.2408 H   0  0  0  0  0  0  0  0  0  0  0  0
   21.3551   17.9362   20.0020 H   0  0  0  0  0  0  0  0  0  0  0  0
   19.9579   17.5400   18.9817 H   0  0  0  0  0  0  0  0  0  0  0  0
   19.4174   18.3047   20.9580 C   0  0  0  0  0  0  0  0  0  0  0  0
   19.3409   17.3007   21.3984 H   0  0  0  0  0  0  0  0  0  0  0  0
   18.4040   18.5910   20.6432 H   0  0  0  0  0  0  0  0  0  0  0  0
   19.9352   19.3018   22.0180 C   0  0  0  0  0  0  0  0  0  0  0  0
   20.9495   19.0137   22.3265 H   0  0  0  0  0  0  0  0  0  0  0  0
   20.0115   20.3031   21.5718 H   0  0  0  0  0  0  0  0  0  0  0  0
   19.0119   19.3567   23.2558 C   0  0  0  0  0  0  0  0  0  0  0  0
   18.9259   18.3509   23.6850 H   0  0  0  0  0  0  0  0  0  0  0  0
   18.0008   19.6539   22.9451 H   0  0  0  0  0  0  0  0  0  0  0  0
   19.5352   20.3536   24.3178 C   0  0  0  0  0  0  0  0  0  0  0  0
   20.5514   20.0833   24.6301 H   0  0  0  0  0  0  0  0  0  0  0  0
   19.6244   21.3459   23.8542 H   0  0  0  0  0  0  0  0  0  0  0  0
   18.6132   20.4817   25.5569 C   0  0  0  0  0  0  0  0  0  0  0  0
   17.6397   20.8736   25.2314 H   0  0  0  0  0  0  0  0  0  0  0  0
   19.0321   21.2448   26.2273 H   0  0  0  0  0  0  0  0  0  0  0  0
   18.3744   19.1816   26.3710 C   0  0  0  0  0  0  0  0  0  0  0  0
   17.6871   19.4250   27.1920 H   0  0  0  0  0  0  0  0  0  0  0  0
   17.8545   18.4288   25.7652 H   0  0  0  0  0  0  0  0  0  0  0  0
   19.6498   18.5774   26.9943 C   0  0  0  0  0  0  0  0  0  0  0  0
   19.3688   17.9353   27.8335 H   0  0  0  0  0  0  0  0  0  0  0  0
   20.2879   19.3778   27.3782 H   0  0  0  0  0  0  0  0  0  0  0  0
   20.4653   17.7278   26.0399 N   0  3  0  0  0  0  0  0  0  0  0  0
   20.7416   18.2581   25.2081 H   0  0  0  0  0  0  0  0  0  0  0  0
   19.9383   16.9094   25.7180 H   0  0  0  0  0  0  0  0  0  0  0  0
   21.3232   17.3776   26.4806 H   0  0  0  0  0  0  0  0  0  0  0  0
  1  2  1  0  0  0  0
  1  3  1  0  0  0  0
  1  4  1  0  0  0  0
  1  5  1  0  0  0  0
  5  6  1  0  0  0  0
  5  7  1  0  0  0  0
  5  8  1  0  0  0  0
  8  9  1  0  0  0  0
  8 10  1  0  0  0  0
  8 11  1  0  0  0  0
 11 12  1  0  0  0  0
 11 13  1  0  0  0  0
 11 14  1  0  0  0  0
 14 15  1  0  0  0  0
 14 16  1  0  0  0  0
 14 17  1  0  0  0  0
 17 18  1  0  0  0  0
 17 19  1  0  0  0  0
 17 20  1  0  0  0  0
 20 21  1  0  0  0  0
 20 22  1  0  0  0  0
 20 23  1  0  0  0  0
 23 24  1  0  0  0  0
 23 25  1  0  0  0  0
 23 26  1  0  0  0  0
 26 27  1  0  0  0  0
 26 28  1  0  0  0  0
 26 29  1  0  0  0  0
M  END
> <VM2 Rank>
337

> <Conf_Id>
2123

> <Probability>
0.00

> <Sum Probability>
99.80

> <Delta G>
4.335

> <G>
62.482

> <E>
24.523

> <-TS>
37.959

> <U+W>
0.378

> <U>
52.294

> <W>
-51.916

> <W(PB)>
-54.355

> <W(SA)>
2.439

> <Valence>
4.642

> <Coulomb>
47.211

> <VdW>
0.441

> <VdW6>
-9.834

> <VdW12>
10.275

> <Bond>
0.247

> <Angle>
1.461

> <Pdih>
2.934

> <Idih>
0.000

> <Tether>
0.000

$$$$
VeraChem MOL file


 29 28  0  0  0  0  0  0  0  0999 V2000     
   20.4534   19.7027   20.3104 C   0  0  0  0  0  0  0  0  0  0  0  0
   21.1598   18.9015   20.5604 H   0  0  0  0  0  0  0  0  0  0  0  0
   19.6667   19.2816   19.6710 H   0  0  0  0  0  0  0  0  0  0  0  0
   20.9993   20.4515   19.7220 H   0  0  0  0  0  0  0  0  0  0  0  0
   19.8520   20.3467   21.5800 C   0  0  0  0  0  0  0  0  0  0  0  0
   19.2542   21.2200   21.2837 H   0  0  0  0  0  0  0  0  0  0  0  0
   20.6602   20.7298   22.2185 H   0  0  0  0  0  0  0  0  0  0  0  0
   18.9537   19.3845   22.3939 C   0  0  0  0  0  0  0  0  0  0  0  0
   18.4785   19.9615   23.1966 H   0  0  0  0  0  0  0  0  0  0  0  0
   18.1383   19.0158   21.7565 H   0  0  0  0  0  0  0  0  0  0  0  0
   19.7263   18.1834   22.9962 C   0  0  0  0  0  0  0  0  0  0  0  0
   20.5857   18.5350   23.5803 H   0  0  0  0  0  0  0  0  0  0  0  0
   20.1486   17.5830   22.1800 H   0  0  0  0  0  0  0  0  0  0  0  0
   18.8436   17.2484   23.8610 C   0  0  0  0  0  0  0  0  0  0  0  0
   18.0528   16.8264   23.2256 H   0  0  0  0  0  0  0  0  0  0  0  0
   19.4534   16.3928   24.1823 H   0  0  0  0  0  0  0  0  0  0  0  0
   18.1827   17.8852   25.1139 C   0  0  0  0  0  0  0  0  0  0  0  0
   17.5845   17.1020   25.5997 H   0  0  0  0  0  0  0  0  0  0  0  0
   17.4620   18.6606   24.8225 H   0  0  0  0  0  0  0  0  0  0  0  0
   19.1767   18.4436   26.1637 C   0  0  0  0  0  0  0  0  0  0  0  0
   18.6959   18.4118   27.1505 H   0  0  0  0  0  0  0  0  0  0  0  0
   20.0600   17.7945   26.2283 H   0  0  0  0  0  0  0  0  0  0  0  0
   19.6016   19.8984   25.8864 C   0  0  0  0  0  0  0  0  0  0  0  0
   18.7171   20.5409   25.8691 H   0  0  0  0  0  0  0  0  0  0  0  0
   20.0942   19.9704   24.9151 H   0  0  0  0  0  0  0  0  0  0  0  0
   20.5541   20.4452   26.9296 N   0  3  0  0  0  0  0  0  0  0  0  0
   20.1388   20.4365   27.8670 H   0  0  0  0  0  0  0  0  0  0  0  0
   20.8218   21.4153   26.7303 H   0  0  0  0  0  0  0  0  0  0  0  0
   21.4208   19.8995   26.9784 H   0  0  0  0  0  0  0  0  0  0  0  0
  1  2  1  0  0  0  0
  1  3  1  0  0  0  0
  1  4  1  0  0  0  0
  1  5  1  0  0  0  0
  5  6  1  0  0  0  0
  5  7  1  0  0  0  0
  5  8  1  0  0  0  0
  8  9  1  0  0  0  0
  8 10  1  0  0  0  0
  8 11  1  0  0  0  0
 11 12  1  0  0  0  0
 11 13  1  0  0  0  0
 11 14  1  0  0  0  0
 14 15  1  0  0  0  0
 14 16  1  0  0  0  0
 14 17  1  0  0  0  0
 17 18  1  0  0  0  0
 17 19  1  0  0  0  0
 17 20  1  0  0  0  0
 20 21  1  0  0  0  0
 20 22  1  0  0  0  0
 20 23  1  0  0  0  0
 23 24  1  0  0  0  0
 23 25  1  0  0  0  0
 23 26  1  0  0  0  0
 26 27  1  0  0  0  0
 26 28  1  0  0  0  0
 26 29  1  0  0  0  0
M  END
> <VM2 Rank>
338

> <Conf_Id>
2080

> <Probability>
0.00

> <Sum Probability>
99.80

> <Delta G>
4.339

> <G>
62.486

> <E>
24.317

> <-TS>
38.169

> <U+W>
0.172

> <U>
52.832

> <W>
-52.660

> <W(PB)>
-55.092

> <W(SA)>
2.433

> <Valence>
6.054

> <Coulomb>
46.264

> <VdW>
0.513

> <VdW6>
-10.689

> <VdW12>
11.203

> <Bond>
0.304

> <Angle>
2.010

> <Pdih>
3.740

> <Idih>
0.000

> <Tether>
0.000

$$$$
VeraChem MOL file


 29 28  0  0  0  0  0  0  0  0999 V2000     
   20.7915   18.4042   20.4177 C   0  0  0  0  0  0  0  0  0  0  0  0
   21.3526   18.4503   21.3573 H   0  0  0  0  0  0  0  0  0  0  0  0
   21.0636   17.4673   19.9146 H   0  0  0  0  0  0  0  0  0  0  0  0
   21.1279   19.2332   19.7817 H   0  0  0  0  0  0  0  0  0  0  0  0
   19.2636   18.4698   20.6474 C   0  0  0  0  0  0  0  0  0  0  0  0
   18.9283   17.6037   21.2349 H   0  0  0  0  0  0  0  0  0  0  0  0
   18.7710   18.3804   19.6690 H   0  0  0  0  0  0  0  0  0  0  0  0
   18.7951   19.7880   21.3158 C   0  0  0  0  0  0  0  0  0  0  0  0
   19.4582   20.6162   21.0303 H   0  0  0  0  0  0  0  0  0  0  0  0
   17.8082   20.0453   20.9068 H   0  0  0  0  0  0  0  0  0  0  0  0
   18.6559   19.7220   22.8586 C   0  0  0  0  0  0  0  0  0  0  0  0
   17.9174   18.9518   23.1171 H   0  0  0  0  0  0  0  0  0  0  0  0
   18.2399   20.6773   23.2072 H   0  0  0  0  0  0  0  0  0  0  0  0
   19.9839   19.4489   23.6061 C   0  0  0  0  0  0  0  0  0  0  0  0
   20.3205   18.4239   23.4035 H   0  0  0  0  0  0  0  0  0  0  0  0
   20.7603   20.1205   23.2146 H   0  0  0  0  0  0  0  0  0  0  0  0
   19.8839   19.6534   25.1376 C   0  0  0  0  0  0  0  0  0  0  0  0
   19.5649   20.6829   25.3514 H   0  0  0  0  0  0  0  0  0  0  0  0
   20.8906   19.5477   25.5631 H   0  0  0  0  0  0  0  0  0  0  0  0
   18.9235   18.6552   25.8315 C   0  0  0  0  0  0  0  0  0  0  0  0
   17.9076   18.7823   25.4373 H   0  0  0  0  0  0  0  0  0  0  0  0
   19.2231   17.6237   25.6033 H   0  0  0  0  0  0  0  0  0  0  0  0
   18.8684   18.8485   27.3592 C   0  0  0  0  0  0  0  0  0  0  0  0
   18.1078   18.1858   27.7809 H   0  0  0  0  0  0  0  0  0  0  0  0
   18.5881   19.8798   27.5899 H   0  0  0  0  0  0  0  0  0  0  0  0
   20.1782   18.5480   28.0611 N   0  3  0  0  0  0  0  0  0  0  0  0
   20.4836   17.5826   27.8996 H   0  0  0  0  0  0  0  0  0  0  0  0
   20.1033   18.6732   29.0766 H   0  0  0  0  0  0  0  0  0  0  0  0
   20.9317   19.1626   27.7376 H   0  0  0  0  0  0  0  0  0  0  0  0
  1  2  1  0  0  0  0
  1  3  1  0  0  0  0
  1  4  1  0  0  0  0
  1  5  1  0  0  0  0
  5  6  1  0  0  0  0
  5  7  1  0  0  0  0
  5  8  1  0  0  0  0
  8  9  1  0  0  0  0
  8 10  1  0  0  0  0
  8 11  1  0  0  0  0
 11 12  1  0  0  0  0
 11 13  1  0  0  0  0
 11 14  1  0  0  0  0
 14 15  1  0  0  0  0
 14 16  1  0  0  0  0
 14 17  1  0  0  0  0
 17 18  1  0  0  0  0
 17 19  1  0  0  0  0
 17 20  1  0  0  0  0
 20 21  1  0  0  0  0
 20 22  1  0  0  0  0
 20 23  1  0  0  0  0
 23 24  1  0  0  0  0
 23 25  1  0  0  0  0
 23 26  1  0  0  0  0
 26 27  1  0  0  0  0
 26 28  1  0  0  0  0
 26 29  1  0  0  0  0
M  END
> <VM2 Rank>
339

> <Conf_Id>
648

> <Probability>
0.00

> <Sum Probability>
99.81

> <Delta G>
4.352

> <G>
62.498

> <E>
24.766

> <-TS>
37.733

> <U+W>
0.621

> <U>
52.316

> <W>
-51.695

> <W(PB)>
-54.162

> <W(SA)>
2.468

> <Valence>
6.187

> <Coulomb>
45.052

> <VdW>
1.077

> <VdW6>
-9.659

> <VdW12>
10.736

> <Bond>
0.292

> <Angle>
1.476

> <Pdih>
4.419

> <Idih>
0.000

> <Tether>
0.000

$$$$
VeraChem MOL file


 29 28  0  0  0  0  0  0  0  0999 V2000     
   19.3501   18.2932   19.7524 C   0  0  0  0  0  0  0  0  0  0  0  0
   19.5557   19.2449   19.2452 H   0  0  0  0  0  0  0  0  0  0  0  0
   20.1845   17.6096   19.5484 H   0  0  0  0  0  0  0  0  0  0  0  0
   18.4445   17.8620   19.3062 H   0  0  0  0  0  0  0  0  0  0  0  0
   19.1627   18.5033   21.2699 C   0  0  0  0  0  0  0  0  0  0  0  0
   18.9296   17.5401   21.7448 H   0  0  0  0  0  0  0  0  0  0  0  0
   18.2966   19.1578   21.4345 H   0  0  0  0  0  0  0  0  0  0  0  0
   20.4259   19.1147   21.9207 C   0  0  0  0  0  0  0  0  0  0  0  0
   21.2926   18.4844   21.6782 H   0  0  0  0  0  0  0  0  0  0  0  0
   20.6295   20.1007   21.4808 H   0  0  0  0  0  0  0  0  0  0  0  0
   20.3272   19.2419   23.4606 C   0  0  0  0  0  0  0  0  0  0  0  0
   21.3036   19.5707   23.8417 H   0  0  0  0  0  0  0  0  0  0  0  0
   20.1468   18.2485   23.8857 H   0  0  0  0  0  0  0  0  0  0  0  0
   19.2399   20.2453   23.9248 C   0  0  0  0  0  0  0  0  0  0  0  0
   19.4051   21.1937   23.3950 H   0  0  0  0  0  0  0  0  0  0  0  0
   18.2407   19.9011   23.6279 H   0  0  0  0  0  0  0  0  0  0  0  0
   19.2572   20.5381   25.4481 C   0  0  0  0  0  0  0  0  0  0  0  0
   18.8519   21.5482   25.5990 H   0  0  0  0  0  0  0  0  0  0  0  0
   20.2899   20.5815   25.8189 H   0  0  0  0  0  0  0  0  0  0  0  0
   18.4047   19.5692   26.3103 C   0  0  0  0  0  0  0  0  0  0  0  0
   18.3881   19.9365   27.3451 H   0  0  0  0  0  0  0  0  0  0  0  0
   17.3632   19.5983   25.9637 H   0  0  0  0  0  0  0  0  0  0  0  0
   18.8804   18.1041   26.3178 C   0  0  0  0  0  0  0  0  0  0  0  0
   18.8246   17.6910   25.3084 H   0  0  0  0  0  0  0  0  0  0  0  0
   18.2202   17.5135   26.9587 H   0  0  0  0  0  0  0  0  0  0  0  0
   20.2959   17.9282   26.8305 N   0  3  0  0  0  0  0  0  0  0  0  0
   20.3946   18.2663   27.7933 H   0  0  0  0  0  0  0  0  0  0  0  0
   20.9696   18.4448   26.2567 H   0  0  0  0  0  0  0  0  0  0  0  0
   20.5836   16.9435   26.8269 H   0  0  0  0  0  0  0  0  0  0  0  0
  1  2  1  0  0  0  0
  1  3  1  0  0  0  0
  1  4  1  0  0  0  0
  1  5  1  0  0  0  0
  5  6  1  0  0  0  0
  5  7  1  0  0  0  0
  5  8  1  0  0  0  0
  8  9  1  0  0  0  0
  8 10  1  0  0  0  0
  8 11  1  0  0  0  0
 11 12  1  0  0  0  0
 11 13  1  0  0  0  0
 11 14  1  0  0  0  0
 14 15  1  0  0  0  0
 14 16  1  0  0  0  0
 14 17  1  0  0  0  0
 17 18  1  0  0  0  0
 17 19  1  0  0  0  0
 17 20  1  0  0  0  0
 20 21  1  0  0  0  0
 20 22  1  0  0  0  0
 20 23  1  0  0  0  0
 23 24  1  0  0  0  0
 23 25  1  0  0  0  0
 23 26  1  0  0  0  0
 26 27  1  0  0  0  0
 26 28  1  0  0  0  0
 26 29  1  0  0  0  0
M  END
> <VM2 Rank>
340

> <Conf_Id>
666

> <Probability>
0.00

> <Sum Probability>
99.81

> <Delta G>
4.353

> <G>
62.499

> <E>
24.720

> <-TS>
37.779

> <U+W>
0.575

> <U>
53.002

> <W>
-52.427

> <W(PB)>
-54.857

> <W(SA)>
2.430

> <Valence>
5.790

> <Coulomb>
46.543

> <VdW>
0.669

> <VdW6>
-10.153

> <VdW12>
10.822

> <Bond>
0.297

> <Angle>
1.685

> <Pdih>
3.807

> <Idih>
0.000

> <Tether>
0.000

$$$$
VeraChem MOL file


 29 28  0  0  0  0  0  0  0  0999 V2000     
   20.8958   19.3528   20.5673 C   0  0  0  0  0  0  0  0  0  0  0  0
   21.0710   18.2714   20.4985 H   0  0  0  0  0  0  0  0  0  0  0  0
   21.4695   19.8377   19.7668 H   0  0  0  0  0  0  0  0  0  0  0  0
   21.2974   19.7123   21.5227 H   0  0  0  0  0  0  0  0  0  0  0  0
   19.3936   19.6833   20.4307 C   0  0  0  0  0  0  0  0  0  0  0  0
   19.0728   19.4484   19.4062 H   0  0  0  0  0  0  0  0  0  0  0  0
   19.2459   20.7651   20.5554 H   0  0  0  0  0  0  0  0  0  0  0  0
   18.4791   18.9173   21.4206 C   0  0  0  0  0  0  0  0  0  0  0  0
   17.4405   19.1940   21.1925 H   0  0  0  0  0  0  0  0  0  0  0  0
   18.5447   17.8361   21.2367 H   0  0  0  0  0  0  0  0  0  0  0  0
   18.7443   19.2262   22.9171 C   0  0  0  0  0  0  0  0  0  0  0  0
   17.7793   19.2270   23.4406 H   0  0  0  0  0  0  0  0  0  0  0  0
   19.1518   20.2407   23.0250 H   0  0  0  0  0  0  0  0  0  0  0  0
   19.6764   18.1928   23.6004 C   0  0  0  0  0  0  0  0  0  0  0  0
   19.1935   17.2060   23.5985 H   0  0  0  0  0  0  0  0  0  0  0  0
   20.5981   18.0786   23.0177 H   0  0  0  0  0  0  0  0  0  0  0  0
   20.0623   18.5759   25.0500 C   0  0  0  0  0  0  0  0  0  0  0  0
   20.5707   19.5493   25.0434 H   0  0  0  0  0  0  0  0  0  0  0  0
   20.7954   17.8456   25.4199 H   0  0  0  0  0  0  0  0  0  0  0  0
   18.8559   18.6132   26.0209 C   0  0  0  0  0  0  0  0  0  0  0  0
   18.1575   19.4098   25.7349 H   0  0  0  0  0  0  0  0  0  0  0  0
   18.3024   17.6674   25.9504 H   0  0  0  0  0  0  0  0  0  0  0  0
   19.2831   18.8205   27.4865 C   0  0  0  0  0  0  0  0  0  0  0  0
   19.9782   18.0302   27.7827 H   0  0  0  0  0  0  0  0  0  0  0  0
   18.4035   18.7615   28.1332 H   0  0  0  0  0  0  0  0  0  0  0  0
   19.9534   20.1561   27.7415 N   0  3  0  0  0  0  0  0  0  0  0  0
   20.8092   20.2621   27.1877 H   0  0  0  0  0  0  0  0  0  0  0  0
   20.2167   20.2680   28.7268 H   0  0  0  0  0  0  0  0  0  0  0  0
   19.3388   20.9416   27.5040 H   0  0  0  0  0  0  0  0  0  0  0  0
  1  2  1  0  0  0  0
  1  3  1  0  0  0  0
  1  4  1  0  0  0  0
  1  5  1  0  0  0  0
  5  6  1  0  0  0  0
  5  7  1  0  0  0  0
  5  8  1  0  0  0  0
  8  9  1  0  0  0  0
  8 10  1  0  0  0  0
  8 11  1  0  0  0  0
 11 12  1  0  0  0  0
 11 13  1  0  0  0  0
 11 14  1  0  0  0  0
 14 15  1  0  0  0  0
 14 16  1  0  0  0  0
 14 17  1  0  0  0  0
 17 18  1  0  0  0  0
 17 19  1  0  0  0  0
 17 20  1  0  0  0  0
 20 21  1  0  0  0  0
 20 22  1  0  0  0  0
 20 23  1  0  0  0  0
 23 24  1  0  0  0  0
 23 25  1  0  0  0  0
 23 26  1  0  0  0  0
 26 27  1  0  0  0  0
 26 28  1  0  0  0  0
 26 29  1  0  0  0  0
M  END
> <VM2 Rank>
341

> <Conf_Id>
2608

> <Probability>
0.00

> <Sum Probability>
99.81

> <Delta G>
4.358

> <G>
62.504

> <E>
24.712

> <-TS>
37.792

> <U+W>
0.567

> <U>
52.514

> <W>
-51.947

> <W(PB)>
-54.383

> <W(SA)>
2.436

> <Valence>
6.227

> <Coulomb>
45.243

> <VdW>
1.044

> <VdW6>
-9.693

> <VdW12>
10.737

> <Bond>
0.292

> <Angle>
1.377

> <Pdih>
4.558

> <Idih>
0.000

> <Tether>
0.000

$$$$
VeraChem MOL file


 29 28  0  0  0  0  0  0  0  0999 V2000     
   20.4827   20.0799   20.5060 C   0  0  0  0  0  0  0  0  0  0  0  0
   20.3847   20.7110   21.3980 H   0  0  0  0  0  0  0  0  0  0  0  0
   21.3828   19.4608   20.6122 H   0  0  0  0  0  0  0  0  0  0  0  0
   20.6330   20.7467   19.6471 H   0  0  0  0  0  0  0  0  0  0  0  0
   19.2271   19.2056   20.2971 C   0  0  0  0  0  0  0  0  0  0  0  0
   19.3013   18.7104   19.3188 H   0  0  0  0  0  0  0  0  0  0  0  0
   18.3388   19.8505   20.2451 H   0  0  0  0  0  0  0  0  0  0  0  0
   19.0174   18.1202   21.3836 C   0  0  0  0  0  0  0  0  0  0  0  0
   18.1317   17.5351   21.0994 H   0  0  0  0  0  0  0  0  0  0  0  0
   19.8560   17.4104   21.3761 H   0  0  0  0  0  0  0  0  0  0  0  0
   18.7927   18.6733   22.8150 C   0  0  0  0  0  0  0  0  0  0  0  0
   18.0594   18.0287   23.3170 H   0  0  0  0  0  0  0  0  0  0  0  0
   18.3385   19.6724   22.7648 H   0  0  0  0  0  0  0  0  0  0  0  0
   20.0867   18.7088   23.6682 C   0  0  0  0  0  0  0  0  0  0  0  0
   20.4516   17.6843   23.8240 H   0  0  0  0  0  0  0  0  0  0  0  0
   20.8798   19.2308   23.1198 H   0  0  0  0  0  0  0  0  0  0  0  0
   19.9057   19.4061   25.0389 C   0  0  0  0  0  0  0  0  0  0  0  0
   19.5550   20.4358   24.8833 H   0  0  0  0  0  0  0  0  0  0  0  0
   20.8922   19.4848   25.5146 H   0  0  0  0  0  0  0  0  0  0  0  0
   18.9340   18.6625   25.9892 C   0  0  0  0  0  0  0  0  0  0  0  0
   17.9341   18.6205   25.5398 H   0  0  0  0  0  0  0  0  0  0  0  0
   19.2621   17.6235   26.1260 H   0  0  0  0  0  0  0  0  0  0  0  0
   18.8079   19.3471   27.3639 C   0  0  0  0  0  0  0  0  0  0  0  0
   18.0403   18.8378   27.9530 H   0  0  0  0  0  0  0  0  0  0  0  0
   18.5006   20.3878   27.2302 H   0  0  0  0  0  0  0  0  0  0  0  0
   20.0899   19.3345   28.1731 N   0  3  0  0  0  0  0  0  0  0  0  0
   20.8469   19.8305   27.6925 H   0  0  0  0  0  0  0  0  0  0  0  0
   20.4179   18.3795   28.3511 H   0  0  0  0  0  0  0  0  0  0  0  0
   19.9678   19.7850   29.0868 H   0  0  0  0  0  0  0  0  0  0  0  0
  1  2  1  0  0  0  0
  1  3  1  0  0  0  0
  1  4  1  0  0  0  0
  1  5  1  0  0  0  0
  5  6  1  0  0  0  0
  5  7  1  0  0  0  0
  5  8  1  0  0  0  0
  8  9  1  0  0  0  0
  8 10  1  0  0  0  0
  8 11  1  0  0  0  0
 11 12  1  0  0  0  0
 11 13  1  0  0  0  0
 11 14  1  0  0  0  0
 14 15  1  0  0  0  0
 14 16  1  0  0  0  0
 14 17  1  0  0  0  0
 17 18  1  0  0  0  0
 17 19  1  0  0  0  0
 17 20  1  0  0  0  0
 20 21  1  0  0  0  0
 20 22  1  0  0  0  0
 20 23  1  0  0  0  0
 23 24  1  0  0  0  0
 23 25  1  0  0  0  0
 23 26  1  0  0  0  0
 26 27  1  0  0  0  0
 26 28  1  0  0  0  0
 26 29  1  0  0  0  0
M  END
> <VM2 Rank>
342

> <Conf_Id>
2941

> <Probability>
0.00

> <Sum Probability>
99.82

> <Delta G>
4.364

> <G>
62.511

> <E>
24.744

> <-TS>
37.767

> <U+W>
0.599

> <U>
52.368

> <W>
-51.769

> <W(PB)>
-54.214

> <W(SA)>
2.445

> <Valence>
6.262

> <Coulomb>
45.003

> <VdW>
1.103

> <VdW6>
-9.650

> <VdW12>
10.753

> <Bond>
0.297

> <Angle>
1.422

> <Pdih>
4.543

> <Idih>
0.000

> <Tether>
0.000

$$$$
VeraChem MOL file


 29 28  0  0  0  0  0  0  0  0999 V2000     
   19.9202   19.9016   19.7875 C   0  0  0  0  0  0  0  0  0  0  0  0
   19.4896   19.0527   19.2406 H   0  0  0  0  0  0  0  0  0  0  0  0
   19.4931   20.8229   19.3705 H   0  0  0  0  0  0  0  0  0  0  0  0
   21.0017   19.9165   19.5994 H   0  0  0  0  0  0  0  0  0  0  0  0
   19.6206   19.7971   21.2978 C   0  0  0  0  0  0  0  0  0  0  0  0
   18.5333   19.8263   21.4481 H   0  0  0  0  0  0  0  0  0  0  0  0
   20.0376   20.6735   21.8133 H   0  0  0  0  0  0  0  0  0  0  0  0
   20.2097   18.5031   21.9073 C   0  0  0  0  0  0  0  0  0  0  0  0
   19.7549   17.6262   21.4264 H   0  0  0  0  0  0  0  0  0  0  0  0
   21.2833   18.4576   21.6782 H   0  0  0  0  0  0  0  0  0  0  0  0
   20.0310   18.4064   23.4422 C   0  0  0  0  0  0  0  0  0  0  0  0
   20.5091   19.2748   23.9084 H   0  0  0  0  0  0  0  0  0  0  0  0
   20.5780   17.5223   23.7970 H   0  0  0  0  0  0  0  0  0  0  0  0
   18.5481   18.2925   23.8812 C   0  0  0  0  0  0  0  0  0  0  0  0
   17.9921   19.2000   23.6121 H   0  0  0  0  0  0  0  0  0  0  0  0
   18.0877   17.4733   23.3118 H   0  0  0  0  0  0  0  0  0  0  0  0
   18.3556   17.9938   25.3912 C   0  0  0  0  0  0  0  0  0  0  0  0
   19.1254   17.2955   25.7454 H   0  0  0  0  0  0  0  0  0  0  0  0
   17.4029   17.4589   25.5074 H   0  0  0  0  0  0  0  0  0  0  0  0
   18.2907   19.2480   26.3033 C   0  0  0  0  0  0  0  0  0  0  0  0
   17.4682   19.8947   25.9703 H   0  0  0  0  0  0  0  0  0  0  0  0
   18.0319   18.9321   27.3226 H   0  0  0  0  0  0  0  0  0  0  0  0
   19.5824   20.0853   26.3628 C   0  0  0  0  0  0  0  0  0  0  0  0
   19.4321   20.9334   27.0363 H   0  0  0  0  0  0  0  0  0  0  0  0
   19.8134   20.4816   25.3717 H   0  0  0  0  0  0  0  0  0  0  0  0
   20.7857   19.3103   26.8617 N   0  3  0  0  0  0  0  0  0  0  0  0
   20.6359   18.9470   27.8087 H   0  0  0  0  0  0  0  0  0  0  0  0
   21.6290   19.8935   26.8936 H   0  0  0  0  0  0  0  0  0  0  0  0
   20.9921   18.5085   26.2581 H   0  0  0  0  0  0  0  0  0  0  0  0
  1  2  1  0  0  0  0
  1  3  1  0  0  0  0
  1  4  1  0  0  0  0
  1  5  1  0  0  0  0
  5  6  1  0  0  0  0
  5  7  1  0  0  0  0
  5  8  1  0  0  0  0
  8  9  1  0  0  0  0
  8 10  1  0  0  0  0
  8 11  1  0  0  0  0
 11 12  1  0  0  0  0
 11 13  1  0  0  0  0
 11 14  1  0  0  0  0
 14 15  1  0  0  0  0
 14 16  1  0  0  0  0
 14 17  1  0  0  0  0
 17 18  1  0  0  0  0
 17 19  1  0  0  0  0
 17 20  1  0  0  0  0
 20 21  1  0  0  0  0
 20 22  1  0  0  0  0
 20 23  1  0  0  0  0
 23 24  1  0  0  0  0
 23 25  1  0  0  0  0
 23 26  1  0  0  0  0
 26 27  1  0  0  0  0
 26 28  1  0  0  0  0
 26 29  1  0  0  0  0
M  END
> <VM2 Rank>
343

> <Conf_Id>
2334

> <Probability>
0.00

> <Sum Probability>
99.82

> <Delta G>
4.384

> <G>
62.530

> <E>
24.752

> <-TS>
37.779

> <U+W>
0.607

> <U>
53.002

> <W>
-52.395

> <W(PB)>
-54.842

> <W(SA)>
2.448

> <Valence>
5.790

> <Coulomb>
46.543

> <VdW>
0.670

> <VdW6>
-10.153

> <VdW12>
10.823

> <Bond>
0.297

> <Angle>
1.687

> <Pdih>
3.806

> <Idih>
0.000

> <Tether>
0.000

$$$$
VeraChem MOL file


 29 28  0  0  0  0  0  0  0  0999 V2000     
   19.9920   18.1829   19.9007 C   0  0  0  0  0  0  0  0  0  0  0  0
   19.8350   17.1227   19.6632 H   0  0  0  0  0  0  0  0  0  0  0  0
   19.3326   18.7750   19.2526 H   0  0  0  0  0  0  0  0  0  0  0  0
   21.0314   18.4332   19.6514 H   0  0  0  0  0  0  0  0  0  0  0  0
   19.6963   18.4570   21.3905 C   0  0  0  0  0  0  0  0  0  0  0  0
   20.3530   17.8345   22.0141 H   0  0  0  0  0  0  0  0  0  0  0  0
   18.6624   18.1571   21.6032 H   0  0  0  0  0  0  0  0  0  0  0  0
   19.8920   19.9480   21.7457 C   0  0  0  0  0  0  0  0  0  0  0  0
   20.8665   20.2796   21.3614 H   0  0  0  0  0  0  0  0  0  0  0  0
   19.1374   20.5497   21.2208 H   0  0  0  0  0  0  0  0  0  0  0  0
   19.8424   20.2634   23.2631 C   0  0  0  0  0  0  0  0  0  0  0  0
   20.0459   21.3372   23.3761 H   0  0  0  0  0  0  0  0  0  0  0  0
   20.6694   19.7597   23.7770 H   0  0  0  0  0  0  0  0  0  0  0  0
   18.4844   19.9657   23.9571 C   0  0  0  0  0  0  0  0  0  0  0  0
   18.3347   20.7037   24.7564 H   0  0  0  0  0  0  0  0  0  0  0  0
   17.6666   20.1463   23.2461 H   0  0  0  0  0  0  0  0  0  0  0  0
   18.3285   18.5441   24.5676 C   0  0  0  0  0  0  0  0  0  0  0  0
   18.3684   17.7838   23.7799 H   0  0  0  0  0  0  0  0  0  0  0  0
   17.3209   18.4659   24.9988 H   0  0  0  0  0  0  0  0  0  0  0  0
   19.3591   18.1771   25.6653 C   0  0  0  0  0  0  0  0  0  0  0  0
   19.1078   17.1860   26.0658 H   0  0  0  0  0  0  0  0  0  0  0  0
   20.3610   18.0825   25.2288 H   0  0  0  0  0  0  0  0  0  0  0  0
   19.3904   19.1921   26.8228 C   0  0  0  0  0  0  0  0  0  0  0  0
   18.3940   19.2774   27.2645 H   0  0  0  0  0  0  0  0  0  0  0  0
   19.6854   20.1742   26.4440 H   0  0  0  0  0  0  0  0  0  0  0  0
   20.3590   18.8078   27.9223 N   0  3  0  0  0  0  0  0  0  0  0  0
   20.1211   17.9025   28.3411 H   0  0  0  0  0  0  0  0  0  0  0  0
   20.3647   19.4965   28.6827 H   0  0  0  0  0  0  0  0  0  0  0  0
   21.3214   18.7369   27.5758 H   0  0  0  0  0  0  0  0  0  0  0  0
  1  2  1  0  0  0  0
  1  3  1  0  0  0  0
  1  4  1  0  0  0  0
  1  5  1  0  0  0  0
  5  6  1  0  0  0  0
  5  7  1  0  0  0  0
  5  8  1  0  0  0  0
  8  9  1  0  0  0  0
  8 10  1  0  0  0  0
  8 11  1  0  0  0  0
 11 12  1  0  0  0  0
 11 13  1  0  0  0  0
 11 14  1  0  0  0  0
 14 15  1  0  0  0  0
 14 16  1  0  0  0  0
 14 17  1  0  0  0  0
 17 18  1  0  0  0  0
 17 19  1  0  0  0  0
 17 20  1  0  0  0  0
 20 21  1  0  0  0  0
 20 22  1  0  0  0  0
 20 23  1  0  0  0  0
 23 24  1  0  0  0  0
 23 25  1  0  0  0  0
 23 26  1  0  0  0  0
 26 27  1  0  0  0  0
 26 28  1  0  0  0  0
 26 29  1  0  0  0  0
M  END
> <VM2 Rank>
344

> <Conf_Id>
2008

> <Probability>
0.00

> <Sum Probability>
99.82

> <Delta G>
4.385

> <G>
62.532

> <E>
25.143

> <-TS>
37.389

> <U+W>
0.998

> <U>
53.173

> <W>
-52.174

> <W(PB)>
-54.622

> <W(SA)>
2.448

> <Valence>
6.654

> <Coulomb>
45.652

> <VdW>
0.867

> <VdW6>
-10.075

> <VdW12>
10.943

> <Bond>
0.342

> <Angle>
2.207

> <Pdih>
4.105

> <Idih>
0.000

> <Tether>
0.000

$$$$
VeraChem MOL file


 29 28  0  0  0  0  0  0  0  0999 V2000     
   19.2465   19.0678   19.6890 C   0  0  0  0  0  0  0  0  0  0  0  0
   20.2944   18.9754   19.3752 H   0  0  0  0  0  0  0  0  0  0  0  0
   18.6149   18.7584   18.8462 H   0  0  0  0  0  0  0  0  0  0  0  0
   19.0380   20.1267   19.8860 H   0  0  0  0  0  0  0  0  0  0  0  0
   18.9590   18.1927   20.9300 C   0  0  0  0  0  0  0  0  0  0  0  0
   19.0644   17.1353   20.6498 H   0  0  0  0  0  0  0  0  0  0  0  0
   17.9136   18.3257   21.2414 H   0  0  0  0  0  0  0  0  0  0  0  0
   19.9007   18.4869   22.1223 C   0  0  0  0  0  0  0  0  0  0  0  0
   19.7023   17.7493   22.9089 H   0  0  0  0  0  0  0  0  0  0  0  0
   20.9425   18.3259   21.8125 H   0  0  0  0  0  0  0  0  0  0  0  0
   19.7463   19.9218   22.6886 C   0  0  0  0  0  0  0  0  0  0  0  0
   18.6879   20.1499   22.8743 H   0  0  0  0  0  0  0  0  0  0  0  0
   20.0821   20.6357   21.9249 H   0  0  0  0  0  0  0  0  0  0  0  0
   20.5778   20.1652   23.9751 C   0  0  0  0  0  0  0  0  0  0  0  0
   21.4600   19.5104   23.9886 H   0  0  0  0  0  0  0  0  0  0  0  0
   20.9716   21.1904   23.9392 H   0  0  0  0  0  0  0  0  0  0  0  0
   19.7829   20.0172   25.2982 C   0  0  0  0  0  0  0  0  0  0  0  0
   18.9661   20.7519   25.3161 H   0  0  0  0  0  0  0  0  0  0  0  0
   20.4522   20.2840   26.1266 H   0  0  0  0  0  0  0  0  0  0  0  0
   19.2041   18.6016   25.5393 C   0  0  0  0  0  0  0  0  0  0  0  0
   18.4708   18.3681   24.7573 H   0  0  0  0  0  0  0  0  0  0  0  0
   20.0010   17.8499   25.4666 H   0  0  0  0  0  0  0  0  0  0  0  0
   18.4974   18.4724   26.9024 C   0  0  0  0  0  0  0  0  0  0  0  0
   18.0202   17.4910   26.9711 H   0  0  0  0  0  0  0  0  0  0  0  0
   17.7201   19.2364   26.9883 H   0  0  0  0  0  0  0  0  0  0  0  0
   19.4293   18.6124   28.0901 N   0  3  0  0  0  0  0  0  0  0  0  0
   19.8858   19.5297   28.1082 H   0  0  0  0  0  0  0  0  0  0  0  0
   20.1710   17.9047   28.0772 H   0  0  0  0  0  0  0  0  0  0  0  0
   18.9299   18.5076   28.9802 H   0  0  0  0  0  0  0  0  0  0  0  0
  1  2  1  0  0  0  0
  1  3  1  0  0  0  0
  1  4  1  0  0  0  0
  1  5  1  0  0  0  0
  5  6  1  0  0  0  0
  5  7  1  0  0  0  0
  5  8  1  0  0  0  0
  8  9  1  0  0  0  0
  8 10  1  0  0  0  0
  8 11  1  0  0  0  0
 11 12  1  0  0  0  0
 11 13  1  0  0  0  0
 11 14  1  0  0  0  0
 14 15  1  0  0  0  0
 14 16  1  0  0  0  0
 14 17  1  0  0  0  0
 17 18  1  0  0  0  0
 17 19  1  0  0  0  0
 17 20  1  0  0  0  0
 20 21  1  0  0  0  0
 20 22  1  0  0  0  0
 20 23  1  0  0  0  0
 23 24  1  0  0  0  0
 23 25  1  0  0  0  0
 23 26  1  0  0  0  0
 26 27  1  0  0  0  0
 26 28  1  0  0  0  0
 26 29  1  0  0  0  0
M  END
> <VM2 Rank>
345

> <Conf_Id>
676

> <Probability>
0.00

> <Sum Probability>
99.83

> <Delta G>
4.401

> <G>
62.547

> <E>
24.733

> <-TS>
37.814

> <U+W>
0.589

> <U>
52.521

> <W>
-51.932

> <W(PB)>
-54.379

> <W(SA)>
2.446

> <Valence>
6.295

> <Coulomb>
45.163

> <VdW>
1.063

> <VdW6>
-9.724

> <VdW12>
10.787

> <Bond>
0.294

> <Angle>
1.413

> <Pdih>
4.589

> <Idih>
0.000

> <Tether>
0.000

$$$$
VeraChem MOL file


 29 28  0  0  0  0  0  0  0  0999 V2000     
   20.7625   18.2831   20.7800 C   0  0  0  0  0  0  0  0  0  0  0  0
   21.8302   18.1805   20.5464 H   0  0  0  0  0  0  0  0  0  0  0  0
   20.5111   17.5188   21.5232 H   0  0  0  0  0  0  0  0  0  0  0  0
   20.1989   18.0624   19.8642 H   0  0  0  0  0  0  0  0  0  0  0  0
   20.4551   19.7118   21.2859 C   0  0  0  0  0  0  0  0  0  0  0  0
   20.7616   20.4203   20.5037 H   0  0  0  0  0  0  0  0  0  0  0  0
   21.0715   19.9465   22.1648 H   0  0  0  0  0  0  0  0  0  0  0  0
   18.9551   19.9451   21.6018 C   0  0  0  0  0  0  0  0  0  0  0  0
   18.7080   20.9822   21.3358 H   0  0  0  0  0  0  0  0  0  0  0  0
   18.3274   19.3166   20.9552 H   0  0  0  0  0  0  0  0  0  0  0  0
   18.5645   19.7406   23.0880 C   0  0  0  0  0  0  0  0  0  0  0  0
   17.5067   20.0126   23.2068 H   0  0  0  0  0  0  0  0  0  0  0  0
   19.1351   20.4455   23.7071 H   0  0  0  0  0  0  0  0  0  0  0  0
   18.7737   18.2978   23.6081 C   0  0  0  0  0  0  0  0  0  0  0  0
   18.3245   17.5909   22.8970 H   0  0  0  0  0  0  0  0  0  0  0  0
   19.8454   18.0658   23.6410 H   0  0  0  0  0  0  0  0  0  0  0  0
   18.1499   18.0506   25.0058 C   0  0  0  0  0  0  0  0  0  0  0  0
   18.3152   17.0008   25.2852 H   0  0  0  0  0  0  0  0  0  0  0  0
   17.0605   18.1782   24.9420 H   0  0  0  0  0  0  0  0  0  0  0  0
   18.6980   18.9621   26.1319 C   0  0  0  0  0  0  0  0  0  0  0  0
   18.4272   20.0072   25.9344 H   0  0  0  0  0  0  0  0  0  0  0  0
   18.2086   18.6906   27.0767 H   0  0  0  0  0  0  0  0  0  0  0  0
   20.2238   18.8448   26.3031 C   0  0  0  0  0  0  0  0  0  0  0  0
   20.7232   19.1520   25.3804 H   0  0  0  0  0  0  0  0  0  0  0  0
   20.4920   17.8056   26.5112 H   0  0  0  0  0  0  0  0  0  0  0  0
   20.7614   19.7021   27.4304 N   0  3  0  0  0  0  0  0  0  0  0  0
   20.3507   19.4451   28.3341 H   0  0  0  0  0  0  0  0  0  0  0  0
   20.5641   20.6971   27.2810 H   0  0  0  0  0  0  0  0  0  0  0  0
   21.7786   19.6099   27.5274 H   0  0  0  0  0  0  0  0  0  0  0  0
  1  2  1  0  0  0  0
  1  3  1  0  0  0  0
  1  4  1  0  0  0  0
  1  5  1  0  0  0  0
  5  6  1  0  0  0  0
  5  7  1  0  0  0  0
  5  8  1  0  0  0  0
  8  9  1  0  0  0  0
  8 10  1  0  0  0  0
  8 11  1  0  0  0  0
 11 12  1  0  0  0  0
 11 13  1  0  0  0  0
 11 14  1  0  0  0  0
 14 15  1  0  0  0  0
 14 16  1  0  0  0  0
 14 17  1  0  0  0  0
 17 18  1  0  0  0  0
 17 19  1  0  0  0  0
 17 20  1  0  0  0  0
 20 21  1  0  0  0  0
 20 22  1  0  0  0  0
 20 23  1  0  0  0  0
 23 24  1  0  0  0  0
 23 25  1  0  0  0  0
 23 26  1  0  0  0  0
 26 27  1  0  0  0  0
 26 28  1  0  0  0  0
 26 29  1  0  0  0  0
M  END
> <VM2 Rank>
346

> <Conf_Id>
1676

> <Probability>
0.00

> <Sum Probability>
99.83

> <Delta G>
4.407

> <G>
62.553

> <E>
24.677

> <-TS>
37.876

> <U+W>
0.532

> <U>
52.841

> <W>
-52.309

> <W(PB)>
-54.757

> <W(SA)>
2.448

> <Valence>
6.278

> <Coulomb>
45.781

> <VdW>
0.782

> <VdW6>
-10.172

> <VdW12>
10.954

> <Bond>
0.294

> <Angle>
1.612

> <Pdih>
4.372

> <Idih>
0.000

> <Tether>
0.000

$$$$
VeraChem MOL file


 29 28  0  0  0  0  0  0  0  0999 V2000     
   20.6973   20.4690   20.7892 C   0  0  0  0  0  0  0  0  0  0  0  0
   20.8984   21.5402   20.9202 H   0  0  0  0  0  0  0  0  0  0  0  0
   21.6498   19.9324   20.8888 H   0  0  0  0  0  0  0  0  0  0  0  0
   20.3252   20.3186   19.7673 H   0  0  0  0  0  0  0  0  0  0  0  0
   19.6720   19.9756   21.8317 C   0  0  0  0  0  0  0  0  0  0  0  0
   18.7430   20.5531   21.7269 H   0  0  0  0  0  0  0  0  0  0  0  0
   20.0588   20.1831   22.8358 H   0  0  0  0  0  0  0  0  0  0  0  0
   19.3684   18.4676   21.6618 C   0  0  0  0  0  0  0  0  0  0  0  0
   18.9971   18.3096   20.6398 H   0  0  0  0  0  0  0  0  0  0  0  0
   20.2935   17.8803   21.7413 H   0  0  0  0  0  0  0  0  0  0  0  0
   18.3053   17.9256   22.6534 C   0  0  0  0  0  0  0  0  0  0  0  0
   17.7237   17.1537   22.1308 H   0  0  0  0  0  0  0  0  0  0  0  0
   17.5793   18.7089   22.9072 H   0  0  0  0  0  0  0  0  0  0  0  0
   18.8834   17.2695   23.9366 C   0  0  0  0  0  0  0  0  0  0  0  0
   18.0550   16.8285   24.5080 H   0  0  0  0  0  0  0  0  0  0  0  0
   19.5226   16.4256   23.6427 H   0  0  0  0  0  0  0  0  0  0  0  0
   19.6925   18.1988   24.8750 C   0  0  0  0  0  0  0  0  0  0  0  0
   20.5705   18.5920   24.3473 H   0  0  0  0  0  0  0  0  0  0  0  0
   20.0880   17.5871   25.6966 H   0  0  0  0  0  0  0  0  0  0  0  0
   18.8534   19.3594   25.4663 C   0  0  0  0  0  0  0  0  0  0  0  0
   18.4372   19.9719   24.6576 H   0  0  0  0  0  0  0  0  0  0  0  0
   17.9976   18.9565   26.0240 H   0  0  0  0  0  0  0  0  0  0  0  0
   19.6791   20.2797   26.3854 C   0  0  0  0  0  0  0  0  0  0  0  0
   19.0614   21.1245   26.7021 H   0  0  0  0  0  0  0  0  0  0  0  0
   20.5391   20.6726   25.8364 H   0  0  0  0  0  0  0  0  0  0  0  0
   20.1926   19.5928   27.6355 N   0  3  0  0  0  0  0  0  0  0  0  0
   19.4268   19.2206   28.2066 H   0  0  0  0  0  0  0  0  0  0  0  0
   20.7264   20.2353   28.2312 H   0  0  0  0  0  0  0  0  0  0  0  0
   20.8117   18.8080   27.4098 H   0  0  0  0  0  0  0  0  0  0  0  0
  1  2  1  0  0  0  0
  1  3  1  0  0  0  0
  1  4  1  0  0  0  0
  1  5  1  0  0  0  0
  5  6  1  0  0  0  0
  5  7  1  0  0  0  0
  5  8  1  0  0  0  0
  8  9  1  0  0  0  0
  8 10  1  0  0  0  0
  8 11  1  0  0  0  0
 11 12  1  0  0  0  0
 11 13  1  0  0  0  0
 11 14  1  0  0  0  0
 14 15  1  0  0  0  0
 14 16  1  0  0  0  0
 14 17  1  0  0  0  0
 17 18  1  0  0  0  0
 17 19  1  0  0  0  0
 17 20  1  0  0  0  0
 20 21  1  0  0  0  0
 20 22  1  0  0  0  0
 20 23  1  0  0  0  0
 23 24  1  0  0  0  0
 23 25  1  0  0  0  0
 23 26  1  0  0  0  0
 26 27  1  0  0  0  0
 26 28  1  0  0  0  0
 26 29  1  0  0  0  0
M  END
> <VM2 Rank>
347

> <Conf_Id>
2003

> <Probability>
0.00

> <Sum Probability>
99.83

> <Delta G>
4.416

> <G>
62.563

> <E>
24.429

> <-TS>
38.133

> <U+W>
0.285

> <U>
52.641

> <W>
-52.356

> <W(PB)>
-54.772

> <W(SA)>
2.416

> <Valence>
6.340

> <Coulomb>
45.688

> <VdW>
0.614

> <VdW6>
-10.366

> <VdW12>
10.979

> <Bond>
0.304

> <Angle>
1.852

> <Pdih>
4.183

> <Idih>
0.000

> <Tether>
0.000

$$$$
VeraChem MOL file


 29 28  0  0  0  0  0  0  0  0999 V2000     
   19.3535   19.3702   19.6959 C   0  0  0  0  0  0  0  0  0  0  0  0
   18.5204   18.6741   19.8540 H   0  0  0  0  0  0  0  0  0  0  0  0
   19.0708   20.0420   18.8751 H   0  0  0  0  0  0  0  0  0  0  0  0
   20.2285   18.7925   19.3710 H   0  0  0  0  0  0  0  0  0  0  0  0
   19.6661   20.1802   20.9744 C   0  0  0  0  0  0  0  0  0  0  0  0
   18.7673   20.7251   21.2953 H   0  0  0  0  0  0  0  0  0  0  0  0
   20.4194   20.9437   20.7347 H   0  0  0  0  0  0  0  0  0  0  0  0
   20.1940   19.3104   22.1406 C   0  0  0  0  0  0  0  0  0  0  0  0
   21.1076   18.7897   21.8225 H   0  0  0  0  0  0  0  0  0  0  0  0
   20.4949   19.9757   22.9585 H   0  0  0  0  0  0  0  0  0  0  0  0
   19.1604   18.2742   22.6519 C   0  0  0  0  0  0  0  0  0  0  0  0
   18.9807   17.5396   21.8558 H   0  0  0  0  0  0  0  0  0  0  0  0
   18.1931   18.7584   22.8434 H   0  0  0  0  0  0  0  0  0  0  0  0
   19.6334   17.5098   23.9158 C   0  0  0  0  0  0  0  0  0  0  0  0
   19.2922   16.4686   23.8337 H   0  0  0  0  0  0  0  0  0  0  0  0
   20.7307   17.4596   23.9428 H   0  0  0  0  0  0  0  0  0  0  0  0
   19.0919   18.0738   25.2549 C   0  0  0  0  0  0  0  0  0  0  0  0
   19.4308   17.4118   26.0625 H   0  0  0  0  0  0  0  0  0  0  0  0
   17.9944   18.0196   25.2551 H   0  0  0  0  0  0  0  0  0  0  0  0
   19.5331   19.5261   25.5599 C   0  0  0  0  0  0  0  0  0  0  0  0
   20.6267   19.6082   25.5060 H   0  0  0  0  0  0  0  0  0  0  0  0
   19.1231   20.2007   24.7981 H   0  0  0  0  0  0  0  0  0  0  0  0
   19.0472   20.0184   26.9367 C   0  0  0  0  0  0  0  0  0  0  0  0
   17.9609   19.9140   27.0030 H   0  0  0  0  0  0  0  0  0  0  0  0
   19.2957   21.0771   27.0510 H   0  0  0  0  0  0  0  0  0  0  0  0
   19.6645   19.2747   28.1049 N   0  3  0  0  0  0  0  0  0  0  0  0
   20.6866   19.3553   28.1098 H   0  0  0  0  0  0  0  0  0  0  0  0
   19.4392   18.2754   28.0802 H   0  0  0  0  0  0  0  0  0  0  0  0
   19.3307   19.6360   29.0053 H   0  0  0  0  0  0  0  0  0  0  0  0
  1  2  1  0  0  0  0
  1  3  1  0  0  0  0
  1  4  1  0  0  0  0
  1  5  1  0  0  0  0
  5  6  1  0  0  0  0
  5  7  1  0  0  0  0
  5  8  1  0  0  0  0
  8  9  1  0  0  0  0
  8 10  1  0  0  0  0
  8 11  1  0  0  0  0
 11 12  1  0  0  0  0
 11 13  1  0  0  0  0
 11 14  1  0  0  0  0
 14 15  1  0  0  0  0
 14 16  1  0  0  0  0
 14 17  1  0  0  0  0
 17 18  1  0  0  0  0
 17 19  1  0  0  0  0
 17 20  1  0  0  0  0
 20 21  1  0  0  0  0
 20 22  1  0  0  0  0
 20 23  1  0  0  0  0
 23 24  1  0  0  0  0
 23 25  1  0  0  0  0
 23 26  1  0  0  0  0
 26 27  1  0  0  0  0
 26 28  1  0  0  0  0
 26 29  1  0  0  0  0
M  END
> <VM2 Rank>
348

> <Conf_Id>
906

> <Probability>
0.00

> <Sum Probability>
99.84

> <Delta G>
4.430

> <G>
62.576

> <E>
24.762

> <-TS>
37.814

> <U+W>
0.617

> <U>
52.521

> <W>
-51.904

> <W(PB)>
-54.335

> <W(SA)>
2.431

> <Valence>
6.296

> <Coulomb>
45.162

> <VdW>
1.063

> <VdW6>
-9.724

> <VdW12>
10.788

> <Bond>
0.294

> <Angle>
1.413

> <Pdih>
4.589

> <Idih>
0.000

> <Tether>
0.000

$$$$
VeraChem MOL file


 29 28  0  0  0  0  0  0  0  0999 V2000     
   20.6971   17.8558   20.5121 C   0  0  0  0  0  0  0  0  0  0  0  0
   20.4052   16.8977   20.0627 H   0  0  0  0  0  0  0  0  0  0  0  0
   21.0275   18.5206   19.7033 H   0  0  0  0  0  0  0  0  0  0  0  0
   21.5532   17.6707   21.1740 H   0  0  0  0  0  0  0  0  0  0  0  0
   19.5173   18.4739   21.2916 C   0  0  0  0  0  0  0  0  0  0  0  0
   19.1855   17.7665   22.0607 H   0  0  0  0  0  0  0  0  0  0  0  0
   18.6671   18.6144   20.6096 H   0  0  0  0  0  0  0  0  0  0  0  0
   19.9024   19.8326   21.9250 C   0  0  0  0  0  0  0  0  0  0  0  0
   20.7912   19.7213   22.5609 H   0  0  0  0  0  0  0  0  0  0  0  0
   20.1939   20.5154   21.1149 H   0  0  0  0  0  0  0  0  0  0  0  0
   18.7499   20.4894   22.7285 C   0  0  0  0  0  0  0  0  0  0  0  0
   17.7769   20.1898   22.3154 H   0  0  0  0  0  0  0  0  0  0  0  0
   18.8097   21.5770   22.5840 H   0  0  0  0  0  0  0  0  0  0  0  0
   18.7881   20.2201   24.2549 C   0  0  0  0  0  0  0  0  0  0  0  0
   19.7257   20.6184   24.6652 H   0  0  0  0  0  0  0  0  0  0  0  0
   17.9789   20.7950   24.7259 H   0  0  0  0  0  0  0  0  0  0  0  0
   18.6359   18.7289   24.6420 C   0  0  0  0  0  0  0  0  0  0  0  0
   19.5076   18.1613   24.2935 H   0  0  0  0  0  0  0  0  0  0  0  0
   17.7617   18.3088   24.1260 H   0  0  0  0  0  0  0  0  0  0  0  0
   18.4602   18.5140   26.1660 C   0  0  0  0  0  0  0  0  0  0  0  0
   17.5361   19.0062   26.4970 H   0  0  0  0  0  0  0  0  0  0  0  0
   18.3263   17.4432   26.3691 H   0  0  0  0  0  0  0  0  0  0  0  0
   19.6343   19.0462   27.0124 C   0  0  0  0  0  0  0  0  0  0  0  0
   19.4201   18.8854   28.0725 H   0  0  0  0  0  0  0  0  0  0  0  0
   19.7509   20.1205   26.8486 H   0  0  0  0  0  0  0  0  0  0  0  0
   20.9587   18.3771   26.7026 N   0  3  0  0  0  0  0  0  0  0  0  0
   20.9206   17.3657   26.8665 H   0  0  0  0  0  0  0  0  0  0  0  0
   21.7180   18.7475   27.2845 H   0  0  0  0  0  0  0  0  0  0  0  0
   21.2312   18.5167   25.7246 H   0  0  0  0  0  0  0  0  0  0  0  0
  1  2  1  0  0  0  0
  1  3  1  0  0  0  0
  1  4  1  0  0  0  0
  1  5  1  0  0  0  0
  5  6  1  0  0  0  0
  5  7  1  0  0  0  0
  5  8  1  0  0  0  0
  8  9  1  0  0  0  0
  8 10  1  0  0  0  0
  8 11  1  0  0  0  0
 11 12  1  0  0  0  0
 11 13  1  0  0  0  0
 11 14  1  0  0  0  0
 14 15  1  0  0  0  0
 14 16  1  0  0  0  0
 14 17  1  0  0  0  0
 17 18  1  0  0  0  0
 17 19  1  0  0  0  0
 17 20  1  0  0  0  0
 20 21  1  0  0  0  0
 20 22  1  0  0  0  0
 20 23  1  0  0  0  0
 23 24  1  0  0  0  0
 23 25  1  0  0  0  0
 23 26  1  0  0  0  0
 26 27  1  0  0  0  0
 26 28  1  0  0  0  0
 26 29  1  0  0  0  0
M  END
> <VM2 Rank>
349

> <Conf_Id>
2656

> <Probability>
0.00

> <Sum Probability>
99.84

> <Delta G>
4.435

> <G>
62.581

> <E>
24.727

> <-TS>
37.854

> <U+W>
0.582

> <U>
52.924

> <W>
-52.341

> <W(PB)>
-54.773

> <W(SA)>
2.432

> <Valence>
5.968

> <Coulomb>
46.186

> <VdW>
0.771

> <VdW6>
-10.004

> <VdW12>
10.775

> <Bond>
0.276

> <Angle>
1.354

> <Pdih>
4.338

> <Idih>
0.000

> <Tether>
0.000

$$$$
VeraChem MOL file


 29 28  0  0  0  0  0  0  0  0999 V2000     
   20.7173   19.3082   19.7468 C   0  0  0  0  0  0  0  0  0  0  0  0
   21.6990   18.9020   20.0236 H   0  0  0  0  0  0  0  0  0  0  0  0
   20.1566   18.5218   19.2249 H   0  0  0  0  0  0  0  0  0  0  0  0
   20.8806   20.1318   19.0396 H   0  0  0  0  0  0  0  0  0  0  0  0
   19.9507   19.8028   20.9915 C   0  0  0  0  0  0  0  0  0  0  0  0
   18.9889   20.2337   20.6800 H   0  0  0  0  0  0  0  0  0  0  0  0
   20.5194   20.6110   21.4724 H   0  0  0  0  0  0  0  0  0  0  0  0
   19.7073   18.6617   22.0037 C   0  0  0  0  0  0  0  0  0  0  0  0
   19.1403   17.8559   21.5172 H   0  0  0  0  0  0  0  0  0  0  0  0
   20.6712   18.2319   22.3091 H   0  0  0  0  0  0  0  0  0  0  0  0
   18.9395   19.1533   23.2513 C   0  0  0  0  0  0  0  0  0  0  0  0
   17.9724   19.5742   22.9433 H   0  0  0  0  0  0  0  0  0  0  0  0
   19.5021   19.9695   23.7212 H   0  0  0  0  0  0  0  0  0  0  0  0
   18.7005   18.0089   24.2654 C   0  0  0  0  0  0  0  0  0  0  0  0
   18.1494   17.2026   23.7617 H   0  0  0  0  0  0  0  0  0  0  0  0
   19.6545   17.5639   24.5738 H   0  0  0  0  0  0  0  0  0  0  0  0
   17.8874   18.4430   25.5114 C   0  0  0  0  0  0  0  0  0  0  0  0
   17.7206   17.5610   26.1450 H   0  0  0  0  0  0  0  0  0  0  0  0
   16.8899   18.7674   25.1844 H   0  0  0  0  0  0  0  0  0  0  0  0
   18.5120   19.5681   26.3796 C   0  0  0  0  0  0  0  0  0  0  0  0
   18.5931   20.5035   25.8116 H   0  0  0  0  0  0  0  0  0  0  0  0
   17.8140   19.7813   27.2000 H   0  0  0  0  0  0  0  0  0  0  0  0
   19.8735   19.2057   27.0083 C   0  0  0  0  0  0  0  0  0  0  0  0
   19.8572   18.1677   27.3511 H   0  0  0  0  0  0  0  0  0  0  0  0
   20.0495   19.8470   27.8761 H   0  0  0  0  0  0  0  0  0  0  0  0
   21.0557   19.3862   26.0769 N   0  3  0  0  0  0  0  0  0  0  0  0
   21.1687   20.3655   25.7951 H   0  0  0  0  0  0  0  0  0  0  0  0
   20.9467   18.8340   25.2209 H   0  0  0  0  0  0  0  0  0  0  0  0
   21.9357   19.0981   26.5189 H   0  0  0  0  0  0  0  0  0  0  0  0
  1  2  1  0  0  0  0
  1  3  1  0  0  0  0
  1  4  1  0  0  0  0
  1  5  1  0  0  0  0
  5  6  1  0  0  0  0
  5  7  1  0  0  0  0
  5  8  1  0  0  0  0
  8  9  1  0  0  0  0
  8 10  1  0  0  0  0
  8 11  1  0  0  0  0
 11 12  1  0  0  0  0
 11 13  1  0  0  0  0
 11 14  1  0  0  0  0
 14 15  1  0  0  0  0
 14 16  1  0  0  0  0
 14 17  1  0  0  0  0
 17 18  1  0  0  0  0
 17 19  1  0  0  0  0
 17 20  1  0  0  0  0
 20 21  1  0  0  0  0
 20 22  1  0  0  0  0
 20 23  1  0  0  0  0
 23 24  1  0  0  0  0
 23 25  1  0  0  0  0
 23 26  1  0  0  0  0
 26 27  1  0  0  0  0
 26 28  1  0  0  0  0
 26 29  1  0  0  0  0
M  END
> <VM2 Rank>
350

> <Conf_Id>
2127

> <Probability>
0.00

> <Sum Probability>
99.84

> <Delta G>
4.442

> <G>
62.588

> <E>
24.629

> <-TS>
37.959

> <U+W>
0.485

> <U>
52.295

> <W>
-51.810

> <W(PB)>
-54.276

> <W(SA)>
2.466

> <Valence>
4.642

> <Coulomb>
47.212

> <VdW>
0.441

> <VdW6>
-9.834

> <VdW12>
10.275

> <Bond>
0.247

> <Angle>
1.461

> <Pdih>
2.934

> <Idih>
0.000

> <Tether>
0.000

$$$$
VeraChem MOL file


 29 28  0  0  0  0  0  0  0  0999 V2000     
   20.5466   18.9368   19.8833 C   0  0  0  0  0  0  0  0  0  0  0  0
   21.2250   18.1347   20.2021 H   0  0  0  0  0  0  0  0  0  0  0  0
   19.6910   18.4777   19.3710 H   0  0  0  0  0  0  0  0  0  0  0  0
   21.0807   19.5605   19.1548 H   0  0  0  0  0  0  0  0  0  0  0  0
   20.0827   19.7825   21.0881 C   0  0  0  0  0  0  0  0  0  0  0  0
   19.4343   20.5961   20.7341 H   0  0  0  0  0  0  0  0  0  0  0  0
   20.9558   20.2548   21.5598 H   0  0  0  0  0  0  0  0  0  0  0  0
   19.3267   18.9278   22.1292 C   0  0  0  0  0  0  0  0  0  0  0  0
   18.4538   18.4592   21.6542 H   0  0  0  0  0  0  0  0  0  0  0  0
   19.9814   18.1142   22.4680 H   0  0  0  0  0  0  0  0  0  0  0  0
   18.8656   19.7730   23.3403 C   0  0  0  0  0  0  0  0  0  0  0  0
   18.2669   20.6195   22.9765 H   0  0  0  0  0  0  0  0  0  0  0  0
   19.7410   20.2115   23.8352 H   0  0  0  0  0  0  0  0  0  0  0  0
   18.0129   18.9745   24.3603 C   0  0  0  0  0  0  0  0  0  0  0  0
   17.6556   19.6501   25.1471 H   0  0  0  0  0  0  0  0  0  0  0  0
   17.1048   18.6190   23.8541 H   0  0  0  0  0  0  0  0  0  0  0  0
   18.7210   17.7535   25.0059 C   0  0  0  0  0  0  0  0  0  0  0  0
   18.9015   16.9955   24.2322 H   0  0  0  0  0  0  0  0  0  0  0  0
   18.0279   17.2829   25.7167 H   0  0  0  0  0  0  0  0  0  0  0  0
   20.0597   18.0456   25.7350 C   0  0  0  0  0  0  0  0  0  0  0  0
   20.4804   17.0833   26.0553 H   0  0  0  0  0  0  0  0  0  0  0  0
   20.7977   18.4755   25.0459 H   0  0  0  0  0  0  0  0  0  0  0  0
   19.9195   18.9304   26.9910 C   0  0  0  0  0  0  0  0  0  0  0  0
   20.7996   18.7930   27.6250 H   0  0  0  0  0  0  0  0  0  0  0  0
   19.0393   18.6232   27.5620 H   0  0  0  0  0  0  0  0  0  0  0  0
   19.8092   20.4138   26.7019 N   0  3  0  0  0  0  0  0  0  0  0  0
   19.6894   20.9609   27.5616 H   0  0  0  0  0  0  0  0  0  0  0  0
   19.0102   20.6193   26.0950 H   0  0  0  0  0  0  0  0  0  0  0  0
   20.6481   20.7713   26.2335 H   0  0  0  0  0  0  0  0  0  0  0  0
  1  2  1  0  0  0  0
  1  3  1  0  0  0  0
  1  4  1  0  0  0  0
  1  5  1  0  0  0  0
  5  6  1  0  0  0  0
  5  7  1  0  0  0  0
  5  8  1  0  0  0  0
  8  9  1  0  0  0  0
  8 10  1  0  0  0  0
  8 11  1  0  0  0  0
 11 12  1  0  0  0  0
 11 13  1  0  0  0  0
 11 14  1  0  0  0  0
 14 15  1  0  0  0  0
 14 16  1  0  0  0  0
 14 17  1  0  0  0  0
 17 18  1  0  0  0  0
 17 19  1  0  0  0  0
 17 20  1  0  0  0  0
 20 21  1  0  0  0  0
 20 22  1  0  0  0  0
 20 23  1  0  0  0  0
 23 24  1  0  0  0  0
 23 25  1  0  0  0  0
 23 26  1  0  0  0  0
 26 27  1  0  0  0  0
 26 28  1  0  0  0  0
 26 29  1  0  0  0  0
M  END
> <VM2 Rank>
351

> <Conf_Id>
2002

> <Probability>
0.00

> <Sum Probability>
99.85

> <Delta G>
4.451

> <G>
62.597

> <E>
24.426

> <-TS>
38.171

> <U+W>
0.281

> <U>
52.614

> <W>
-52.333

> <W(PB)>
-54.770

> <W(SA)>
2.437

> <Valence>
5.081

> <Coulomb>
47.116

> <VdW>
0.418

> <VdW6>
-10.638

> <VdW12>
11.056

> <Bond>
0.294

> <Angle>
1.796

> <Pdih>
2.991

> <Idih>
0.000

> <Tether>
0.000

$$$$
VeraChem MOL file


 29 28  0  0  0  0  0  0  0  0999 V2000     
   19.6134   17.3309   21.4334 C   0  0  0  0  0  0  0  0  0  0  0  0
   20.3076   17.2450   20.5875 H   0  0  0  0  0  0  0  0  0  0  0  0
   20.2007   17.3114   22.3592 H   0  0  0  0  0  0  0  0  0  0  0  0
   18.9689   16.4424   21.4302 H   0  0  0  0  0  0  0  0  0  0  0  0
   18.7632   18.6170   21.3217 C   0  0  0  0  0  0  0  0  0  0  0  0
   18.0582   18.6828   22.1599 H   0  0  0  0  0  0  0  0  0  0  0  0
   18.1425   18.5477   20.4175 H   0  0  0  0  0  0  0  0  0  0  0  0
   19.6131   19.9080   21.2340 C   0  0  0  0  0  0  0  0  0  0  0  0
   20.2435   19.8505   20.3359 H   0  0  0  0  0  0  0  0  0  0  0  0
   18.9417   20.7621   21.0707 H   0  0  0  0  0  0  0  0  0  0  0  0
   20.5222   20.2115   22.4556 C   0  0  0  0  0  0  0  0  0  0  0  0
   21.1093   21.1062   22.2065 H   0  0  0  0  0  0  0  0  0  0  0  0
   21.2614   19.4125   22.5988 H   0  0  0  0  0  0  0  0  0  0  0  0
   19.7636   20.4979   23.7783 C   0  0  0  0  0  0  0  0  0  0  0  0
   20.3245   21.2592   24.3379 H   0  0  0  0  0  0  0  0  0  0  0  0
   18.7829   20.9431   23.5614 H   0  0  0  0  0  0  0  0  0  0  0  0
   19.6031   19.2561   24.6886 C   0  0  0  0  0  0  0  0  0  0  0  0
   20.5952   18.8387   24.9054 H   0  0  0  0  0  0  0  0  0  0  0  0
   19.0371   18.4729   24.1718 H   0  0  0  0  0  0  0  0  0  0  0  0
   18.8832   19.6077   26.0119 C   0  0  0  0  0  0  0  0  0  0  0  0
   19.4591   20.3609   26.5658 H   0  0  0  0  0  0  0  0  0  0  0  0
   17.9091   20.0615   25.7858 H   0  0  0  0  0  0  0  0  0  0  0  0
   18.6510   18.3761   26.9081 C   0  0  0  0  0  0  0  0  0  0  0  0
   18.0831   17.6216   26.3572 H   0  0  0  0  0  0  0  0  0  0  0  0
   18.0671   18.6702   27.7846 H   0  0  0  0  0  0  0  0  0  0  0  0
   19.9312   17.7327   27.4035 N   0  3  0  0  0  0  0  0  0  0  0  0
   20.5130   17.4001   26.6283 H   0  0  0  0  0  0  0  0  0  0  0  0
   19.7424   16.9245   28.0066 H   0  0  0  0  0  0  0  0  0  0  0  0
   20.4994   18.3884   27.9500 H   0  0  0  0  0  0  0  0  0  0  0  0
  1  2  1  0  0  0  0
  1  3  1  0  0  0  0
  1  4  1  0  0  0  0
  1  5  1  0  0  0  0
  5  6  1  0  0  0  0
  5  7  1  0  0  0  0
  5  8  1  0  0  0  0
  8  9  1  0  0  0  0
  8 10  1  0  0  0  0
  8 11  1  0  0  0  0
 11 12  1  0  0  0  0
 11 13  1  0  0  0  0
 11 14  1  0  0  0  0
 14 15  1  0  0  0  0
 14 16  1  0  0  0  0
 14 17  1  0  0  0  0
 17 18  1  0  0  0  0
 17 19  1  0  0  0  0
 17 20  1  0  0  0  0
 20 21  1  0  0  0  0
 20 22  1  0  0  0  0
 20 23  1  0  0  0  0
 23 24  1  0  0  0  0
 23 25  1  0  0  0  0
 23 26  1  0  0  0  0
 26 27  1  0  0  0  0
 26 28  1  0  0  0  0
 26 29  1  0  0  0  0
M  END
> <VM2 Rank>
352

> <Conf_Id>
1001

> <Probability>
0.00

> <Sum Probability>
99.85

> <Delta G>
4.451

> <G>
62.597

> <E>
24.493

> <-TS>
38.104

> <U+W>
0.349

> <U>
52.599

> <W>
-52.250

> <W(PB)>
-54.666

> <W(SA)>
2.416

> <Valence>
6.291

> <Coulomb>
45.617

> <VdW>
0.690

> <VdW6>
-10.178

> <VdW12>
10.868

> <Bond>
0.295

> <Angle>
1.799

> <Pdih>
4.198

> <Idih>
0.000

> <Tether>
0.000

$$$$
VeraChem MOL file


 29 28  0  0  0  0  0  0  0  0999 V2000     
   19.6613   17.7733   20.4546 C   0  0  0  0  0  0  0  0  0  0  0  0
   19.3686   17.1961   19.5680 H   0  0  0  0  0  0  0  0  0  0  0  0
   20.7486   17.6798   20.5724 H   0  0  0  0  0  0  0  0  0  0  0  0
   19.1743   17.3113   21.3223 H   0  0  0  0  0  0  0  0  0  0  0  0
   19.2434   19.2516   20.2982 C   0  0  0  0  0  0  0  0  0  0  0  0
   18.1483   19.3155   20.2333 H   0  0  0  0  0  0  0  0  0  0  0  0
   19.6274   19.6268   19.3393 H   0  0  0  0  0  0  0  0  0  0  0  0
   19.7513   20.1815   21.4296 C   0  0  0  0  0  0  0  0  0  0  0  0
   20.8497   20.2015   21.4383 H   0  0  0  0  0  0  0  0  0  0  0  0
   19.4384   21.2051   21.1813 H   0  0  0  0  0  0  0  0  0  0  0  0
   19.2076   19.8385   22.8411 C   0  0  0  0  0  0  0  0  0  0  0  0
   18.2252   19.3539   22.7578 H   0  0  0  0  0  0  0  0  0  0  0  0
   19.0394   20.7809   23.3784 H   0  0  0  0  0  0  0  0  0  0  0  0
   20.1762   18.9598   23.6738 C   0  0  0  0  0  0  0  0  0  0  0  0
   20.4691   18.0766   23.0940 H   0  0  0  0  0  0  0  0  0  0  0  0
   21.1039   19.5166   23.8650 H   0  0  0  0  0  0  0  0  0  0  0  0
   19.5761   18.4798   25.0182 C   0  0  0  0  0  0  0  0  0  0  0  0
   20.2844   17.7771   25.4765 H   0  0  0  0  0  0  0  0  0  0  0  0
   18.6563   17.9101   24.8267 H   0  0  0  0  0  0  0  0  0  0  0  0
   19.2789   19.6317   26.0108 C   0  0  0  0  0  0  0  0  0  0  0  0
   20.1873   20.2236   26.1841 H   0  0  0  0  0  0  0  0  0  0  0  0
   18.5365   20.3134   25.5775 H   0  0  0  0  0  0  0  0  0  0  0  0
   18.7293   19.1267   27.3588 C   0  0  0  0  0  0  0  0  0  0  0  0
   17.8359   18.5199   27.1883 H   0  0  0  0  0  0  0  0  0  0  0  0
   18.4473   19.9824   27.9783 H   0  0  0  0  0  0  0  0  0  0  0  0
   19.7198   18.2950   28.1500 N   0  3  0  0  0  0  0  0  0  0  0  0
   20.5745   18.8205   28.3612 H   0  0  0  0  0  0  0  0  0  0  0  0
   20.0005   17.4520   27.6395 H   0  0  0  0  0  0  0  0  0  0  0  0
   19.3277   17.9870   29.0466 H   0  0  0  0  0  0  0  0  0  0  0  0
  1  2  1  0  0  0  0
  1  3  1  0  0  0  0
  1  4  1  0  0  0  0
  1  5  1  0  0  0  0
  5  6  1  0  0  0  0
  5  7  1  0  0  0  0
  5  8  1  0  0  0  0
  8  9  1  0  0  0  0
  8 10  1  0  0  0  0
  8 11  1  0  0  0  0
 11 12  1  0  0  0  0
 11 13  1  0  0  0  0
 11 14  1  0  0  0  0
 14 15  1  0  0  0  0
 14 16  1  0  0  0  0
 14 17  1  0  0  0  0
 17 18  1  0  0  0  0
 17 19  1  0  0  0  0
 17 20  1  0  0  0  0
 20 21  1  0  0  0  0
 20 22  1  0  0  0  0
 20 23  1  0  0  0  0
 23 24  1  0  0  0  0
 23 25  1  0  0  0  0
 23 26  1  0  0  0  0
 26 27  1  0  0  0  0
 26 28  1  0  0  0  0
 26 29  1  0  0  0  0
M  END
> <VM2 Rank>
353

> <Conf_Id>
1695

> <Probability>
0.00

> <Sum Probability>
99.85

> <Delta G>
4.453

> <G>
62.599

> <E>
24.832

> <-TS>
37.767

> <U+W>
0.688

> <U>
52.368

> <W>
-51.680

> <W(PB)>
-54.143

> <W(SA)>
2.463

> <Valence>
6.262

> <Coulomb>
45.003

> <VdW>
1.103

> <VdW6>
-9.650

> <VdW12>
10.753

> <Bond>
0.297

> <Angle>
1.421

> <Pdih>
4.544

> <Idih>
0.000

> <Tether>
0.000

$$$$
VeraChem MOL file


 29 28  0  0  0  0  0  0  0  0999 V2000     
   20.9741   18.7286   20.8914 C   0  0  0  0  0  0  0  0  0  0  0  0
   21.3998   19.0340   21.8553 H   0  0  0  0  0  0  0  0  0  0  0  0
   21.0935   17.6420   20.7908 H   0  0  0  0  0  0  0  0  0  0  0  0
   21.5677   19.2067   20.1016 H   0  0  0  0  0  0  0  0  0  0  0  0
   19.4883   19.1369   20.7740 C   0  0  0  0  0  0  0  0  0  0  0  0
   19.1413   18.9197   19.7542 H   0  0  0  0  0  0  0  0  0  0  0  0
   19.3920   20.2238   20.8995 H   0  0  0  0  0  0  0  0  0  0  0  0
   18.5653   18.3987   21.7768 C   0  0  0  0  0  0  0  0  0  0  0  0
   17.5274   18.7128   21.5998 H   0  0  0  0  0  0  0  0  0  0  0  0
   18.5942   17.3219   21.5608 H   0  0  0  0  0  0  0  0  0  0  0  0
   18.9098   18.6165   23.2725 C   0  0  0  0  0  0  0  0  0  0  0  0
   19.9032   18.2001   23.4769 H   0  0  0  0  0  0  0  0  0  0  0  0
   18.1984   18.0409   23.8801 H   0  0  0  0  0  0  0  0  0  0  0  0
   18.8616   20.1031   23.7021 C   0  0  0  0  0  0  0  0  0  0  0  0
   19.6911   20.6504   23.2347 H   0  0  0  0  0  0  0  0  0  0  0  0
   17.9386   20.5549   23.3135 H   0  0  0  0  0  0  0  0  0  0  0  0
   18.9019   20.3324   25.2350 C   0  0  0  0  0  0  0  0  0  0  0  0
   18.0245   19.8718   25.7069 H   0  0  0  0  0  0  0  0  0  0  0  0
   18.7937   21.4121   25.4076 H   0  0  0  0  0  0  0  0  0  0  0  0
   20.2081   19.8681   25.9334 C   0  0  0  0  0  0  0  0  0  0  0  0
   21.0705   20.1010   25.2948 H   0  0  0  0  0  0  0  0  0  0  0  0
   20.3471   20.4543   26.8516 H   0  0  0  0  0  0  0  0  0  0  0  0
   20.2402   18.3724   26.3120 C   0  0  0  0  0  0  0  0  0  0  0  0
   21.2197   18.1295   26.7328 H   0  0  0  0  0  0  0  0  0  0  0  0
   20.0909   17.7520   25.4270 H   0  0  0  0  0  0  0  0  0  0  0  0
   19.1947   17.9813   27.3377 N   0  3  0  0  0  0  0  0  0  0  0  0
   19.3013   18.5103   28.2094 H   0  0  0  0  0  0  0  0  0  0  0  0
   19.2535   16.9865   27.5814 H   0  0  0  0  0  0  0  0  0  0  0  0
   18.2445   18.1516   26.9941 H   0  0  0  0  0  0  0  0  0  0  0  0
  1  2  1  0  0  0  0
  1  3  1  0  0  0  0
  1  4  1  0  0  0  0
  1  5  1  0  0  0  0
  5  6  1  0  0  0  0
  5  7  1  0  0  0  0
  5  8  1  0  0  0  0
  8  9  1  0  0  0  0
  8 10  1  0  0  0  0
  8 11  1  0  0  0  0
 11 12  1  0  0  0  0
 11 13  1  0  0  0  0
 11 14  1  0  0  0  0
 14 15  1  0  0  0  0
 14 16  1  0  0  0  0
 14 17  1  0  0  0  0
 17 18  1  0  0  0  0
 17 19  1  0  0  0  0
 17 20  1  0  0  0  0
 20 21  1  0  0  0  0
 20 22  1  0  0  0  0
 20 23  1  0  0  0  0
 23 24  1  0  0  0  0
 23 25  1  0  0  0  0
 23 26  1  0  0  0  0
 26 27  1  0  0  0  0
 26 28  1  0  0  0  0
 26 29  1  0  0  0  0
M  END
> <VM2 Rank>
354

> <Conf_Id>
204

> <Probability>
0.00

> <Sum Probability>
99.86

> <Delta G>
4.453

> <G>
62.600

> <E>
24.588

> <-TS>
38.012

> <U+W>
0.443

> <U>
52.866

> <W>
-52.423

> <W(PB)>
-54.832

> <W(SA)>
2.409

> <Valence>
6.022

> <Coulomb>
46.076

> <VdW>
0.768

> <VdW6>
-10.899

> <VdW12>
11.667

> <Bond>
0.324

> <Angle>
1.901

> <Pdih>
3.797

> <Idih>
0.000

> <Tether>
0.000

$$$$
VeraChem MOL file


 29 28  0  0  0  0  0  0  0  0999 V2000     
   21.2473   18.6061   21.7727 C   0  0  0  0  0  0  0  0  0  0  0  0
   22.0744   17.9977   21.3846 H   0  0  0  0  0  0  0  0  0  0  0  0
   21.4890   19.6604   21.5861 H   0  0  0  0  0  0  0  0  0  0  0  0
   21.2020   18.4428   22.8559 H   0  0  0  0  0  0  0  0  0  0  0  0
   19.9201   18.2092   21.0908 C   0  0  0  0  0  0  0  0  0  0  0  0
   19.6682   17.1737   21.3589 H   0  0  0  0  0  0  0  0  0  0  0  0
   20.0690   18.2137   20.0020 H   0  0  0  0  0  0  0  0  0  0  0  0
   18.7256   19.1385   21.4260 C   0  0  0  0  0  0  0  0  0  0  0  0
   18.9267   20.1564   21.0650 H   0  0  0  0  0  0  0  0  0  0  0  0
   17.8609   18.7854   20.8472 H   0  0  0  0  0  0  0  0  0  0  0  0
   18.3238   19.1660   22.9238 C   0  0  0  0  0  0  0  0  0  0  0  0
   18.5623   18.1994   23.3859 H   0  0  0  0  0  0  0  0  0  0  0  0
   17.2324   19.2747   22.9881 H   0  0  0  0  0  0  0  0  0  0  0  0
   18.9712   20.3325   23.7140 C   0  0  0  0  0  0  0  0  0  0  0  0
   20.0640   20.2562   23.6904 H   0  0  0  0  0  0  0  0  0  0  0  0
   18.7281   21.2787   23.2113 H   0  0  0  0  0  0  0  0  0  0  0  0
   18.4855   20.4276   25.1834 C   0  0  0  0  0  0  0  0  0  0  0  0
   17.4031   20.6160   25.1942 H   0  0  0  0  0  0  0  0  0  0  0  0
   18.9495   21.3071   25.6509 H   0  0  0  0  0  0  0  0  0  0  0  0
   18.7879   19.1815   26.0524 C   0  0  0  0  0  0  0  0  0  0  0  0
   18.4331   19.3687   27.0746 H   0  0  0  0  0  0  0  0  0  0  0  0
   18.2192   18.3185   25.6838 H   0  0  0  0  0  0  0  0  0  0  0  0
   20.2875   18.8350   26.0956 C   0  0  0  0  0  0  0  0  0  0  0  0
   20.8522   19.6905   26.4759 H   0  0  0  0  0  0  0  0  0  0  0  0
   20.6422   18.6079   25.0872 H   0  0  0  0  0  0  0  0  0  0  0  0
   20.5953   17.6416   26.9763 N   0  3  0  0  0  0  0  0  0  0  0  0
   20.1135   16.7955   26.6550 H   0  0  0  0  0  0  0  0  0  0  0  0
   20.3095   17.8012   27.9481 H   0  0  0  0  0  0  0  0  0  0  0  0
   21.5985   17.4276   26.9913 H   0  0  0  0  0  0  0  0  0  0  0  0
  1  2  1  0  0  0  0
  1  3  1  0  0  0  0
  1  4  1  0  0  0  0
  1  5  1  0  0  0  0
  5  6  1  0  0  0  0
  5  7  1  0  0  0  0
  5  8  1  0  0  0  0
  8  9  1  0  0  0  0
  8 10  1  0  0  0  0
  8 11  1  0  0  0  0
 11 12  1  0  0  0  0
 11 13  1  0  0  0  0
 11 14  1  0  0  0  0
 14 15  1  0  0  0  0
 14 16  1  0  0  0  0
 14 17  1  0  0  0  0
 17 18  1  0  0  0  0
 17 19  1  0  0  0  0
 17 20  1  0  0  0  0
 20 21  1  0  0  0  0
 20 22  1  0  0  0  0
 20 23  1  0  0  0  0
 23 24  1  0  0  0  0
 23 25  1  0  0  0  0
 23 26  1  0  0  0  0
 26 27  1  0  0  0  0
 26 28  1  0  0  0  0
 26 29  1  0  0  0  0
M  END
> <VM2 Rank>
355

> <Conf_Id>
908

> <Probability>
0.00

> <Sum Probability>
99.86

> <Delta G>
4.454

> <G>
62.600

> <E>
24.625

> <-TS>
37.975

> <U+W>
0.481

> <U>
53.131

> <W>
-52.650

> <W(PB)>
-55.048

> <W(SA)>
2.398

> <Valence>
6.303

> <Coulomb>
46.251

> <VdW>
0.577

> <VdW6>
-10.485

> <VdW12>
11.062

> <Bond>
0.303

> <Angle>
1.680

> <Pdih>
4.320

> <Idih>
0.000

> <Tether>
0.000

$$$$
VeraChem MOL file


 29 28  0  0  0  0  0  0  0  0999 V2000     
   19.9525   19.3628   19.7186 C   0  0  0  0  0  0  0  0  0  0  0  0
   19.7167   19.8512   18.7643 H   0  0  0  0  0  0  0  0  0  0  0  0
   21.0429   19.3796   19.8436 H   0  0  0  0  0  0  0  0  0  0  0  0
   19.6310   18.3170   19.6406 H   0  0  0  0  0  0  0  0  0  0  0  0
   19.2479   20.0905   20.8862 C   0  0  0  0  0  0  0  0  0  0  0  0
   18.1582   20.0301   20.7572 H   0  0  0  0  0  0  0  0  0  0  0  0
   19.5040   21.1582   20.8403 H   0  0  0  0  0  0  0  0  0  0  0  0
   19.6418   19.5473   22.2811 C   0  0  0  0  0  0  0  0  0  0  0  0
   20.7327   19.5983   22.4005 H   0  0  0  0  0  0  0  0  0  0  0  0
   19.2091   20.2161   23.0360 H   0  0  0  0  0  0  0  0  0  0  0  0
   19.1512   18.1017   22.5421 C   0  0  0  0  0  0  0  0  0  0  0  0
   19.5292   17.4383   21.7539 H   0  0  0  0  0  0  0  0  0  0  0  0
   18.0554   18.0702   22.4696 H   0  0  0  0  0  0  0  0  0  0  0  0
   19.5932   17.5138   23.9073 C   0  0  0  0  0  0  0  0  0  0  0  0
   19.2251   16.4796   23.9559 H   0  0  0  0  0  0  0  0  0  0  0  0
   20.6886   17.4392   23.9487 H   0  0  0  0  0  0  0  0  0  0  0  0
   19.0575   18.2761   25.1472 C   0  0  0  0  0  0  0  0  0  0  0  0
   18.8039   17.5385   25.9204 H   0  0  0  0  0  0  0  0  0  0  0  0
   18.1191   18.7903   24.8978 H   0  0  0  0  0  0  0  0  0  0  0  0
   20.0821   19.2771   25.7391 C   0  0  0  0  0  0  0  0  0  0  0  0
   20.9734   18.7368   26.0847 H   0  0  0  0  0  0  0  0  0  0  0  0
   20.4261   19.9717   24.9643 H   0  0  0  0  0  0  0  0  0  0  0  0
   19.5007   20.1015   26.9036 C   0  0  0  0  0  0  0  0  0  0  0  0
   18.6103   20.6385   26.5656 H   0  0  0  0  0  0  0  0  0  0  0  0
   20.2395   20.8379   27.2313 H   0  0  0  0  0  0  0  0  0  0  0  0
   19.1171   19.2673   28.1099 N   0  3  0  0  0  0  0  0  0  0  0  0
   18.3971   18.5756   27.8788 H   0  0  0  0  0  0  0  0  0  0  0  0
   18.7448   19.8464   28.8706 H   0  0  0  0  0  0  0  0  0  0  0  0
   19.9201   18.7546   28.4887 H   0  0  0  0  0  0  0  0  0  0  0  0
  1  2  1  0  0  0  0
  1  3  1  0  0  0  0
  1  4  1  0  0  0  0
  1  5  1  0  0  0  0
  5  6  1  0  0  0  0
  5  7  1  0  0  0  0
  5  8  1  0  0  0  0
  8  9  1  0  0  0  0
  8 10  1  0  0  0  0
  8 11  1  0  0  0  0
 11 12  1  0  0  0  0
 11 13  1  0  0  0  0
 11 14  1  0  0  0  0
 14 15  1  0  0  0  0
 14 16  1  0  0  0  0
 14 17  1  0  0  0  0
 17 18  1  0  0  0  0
 17 19  1  0  0  0  0
 17 20  1  0  0  0  0
 20 21  1  0  0  0  0
 20 22  1  0  0  0  0
 20 23  1  0  0  0  0
 23 24  1  0  0  0  0
 23 25  1  0  0  0  0
 23 26  1  0  0  0  0
 26 27  1  0  0  0  0
 26 28  1  0  0  0  0
 26 29  1  0  0  0  0
M  END
> <VM2 Rank>
356

> <Conf_Id>
2651

> <Probability>
0.00

> <Sum Probability>
99.86

> <Delta G>
4.464

> <G>
62.610

> <E>
24.853

> <-TS>
37.758

> <U+W>
0.708

> <U>
52.665

> <W>
-51.957

> <W(PB)>
-54.410

> <W(SA)>
2.453

> <Valence>
6.368

> <Coulomb>
45.200

> <VdW>
1.097

> <VdW6>
-9.663

> <VdW12>
10.760

> <Bond>
0.297

> <Angle>
1.452

> <Pdih>
4.618

> <Idih>
0.000

> <Tether>
0.000

$$$$
VeraChem MOL file


 29 28  0  0  0  0  0  0  0  0999 V2000     
   20.4411   18.6418   19.8765 C   0  0  0  0  0  0  0  0  0  0  0  0
   21.4693   18.8208   20.2170 H   0  0  0  0  0  0  0  0  0  0  0  0
   20.4706   17.8504   19.1164 H   0  0  0  0  0  0  0  0  0  0  0  0
   20.0759   19.5584   19.3950 H   0  0  0  0  0  0  0  0  0  0  0  0
   19.5302   18.2333   21.0534 C   0  0  0  0  0  0  0  0  0  0  0  0
   19.9012   17.2970   21.4936 H   0  0  0  0  0  0  0  0  0  0  0  0
   18.5184   18.0279   20.6768 H   0  0  0  0  0  0  0  0  0  0  0  0
   19.4707   19.3313   22.1381 C   0  0  0  0  0  0  0  0  0  0  0  0
   20.4875   19.5332   22.4995 H   0  0  0  0  0  0  0  0  0  0  0  0
   19.0977   20.2647   21.6945 H   0  0  0  0  0  0  0  0  0  0  0  0
   18.5620   18.9211   23.3213 C   0  0  0  0  0  0  0  0  0  0  0  0
   18.9556   18.0087   23.7860 H   0  0  0  0  0  0  0  0  0  0  0  0
   17.5681   18.6594   22.9328 H   0  0  0  0  0  0  0  0  0  0  0  0
   18.3923   20.0378   24.3841 C   0  0  0  0  0  0  0  0  0  0  0  0
   17.9211   20.9072   23.9051 H   0  0  0  0  0  0  0  0  0  0  0  0
   17.6771   19.7100   25.1484 H   0  0  0  0  0  0  0  0  0  0  0  0
   19.7038   20.5087   25.0675 C   0  0  0  0  0  0  0  0  0  0  0  0
   19.4547   21.2831   25.8060 H   0  0  0  0  0  0  0  0  0  0  0  0
   20.3341   21.0114   24.3220 H   0  0  0  0  0  0  0  0  0  0  0  0
   20.5453   19.4071   25.7656 C   0  0  0  0  0  0  0  0  0  0  0  0
   20.8547   18.6351   25.0498 H   0  0  0  0  0  0  0  0  0  0  0  0
   21.4752   19.8726   26.1180 H   0  0  0  0  0  0  0  0  0  0  0  0
   19.8591   18.7616   26.9874 C   0  0  0  0  0  0  0  0  0  0  0  0
   19.3635   19.5334   27.5823 H   0  0  0  0  0  0  0  0  0  0  0  0
   20.6185   18.2863   27.6141 H   0  0  0  0  0  0  0  0  0  0  0  0
   18.8396   17.6953   26.6411 N   0  3  0  0  0  0  0  0  0  0  0  0
   18.0996   18.0657   26.0377 H   0  0  0  0  0  0  0  0  0  0  0  0
   18.3885   17.3139   27.4800 H   0  0  0  0  0  0  0  0  0  0  0  0
   19.2700   16.9068   26.1473 H   0  0  0  0  0  0  0  0  0  0  0  0
  1  2  1  0  0  0  0
  1  3  1  0  0  0  0
  1  4  1  0  0  0  0
  1  5  1  0  0  0  0
  5  6  1  0  0  0  0
  5  7  1  0  0  0  0
  5  8  1  0  0  0  0
  8  9  1  0  0  0  0
  8 10  1  0  0  0  0
  8 11  1  0  0  0  0
 11 12  1  0  0  0  0
 11 13  1  0  0  0  0
 11 14  1  0  0  0  0
 14 15  1  0  0  0  0
 14 16  1  0  0  0  0
 14 17  1  0  0  0  0
 17 18  1  0  0  0  0
 17 19  1  0  0  0  0
 17 20  1  0  0  0  0
 20 21  1  0  0  0  0
 20 22  1  0  0  0  0
 20 23  1  0  0  0  0
 23 24  1  0  0  0  0
 23 25  1  0  0  0  0
 23 26  1  0  0  0  0
 26 27  1  0  0  0  0
 26 28  1  0  0  0  0
 26 29  1  0  0  0  0
M  END
> <VM2 Rank>
357

> <Conf_Id>
1970

> <Probability>
0.00

> <Sum Probability>
99.86

> <Delta G>
4.477

> <G>
62.623

> <E>
24.452

> <-TS>
38.171

> <U+W>
0.308

> <U>
52.614

> <W>
-52.306

> <W(PB)>
-54.733

> <W(SA)>
2.427

> <Valence>
5.081

> <Coulomb>
47.116

> <VdW>
0.418

> <VdW6>
-10.637

> <VdW12>
11.055

> <Bond>
0.294

> <Angle>
1.795

> <Pdih>
2.991

> <Idih>
0.000

> <Tether>
0.000

$$$$
VeraChem MOL file


 29 28  0  0  0  0  0  0  0  0999 V2000     
   21.3134   19.2154   21.6194 C   0  0  0  0  0  0  0  0  0  0  0  0
   21.4744   18.1747   21.9290 H   0  0  0  0  0  0  0  0  0  0  0  0
   22.2129   19.5506   21.0870 H   0  0  0  0  0  0  0  0  0  0  0  0
   21.2142   19.8371   22.5176 H   0  0  0  0  0  0  0  0  0  0  0  0
   20.0709   19.3410   20.7111 C   0  0  0  0  0  0  0  0  0  0  0  0
   20.2830   18.8446   19.7538 H   0  0  0  0  0  0  0  0  0  0  0  0
   19.8995   20.4000   20.4731 H   0  0  0  0  0  0  0  0  0  0  0  0
   18.7784   18.7270   21.3070 C   0  0  0  0  0  0  0  0  0  0  0  0
   17.9847   18.8339   20.5547 H   0  0  0  0  0  0  0  0  0  0  0  0
   18.9057   17.6452   21.4510 H   0  0  0  0  0  0  0  0  0  0  0  0
   18.2909   19.3914   22.6208 C   0  0  0  0  0  0  0  0  0  0  0  0
   17.1921   19.3967   22.6210 H   0  0  0  0  0  0  0  0  0  0  0  0
   18.5998   20.4454   22.6461 H   0  0  0  0  0  0  0  0  0  0  0  0
   18.7700   18.6564   23.8963 C   0  0  0  0  0  0  0  0  0  0  0  0
   18.3921   17.6248   23.8845 H   0  0  0  0  0  0  0  0  0  0  0  0
   19.8633   18.5881   23.9018 H   0  0  0  0  0  0  0  0  0  0  0  0
   18.2831   19.3663   25.1821 C   0  0  0  0  0  0  0  0  0  0  0  0
   17.1883   19.4548   25.1521 H   0  0  0  0  0  0  0  0  0  0  0  0
   18.6712   20.3932   25.2086 H   0  0  0  0  0  0  0  0  0  0  0  0
   18.6819   18.6188   26.4792 C   0  0  0  0  0  0  0  0  0  0  0  0
   18.2694   19.1516   27.3462 H   0  0  0  0  0  0  0  0  0  0  0  0
   18.2164   17.6242   26.4813 H   0  0  0  0  0  0  0  0  0  0  0  0
   20.2037   18.4532   26.6664 C   0  0  0  0  0  0  0  0  0  0  0  0
   20.6191   17.8811   25.8329 H   0  0  0  0  0  0  0  0  0  0  0  0
   20.3979   17.8987   27.5886 H   0  0  0  0  0  0  0  0  0  0  0  0
   20.9517   19.7686   26.7527 N   0  3  0  0  0  0  0  0  0  0  0  0
   21.9594   19.6264   26.8822 H   0  0  0  0  0  0  0  0  0  0  0  0
   20.6255   20.3398   27.5391 H   0  0  0  0  0  0  0  0  0  0  0  0
   20.8315   20.3265   25.9015 H   0  0  0  0  0  0  0  0  0  0  0  0
  1  2  1  0  0  0  0
  1  3  1  0  0  0  0
  1  4  1  0  0  0  0
  1  5  1  0  0  0  0
  5  6  1  0  0  0  0
  5  7  1  0  0  0  0
  5  8  1  0  0  0  0
  8  9  1  0  0  0  0
  8 10  1  0  0  0  0
  8 11  1  0  0  0  0
 11 12  1  0  0  0  0
 11 13  1  0  0  0  0
 11 14  1  0  0  0  0
 14 15  1  0  0  0  0
 14 16  1  0  0  0  0
 14 17  1  0  0  0  0
 17 18  1  0  0  0  0
 17 19  1  0  0  0  0
 17 20  1  0  0  0  0
 20 21  1  0  0  0  0
 20 22  1  0  0  0  0
 20 23  1  0  0  0  0
 23 24  1  0  0  0  0
 23 25  1  0  0  0  0
 23 26  1  0  0  0  0
 26 27  1  0  0  0  0
 26 28  1  0  0  0  0
 26 29  1  0  0  0  0
M  END
> <VM2 Rank>
358

> <Conf_Id>
2010

> <Probability>
0.00

> <Sum Probability>
99.87

> <Delta G>
4.481

> <G>
62.627

> <E>
24.788

> <-TS>
37.839

> <U+W>
0.643

> <U>
52.928

> <W>
-52.284

> <W(PB)>
-54.701

> <W(SA)>
2.416

> <Valence>
5.923

> <Coulomb>
46.207

> <VdW>
0.798

> <VdW6>
-9.984

> <VdW12>
10.782

> <Bond>
0.278

> <Angle>
1.366

> <Pdih>
4.279

> <Idih>
0.000

> <Tether>
0.000

$$$$
VeraChem MOL file


 29 28  0  0  0  0  0  0  0  0999 V2000     
   20.0305   18.8146   19.5277 C   0  0  0  0  0  0  0  0  0  0  0  0
   20.1359   17.7411   19.3233 H   0  0  0  0  0  0  0  0  0  0  0  0
   19.4713   19.2624   18.6960 H   0  0  0  0  0  0  0  0  0  0  0  0
   21.0334   19.2609   19.5388 H   0  0  0  0  0  0  0  0  0  0  0  0
   19.3018   19.0561   20.8667 C   0  0  0  0  0  0  0  0  0  0  0  0
   18.2926   18.6243   20.8150 H   0  0  0  0  0  0  0  0  0  0  0  0
   19.1794   20.1371   21.0145 H   0  0  0  0  0  0  0  0  0  0  0  0
   20.0748   18.4374   22.0554 C   0  0  0  0  0  0  0  0  0  0  0  0
   20.2604   17.3751   21.8443 H   0  0  0  0  0  0  0  0  0  0  0  0
   21.0625   18.9109   22.1418 H   0  0  0  0  0  0  0  0  0  0  0  0
   19.3282   18.5439   23.4079 C   0  0  0  0  0  0  0  0  0  0  0  0
   19.8886   17.9612   24.1466 H   0  0  0  0  0  0  0  0  0  0  0  0
   18.3441   18.0636   23.3199 H   0  0  0  0  0  0  0  0  0  0  0  0
   19.1536   20.0028   23.9034 C   0  0  0  0  0  0  0  0  0  0  0  0
   20.1239   20.5176   23.9233 H   0  0  0  0  0  0  0  0  0  0  0  0
   18.5359   20.5458   23.1765 H   0  0  0  0  0  0  0  0  0  0  0  0
   18.4622   20.1192   25.2871 C   0  0  0  0  0  0  0  0  0  0  0  0
   17.7002   19.3369   25.4021 H   0  0  0  0  0  0  0  0  0  0  0  0
   17.9101   21.0690   25.3074 H   0  0  0  0  0  0  0  0  0  0  0  0
   19.4310   20.1264   26.4995 C   0  0  0  0  0  0  0  0  0  0  0  0
   20.1436   20.9543   26.3869 H   0  0  0  0  0  0  0  0  0  0  0  0
   18.8590   20.3432   27.4114 H   0  0  0  0  0  0  0  0  0  0  0  0
   20.2215   18.8217   26.7132 C   0  0  0  0  0  0  0  0  0  0  0  0
   20.8856   18.9385   27.5739 H   0  0  0  0  0  0  0  0  0  0  0  0
   20.8400   18.6151   25.8369 H   0  0  0  0  0  0  0  0  0  0  0  0
   19.3403   17.6160   26.9741 N   0  3  0  0  0  0  0  0  0  0  0  0
   18.7010   17.4412   26.1927 H   0  0  0  0  0  0  0  0  0  0  0  0
   18.7656   17.7418   27.8138 H   0  0  0  0  0  0  0  0  0  0  0  0
   19.8925   16.7628   27.1134 H   0  0  0  0  0  0  0  0  0  0  0  0
  1  2  1  0  0  0  0
  1  3  1  0  0  0  0
  1  4  1  0  0  0  0
  1  5  1  0  0  0  0
  5  6  1  0  0  0  0
  5  7  1  0  0  0  0
  5  8  1  0  0  0  0
  8  9  1  0  0  0  0
  8 10  1  0  0  0  0
  8 11  1  0  0  0  0
 11 12  1  0  0  0  0
 11 13  1  0  0  0  0
 11 14  1  0  0  0  0
 14 15  1  0  0  0  0
 14 16  1  0  0  0  0
 14 17  1  0  0  0  0
 17 18  1  0  0  0  0
 17 19  1  0  0  0  0
 17 20  1  0  0  0  0
 20 21  1  0  0  0  0
 20 22  1  0  0  0  0
 20 23  1  0  0  0  0
 23 24  1  0  0  0  0
 23 25  1  0  0  0  0
 23 26  1  0  0  0  0
 26 27  1  0  0  0  0
 26 28  1  0  0  0  0
 26 29  1  0  0  0  0
M  END
> <VM2 Rank>
359

> <Conf_Id>
152

> <Probability>
0.00

> <Sum Probability>
99.87

> <Delta G>
4.481

> <G>
62.627

> <E>
24.813

> <-TS>
37.813

> <U+W>
0.669

> <U>
53.045

> <W>
-52.376

> <W(PB)>
-54.825

> <W(SA)>
2.449

> <Valence>
5.932

> <Coulomb>
46.352

> <VdW>
0.761

> <VdW6>
-9.985

> <VdW12>
10.746

> <Bond>
0.298

> <Angle>
1.643

> <Pdih>
3.991

> <Idih>
0.000

> <Tether>
0.000

$$$$
VeraChem MOL file


 29 28  0  0  0  0  0  0  0  0999 V2000     
   21.4731   19.1078   21.0920 C   0  0  0  0  0  0  0  0  0  0  0  0
   21.4484   18.3236   20.3241 H   0  0  0  0  0  0  0  0  0  0  0  0
   21.9737   19.9849   20.6619 H   0  0  0  0  0  0  0  0  0  0  0  0
   22.0847   18.7473   21.9294 H   0  0  0  0  0  0  0  0  0  0  0  0
   20.0484   19.4695   21.5617 C   0  0  0  0  0  0  0  0  0  0  0  0
   19.4709   19.8564   20.7107 H   0  0  0  0  0  0  0  0  0  0  0  0
   20.1102   20.2826   22.2962 H   0  0  0  0  0  0  0  0  0  0  0  0
   19.3215   18.2464   22.1693 C   0  0  0  0  0  0  0  0  0  0  0  0
   19.2927   17.4458   21.4176 H   0  0  0  0  0  0  0  0  0  0  0  0
   19.8941   17.8404   23.0123 H   0  0  0  0  0  0  0  0  0  0  0  0
   17.8685   18.5484   22.6120 C   0  0  0  0  0  0  0  0  0  0  0  0
   17.4013   17.6117   22.9456 H   0  0  0  0  0  0  0  0  0  0  0  0
   17.2936   18.8691   21.7324 H   0  0  0  0  0  0  0  0  0  0  0  0
   17.7004   19.6150   23.7279 C   0  0  0  0  0  0  0  0  0  0  0  0
   18.0658   20.5937   23.3904 H   0  0  0  0  0  0  0  0  0  0  0  0
   16.6213   19.7498   23.8851 H   0  0  0  0  0  0  0  0  0  0  0  0
   18.3329   19.2366   25.0932 C   0  0  0  0  0  0  0  0  0  0  0  0
   18.3171   18.1461   25.2206 H   0  0  0  0  0  0  0  0  0  0  0  0
   17.6967   19.6446   25.8910 H   0  0  0  0  0  0  0  0  0  0  0  0
   19.7655   19.7928   25.2945 C   0  0  0  0  0  0  0  0  0  0  0  0
   20.4549   19.3859   24.5471 H   0  0  0  0  0  0  0  0  0  0  0  0
   19.7550   20.8809   25.1480 H   0  0  0  0  0  0  0  0  0  0  0  0
   20.3198   19.4992   26.7015 C   0  0  0  0  0  0  0  0  0  0  0  0
   19.6397   19.9021   27.4568 H   0  0  0  0  0  0  0  0  0  0  0  0
   21.2900   19.9896   26.8193 H   0  0  0  0  0  0  0  0  0  0  0  0
   20.5138   18.0223   26.9828 N   0  3  0  0  0  0  0  0  0  0  0  0
   19.6307   17.5060   26.9207 H   0  0  0  0  0  0  0  0  0  0  0  0
   20.8914   17.8605   27.9229 H   0  0  0  0  0  0  0  0  0  0  0  0
   21.1655   17.5909   26.3193 H   0  0  0  0  0  0  0  0  0  0  0  0
  1  2  1  0  0  0  0
  1  3  1  0  0  0  0
  1  4  1  0  0  0  0
  1  5  1  0  0  0  0
  5  6  1  0  0  0  0
  5  7  1  0  0  0  0
  5  8  1  0  0  0  0
  8  9  1  0  0  0  0
  8 10  1  0  0  0  0
  8 11  1  0  0  0  0
 11 12  1  0  0  0  0
 11 13  1  0  0  0  0
 11 14  1  0  0  0  0
 14 15  1  0  0  0  0
 14 16  1  0  0  0  0
 14 17  1  0  0  0  0
 17 18  1  0  0  0  0
 17 19  1  0  0  0  0
 17 20  1  0  0  0  0
 20 21  1  0  0  0  0
 20 22  1  0  0  0  0
 20 23  1  0  0  0  0
 23 24  1  0  0  0  0
 23 25  1  0  0  0  0
 23 26  1  0  0  0  0
 26 27  1  0  0  0  0
 26 28  1  0  0  0  0
 26 29  1  0  0  0  0
M  END
> <VM2 Rank>
360

> <Conf_Id>
86

> <Probability>
0.00

> <Sum Probability>
99.87

> <Delta G>
4.484

> <G>
62.630

> <E>
24.486

> <-TS>
38.144

> <U+W>
0.342

> <U>
52.959

> <W>
-52.617

> <W(PB)>
-55.048

> <W(SA)>
2.431

> <Valence>
6.290

> <Coulomb>
46.161

> <VdW>
0.509

> <VdW6>
-10.494

> <VdW12>
11.002

> <Bond>
0.303

> <Angle>
1.848

> <Pdih>
4.138

> <Idih>
0.000

> <Tether>
0.000

$$$$
VeraChem MOL file


 29 28  0  0  0  0  0  0  0  0999 V2000     
   21.0351   17.8769   21.0651 C   0  0  0  0  0  0  0  0  0  0  0  0
   21.5224   18.5300   20.3294 H   0  0  0  0  0  0  0  0  0  0  0  0
   21.7247   17.7364   21.9076 H   0  0  0  0  0  0  0  0  0  0  0  0
   20.8751   16.8987   20.5934 H   0  0  0  0  0  0  0  0  0  0  0  0
   19.6957   18.4785   21.5397 C   0  0  0  0  0  0  0  0  0  0  0  0
   19.2191   17.7809   22.2402 H   0  0  0  0  0  0  0  0  0  0  0  0
   19.0159   18.5776   20.6820 H   0  0  0  0  0  0  0  0  0  0  0  0
   19.8962   19.8604   22.2056 C   0  0  0  0  0  0  0  0  0  0  0  0
   20.5845   19.7795   23.0559 H   0  0  0  0  0  0  0  0  0  0  0  0
   20.3905   20.5283   21.4868 H   0  0  0  0  0  0  0  0  0  0  0  0
   18.5729   20.5270   22.6562 C   0  0  0  0  0  0  0  0  0  0  0  0
   17.9373   20.6767   21.7726 H   0  0  0  0  0  0  0  0  0  0  0  0
   18.7979   21.5342   23.0331 H   0  0  0  0  0  0  0  0  0  0  0  0
   17.7531   19.7634   23.7312 C   0  0  0  0  0  0  0  0  0  0  0  0
   16.8294   20.3346   23.8981 H   0  0  0  0  0  0  0  0  0  0  0  0
   17.4227   18.7882   23.3501 H   0  0  0  0  0  0  0  0  0  0  0  0
   18.4631   19.6027   25.1013 C   0  0  0  0  0  0  0  0  0  0  0  0
   17.7011   19.6575   25.8913 H   0  0  0  0  0  0  0  0  0  0  0  0
   19.1382   20.4516   25.2719 H   0  0  0  0  0  0  0  0  0  0  0  0
   19.2188   18.2589   25.2604 C   0  0  0  0  0  0  0  0  0  0  0  0
   18.5250   17.4291   25.0716 H   0  0  0  0  0  0  0  0  0  0  0  0
   20.0205   18.1675   24.5198 H   0  0  0  0  0  0  0  0  0  0  0  0
   19.8145   18.0805   26.6698 C   0  0  0  0  0  0  0  0  0  0  0  0
   20.2546   17.0831   26.7546 H   0  0  0  0  0  0  0  0  0  0  0  0
   19.0226   18.1690   27.4183 H   0  0  0  0  0  0  0  0  0  0  0  0
   20.8946   19.0898   27.0058 N   0  3  0  0  0  0  0  0  0  0  0  0
   20.5377   20.0500   26.9764 H   0  0  0  0  0  0  0  0  0  0  0  0
   21.6813   19.0376   26.3505 H   0  0  0  0  0  0  0  0  0  0  0  0
   21.2764   18.9394   27.9460 H   0  0  0  0  0  0  0  0  0  0  0  0
  1  2  1  0  0  0  0
  1  3  1  0  0  0  0
  1  4  1  0  0  0  0
  1  5  1  0  0  0  0
  5  6  1  0  0  0  0
  5  7  1  0  0  0  0
  5  8  1  0  0  0  0
  8  9  1  0  0  0  0
  8 10  1  0  0  0  0
  8 11  1  0  0  0  0
 11 12  1  0  0  0  0
 11 13  1  0  0  0  0
 11 14  1  0  0  0  0
 14 15  1  0  0  0  0
 14 16  1  0  0  0  0
 14 17  1  0  0  0  0
 17 18  1  0  0  0  0
 17 19  1  0  0  0  0
 17 20  1  0  0  0  0
 20 21  1  0  0  0  0
 20 22  1  0  0  0  0
 20 23  1  0  0  0  0
 23 24  1  0  0  0  0
 23 25  1  0  0  0  0
 23 26  1  0  0  0  0
 26 27  1  0  0  0  0
 26 28  1  0  0  0  0
 26 29  1  0  0  0  0
M  END
> <VM2 Rank>
361

> <Conf_Id>
1825

> <Probability>
0.00

> <Sum Probability>
99.88

> <Delta G>
4.485

> <G>
62.632

> <E>
24.487

> <-TS>
38.144

> <U+W>
0.343

> <U>
52.960

> <W>
-52.617

> <W(PB)>
-55.012

> <W(SA)>
2.395

> <Valence>
6.290

> <Coulomb>
46.162

> <VdW>
0.509

> <VdW6>
-10.494

> <VdW12>
11.002

> <Bond>
0.303

> <Angle>
1.847

> <Pdih>
4.139

> <Idih>
0.000

> <Tether>
0.000

$$$$
VeraChem MOL file


 29 28  0  0  0  0  0  0  0  0999 V2000     
   21.0523   18.0682   20.8312 C   0  0  0  0  0  0  0  0  0  0  0  0
   21.2368   17.2610   21.5520 H   0  0  0  0  0  0  0  0  0  0  0  0
   20.5356   17.6396   19.9626 H   0  0  0  0  0  0  0  0  0  0  0  0
   22.0254   18.4461   20.4917 H   0  0  0  0  0  0  0  0  0  0  0  0
   20.2203   19.2008   21.4685 C   0  0  0  0  0  0  0  0  0  0  0  0
   20.0792   20.0067   20.7350 H   0  0  0  0  0  0  0  0  0  0  0  0
   20.7850   19.6319   22.3050 H   0  0  0  0  0  0  0  0  0  0  0  0
   18.8416   18.6918   21.9520 C   0  0  0  0  0  0  0  0  0  0  0  0
   18.3096   18.2534   21.0965 H   0  0  0  0  0  0  0  0  0  0  0  0
   18.9662   17.8749   22.6737 H   0  0  0  0  0  0  0  0  0  0  0  0
   17.9512   19.8044   22.5585 C   0  0  0  0  0  0  0  0  0  0  0  0
   16.9615   19.3813   22.7787 H   0  0  0  0  0  0  0  0  0  0  0  0
   17.7806   20.5736   21.7928 H   0  0  0  0  0  0  0  0  0  0  0  0
   18.4955   20.4929   23.8394 C   0  0  0  0  0  0  0  0  0  0  0  0
   19.4436   21.0069   23.6342 H   0  0  0  0  0  0  0  0  0  0  0  0
   17.7870   21.2905   24.1026 H   0  0  0  0  0  0  0  0  0  0  0  0
   18.6358   19.5598   25.0710 C   0  0  0  0  0  0  0  0  0  0  0  0
   17.8975   18.7480   25.0152 H   0  0  0  0  0  0  0  0  0  0  0  0
   18.3804   20.1413   25.9667 H   0  0  0  0  0  0  0  0  0  0  0  0
   20.0609   18.9786   25.2539 C   0  0  0  0  0  0  0  0  0  0  0  0
   20.3616   18.4212   24.3606 H   0  0  0  0  0  0  0  0  0  0  0  0
   20.7861   19.7951   25.3684 H   0  0  0  0  0  0  0  0  0  0  0  0
   20.1633   18.0302   26.4638 C   0  0  0  0  0  0  0  0  0  0  0  0
   21.1628   17.5877   26.4939 H   0  0  0  0  0  0  0  0  0  0  0  0
   19.4351   17.2213   26.3599 H   0  0  0  0  0  0  0  0  0  0  0  0
   19.9230   18.7114   27.7966 N   0  3  0  0  0  0  0  0  0  0  0  0
   20.0111   18.0557   28.5808 H   0  0  0  0  0  0  0  0  0  0  0  0
   18.9843   19.1192   27.8500 H   0  0  0  0  0  0  0  0  0  0  0  0
   20.5931   19.4694   27.9627 H   0  0  0  0  0  0  0  0  0  0  0  0
  1  2  1  0  0  0  0
  1  3  1  0  0  0  0
  1  4  1  0  0  0  0
  1  5  1  0  0  0  0
  5  6  1  0  0  0  0
  5  7  1  0  0  0  0
  5  8  1  0  0  0  0
  8  9  1  0  0  0  0
  8 10  1  0  0  0  0
  8 11  1  0  0  0  0
 11 12  1  0  0  0  0
 11 13  1  0  0  0  0
 11 14  1  0  0  0  0
 14 15  1  0  0  0  0
 14 16  1  0  0  0  0
 14 17  1  0  0  0  0
 17 18  1  0  0  0  0
 17 19  1  0  0  0  0
 17 20  1  0  0  0  0
 20 21  1  0  0  0  0
 20 22  1  0  0  0  0
 20 23  1  0  0  0  0
 23 24  1  0  0  0  0
 23 25  1  0  0  0  0
 23 26  1  0  0  0  0
 26 27  1  0  0  0  0
 26 28  1  0  0  0  0
 26 29  1  0  0  0  0
M  END
> <VM2 Rank>
362

> <Conf_Id>
2284

> <Probability>
0.00

> <Sum Probability>
99.88

> <Delta G>
4.486

> <G>
62.632

> <E>
24.489

> <-TS>
38.143

> <U+W>
0.345

> <U>
52.497

> <W>
-52.152

> <W(PB)>
-54.581

> <W(SA)>
2.429

> <Valence>
6.347

> <Coulomb>
45.529

> <VdW>
0.620

> <VdW6>
-10.347

> <VdW12>
10.967

> <Bond>
0.304

> <Angle>
1.793

> <Pdih>
4.251

> <Idih>
0.000

> <Tether>
0.000

$$$$
VeraChem MOL file


 29 28  0  0  0  0  0  0  0  0999 V2000     
   21.3691   18.9574   20.8510 C   0  0  0  0  0  0  0  0  0  0  0  0
   22.0120   19.4371   21.6005 H   0  0  0  0  0  0  0  0  0  0  0  0
   21.8891   18.0633   20.4832 H   0  0  0  0  0  0  0  0  0  0  0  0
   21.2518   19.6499   20.0074 H   0  0  0  0  0  0  0  0  0  0  0  0
   19.9997   18.5814   21.4548 C   0  0  0  0  0  0  0  0  0  0  0  0
   20.1531   17.8578   22.2655 H   0  0  0  0  0  0  0  0  0  0  0  0
   19.3914   18.0757   20.6920 H   0  0  0  0  0  0  0  0  0  0  0  0
   19.2462   19.8275   21.9773 C   0  0  0  0  0  0  0  0  0  0  0  0
   19.8488   20.3525   22.7289 H   0  0  0  0  0  0  0  0  0  0  0  0
   19.1231   20.5368   21.1473 H   0  0  0  0  0  0  0  0  0  0  0  0
   17.8446   19.5051   22.5518 C   0  0  0  0  0  0  0  0  0  0  0  0
   17.2371   19.0479   21.7587 H   0  0  0  0  0  0  0  0  0  0  0  0
   17.3420   20.4494   22.8026 H   0  0  0  0  0  0  0  0  0  0  0  0
   17.8131   18.5775   23.7967 C   0  0  0  0  0  0  0  0  0  0  0  0
   16.7564   18.3976   24.0380 H   0  0  0  0  0  0  0  0  0  0  0  0
   18.2258   17.5886   23.5579 H   0  0  0  0  0  0  0  0  0  0  0  0
   18.4942   19.1623   25.0621 C   0  0  0  0  0  0  0  0  0  0  0  0
   17.9162   18.8379   25.9376 H   0  0  0  0  0  0  0  0  0  0  0  0
   18.4357   20.2594   25.0491 H   0  0  0  0  0  0  0  0  0  0  0  0
   19.9632   18.7044   25.2477 C   0  0  0  0  0  0  0  0  0  0  0  0
   20.0077   17.6096   25.3193 H   0  0  0  0  0  0  0  0  0  0  0  0
   20.5610   18.9815   24.3731 H   0  0  0  0  0  0  0  0  0  0  0  0
   20.6247   19.3255   26.4928 C   0  0  0  0  0  0  0  0  0  0  0  0
   20.5730   20.4159   26.4317 H   0  0  0  0  0  0  0  0  0  0  0  0
   21.6784   19.0354   26.5263 H   0  0  0  0  0  0  0  0  0  0  0  0
   19.9892   18.8969   27.8008 N   0  3  0  0  0  0  0  0  0  0  0  0
   19.0034   19.1723   27.8513 H   0  0  0  0  0  0  0  0  0  0  0  0
   20.4607   19.3175   28.6091 H   0  0  0  0  0  0  0  0  0  0  0  0
   20.0271   17.8802   27.9270 H   0  0  0  0  0  0  0  0  0  0  0  0
  1  2  1  0  0  0  0
  1  3  1  0  0  0  0
  1  4  1  0  0  0  0
  1  5  1  0  0  0  0
  5  6  1  0  0  0  0
  5  7  1  0  0  0  0
  5  8  1  0  0  0  0
  8  9  1  0  0  0  0
  8 10  1  0  0  0  0
  8 11  1  0  0  0  0
 11 12  1  0  0  0  0
 11 13  1  0  0  0  0
 11 14  1  0  0  0  0
 14 15  1  0  0  0  0
 14 16  1  0  0  0  0
 14 17  1  0  0  0  0
 17 18  1  0  0  0  0
 17 19  1  0  0  0  0
 17 20  1  0  0  0  0
 20 21  1  0  0  0  0
 20 22  1  0  0  0  0
 20 23  1  0  0  0  0
 23 24  1  0  0  0  0
 23 25  1  0  0  0  0
 23 26  1  0  0  0  0
 26 27  1  0  0  0  0
 26 28  1  0  0  0  0
 26 29  1  0  0  0  0
M  END
> <VM2 Rank>
363

> <Conf_Id>
300

> <Probability>
0.00

> <Sum Probability>
99.88

> <Delta G>
4.487

> <G>
62.634

> <E>
24.490

> <-TS>
38.143

> <U+W>
0.346

> <U>
52.497

> <W>
-52.151

> <W(PB)>
-54.588

> <W(SA)>
2.437

> <Valence>
6.347

> <Coulomb>
45.529

> <VdW>
0.620

> <VdW6>
-10.347

> <VdW12>
10.967

> <Bond>
0.304

> <Angle>
1.794

> <Pdih>
4.249

> <Idih>
0.000

> <Tether>
0.000

$$$$
VeraChem MOL file


 29 28  0  0  0  0  0  0  0  0999 V2000     
   20.8509   19.8862   20.5616 C   0  0  0  0  0  0  0  0  0  0  0  0
   21.0608   18.9198   20.0852 H   0  0  0  0  0  0  0  0  0  0  0  0
   21.1561   20.6774   19.8646 H   0  0  0  0  0  0  0  0  0  0  0  0
   21.4808   19.9736   21.4555 H   0  0  0  0  0  0  0  0  0  0  0  0
   19.3509   20.0204   20.9085 C   0  0  0  0  0  0  0  0  0  0  0  0
   18.7728   20.0504   19.9744 H   0  0  0  0  0  0  0  0  0  0  0  0
   19.1725   20.9811   21.4114 H   0  0  0  0  0  0  0  0  0  0  0  0
   18.8164   18.8629   21.7860 C   0  0  0  0  0  0  0  0  0  0  0  0
   17.7293   18.9809   21.8941 H   0  0  0  0  0  0  0  0  0  0  0  0
   18.9738   17.9071   21.2675 H   0  0  0  0  0  0  0  0  0  0  0  0
   19.4604   18.8075   23.1918 C   0  0  0  0  0  0  0  0  0  0  0  0
   19.3551   19.7884   23.6673 H   0  0  0  0  0  0  0  0  0  0  0  0
   20.5361   18.6099   23.0976 H   0  0  0  0  0  0  0  0  0  0  0  0
   18.8182   17.7051   24.0693 C   0  0  0  0  0  0  0  0  0  0  0  0
   17.7421   17.8914   24.1894 H   0  0  0  0  0  0  0  0  0  0  0  0
   18.9020   16.7513   23.5302 H   0  0  0  0  0  0  0  0  0  0  0  0
   19.4850   17.5309   25.4590 C   0  0  0  0  0  0  0  0  0  0  0  0
   20.5722   17.6637   25.3816 H   0  0  0  0  0  0  0  0  0  0  0  0
   19.3411   16.4870   25.7704 H   0  0  0  0  0  0  0  0  0  0  0  0
   18.9006   18.4284   26.5824 C   0  0  0  0  0  0  0  0  0  0  0  0
   17.8258   18.2277   26.6827 H   0  0  0  0  0  0  0  0  0  0  0  0
   19.3521   18.1371   27.5400 H   0  0  0  0  0  0  0  0  0  0  0  0
   19.1027   19.9429   26.3860 C   0  0  0  0  0  0  0  0  0  0  0  0
   18.6624   20.4785   27.2314 H   0  0  0  0  0  0  0  0  0  0  0  0
   18.5910   20.2707   25.4785 H   0  0  0  0  0  0  0  0  0  0  0  0
   20.5588   20.3536   26.2904 N   0  3  0  0  0  0  0  0  0  0  0  0
   21.0792   20.1025   27.1374 H   0  0  0  0  0  0  0  0  0  0  0  0
   20.6620   21.3663   26.1636 H   0  0  0  0  0  0  0  0  0  0  0  0
   21.0261   19.8980   25.5006 H   0  0  0  0  0  0  0  0  0  0  0  0
  1  2  1  0  0  0  0
  1  3  1  0  0  0  0
  1  4  1  0  0  0  0
  1  5  1  0  0  0  0
  5  6  1  0  0  0  0
  5  7  1  0  0  0  0
  5  8  1  0  0  0  0
  8  9  1  0  0  0  0
  8 10  1  0  0  0  0
  8 11  1  0  0  0  0
 11 12  1  0  0  0  0
 11 13  1  0  0  0  0
 11 14  1  0  0  0  0
 14 15  1  0  0  0  0
 14 16  1  0  0  0  0
 14 17  1  0  0  0  0
 17 18  1  0  0  0  0
 17 19  1  0  0  0  0
 17 20  1  0  0  0  0
 20 21  1  0  0  0  0
 20 22  1  0  0  0  0
 20 23  1  0  0  0  0
 23 24  1  0  0  0  0
 23 25  1  0  0  0  0
 23 26  1  0  0  0  0
 26 27  1  0  0  0  0
 26 28  1  0  0  0  0
 26 29  1  0  0  0  0
M  END
> <VM2 Rank>
364

> <Conf_Id>
2188

> <Probability>
0.00

> <Sum Probability>
99.88

> <Delta G>
4.491

> <G>
62.637

> <E>
24.822

> <-TS>
37.816

> <U+W>
0.677

> <U>
53.088

> <W>
-52.411

> <W(PB)>
-54.871

> <W(SA)>
2.460

> <Valence>
5.783

> <Coulomb>
46.617

> <VdW>
0.688

> <VdW6>
-10.105

> <VdW12>
10.792

> <Bond>
0.290

> <Angle>
1.682

> <Pdih>
3.811

> <Idih>
0.000

> <Tether>
0.000

$$$$
VeraChem MOL file


 29 28  0  0  0  0  0  0  0  0999 V2000     
   20.6453   17.6288   21.0212 C   0  0  0  0  0  0  0  0  0  0  0  0
   21.6021   18.1607   21.1026 H   0  0  0  0  0  0  0  0  0  0  0  0
   20.4755   17.0802   21.9559 H   0  0  0  0  0  0  0  0  0  0  0  0
   20.7405   16.8878   20.2170 H   0  0  0  0  0  0  0  0  0  0  0  0
   19.4888   18.6087   20.7189 C   0  0  0  0  0  0  0  0  0  0  0  0
   18.5389   18.0577   20.6767 H   0  0  0  0  0  0  0  0  0  0  0  0
   19.6405   19.0369   19.7183 H   0  0  0  0  0  0  0  0  0  0  0  0
   19.3782   19.7653   21.7415 C   0  0  0  0  0  0  0  0  0  0  0  0
   20.3231   20.3254   21.7651 H   0  0  0  0  0  0  0  0  0  0  0  0
   18.6106   20.4686   21.3902 H   0  0  0  0  0  0  0  0  0  0  0  0
   19.0165   19.2926   23.1698 C   0  0  0  0  0  0  0  0  0  0  0  0
   19.8080   18.6358   23.5426 H   0  0  0  0  0  0  0  0  0  0  0  0
   18.0952   18.6956   23.1320 H   0  0  0  0  0  0  0  0  0  0  0  0
   18.8178   20.4883   24.1333 C   0  0  0  0  0  0  0  0  0  0  0  0
   19.7318   21.0963   24.1797 H   0  0  0  0  0  0  0  0  0  0  0  0
   18.0414   21.1407   23.7100 H   0  0  0  0  0  0  0  0  0  0  0  0
   18.3761   20.0829   25.5639 C   0  0  0  0  0  0  0  0  0  0  0  0
   17.6847   19.2307   25.5243 H   0  0  0  0  0  0  0  0  0  0  0  0
   17.7902   20.9136   25.9811 H   0  0  0  0  0  0  0  0  0  0  0  0
   19.5394   19.8012   26.5522 C   0  0  0  0  0  0  0  0  0  0  0  0
   20.1775   20.6921   26.6221 H   0  0  0  0  0  0  0  0  0  0  0  0
   19.1226   19.6497   27.5568 H   0  0  0  0  0  0  0  0  0  0  0  0
   20.4225   18.5891   26.1999 C   0  0  0  0  0  0  0  0  0  0  0  0
   21.2033   18.4792   26.9574 H   0  0  0  0  0  0  0  0  0  0  0  0
   20.9108   18.7533   25.2368 H   0  0  0  0  0  0  0  0  0  0  0  0
   19.6594   17.2810   26.1342 N   0  3  0  0  0  0  0  0  0  0  0  0
   19.2119   17.0588   27.0295 H   0  0  0  0  0  0  0  0  0  0  0  0
   20.2729   16.4926   25.9013 H   0  0  0  0  0  0  0  0  0  0  0  0
   18.9204   17.3128   25.4251 H   0  0  0  0  0  0  0  0  0  0  0  0
  1  2  1  0  0  0  0
  1  3  1  0  0  0  0
  1  4  1  0  0  0  0
  1  5  1  0  0  0  0
  5  6  1  0  0  0  0
  5  7  1  0  0  0  0
  5  8  1  0  0  0  0
  8  9  1  0  0  0  0
  8 10  1  0  0  0  0
  8 11  1  0  0  0  0
 11 12  1  0  0  0  0
 11 13  1  0  0  0  0
 11 14  1  0  0  0  0
 14 15  1  0  0  0  0
 14 16  1  0  0  0  0
 14 17  1  0  0  0  0
 17 18  1  0  0  0  0
 17 19  1  0  0  0  0
 17 20  1  0  0  0  0
 20 21  1  0  0  0  0
 20 22  1  0  0  0  0
 20 23  1  0  0  0  0
 23 24  1  0  0  0  0
 23 25  1  0  0  0  0
 23 26  1  0  0  0  0
 26 27  1  0  0  0  0
 26 28  1  0  0  0  0
 26 29  1  0  0  0  0
M  END
> <VM2 Rank>
365

> <Conf_Id>
1928

> <Probability>
0.00

> <Sum Probability>
99.89

> <Delta G>
4.498

> <G>
62.644

> <E>
24.818

> <-TS>
37.826

> <U+W>
0.673

> <U>
53.213

> <W>
-52.540

> <W(PB)>
-54.970

> <W(SA)>
2.430

> <Valence>
5.780

> <Coulomb>
46.780

> <VdW>
0.653

> <VdW6>
-10.175

> <VdW12>
10.827

> <Bond>
0.293

> <Angle>
1.656

> <Pdih>
3.831

> <Idih>
0.000

> <Tether>
0.000

$$$$
VeraChem MOL file


 29 28  0  0  0  0  0  0  0  0999 V2000     
   21.0091   19.2642   20.1414 C   0  0  0  0  0  0  0  0  0  0  0  0
   21.0153   19.9788   19.3081 H   0  0  0  0  0  0  0  0  0  0  0  0
   21.8707   19.4880   20.7839 H   0  0  0  0  0  0  0  0  0  0  0  0
   21.1461   18.2583   19.7236 H   0  0  0  0  0  0  0  0  0  0  0  0
   19.6875   19.3615   20.9327 C   0  0  0  0  0  0  0  0  0  0  0  0
   18.8442   19.1641   20.2563 H   0  0  0  0  0  0  0  0  0  0  0  0
   19.5657   20.3894   21.2979 H   0  0  0  0  0  0  0  0  0  0  0  0
   19.6554   18.3610   22.1126 C   0  0  0  0  0  0  0  0  0  0  0  0
   19.8207   17.3490   21.7179 H   0  0  0  0  0  0  0  0  0  0  0  0
   20.4936   18.5642   22.7892 H   0  0  0  0  0  0  0  0  0  0  0  0
   18.3122   18.3675   22.8885 C   0  0  0  0  0  0  0  0  0  0  0  0
   18.2554   17.4777   23.5302 H   0  0  0  0  0  0  0  0  0  0  0  0
   17.4954   18.2562   22.1620 H   0  0  0  0  0  0  0  0  0  0  0  0
   18.0518   19.6377   23.7438 C   0  0  0  0  0  0  0  0  0  0  0  0
   18.5280   20.5186   23.2962 H   0  0  0  0  0  0  0  0  0  0  0  0
   16.9730   19.8453   23.7227 H   0  0  0  0  0  0  0  0  0  0  0  0
   18.4712   19.5126   25.2311 C   0  0  0  0  0  0  0  0  0  0  0  0
   17.9085   18.6921   25.6962 H   0  0  0  0  0  0  0  0  0  0  0  0
   18.1651   20.4297   25.7533 H   0  0  0  0  0  0  0  0  0  0  0  0
   19.9882   19.2960   25.4472 C   0  0  0  0  0  0  0  0  0  0  0  0
   20.2886   18.3126   25.0646 H   0  0  0  0  0  0  0  0  0  0  0  0
   20.5494   20.0481   24.8770 H   0  0  0  0  0  0  0  0  0  0  0  0
   20.3952   19.4022   26.9293 C   0  0  0  0  0  0  0  0  0  0  0  0
   20.1015   20.3791   27.3225 H   0  0  0  0  0  0  0  0  0  0  0  0
   21.4815   19.3120   27.0152 H   0  0  0  0  0  0  0  0  0  0  0  0
   19.7734   18.3353   27.8086 N   0  3  0  0  0  0  0  0  0  0  0  0
   18.7499   18.3861   27.7989 H   0  0  0  0  0  0  0  0  0  0  0  0
   20.0701   18.4272   28.7864 H   0  0  0  0  0  0  0  0  0  0  0  0
   20.0334   17.3916   27.5035 H   0  0  0  0  0  0  0  0  0  0  0  0
  1  2  1  0  0  0  0
  1  3  1  0  0  0  0
  1  4  1  0  0  0  0
  1  5  1  0  0  0  0
  5  6  1  0  0  0  0
  5  7  1  0  0  0  0
  5  8  1  0  0  0  0
  8  9  1  0  0  0  0
  8 10  1  0  0  0  0
  8 11  1  0  0  0  0
 11 12  1  0  0  0  0
 11 13  1  0  0  0  0
 11 14  1  0  0  0  0
 14 15  1  0  0  0  0
 14 16  1  0  0  0  0
 14 17  1  0  0  0  0
 17 18  1  0  0  0  0
 17 19  1  0  0  0  0
 17 20  1  0  0  0  0
 20 21  1  0  0  0  0
 20 22  1  0  0  0  0
 20 23  1  0  0  0  0
 23 24  1  0  0  0  0
 23 25  1  0  0  0  0
 23 26  1  0  0  0  0
 26 27  1  0  0  0  0
 26 28  1  0  0  0  0
 26 29  1  0  0  0  0
M  END
> <VM2 Rank>
366

> <Conf_Id>
2295

> <Probability>
0.00

> <Sum Probability>
99.89

> <Delta G>
4.505

> <G>
62.651

> <E>
24.940

> <-TS>
37.711

> <U+W>
0.795

> <U>
52.817

> <W>
-52.022

> <W(PB)>
-54.465

> <W(SA)>
2.444

> <Valence>
6.436

> <Coulomb>
45.404

> <VdW>
0.977

> <VdW6>
-9.703

> <VdW12>
10.680

> <Bond>
0.304

> <Angle>
1.503

> <Pdih>
4.629

> <Idih>
0.000

> <Tether>
0.000

$$$$
VeraChem MOL file


 29 28  0  0  0  0  0  0  0  0999 V2000     
   20.8354   17.8735   21.5891 C   0  0  0  0  0  0  0  0  0  0  0  0
   21.6134   18.5651   21.9372 H   0  0  0  0  0  0  0  0  0  0  0  0
   20.3532   17.4193   22.4633 H   0  0  0  0  0  0  0  0  0  0  0  0
   21.3281   17.0668   21.0310 H   0  0  0  0  0  0  0  0  0  0  0  0
   19.8059   18.5974   20.6943 C   0  0  0  0  0  0  0  0  0  0  0  0
   19.0072   17.8953   20.4170 H   0  0  0  0  0  0  0  0  0  0  0  0
   20.2972   18.8856   19.7545 H   0  0  0  0  0  0  0  0  0  0  0  0
   19.1839   19.8658   21.3324 C   0  0  0  0  0  0  0  0  0  0  0  0
   19.9641   20.6169   21.5173 H   0  0  0  0  0  0  0  0  0  0  0  0
   18.5118   20.3143   20.5878 H   0  0  0  0  0  0  0  0  0  0  0  0
   18.3678   19.6074   22.6257 C   0  0  0  0  0  0  0  0  0  0  0  0
   17.9408   18.5953   22.6048 H   0  0  0  0  0  0  0  0  0  0  0  0
   17.5131   20.2976   22.6412 H   0  0  0  0  0  0  0  0  0  0  0  0
   19.1857   19.8229   23.9223 C   0  0  0  0  0  0  0  0  0  0  0  0
   20.0758   19.1845   23.9151 H   0  0  0  0  0  0  0  0  0  0  0  0
   19.5451   20.8606   23.9566 H   0  0  0  0  0  0  0  0  0  0  0  0
   18.3417   19.5305   25.1858 C   0  0  0  0  0  0  0  0  0  0  0  0
   17.9930   18.4893   25.1663 H   0  0  0  0  0  0  0  0  0  0  0  0
   17.4379   20.1551   25.1677 H   0  0  0  0  0  0  0  0  0  0  0  0
   19.1048   19.8057   26.5057 C   0  0  0  0  0  0  0  0  0  0  0  0
   19.3728   20.8696   26.5536 H   0  0  0  0  0  0  0  0  0  0  0  0
   18.4362   19.6199   27.3567 H   0  0  0  0  0  0  0  0  0  0  0  0
   20.3859   18.9646   26.6779 C   0  0  0  0  0  0  0  0  0  0  0  0
   20.8739   19.2346   27.6184 H   0  0  0  0  0  0  0  0  0  0  0  0
   21.0811   19.1775   25.8618 H   0  0  0  0  0  0  0  0  0  0  0  0
   20.1328   17.4703   26.7019 N   0  3  0  0  0  0  0  0  0  0  0  0
   21.0016   16.9384   26.8228 H   0  0  0  0  0  0  0  0  0  0  0  0
   19.6990   17.1480   25.8312 H   0  0  0  0  0  0  0  0  0  0  0  0
   19.5079   17.2036   27.4697 H   0  0  0  0  0  0  0  0  0  0  0  0
  1  2  1  0  0  0  0
  1  3  1  0  0  0  0
  1  4  1  0  0  0  0
  1  5  1  0  0  0  0
  5  6  1  0  0  0  0
  5  7  1  0  0  0  0
  5  8  1  0  0  0  0
  8  9  1  0  0  0  0
  8 10  1  0  0  0  0
  8 11  1  0  0  0  0
 11 12  1  0  0  0  0
 11 13  1  0  0  0  0
 11 14  1  0  0  0  0
 14 15  1  0  0  0  0
 14 16  1  0  0  0  0
 14 17  1  0  0  0  0
 17 18  1  0  0  0  0
 17 19  1  0  0  0  0
 17 20  1  0  0  0  0
 20 21  1  0  0  0  0
 20 22  1  0  0  0  0
 20 23  1  0  0  0  0
 23 24  1  0  0  0  0
 23 25  1  0  0  0  0
 23 26  1  0  0  0  0
 26 27  1  0  0  0  0
 26 28  1  0  0  0  0
 26 29  1  0  0  0  0
M  END
> <VM2 Rank>
367

> <Conf_Id>
699

> <Probability>
0.00

> <Sum Probability>
99.89

> <Delta G>
4.505

> <G>
62.651

> <E>
24.812

> <-TS>
37.839

> <U+W>
0.667

> <U>
52.927

> <W>
-52.260

> <W(PB)>
-54.683

> <W(SA)>
2.423

> <Valence>
5.923

> <Coulomb>
46.206

> <VdW>
0.798

> <VdW6>
-9.983

> <VdW12>
10.781

> <Bond>
0.278

> <Angle>
1.366

> <Pdih>
4.279

> <Idih>
0.000

> <Tether>
0.000

$$$$
VeraChem MOL file


 29 28  0  0  0  0  0  0  0  0999 V2000     
   20.5059   19.7075   20.1525 C   0  0  0  0  0  0  0  0  0  0  0  0
   20.5231   20.5443   19.4422 H   0  0  0  0  0  0  0  0  0  0  0  0
   21.0797   20.0091   21.0358 H   0  0  0  0  0  0  0  0  0  0  0  0
   21.0273   18.8626   19.6842 H   0  0  0  0  0  0  0  0  0  0  0  0
   19.0492   19.3280   20.5065 C   0  0  0  0  0  0  0  0  0  0  0  0
   18.5353   19.0518   19.5751 H   0  0  0  0  0  0  0  0  0  0  0  0
   18.5113   20.2016   20.9004 H   0  0  0  0  0  0  0  0  0  0  0  0
   18.9486   18.1403   21.4980 C   0  0  0  0  0  0  0  0  0  0  0  0
   18.0811   17.5294   21.2122 H   0  0  0  0  0  0  0  0  0  0  0  0
   19.8214   17.4815   21.3919 H   0  0  0  0  0  0  0  0  0  0  0  0
   18.7645   18.5442   22.9838 C   0  0  0  0  0  0  0  0  0  0  0  0
   18.6335   17.6233   23.5657 H   0  0  0  0  0  0  0  0  0  0  0  0
   17.8305   19.1120   23.0938 H   0  0  0  0  0  0  0  0  0  0  0  0
   19.9382   19.3670   23.5703 C   0  0  0  0  0  0  0  0  0  0  0  0
   20.8854   18.8347   23.4081 H   0  0  0  0  0  0  0  0  0  0  0  0
   20.0143   20.3180   23.0280 H   0  0  0  0  0  0  0  0  0  0  0  0
   19.7747   19.6930   25.0752 C   0  0  0  0  0  0  0  0  0  0  0  0
   18.8203   20.2131   25.2325 H   0  0  0  0  0  0  0  0  0  0  0  0
   20.5643   20.4007   25.3641 H   0  0  0  0  0  0  0  0  0  0  0  0
   19.8611   18.4475   25.9926 C   0  0  0  0  0  0  0  0  0  0  0  0
   19.0182   17.7709   25.8053 H   0  0  0  0  0  0  0  0  0  0  0  0
   20.7750   17.8855   25.7586 H   0  0  0  0  0  0  0  0  0  0  0  0
   19.8853   18.8168   27.4881 C   0  0  0  0  0  0  0  0  0  0  0  0
   20.7244   19.4887   27.6880 H   0  0  0  0  0  0  0  0  0  0  0  0
   20.0241   17.9106   28.0840 H   0  0  0  0  0  0  0  0  0  0  0  0
   18.6165   19.4936   27.9679 N   0  3  0  0  0  0  0  0  0  0  0  0
   18.4446   20.3725   27.4697 H   0  0  0  0  0  0  0  0  0  0  0  0
   18.6593   19.7179   28.9681 H   0  0  0  0  0  0  0  0  0  0  0  0
   17.7925   18.8996   27.8285 H   0  0  0  0  0  0  0  0  0  0  0  0
  1  2  1  0  0  0  0
  1  3  1  0  0  0  0
  1  4  1  0  0  0  0
  1  5  1  0  0  0  0
  5  6  1  0  0  0  0
  5  7  1  0  0  0  0
  5  8  1  0  0  0  0
  8  9  1  0  0  0  0
  8 10  1  0  0  0  0
  8 11  1  0  0  0  0
 11 12  1  0  0  0  0
 11 13  1  0  0  0  0
 11 14  1  0  0  0  0
 14 15  1  0  0  0  0
 14 16  1  0  0  0  0
 14 17  1  0  0  0  0
 17 18  1  0  0  0  0
 17 19  1  0  0  0  0
 17 20  1  0  0  0  0
 20 21  1  0  0  0  0
 20 22  1  0  0  0  0
 20 23  1  0  0  0  0
 23 24  1  0  0  0  0
 23 25  1  0  0  0  0
 23 26  1  0  0  0  0
 26 27  1  0  0  0  0
 26 28  1  0  0  0  0
 26 29  1  0  0  0  0
M  END
> <VM2 Rank>
368

> <Conf_Id>
2243

> <Probability>
0.00

> <Sum Probability>
99.90

> <Delta G>
4.508

> <G>
62.654

> <E>
24.961

> <-TS>
37.693

> <U+W>
0.817

> <U>
52.595

> <W>
-51.779

> <W(PB)>
-54.223

> <W(SA)>
2.444

> <Valence>
6.347

> <Coulomb>
45.124

> <VdW>
1.124

> <VdW6>
-9.586

> <VdW12>
10.710

> <Bond>
0.296

> <Angle>
1.512

> <Pdih>
4.539

> <Idih>
0.000

> <Tether>
0.000

$$$$
VeraChem MOL file


 29 28  0  0  0  0  0  0  0  0999 V2000     
   19.7148   18.6947   19.7037 C   0  0  0  0  0  0  0  0  0  0  0  0
   19.2370   18.5031   18.7342 H   0  0  0  0  0  0  0  0  0  0  0  0
   20.1269   19.7107   19.6717 H   0  0  0  0  0  0  0  0  0  0  0  0
   20.5478   17.9882   19.8126 H   0  0  0  0  0  0  0  0  0  0  0  0
   18.6926   18.5298   20.8513 C   0  0  0  0  0  0  0  0  0  0  0  0
   18.2176   17.5430   20.7596 H   0  0  0  0  0  0  0  0  0  0  0  0
   17.8876   19.2697   20.7403 H   0  0  0  0  0  0  0  0  0  0  0  0
   19.3213   18.6465   22.2610 C   0  0  0  0  0  0  0  0  0  0  0  0
   18.5529   18.3718   22.9949 H   0  0  0  0  0  0  0  0  0  0  0  0
   20.1332   17.9135   22.3629 H   0  0  0  0  0  0  0  0  0  0  0  0
   19.8499   20.0655   22.5859 C   0  0  0  0  0  0  0  0  0  0  0  0
   19.0213   20.7846   22.5302 H   0  0  0  0  0  0  0  0  0  0  0  0
   20.5730   20.3718   21.8194 H   0  0  0  0  0  0  0  0  0  0  0  0
   20.5446   20.1876   23.9670 C   0  0  0  0  0  0  0  0  0  0  0  0
   21.4404   19.5521   23.9959 H   0  0  0  0  0  0  0  0  0  0  0  0
   20.9115   21.2190   24.0617 H   0  0  0  0  0  0  0  0  0  0  0  0
   19.6305   19.8863   25.1831 C   0  0  0  0  0  0  0  0  0  0  0  0
   18.5817   20.0905   24.9269 H   0  0  0  0  0  0  0  0  0  0  0  0
   19.8887   20.5870   25.9884 H   0  0  0  0  0  0  0  0  0  0  0  0
   19.7845   18.4407   25.7204 C   0  0  0  0  0  0  0  0  0  0  0  0
   19.6235   17.7163   24.9139 H   0  0  0  0  0  0  0  0  0  0  0  0
   20.8118   18.2827   26.0746 H   0  0  0  0  0  0  0  0  0  0  0  0
   18.7968   18.1232   26.8594 C   0  0  0  0  0  0  0  0  0  0  0  0
   18.9000   17.0734   27.1472 H   0  0  0  0  0  0  0  0  0  0  0  0
   17.7721   18.2829   26.5131 H   0  0  0  0  0  0  0  0  0  0  0  0
   19.0091   18.9637   28.1031 N   0  3  0  0  0  0  0  0  0  0  0  0
   19.9501   18.8388   28.4905 H   0  0  0  0  0  0  0  0  0  0  0  0
   18.3442   18.7201   28.8455 H   0  0  0  0  0  0  0  0  0  0  0  0
   18.8908   19.9631   27.9097 H   0  0  0  0  0  0  0  0  0  0  0  0
  1  2  1  0  0  0  0
  1  3  1  0  0  0  0
  1  4  1  0  0  0  0
  1  5  1  0  0  0  0
  5  6  1  0  0  0  0
  5  7  1  0  0  0  0
  5  8  1  0  0  0  0
  8  9  1  0  0  0  0
  8 10  1  0  0  0  0
  8 11  1  0  0  0  0
 11 12  1  0  0  0  0
 11 13  1  0  0  0  0
 11 14  1  0  0  0  0
 14 15  1  0  0  0  0
 14 16  1  0  0  0  0
 14 17  1  0  0  0  0
 17 18  1  0  0  0  0
 17 19  1  0  0  0  0
 17 20  1  0  0  0  0
 20 21  1  0  0  0  0
 20 22  1  0  0  0  0
 20 23  1  0  0  0  0
 23 24  1  0  0  0  0
 23 25  1  0  0  0  0
 23 26  1  0  0  0  0
 26 27  1  0  0  0  0
 26 28  1  0  0  0  0
 26 29  1  0  0  0  0
M  END
> <VM2 Rank>
369

> <Conf_Id>
1020

> <Probability>
0.00

> <Sum Probability>
99.90

> <Delta G>
4.509

> <G>
62.655

> <E>
24.898

> <-TS>
37.758

> <U+W>
0.753

> <U>
52.665

> <W>
-51.912

> <W(PB)>
-54.354

> <W(SA)>
2.441

> <Valence>
6.367

> <Coulomb>
45.201

> <VdW>
1.097

> <VdW6>
-9.663

> <VdW12>
10.760

> <Bond>
0.297

> <Angle>
1.452

> <Pdih>
4.618

> <Idih>
0.000

> <Tether>
0.000

$$$$
VeraChem MOL file


 29 28  0  0  0  0  0  0  0  0999 V2000     
   18.5833   18.0653   20.4871 C   0  0  0  0  0  0  0  0  0  0  0  0
   18.0473   17.1160   20.3587 H   0  0  0  0  0  0  0  0  0  0  0  0
   17.8377   18.8373   20.7121 H   0  0  0  0  0  0  0  0  0  0  0  0
   19.0557   18.3149   19.5282 H   0  0  0  0  0  0  0  0  0  0  0  0
   19.6384   17.9422   21.6104 C   0  0  0  0  0  0  0  0  0  0  0  0
   20.2998   17.0967   21.3752 H   0  0  0  0  0  0  0  0  0  0  0  0
   19.1403   17.6858   22.5530 H   0  0  0  0  0  0  0  0  0  0  0  0
   20.5068   19.2163   21.7742 C   0  0  0  0  0  0  0  0  0  0  0  0
   21.3824   18.9873   22.3969 H   0  0  0  0  0  0  0  0  0  0  0  0
   20.9109   19.4847   20.7883 H   0  0  0  0  0  0  0  0  0  0  0  0
   19.7616   20.4462   22.3609 C   0  0  0  0  0  0  0  0  0  0  0  0
   18.6977   20.4240   22.0944 H   0  0  0  0  0  0  0  0  0  0  0  0
   20.1652   21.3486   21.8815 H   0  0  0  0  0  0  0  0  0  0  0  0
   19.9153   20.6259   23.8933 C   0  0  0  0  0  0  0  0  0  0  0  0
   20.9774   20.7592   24.1408 H   0  0  0  0  0  0  0  0  0  0  0  0
   19.4149   21.5609   24.1809 H   0  0  0  0  0  0  0  0  0  0  0  0
   19.3334   19.4642   24.7315 C   0  0  0  0  0  0  0  0  0  0  0  0
   19.9093   18.5514   24.5358 H   0  0  0  0  0  0  0  0  0  0  0  0
   18.2972   19.2700   24.4218 H   0  0  0  0  0  0  0  0  0  0  0  0
   19.3688   19.7767   26.2461 C   0  0  0  0  0  0  0  0  0  0  0  0
   20.4036   19.9493   26.5707 H   0  0  0  0  0  0  0  0  0  0  0  0
   18.8202   20.7083   26.4387 H   0  0  0  0  0  0  0  0  0  0  0  0
   18.7415   18.6575   27.0993 C   0  0  0  0  0  0  0  0  0  0  0  0
   17.7141   18.4767   26.7717 H   0  0  0  0  0  0  0  0  0  0  0  0
   18.7155   18.9712   28.1465 H   0  0  0  0  0  0  0  0  0  0  0  0
   19.4951   17.3437   27.0322 N   0  3  0  0  0  0  0  0  0  0  0  0
   19.5260   16.9725   26.0776 H   0  0  0  0  0  0  0  0  0  0  0  0
   19.0596   16.6249   27.6207 H   0  0  0  0  0  0  0  0  0  0  0  0
   20.4645   17.4449   27.3506 H   0  0  0  0  0  0  0  0  0  0  0  0
  1  2  1  0  0  0  0
  1  3  1  0  0  0  0
  1  4  1  0  0  0  0
  1  5  1  0  0  0  0
  5  6  1  0  0  0  0
  5  7  1  0  0  0  0
  5  8  1  0  0  0  0
  8  9  1  0  0  0  0
  8 10  1  0  0  0  0
  8 11  1  0  0  0  0
 11 12  1  0  0  0  0
 11 13  1  0  0  0  0
 11 14  1  0  0  0  0
 14 15  1  0  0  0  0
 14 16  1  0  0  0  0
 14 17  1  0  0  0  0
 17 18  1  0  0  0  0
 17 19  1  0  0  0  0
 17 20  1  0  0  0  0
 20 21  1  0  0  0  0
 20 22  1  0  0  0  0
 20 23  1  0  0  0  0
 23 24  1  0  0  0  0
 23 25  1  0  0  0  0
 23 26  1  0  0  0  0
 26 27  1  0  0  0  0
 26 28  1  0  0  0  0
 26 29  1  0  0  0  0
M  END
> <VM2 Rank>
370

> <Conf_Id>
1324

> <Probability>
0.00

> <Sum Probability>
99.90

> <Delta G>
4.511

> <G>
62.657

> <E>
24.939

> <-TS>
37.718

> <U+W>
0.795

> <U>
53.239

> <W>
-52.445

> <W(PB)>
-54.891

> <W(SA)>
2.446

> <Valence>
6.408

> <Coulomb>
45.846

> <VdW>
0.985

> <VdW6>
-9.690

> <VdW12>
10.676

> <Bond>
0.300

> <Angle>
1.493

> <Pdih>
4.615

> <Idih>
0.000

> <Tether>
0.000

$$$$
VeraChem MOL file


 29 28  0  0  0  0  0  0  0  0999 V2000     
   20.1867   19.2398   19.8928 C   0  0  0  0  0  0  0  0  0  0  0  0
   20.4935   19.8411   19.0272 H   0  0  0  0  0  0  0  0  0  0  0  0
   20.8572   18.3728   19.9534 H   0  0  0  0  0  0  0  0  0  0  0  0
   19.1707   18.8762   19.6966 H   0  0  0  0  0  0  0  0  0  0  0  0
   20.2509   20.0835   21.1863 C   0  0  0  0  0  0  0  0  0  0  0  0
   19.5469   20.9244   21.1161 H   0  0  0  0  0  0  0  0  0  0  0  0
   21.2529   20.5276   21.2665 H   0  0  0  0  0  0  0  0  0  0  0  0
   19.9677   19.2680   22.4711 C   0  0  0  0  0  0  0  0  0  0  0  0
   20.6641   18.4205   22.5296 H   0  0  0  0  0  0  0  0  0  0  0  0
   20.1818   19.9140   23.3318 H   0  0  0  0  0  0  0  0  0  0  0  0
   18.5086   18.7583   22.5702 C   0  0  0  0  0  0  0  0  0  0  0  0
   18.2638   18.1709   21.6763 H   0  0  0  0  0  0  0  0  0  0  0  0
   17.8225   19.6162   22.5702 H   0  0  0  0  0  0  0  0  0  0  0  0
   18.2242   17.8719   23.8104 C   0  0  0  0  0  0  0  0  0  0  0  0
   17.1772   17.5441   23.7483 H   0  0  0  0  0  0  0  0  0  0  0  0
   18.8241   16.9528   23.7617 H   0  0  0  0  0  0  0  0  0  0  0  0
   18.4284   18.5781   25.1761 C   0  0  0  0  0  0  0  0  0  0  0  0
   17.6541   18.2233   25.8704 H   0  0  0  0  0  0  0  0  0  0  0  0
   18.2639   19.6580   25.0648 H   0  0  0  0  0  0  0  0  0  0  0  0
   19.8120   18.2915   25.8135 C   0  0  0  0  0  0  0  0  0  0  0  0
   19.9299   17.2077   25.9445 H   0  0  0  0  0  0  0  0  0  0  0  0
   20.6248   18.6110   25.1514 H   0  0  0  0  0  0  0  0  0  0  0  0
   19.9811   18.9660   27.1881 C   0  0  0  0  0  0  0  0  0  0  0  0
   20.9286   18.6505   27.6333 H   0  0  0  0  0  0  0  0  0  0  0  0
   19.1711   18.6549   27.8533 H   0  0  0  0  0  0  0  0  0  0  0  0
   19.9843   20.4808   27.1266 N   0  3  0  0  0  0  0  0  0  0  0  0
   19.1057   20.8464   26.7465 H   0  0  0  0  0  0  0  0  0  0  0  0
   20.7428   20.8361   26.5354 H   0  0  0  0  0  0  0  0  0  0  0  0
   20.1071   20.8987   28.0555 H   0  0  0  0  0  0  0  0  0  0  0  0
  1  2  1  0  0  0  0
  1  3  1  0  0  0  0
  1  4  1  0  0  0  0
  1  5  1  0  0  0  0
  5  6  1  0  0  0  0
  5  7  1  0  0  0  0
  5  8  1  0  0  0  0
  8  9  1  0  0  0  0
  8 10  1  0  0  0  0
  8 11  1  0  0  0  0
 11 12  1  0  0  0  0
 11 13  1  0  0  0  0
 11 14  1  0  0  0  0
 14 15  1  0  0  0  0
 14 16  1  0  0  0  0
 14 17  1  0  0  0  0
 17 18  1  0  0  0  0
 17 19  1  0  0  0  0
 17 20  1  0  0  0  0
 20 21  1  0  0  0  0
 20 22  1  0  0  0  0
 20 23  1  0  0  0  0
 23 24  1  0  0  0  0
 23 25  1  0  0  0  0
 23 26  1  0  0  0  0
 26 27  1  0  0  0  0
 26 28  1  0  0  0  0
 26 29  1  0  0  0  0
M  END
> <VM2 Rank>
371

> <Conf_Id>
1023

> <Probability>
0.00

> <Sum Probability>
99.90

> <Delta G>
4.513

> <G>
62.659

> <E>
24.930

> <-TS>
37.730

> <U+W>
0.785

> <U>
53.351

> <W>
-52.566

> <W(PB)>
-54.996

> <W(SA)>
2.430

> <Valence>
6.329

> <Coulomb>
46.023

> <VdW>
0.999

> <VdW6>
-9.756

> <VdW12>
10.754

> <Bond>
0.298

> <Angle>
1.517

> <Pdih>
4.513

> <Idih>
0.000

> <Tether>
0.000

$$$$
VeraChem MOL file


 29 28  0  0  0  0  0  0  0  0999 V2000     
   20.1248   19.0764   19.5339 C   0  0  0  0  0  0  0  0  0  0  0  0
   20.6209   18.0973   19.5139 H   0  0  0  0  0  0  0  0  0  0  0  0
   19.4204   19.1148   18.6928 H   0  0  0  0  0  0  0  0  0  0  0  0
   20.8869   19.8495   19.3705 H   0  0  0  0  0  0  0  0  0  0  0  0
   19.3880   19.2970   20.8720 C   0  0  0  0  0  0  0  0  0  0  0  0
   18.6087   18.5309   20.9789 H   0  0  0  0  0  0  0  0  0  0  0  0
   18.8784   20.2704   20.8510 H   0  0  0  0  0  0  0  0  0  0  0  0
   20.3609   19.2422   22.0736 C   0  0  0  0  0  0  0  0  0  0  0  0
   20.8269   18.2486   22.1280 H   0  0  0  0  0  0  0  0  0  0  0  0
   21.1781   19.9563   21.9021 H   0  0  0  0  0  0  0  0  0  0  0  0
   19.6951   19.5779   23.4308 C   0  0  0  0  0  0  0  0  0  0  0  0
   19.2362   20.5745   23.3752 H   0  0  0  0  0  0  0  0  0  0  0  0
   20.4867   19.6467   24.1843 H   0  0  0  0  0  0  0  0  0  0  0  0
   18.6319   18.5385   23.8707 C   0  0  0  0  0  0  0  0  0  0  0  0
   17.8202   18.5366   23.1317 H   0  0  0  0  0  0  0  0  0  0  0  0
   19.0590   17.5264   23.8566 H   0  0  0  0  0  0  0  0  0  0  0  0
   18.0030   18.8301   25.2584 C   0  0  0  0  0  0  0  0  0  0  0  0
   16.9747   18.4427   25.2489 H   0  0  0  0  0  0  0  0  0  0  0  0
   17.9049   19.9125   25.4153 H   0  0  0  0  0  0  0  0  0  0  0  0
   18.7324   18.1642   26.4556 C   0  0  0  0  0  0  0  0  0  0  0  0
   18.1395   18.3216   27.3664 H   0  0  0  0  0  0  0  0  0  0  0  0
   18.7630   17.0776   26.3001 H   0  0  0  0  0  0  0  0  0  0  0  0
   20.1664   18.6662   26.7092 C   0  0  0  0  0  0  0  0  0  0  0  0
   20.7883   18.4704   25.8327 H   0  0  0  0  0  0  0  0  0  0  0  0
   20.5956   18.1217   27.5547 H   0  0  0  0  0  0  0  0  0  0  0  0
   20.2417   20.1457   27.0306 N   0  3  0  0  0  0  0  0  0  0  0  0
   19.8674   20.7162   26.2663 H   0  0  0  0  0  0  0  0  0  0  0  0
   21.2069   20.4518   27.1954 H   0  0  0  0  0  0  0  0  0  0  0  0
   19.7055   20.3778   27.8731 H   0  0  0  0  0  0  0  0  0  0  0  0
  1  2  1  0  0  0  0
  1  3  1  0  0  0  0
  1  4  1  0  0  0  0
  1  5  1  0  0  0  0
  5  6  1  0  0  0  0
  5  7  1  0  0  0  0
  5  8  1  0  0  0  0
  8  9  1  0  0  0  0
  8 10  1  0  0  0  0
  8 11  1  0  0  0  0
 11 12  1  0  0  0  0
 11 13  1  0  0  0  0
 11 14  1  0  0  0  0
 14 15  1  0  0  0  0
 14 16  1  0  0  0  0
 14 17  1  0  0  0  0
 17 18  1  0  0  0  0
 17 19  1  0  0  0  0
 17 20  1  0  0  0  0
 20 21  1  0  0  0  0
 20 22  1  0  0  0  0
 20 23  1  0  0  0  0
 23 24  1  0  0  0  0
 23 25  1  0  0  0  0
 23 26  1  0  0  0  0
 26 27  1  0  0  0  0
 26 28  1  0  0  0  0
 26 29  1  0  0  0  0
M  END
> <VM2 Rank>
372

> <Conf_Id>
281

> <Probability>
0.00

> <Sum Probability>
99.91

> <Delta G>
4.519

> <G>
62.666

> <E>
24.851

> <-TS>
37.814

> <U+W>
0.707

> <U>
53.045

> <W>
-52.339

> <W(PB)>
-54.797

> <W(SA)>
2.459

> <Valence>
5.932

> <Coulomb>
46.352

> <VdW>
0.761

> <VdW6>
-9.985

> <VdW12>
10.746

> <Bond>
0.298

> <Angle>
1.641

> <Pdih>
3.993

> <Idih>
0.000

> <Tether>
0.000

$$$$
VeraChem MOL file


 29 28  0  0  0  0  0  0  0  0999 V2000     
   21.1436   18.2806   22.0406 C   0  0  0  0  0  0  0  0  0  0  0  0
   21.8208   19.1438   22.0056 H   0  0  0  0  0  0  0  0  0  0  0  0
   20.8450   18.1246   23.0821 H   0  0  0  0  0  0  0  0  0  0  0  0
   21.7143   17.3971   21.7267 H   0  0  0  0  0  0  0  0  0  0  0  0
   19.9265   18.4933   21.1108 C   0  0  0  0  0  0  0  0  0  0  0  0
   19.2684   17.6138   21.1374 H   0  0  0  0  0  0  0  0  0  0  0  0
   20.3003   18.5592   20.0794 H   0  0  0  0  0  0  0  0  0  0  0  0
   19.1184   19.7806   21.4198 C   0  0  0  0  0  0  0  0  0  0  0  0
   19.7823   20.5710   21.7936 H   0  0  0  0  0  0  0  0  0  0  0  0
   18.7230   20.1628   20.4686 H   0  0  0  0  0  0  0  0  0  0  0  0
   17.9064   19.5819   22.3699 C   0  0  0  0  0  0  0  0  0  0  0  0
   17.2189   18.8535   21.9183 H   0  0  0  0  0  0  0  0  0  0  0  0
   17.3457   20.5252   22.4228 H   0  0  0  0  0  0  0  0  0  0  0  0
   18.2381   19.1227   23.8111 C   0  0  0  0  0  0  0  0  0  0  0  0
   17.2930   18.9863   24.3545 H   0  0  0  0  0  0  0  0  0  0  0  0
   18.7099   18.1335   23.7819 H   0  0  0  0  0  0  0  0  0  0  0  0
   19.1187   20.1325   24.5900 C   0  0  0  0  0  0  0  0  0  0  0  0
   18.6372   21.1198   24.5692 H   0  0  0  0  0  0  0  0  0  0  0  0
   20.0910   20.2520   24.0953 H   0  0  0  0  0  0  0  0  0  0  0  0
   19.3484   19.7219   26.0631 C   0  0  0  0  0  0  0  0  0  0  0  0
   19.8973   20.5234   26.5751 H   0  0  0  0  0  0  0  0  0  0  0  0
   18.3817   19.6256   26.5751 H   0  0  0  0  0  0  0  0  0  0  0  0
   20.1386   18.4066   26.1950 C   0  0  0  0  0  0  0  0  0  0  0  0
   21.1022   18.5040   25.6876 H   0  0  0  0  0  0  0  0  0  0  0  0
   19.5822   17.5915   25.7253 H   0  0  0  0  0  0  0  0  0  0  0  0
   20.4053   18.0180   27.6346 N   0  3  0  0  0  0  0  0  0  0  0  0
   19.5356   17.8854   28.1614 H   0  0  0  0  0  0  0  0  0  0  0  0
   20.9511   18.7323   28.1280 H   0  0  0  0  0  0  0  0  0  0  0  0
   20.9322   17.1402   27.7013 H   0  0  0  0  0  0  0  0  0  0  0  0
  1  2  1  0  0  0  0
  1  3  1  0  0  0  0
  1  4  1  0  0  0  0
  1  5  1  0  0  0  0
  5  6  1  0  0  0  0
  5  7  1  0  0  0  0
  5  8  1  0  0  0  0
  8  9  1  0  0  0  0
  8 10  1  0  0  0  0
  8 11  1  0  0  0  0
 11 12  1  0  0  0  0
 11 13  1  0  0  0  0
 11 14  1  0  0  0  0
 14 15  1  0  0  0  0
 14 16  1  0  0  0  0
 14 17  1  0  0  0  0
 17 18  1  0  0  0  0
 17 19  1  0  0  0  0
 17 20  1  0  0  0  0
 20 21  1  0  0  0  0
 20 22  1  0  0  0  0
 20 23  1  0  0  0  0
 23 24  1  0  0  0  0
 23 25  1  0  0  0  0
 23 26  1  0  0  0  0
 26 27  1  0  0  0  0
 26 28  1  0  0  0  0
 26 29  1  0  0  0  0
M  END
> <VM2 Rank>
373

> <Conf_Id>
1812

> <Probability>
0.00

> <Sum Probability>
99.91

> <Delta G>
4.520

> <G>
62.666

> <E>
24.478

> <-TS>
38.188

> <U+W>
0.333

> <U>
52.714

> <W>
-52.381

> <W(PB)>
-54.792

> <W(SA)>
2.411

> <Valence>
6.446

> <Coulomb>
45.880

> <VdW>
0.389

> <VdW6>
-10.677

> <VdW12>
11.065

> <Bond>
0.301

> <Angle>
1.936

> <Pdih>
4.209

> <Idih>
0.000

> <Tether>
0.000

$$$$
VeraChem MOL file


 29 28  0  0  0  0  0  0  0  0999 V2000     
   21.2884   18.6867   22.0502 C   0  0  0  0  0  0  0  0  0  0  0  0
   21.1408   18.9549   23.1012 H   0  0  0  0  0  0  0  0  0  0  0  0
   21.2676   17.5920   21.9715 H   0  0  0  0  0  0  0  0  0  0  0  0
   22.2936   19.0217   21.7637 H   0  0  0  0  0  0  0  0  0  0  0  0
   20.2244   19.3285   21.1298 C   0  0  0  0  0  0  0  0  0  0  0  0
   20.4871   19.0821   20.0915 H   0  0  0  0  0  0  0  0  0  0  0  0
   20.2704   20.4241   21.2005 H   0  0  0  0  0  0  0  0  0  0  0  0
   18.7801   18.8313   21.3986 C   0  0  0  0  0  0  0  0  0  0  0  0
   18.2458   18.8233   20.4386 H   0  0  0  0  0  0  0  0  0  0  0  0
   18.7893   17.7851   21.7313 H   0  0  0  0  0  0  0  0  0  0  0  0
   17.9533   19.7137   22.3727 C   0  0  0  0  0  0  0  0  0  0  0  0
   16.9218   19.3361   22.3960 H   0  0  0  0  0  0  0  0  0  0  0  0
   17.8876   20.7298   21.9600 H   0  0  0  0  0  0  0  0  0  0  0  0
   18.4800   19.8022   23.8262 C   0  0  0  0  0  0  0  0  0  0  0  0
   19.4714   20.2705   23.8297 H   0  0  0  0  0  0  0  0  0  0  0  0
   17.8265   20.4838   24.3878 H   0  0  0  0  0  0  0  0  0  0  0  0
   18.5126   18.4333   24.5521 C   0  0  0  0  0  0  0  0  0  0  0  0
   19.1971   17.7455   24.0393 H   0  0  0  0  0  0  0  0  0  0  0  0
   17.5156   17.9748   24.4992 H   0  0  0  0  0  0  0  0  0  0  0  0
   18.9296   18.5474   26.0368 C   0  0  0  0  0  0  0  0  0  0  0  0
   18.2347   19.2130   26.5659 H   0  0  0  0  0  0  0  0  0  0  0  0
   18.8407   17.5600   26.5090 H   0  0  0  0  0  0  0  0  0  0  0  0
   20.3716   19.0599   26.2093 C   0  0  0  0  0  0  0  0  0  0  0  0
   20.4627   20.0610   25.7801 H   0  0  0  0  0  0  0  0  0  0  0  0
   21.0634   18.3953   25.6848 H   0  0  0  0  0  0  0  0  0  0  0  0
   20.8039   19.1350   27.6592 N   0  3  0  0  0  0  0  0  0  0  0  0
   20.2068   19.7668   28.2031 H   0  0  0  0  0  0  0  0  0  0  0  0
   21.7662   19.4782   27.7529 H   0  0  0  0  0  0  0  0  0  0  0  0
   20.7679   18.2178   28.1162 H   0  0  0  0  0  0  0  0  0  0  0  0
  1  2  1  0  0  0  0
  1  3  1  0  0  0  0
  1  4  1  0  0  0  0
  1  5  1  0  0  0  0
  5  6  1  0  0  0  0
  5  7  1  0  0  0  0
  5  8  1  0  0  0  0
  8  9  1  0  0  0  0
  8 10  1  0  0  0  0
  8 11  1  0  0  0  0
 11 12  1  0  0  0  0
 11 13  1  0  0  0  0
 11 14  1  0  0  0  0
 14 15  1  0  0  0  0
 14 16  1  0  0  0  0
 14 17  1  0  0  0  0
 17 18  1  0  0  0  0
 17 19  1  0  0  0  0
 17 20  1  0  0  0  0
 20 21  1  0  0  0  0
 20 22  1  0  0  0  0
 20 23  1  0  0  0  0
 23 24  1  0  0  0  0
 23 25  1  0  0  0  0
 23 26  1  0  0  0  0
 26 27  1  0  0  0  0
 26 28  1  0  0  0  0
 26 29  1  0  0  0  0
M  END
> <VM2 Rank>
374

> <Conf_Id>
837

> <Probability>
0.00

> <Sum Probability>
99.91

> <Delta G>
4.526

> <G>
62.672

> <E>
24.483

> <-TS>
38.189

> <U+W>
0.339

> <U>
52.715

> <W>
-52.376

> <W(PB)>
-54.771

> <W(SA)>
2.395

> <Valence>
6.446

> <Coulomb>
45.881

> <VdW>
0.389

> <VdW6>
-10.678

> <VdW12>
11.067

> <Bond>
0.301

> <Angle>
1.936

> <Pdih>
4.208

> <Idih>
0.000

> <Tether>
0.000

$$$$
VeraChem MOL file


 29 28  0  0  0  0  0  0  0  0999 V2000     
   19.9197   18.0610   20.1157 C   0  0  0  0  0  0  0  0  0  0  0  0
   19.4144   17.4304   19.3727 H   0  0  0  0  0  0  0  0  0  0  0  0
   20.8641   18.4043   19.6738 H   0  0  0  0  0  0  0  0  0  0  0  0
   20.1616   17.4301   20.9782 H   0  0  0  0  0  0  0  0  0  0  0  0
   19.0253   19.2610   20.5050 C   0  0  0  0  0  0  0  0  0  0  0  0
   18.0510   18.9088   20.8716 H   0  0  0  0  0  0  0  0  0  0  0  0
   18.8146   19.8364   19.5927 H   0  0  0  0  0  0  0  0  0  0  0  0
   19.6836   20.2048   21.5441 C   0  0  0  0  0  0  0  0  0  0  0  0
   20.7778   20.1677   21.4519 H   0  0  0  0  0  0  0  0  0  0  0  0
   19.4012   21.2371   21.2951 H   0  0  0  0  0  0  0  0  0  0  0  0
   19.2649   19.9495   23.0152 C   0  0  0  0  0  0  0  0  0  0  0  0
   18.1807   20.0955   23.1158 H   0  0  0  0  0  0  0  0  0  0  0  0
   19.7369   20.7222   23.6349 H   0  0  0  0  0  0  0  0  0  0  0  0
   19.6466   18.5478   23.5520 C   0  0  0  0  0  0  0  0  0  0  0  0
   19.1126   17.7849   22.9714 H   0  0  0  0  0  0  0  0  0  0  0  0
   20.7193   18.3680   23.3977 H   0  0  0  0  0  0  0  0  0  0  0  0
   19.2927   18.3390   25.0450 C   0  0  0  0  0  0  0  0  0  0  0  0
   19.4536   17.2810   25.2944 H   0  0  0  0  0  0  0  0  0  0  0  0
   18.2222   18.5331   25.1949 H   0  0  0  0  0  0  0  0  0  0  0  0
   20.1335   19.2124   26.0097 C   0  0  0  0  0  0  0  0  0  0  0  0
   21.2001   19.0794   25.7854 H   0  0  0  0  0  0  0  0  0  0  0  0
   19.9102   20.2761   25.8612 H   0  0  0  0  0  0  0  0  0  0  0  0
   19.8978   18.8520   27.4889 C   0  0  0  0  0  0  0  0  0  0  0  0
   20.5693   19.4423   28.1183 H   0  0  0  0  0  0  0  0  0  0  0  0
   20.1209   17.7939   27.6502 H   0  0  0  0  0  0  0  0  0  0  0  0
   18.4800   19.1105   27.9593 N   0  3  0  0  0  0  0  0  0  0  0  0
   18.2185   20.0964   27.8551 H   0  0  0  0  0  0  0  0  0  0  0  0
   18.3573   18.8702   28.9491 H   0  0  0  0  0  0  0  0  0  0  0  0
   17.7986   18.5583   27.4291 H   0  0  0  0  0  0  0  0  0  0  0  0
  1  2  1  0  0  0  0
  1  3  1  0  0  0  0
  1  4  1  0  0  0  0
  1  5  1  0  0  0  0
  5  6  1  0  0  0  0
  5  7  1  0  0  0  0
  5  8  1  0  0  0  0
  8  9  1  0  0  0  0
  8 10  1  0  0  0  0
  8 11  1  0  0  0  0
 11 12  1  0  0  0  0
 11 13  1  0  0  0  0
 11 14  1  0  0  0  0
 14 15  1  0  0  0  0
 14 16  1  0  0  0  0
 14 17  1  0  0  0  0
 17 18  1  0  0  0  0
 17 19  1  0  0  0  0
 17 20  1  0  0  0  0
 20 21  1  0  0  0  0
 20 22  1  0  0  0  0
 20 23  1  0  0  0  0
 23 24  1  0  0  0  0
 23 25  1  0  0  0  0
 23 26  1  0  0  0  0
 26 27  1  0  0  0  0
 26 28  1  0  0  0  0
 26 29  1  0  0  0  0
M  END
> <VM2 Rank>
375

> <Conf_Id>
1275

> <Probability>
0.00

> <Sum Probability>
99.91

> <Delta G>
4.534

> <G>
62.680

> <E>
24.987

> <-TS>
37.693

> <U+W>
0.842

> <U>
52.595

> <W>
-51.753

> <W(PB)>
-54.234

> <W(SA)>
2.481

> <Valence>
6.347

> <Coulomb>
45.124

> <VdW>
1.124

> <VdW6>
-9.586

> <VdW12>
10.710

> <Bond>
0.296

> <Angle>
1.512

> <Pdih>
4.539

> <Idih>
0.000

> <Tether>
0.000

$$$$
VeraChem MOL file


 29 28  0  0  0  0  0  0  0  0999 V2000     
   20.9024   19.3809   20.3003 C   0  0  0  0  0  0  0  0  0  0  0  0
   21.2254   18.4166   19.8871 H   0  0  0  0  0  0  0  0  0  0  0  0
   21.2480   20.1681   19.6177 H   0  0  0  0  0  0  0  0  0  0  0  0
   21.4131   19.5241   21.2590 H   0  0  0  0  0  0  0  0  0  0  0  0
   19.3637   19.4295   20.4475 C   0  0  0  0  0  0  0  0  0  0  0  0
   18.9236   19.2928   19.4498 H   0  0  0  0  0  0  0  0  0  0  0  0
   19.0430   20.4248   20.7851 H   0  0  0  0  0  0  0  0  0  0  0  0
   18.8030   18.3335   21.3900 C   0  0  0  0  0  0  0  0  0  0  0  0
   17.8465   17.9845   20.9768 H   0  0  0  0  0  0  0  0  0  0  0  0
   19.4635   17.4555   21.3874 H   0  0  0  0  0  0  0  0  0  0  0  0
   18.5399   18.7968   22.8463 C   0  0  0  0  0  0  0  0  0  0  0  0
   18.0792   17.9588   23.3839 H   0  0  0  0  0  0  0  0  0  0  0  0
   17.7954   19.6048   22.8422 H   0  0  0  0  0  0  0  0  0  0  0  0
   19.8061   19.2689   23.6029 C   0  0  0  0  0  0  0  0  0  0  0  0
   20.5808   18.4911   23.5579 H   0  0  0  0  0  0  0  0  0  0  0  0
   20.2158   20.1513   23.0953 H   0  0  0  0  0  0  0  0  0  0  0  0
   19.5410   19.6552   25.0791 C   0  0  0  0  0  0  0  0  0  0  0  0
   18.7391   20.4049   25.1256 H   0  0  0  0  0  0  0  0  0  0  0  0
   20.4432   20.1443   25.4692 H   0  0  0  0  0  0  0  0  0  0  0  0
   19.1837   18.4483   25.9831 C   0  0  0  0  0  0  0  0  0  0  0  0
   18.2592   17.9765   25.6290 H   0  0  0  0  0  0  0  0  0  0  0  0
   19.9706   17.6850   25.9204 H   0  0  0  0  0  0  0  0  0  0  0  0
   18.9754   18.8513   27.4557 C   0  0  0  0  0  0  0  0  0  0  0  0
   18.6323   17.9824   28.0238 H   0  0  0  0  0  0  0  0  0  0  0  0
   18.2068   19.6262   27.5203 H   0  0  0  0  0  0  0  0  0  0  0  0
   20.2288   19.3736   28.1302 N   0  3  0  0  0  0  0  0  0  0  0  0
   20.0587   19.6190   29.1118 H   0  0  0  0  0  0  0  0  0  0  0  0
   20.5858   20.2156   27.6678 H   0  0  0  0  0  0  0  0  0  0  0  0
   20.9832   18.6793   28.1211 H   0  0  0  0  0  0  0  0  0  0  0  0
  1  2  1  0  0  0  0
  1  3  1  0  0  0  0
  1  4  1  0  0  0  0
  1  5  1  0  0  0  0
  5  6  1  0  0  0  0
  5  7  1  0  0  0  0
  5  8  1  0  0  0  0
  8  9  1  0  0  0  0
  8 10  1  0  0  0  0
  8 11  1  0  0  0  0
 11 12  1  0  0  0  0
 11 13  1  0  0  0  0
 11 14  1  0  0  0  0
 14 15  1  0  0  0  0
 14 16  1  0  0  0  0
 14 17  1  0  0  0  0
 17 18  1  0  0  0  0
 17 19  1  0  0  0  0
 17 20  1  0  0  0  0
 20 21  1  0  0  0  0
 20 22  1  0  0  0  0
 20 23  1  0  0  0  0
 23 24  1  0  0  0  0
 23 25  1  0  0  0  0
 23 26  1  0  0  0  0
 26 27  1  0  0  0  0
 26 28  1  0  0  0  0
 26 29  1  0  0  0  0
M  END
> <VM2 Rank>
376

> <Conf_Id>
2874

> <Probability>
0.00

> <Sum Probability>
99.92

> <Delta G>
4.536

> <G>
62.682

> <E>
25.034

> <-TS>
37.648

> <U+W>
0.890

> <U>
52.563

> <W>
-51.673

> <W(PB)>
-54.120

> <W(SA)>
2.447

> <Valence>
6.391

> <Coulomb>
44.996

> <VdW>
1.177

> <VdW6>
-9.539

> <VdW12>
10.715

> <Bond>
0.302

> <Angle>
1.557

> <Pdih>
4.532

> <Idih>
0.000

> <Tether>
0.000

$$$$
VeraChem MOL file


 29 28  0  0  0  0  0  0  0  0999 V2000     
   20.7745   18.1668   20.8942 C   0  0  0  0  0  0  0  0  0  0  0  0
   19.8595   17.5705   20.7918 H   0  0  0  0  0  0  0  0  0  0  0  0
   21.3230   18.0947   19.9461 H   0  0  0  0  0  0  0  0  0  0  0  0
   21.3957   17.7126   21.6770 H   0  0  0  0  0  0  0  0  0  0  0  0
   20.4566   19.6429   21.2238 C   0  0  0  0  0  0  0  0  0  0  0  0
   19.8111   20.0664   20.4417 H   0  0  0  0  0  0  0  0  0  0  0  0
   21.3912   20.2204   21.1972 H   0  0  0  0  0  0  0  0  0  0  0  0
   19.7952   19.8321   22.6099 C   0  0  0  0  0  0  0  0  0  0  0  0
   20.4589   19.4226   23.3791 H   0  0  0  0  0  0  0  0  0  0  0  0
   19.7174   20.9091   22.8124 H   0  0  0  0  0  0  0  0  0  0  0  0
   18.3836   19.1980   22.7075 C   0  0  0  0  0  0  0  0  0  0  0  0
   18.4310   18.1134   22.5457 H   0  0  0  0  0  0  0  0  0  0  0  0
   17.7732   19.6011   21.8878 H   0  0  0  0  0  0  0  0  0  0  0  0
   17.6564   19.4952   24.0454 C   0  0  0  0  0  0  0  0  0  0  0  0
   17.9546   20.4773   24.4361 H   0  0  0  0  0  0  0  0  0  0  0  0
   16.5823   19.5833   23.8312 H   0  0  0  0  0  0  0  0  0  0  0  0
   17.8180   18.3992   25.1331 C   0  0  0  0  0  0  0  0  0  0  0  0
   17.4170   17.4513   24.7488 H   0  0  0  0  0  0  0  0  0  0  0  0
   17.1857   18.6645   25.9918 H   0  0  0  0  0  0  0  0  0  0  0  0
   19.2613   18.1631   25.6379 C   0  0  0  0  0  0  0  0  0  0  0  0
   19.2419   17.3802   26.4075 H   0  0  0  0  0  0  0  0  0  0  0  0
   19.8838   17.7732   24.8232 H   0  0  0  0  0  0  0  0  0  0  0  0
   19.8962   19.4334   26.2336 C   0  0  0  0  0  0  0  0  0  0  0  0
   19.2849   19.7945   27.0650 H   0  0  0  0  0  0  0  0  0  0  0  0
   19.9391   20.2170   25.4729 H   0  0  0  0  0  0  0  0  0  0  0  0
   21.3023   19.2073   26.7498 N   0  3  0  0  0  0  0  0  0  0  0  0
   21.3262   18.5001   27.4919 H   0  0  0  0  0  0  0  0  0  0  0  0
   21.7064   20.0649   27.1418 H   0  0  0  0  0  0  0  0  0  0  0  0
   21.9354   18.8891   26.0089 H   0  0  0  0  0  0  0  0  0  0  0  0
  1  2  1  0  0  0  0
  1  3  1  0  0  0  0
  1  4  1  0  0  0  0
  1  5  1  0  0  0  0
  5  6  1  0  0  0  0
  5  7  1  0  0  0  0
  5  8  1  0  0  0  0
  8  9  1  0  0  0  0
  8 10  1  0  0  0  0
  8 11  1  0  0  0  0
 11 12  1  0  0  0  0
 11 13  1  0  0  0  0
 11 14  1  0  0  0  0
 14 15  1  0  0  0  0
 14 16  1  0  0  0  0
 14 17  1  0  0  0  0
 17 18  1  0  0  0  0
 17 19  1  0  0  0  0
 17 20  1  0  0  0  0
 20 21  1  0  0  0  0
 20 22  1  0  0  0  0
 20 23  1  0  0  0  0
 23 24  1  0  0  0  0
 23 25  1  0  0  0  0
 23 26  1  0  0  0  0
 26 27  1  0  0  0  0
 26 28  1  0  0  0  0
 26 29  1  0  0  0  0
M  END
> <VM2 Rank>
377

> <Conf_Id>
273

> <Probability>
0.00

> <Sum Probability>
99.92

> <Delta G>
4.560

> <G>
62.707

> <E>
24.685

> <-TS>
38.021

> <U+W>
0.541

> <U>
53.378

> <W>
-52.837

> <W(PB)>
-55.256

> <W(SA)>
2.419

> <Valence>
6.394

> <Coulomb>
46.521

> <VdW>
0.463

> <VdW6>
-10.599

> <VdW12>
11.062

> <Bond>
0.301

> <Angle>
1.793

> <Pdih>
4.299

> <Idih>
0.000

> <Tether>
0.000

$$$$
VeraChem MOL file


 29 28  0  0  0  0  0  0  0  0999 V2000     
   21.2739   19.6966   20.7675 C   0  0  0  0  0  0  0  0  0  0  0  0
   22.0610   19.7550   21.5306 H   0  0  0  0  0  0  0  0  0  0  0  0
   21.3608   18.7271   20.2599 H   0  0  0  0  0  0  0  0  0  0  0  0
   21.4642   20.4836   20.0262 H   0  0  0  0  0  0  0  0  0  0  0  0
   19.8760   19.8689   21.3982 C   0  0  0  0  0  0  0  0  0  0  0  0
   19.1131   19.8419   20.6075 H   0  0  0  0  0  0  0  0  0  0  0  0
   19.8089   20.8592   21.8701 H   0  0  0  0  0  0  0  0  0  0  0  0
   19.5823   18.7718   22.4445 C   0  0  0  0  0  0  0  0  0  0  0  0
   19.6442   17.7840   21.9677 H   0  0  0  0  0  0  0  0  0  0  0  0
   20.3591   18.7987   23.2177 H   0  0  0  0  0  0  0  0  0  0  0  0
   18.1844   18.9484   23.0841 C   0  0  0  0  0  0  0  0  0  0  0  0
   17.4284   18.9327   22.2870 H   0  0  0  0  0  0  0  0  0  0  0  0
   18.0996   19.9371   23.5519 H   0  0  0  0  0  0  0  0  0  0  0  0
   17.8286   17.8438   24.1104 C   0  0  0  0  0  0  0  0  0  0  0  0
   16.7984   18.0061   24.4558 H   0  0  0  0  0  0  0  0  0  0  0  0
   17.8181   16.8745   23.5930 H   0  0  0  0  0  0  0  0  0  0  0  0
   18.7580   17.7317   25.3494 C   0  0  0  0  0  0  0  0  0  0  0  0
   19.7731   17.4464   25.0466 H   0  0  0  0  0  0  0  0  0  0  0  0
   18.3916   16.8906   25.9539 H   0  0  0  0  0  0  0  0  0  0  0  0
   18.7846   18.9896   26.2587 C   0  0  0  0  0  0  0  0  0  0  0  0
   17.7823   19.4361   26.2985 H   0  0  0  0  0  0  0  0  0  0  0  0
   19.0171   18.6825   27.2870 H   0  0  0  0  0  0  0  0  0  0  0  0
   19.8069   20.0647   25.8355 C   0  0  0  0  0  0  0  0  0  0  0  0
   19.6707   20.9549   26.4556 H   0  0  0  0  0  0  0  0  0  0  0  0
   19.6483   20.3501   24.7940 H   0  0  0  0  0  0  0  0  0  0  0  0
   21.2493   19.6224   25.9867 N   0  3  0  0  0  0  0  0  0  0  0  0
   21.4714   19.3823   26.9584 H   0  0  0  0  0  0  0  0  0  0  0  0
   21.9048   20.3589   25.7032 H   0  0  0  0  0  0  0  0  0  0  0  0
   21.4556   18.7968   25.4166 H   0  0  0  0  0  0  0  0  0  0  0  0
  1  2  1  0  0  0  0
  1  3  1  0  0  0  0
  1  4  1  0  0  0  0
  1  5  1  0  0  0  0
  5  6  1  0  0  0  0
  5  7  1  0  0  0  0
  5  8  1  0  0  0  0
  8  9  1  0  0  0  0
  8 10  1  0  0  0  0
  8 11  1  0  0  0  0
 11 12  1  0  0  0  0
 11 13  1  0  0  0  0
 11 14  1  0  0  0  0
 14 15  1  0  0  0  0
 14 16  1  0  0  0  0
 14 17  1  0  0  0  0
 17 18  1  0  0  0  0
 17 19  1  0  0  0  0
 17 20  1  0  0  0  0
 20 21  1  0  0  0  0
 20 22  1  0  0  0  0
 20 23  1  0  0  0  0
 23 24  1  0  0  0  0
 23 25  1  0  0  0  0
 23 26  1  0  0  0  0
 26 27  1  0  0  0  0
 26 28  1  0  0  0  0
 26 29  1  0  0  0  0
M  END
> <VM2 Rank>
378

> <Conf_Id>
2001

> <Probability>
0.00

> <Sum Probability>
99.92

> <Delta G>
4.560

> <G>
62.707

> <E>
24.402

> <-TS>
38.305

> <U+W>
0.257

> <U>
53.119

> <W>
-52.862

> <W(PB)>
-55.228

> <W(SA)>
2.366

> <Valence>
5.725

> <Coulomb>
47.202

> <VdW>
0.192

> <VdW6>
-10.875

> <VdW12>
11.067

> <Bond>
0.290

> <Angle>
1.814

> <Pdih>
3.621

> <Idih>
0.000

> <Tether>
0.000

$$$$
VeraChem MOL file


 29 28  0  0  0  0  0  0  0  0999 V2000     
   19.3469   18.3049   20.2684 C   0  0  0  0  0  0  0  0  0  0  0  0
   19.0272   18.1805   19.2257 H   0  0  0  0  0  0  0  0  0  0  0  0
   20.2079   17.6452   20.4367 H   0  0  0  0  0  0  0  0  0  0  0  0
   18.5200   17.9709   20.9071 H   0  0  0  0  0  0  0  0  0  0  0  0
   19.7118   19.7789   20.5487 C   0  0  0  0  0  0  0  0  0  0  0  0
   18.8178   20.4056   20.4227 H   0  0  0  0  0  0  0  0  0  0  0  0
   20.4290   20.1154   19.7871 H   0  0  0  0  0  0  0  0  0  0  0  0
   20.3273   20.0288   21.9492 C   0  0  0  0  0  0  0  0  0  0  0  0
   21.2758   19.4832   22.0481 H   0  0  0  0  0  0  0  0  0  0  0  0
   20.5907   21.0938   22.0089 H   0  0  0  0  0  0  0  0  0  0  0  0
   19.3878   19.6957   23.1372 C   0  0  0  0  0  0  0  0  0  0  0  0
   18.3391   19.8157   22.8328 H   0  0  0  0  0  0  0  0  0  0  0  0
   19.5635   20.4369   23.9280 H   0  0  0  0  0  0  0  0  0  0  0  0
   19.6217   18.2810   23.7261 C   0  0  0  0  0  0  0  0  0  0  0  0
   19.5767   17.5321   22.9266 H   0  0  0  0  0  0  0  0  0  0  0  0
   20.6392   18.2174   24.1345 H   0  0  0  0  0  0  0  0  0  0  0  0
   18.5906   17.8872   24.8151 C   0  0  0  0  0  0  0  0  0  0  0  0
   18.8066   16.8636   25.1510 H   0  0  0  0  0  0  0  0  0  0  0  0
   17.5887   17.8523   24.3653 H   0  0  0  0  0  0  0  0  0  0  0  0
   18.5551   18.8224   26.0493 C   0  0  0  0  0  0  0  0  0  0  0  0
   18.2109   19.8218   25.7542 H   0  0  0  0  0  0  0  0  0  0  0  0
   17.8124   18.4396   26.7619 H   0  0  0  0  0  0  0  0  0  0  0  0
   19.9200   18.9298   26.7540 C   0  0  0  0  0  0  0  0  0  0  0  0
   20.6587   19.3482   26.0654 H   0  0  0  0  0  0  0  0  0  0  0  0
   20.2564   17.9351   27.0583 H   0  0  0  0  0  0  0  0  0  0  0  0
   19.8828   19.8092   27.9870 N   0  3  0  0  0  0  0  0  0  0  0  0
   19.2247   19.4546   28.6888 H   0  0  0  0  0  0  0  0  0  0  0  0
   19.5981   20.7685   27.7633 H   0  0  0  0  0  0  0  0  0  0  0  0
   20.8010   19.8677   28.4409 H   0  0  0  0  0  0  0  0  0  0  0  0
  1  2  1  0  0  0  0
  1  3  1  0  0  0  0
  1  4  1  0  0  0  0
  1  5  1  0  0  0  0
  5  6  1  0  0  0  0
  5  7  1  0  0  0  0
  5  8  1  0  0  0  0
  8  9  1  0  0  0  0
  8 10  1  0  0  0  0
  8 11  1  0  0  0  0
 11 12  1  0  0  0  0
 11 13  1  0  0  0  0
 11 14  1  0  0  0  0
 14 15  1  0  0  0  0
 14 16  1  0  0  0  0
 14 17  1  0  0  0  0
 17 18  1  0  0  0  0
 17 19  1  0  0  0  0
 17 20  1  0  0  0  0
 20 21  1  0  0  0  0
 20 22  1  0  0  0  0
 20 23  1  0  0  0  0
 23 24  1  0  0  0  0
 23 25  1  0  0  0  0
 23 26  1  0  0  0  0
 26 27  1  0  0  0  0
 26 28  1  0  0  0  0
 26 29  1  0  0  0  0
M  END
> <VM2 Rank>
379

> <Conf_Id>
1319

> <Probability>
0.00

> <Sum Probability>
99.92

> <Delta G>
4.568

> <G>
62.714

> <E>
24.790

> <-TS>
37.924

> <U+W>
0.645

> <U>
52.669

> <W>
-52.023

> <W(PB)>
-54.472

> <W(SA)>
2.449

> <Valence>
6.353

> <Coulomb>
45.455

> <VdW>
0.860

> <VdW6>
-10.068

> <VdW12>
10.928

> <Bond>
0.298

> <Angle>
1.597

> <Pdih>
4.458

> <Idih>
0.000

> <Tether>
0.000

$$$$
VeraChem MOL file


 29 28  0  0  0  0  0  0  0  0999 V2000     
   21.3286   19.5475   21.0638 C   0  0  0  0  0  0  0  0  0  0  0  0
   21.5308   20.0419   22.0219 H   0  0  0  0  0  0  0  0  0  0  0  0
   21.7326   18.5279   21.1099 H   0  0  0  0  0  0  0  0  0  0  0  0
   21.8818   20.0931   20.2884 H   0  0  0  0  0  0  0  0  0  0  0  0
   19.8174   19.5322   20.7396 C   0  0  0  0  0  0  0  0  0  0  0  0
   19.6782   19.1450   19.7206 H   0  0  0  0  0  0  0  0  0  0  0  0
   19.4303   20.5607   20.7332 H   0  0  0  0  0  0  0  0  0  0  0  0
   18.9864   18.6661   21.7169 C   0  0  0  0  0  0  0  0  0  0  0  0
   17.9521   18.6210   21.3490 H   0  0  0  0  0  0  0  0  0  0  0  0
   19.3643   17.6345   21.7045 H   0  0  0  0  0  0  0  0  0  0  0  0
   18.9850   19.2034   23.1679 C   0  0  0  0  0  0  0  0  0  0  0  0
   18.6489   20.2492   23.1672 H   0  0  0  0  0  0  0  0  0  0  0  0
   20.0082   19.1967   23.5551 H   0  0  0  0  0  0  0  0  0  0  0  0
   18.0620   18.3650   24.0858 C   0  0  0  0  0  0  0  0  0  0  0  0
   17.0541   18.3673   23.6479 H   0  0  0  0  0  0  0  0  0  0  0  0
   18.3856   17.3151   24.0950 H   0  0  0  0  0  0  0  0  0  0  0  0
   17.9555   18.9010   25.5375 C   0  0  0  0  0  0  0  0  0  0  0  0
   16.9708   18.6112   25.9297 H   0  0  0  0  0  0  0  0  0  0  0  0
   17.9583   19.9990   25.5416 H   0  0  0  0  0  0  0  0  0  0  0  0
   19.0212   18.3451   26.5196 C   0  0  0  0  0  0  0  0  0  0  0  0
   18.7796   18.6856   27.5352 H   0  0  0  0  0  0  0  0  0  0  0  0
   18.9524   17.2495   26.5449 H   0  0  0  0  0  0  0  0  0  0  0  0
   20.4763   18.7401   26.2034 C   0  0  0  0  0  0  0  0  0  0  0  0
   20.7649   18.3429   25.2278 H   0  0  0  0  0  0  0  0  0  0  0  0
   21.1403   18.3021   26.9536 H   0  0  0  0  0  0  0  0  0  0  0  0
   20.7116   20.2376   26.2005 N   0  3  0  0  0  0  0  0  0  0  0  0
   20.4922   20.6567   27.1102 H   0  0  0  0  0  0  0  0  0  0  0  0
   20.1288   20.7078   25.5012 H   0  0  0  0  0  0  0  0  0  0  0  0
   21.6885   20.4700   25.9907 H   0  0  0  0  0  0  0  0  0  0  0  0
  1  2  1  0  0  0  0
  1  3  1  0  0  0  0
  1  4  1  0  0  0  0
  1  5  1  0  0  0  0
  5  6  1  0  0  0  0
  5  7  1  0  0  0  0
  5  8  1  0  0  0  0
  8  9  1  0  0  0  0
  8 10  1  0  0  0  0
  8 11  1  0  0  0  0
 11 12  1  0  0  0  0
 11 13  1  0  0  0  0
 11 14  1  0  0  0  0
 14 15  1  0  0  0  0
 14 16  1  0  0  0  0
 14 17  1  0  0  0  0
 17 18  1  0  0  0  0
 17 19  1  0  0  0  0
 17 20  1  0  0  0  0
 20 21  1  0  0  0  0
 20 22  1  0  0  0  0
 20 23  1  0  0  0  0
 23 24  1  0  0  0  0
 23 25  1  0  0  0  0
 23 26  1  0  0  0  0
 26 27  1  0  0  0  0
 26 28  1  0  0  0  0
 26 29  1  0  0  0  0
M  END
> <VM2 Rank>
380

> <Conf_Id>
2012

> <Probability>
0.00

> <Sum Probability>
99.93

> <Delta G>
4.572

> <G>
62.718

> <E>
24.892

> <-TS>
37.826

> <U+W>
0.748

> <U>
53.213

> <W>
-52.465

> <W(PB)>
-54.907

> <W(SA)>
2.442

> <Valence>
5.781

> <Coulomb>
46.780

> <VdW>
0.652

> <VdW6>
-10.174

> <VdW12>
10.826

> <Bond>
0.293

> <Angle>
1.657

> <Pdih>
3.831

> <Idih>
0.000

> <Tether>
0.000

$$$$
VeraChem MOL file


 29 28  0  0  0  0  0  0  0  0999 V2000     
   20.7708   18.2863   21.0075 C   0  0  0  0  0  0  0  0  0  0  0  0
   21.3054   18.9739   21.6736 H   0  0  0  0  0  0  0  0  0  0  0  0
   21.3416   17.3495   20.9696 H   0  0  0  0  0  0  0  0  0  0  0  0
   20.7703   18.7201   19.9992 H   0  0  0  0  0  0  0  0  0  0  0  0
   19.3282   18.0221   21.4958 C   0  0  0  0  0  0  0  0  0  0  0  0
   19.3403   17.5694   22.4953 H   0  0  0  0  0  0  0  0  0  0  0  0
   18.8682   17.2728   20.8367 H   0  0  0  0  0  0  0  0  0  0  0  0
   18.4386   19.2891   21.4925 C   0  0  0  0  0  0  0  0  0  0  0  0
   18.3750   19.6686   20.4634 H   0  0  0  0  0  0  0  0  0  0  0  0
   17.4142   19.0015   21.7663 H   0  0  0  0  0  0  0  0  0  0  0  0
   18.8981   20.4480   22.4180 C   0  0  0  0  0  0  0  0  0  0  0  0
   18.2117   21.2889   22.2475 H   0  0  0  0  0  0  0  0  0  0  0  0
   19.8871   20.8176   22.1167 H   0  0  0  0  0  0  0  0  0  0  0  0
   18.8752   20.1193   23.9340 C   0  0  0  0  0  0  0  0  0  0  0  0
   18.5852   21.0289   24.4779 H   0  0  0  0  0  0  0  0  0  0  0  0
   18.0907   19.3795   24.1408 H   0  0  0  0  0  0  0  0  0  0  0  0
   20.2422   19.6441   24.4899 C   0  0  0  0  0  0  0  0  0  0  0  0
   21.0070   20.3969   24.2543 H   0  0  0  0  0  0  0  0  0  0  0  0
   20.5602   18.7182   23.9974 H   0  0  0  0  0  0  0  0  0  0  0  0
   20.2257   19.4202   26.0200 C   0  0  0  0  0  0  0  0  0  0  0  0
   21.2436   19.1817   26.3563 H   0  0  0  0  0  0  0  0  0  0  0  0
   19.9367   20.3503   26.5271 H   0  0  0  0  0  0  0  0  0  0  0  0
   19.2771   18.2828   26.4421 C   0  0  0  0  0  0  0  0  0  0  0  0
   19.5660   17.3565   25.9382 H   0  0  0  0  0  0  0  0  0  0  0  0
   18.2523   18.5281   26.1518 H   0  0  0  0  0  0  0  0  0  0  0  0
   19.2881   18.0261   27.9351 N   0  3  0  0  0  0  0  0  0  0  0  0
   20.2206   17.7622   28.2702 H   0  0  0  0  0  0  0  0  0  0  0  0
   18.6505   17.2658   28.1958 H   0  0  0  0  0  0  0  0  0  0  0  0
   18.9993   18.8540   28.4667 H   0  0  0  0  0  0  0  0  0  0  0  0
  1  2  1  0  0  0  0
  1  3  1  0  0  0  0
  1  4  1  0  0  0  0
  1  5  1  0  0  0  0
  5  6  1  0  0  0  0
  5  7  1  0  0  0  0
  5  8  1  0  0  0  0
  8  9  1  0  0  0  0
  8 10  1  0  0  0  0
  8 11  1  0  0  0  0
 11 12  1  0  0  0  0
 11 13  1  0  0  0  0
 11 14  1  0  0  0  0
 14 15  1  0  0  0  0
 14 16  1  0  0  0  0
 14 17  1  0  0  0  0
 17 18  1  0  0  0  0
 17 19  1  0  0  0  0
 17 20  1  0  0  0  0
 20 21  1  0  0  0  0
 20 22  1  0  0  0  0
 20 23  1  0  0  0  0
 23 24  1  0  0  0  0
 23 25  1  0  0  0  0
 23 26  1  0  0  0  0
 26 27  1  0  0  0  0
 26 28  1  0  0  0  0
 26 29  1  0  0  0  0
M  END
> <VM2 Rank>
381

> <Conf_Id>
978

> <Probability>
0.00

> <Sum Probability>
99.93

> <Delta G>
4.593

> <G>
62.739

> <E>
24.647

> <-TS>
38.092

> <U+W>
0.502

> <U>
52.578

> <W>
-52.076

> <W(PB)>
-54.478

> <W(SA)>
2.402

> <Valence>
6.481

> <Coulomb>
45.487

> <VdW>
0.611

> <VdW6>
-10.291

> <VdW12>
10.902

> <Bond>
0.300

> <Angle>
1.868

> <Pdih>
4.312

> <Idih>
0.000

> <Tether>
0.000

$$$$
VeraChem MOL file


 29 28  0  0  0  0  0  0  0  0999 V2000     
   20.4316   18.0578   20.2708 C   0  0  0  0  0  0  0  0  0  0  0  0
   20.7234   17.5864   21.2158 H   0  0  0  0  0  0  0  0  0  0  0  0
   20.2121   17.2571   19.5527 H   0  0  0  0  0  0  0  0  0  0  0  0
   21.2968   18.6170   19.8917 H   0  0  0  0  0  0  0  0  0  0  0  0
   19.2059   18.9860   20.4376 C   0  0  0  0  0  0  0  0  0  0  0  0
   18.3239   18.4043   20.7399 H   0  0  0  0  0  0  0  0  0  0  0  0
   18.9651   19.4093   19.4523 H   0  0  0  0  0  0  0  0  0  0  0  0
   19.4499   20.1514   21.4306 C   0  0  0  0  0  0  0  0  0  0  0  0
   20.5164   20.4144   21.4535 H   0  0  0  0  0  0  0  0  0  0  0  0
   18.9346   21.0420   21.0451 H   0  0  0  0  0  0  0  0  0  0  0  0
   18.9327   19.9011   22.8709 C   0  0  0  0  0  0  0  0  0  0  0  0
   17.8455   19.7456   22.8453 H   0  0  0  0  0  0  0  0  0  0  0  0
   19.0971   20.8196   23.4477 H   0  0  0  0  0  0  0  0  0  0  0  0
   19.6057   18.7059   23.5903 C   0  0  0  0  0  0  0  0  0  0  0  0
   19.3731   17.7840   23.0424 H   0  0  0  0  0  0  0  0  0  0  0  0
   20.6980   18.8206   23.5651 H   0  0  0  0  0  0  0  0  0  0  0  0
   19.1355   18.5158   25.0537 C   0  0  0  0  0  0  0  0  0  0  0  0
   19.5203   17.5517   25.4113 H   0  0  0  0  0  0  0  0  0  0  0  0
   18.0396   18.4402   25.0819 H   0  0  0  0  0  0  0  0  0  0  0  0
   19.6084   19.6400   26.0096 C   0  0  0  0  0  0  0  0  0  0  0  0
   20.7014   19.7361   25.9663 H   0  0  0  0  0  0  0  0  0  0  0  0
   19.1952   20.6035   25.6875 H   0  0  0  0  0  0  0  0  0  0  0  0
   19.1715   19.4015   27.4680 C   0  0  0  0  0  0  0  0  0  0  0  0
   18.0853   19.2851   27.5126 H   0  0  0  0  0  0  0  0  0  0  0  0
   19.4467   20.2684   28.0748 H   0  0  0  0  0  0  0  0  0  0  0  0
   19.8029   18.1785   28.1036 N   0  3  0  0  0  0  0  0  0  0  0  0
   19.5022   18.0572   29.0770 H   0  0  0  0  0  0  0  0  0  0  0  0
   20.8264   18.2394   28.1113 H   0  0  0  0  0  0  0  0  0  0  0  0
   19.5540   17.3195   27.6033 H   0  0  0  0  0  0  0  0  0  0  0  0
  1  2  1  0  0  0  0
  1  3  1  0  0  0  0
  1  4  1  0  0  0  0
  1  5  1  0  0  0  0
  5  6  1  0  0  0  0
  5  7  1  0  0  0  0
  5  8  1  0  0  0  0
  8  9  1  0  0  0  0
  8 10  1  0  0  0  0
  8 11  1  0  0  0  0
 11 12  1  0  0  0  0
 11 13  1  0  0  0  0
 11 14  1  0  0  0  0
 14 15  1  0  0  0  0
 14 16  1  0  0  0  0
 14 17  1  0  0  0  0
 17 18  1  0  0  0  0
 17 19  1  0  0  0  0
 17 20  1  0  0  0  0
 20 21  1  0  0  0  0
 20 22  1  0  0  0  0
 20 23  1  0  0  0  0
 23 24  1  0  0  0  0
 23 25  1  0  0  0  0
 23 26  1  0  0  0  0
 26 27  1  0  0  0  0
 26 28  1  0  0  0  0
 26 29  1  0  0  0  0
M  END
> <VM2 Rank>
382

> <Conf_Id>
260

> <Probability>
0.00

> <Sum Probability>
99.93

> <Delta G>
4.599

> <G>
62.745

> <E>
25.098

> <-TS>
37.648

> <U+W>
0.953

> <U>
52.563

> <W>
-51.609

> <W(PB)>
-54.113

> <W(SA)>
2.503

> <Valence>
6.391

> <Coulomb>
44.996

> <VdW>
1.177

> <VdW6>
-9.539

> <VdW12>
10.715

> <Bond>
0.302

> <Angle>
1.557

> <Pdih>
4.532

> <Idih>
0.000

> <Tether>
0.000

$$$$
VeraChem MOL file


 29 28  0  0  0  0  0  0  0  0999 V2000     
   21.0968   18.5000   21.3623 C   0  0  0  0  0  0  0  0  0  0  0  0
   21.6785   19.4260   21.2673 H   0  0  0  0  0  0  0  0  0  0  0  0
   21.0686   18.2237   22.4215 H   0  0  0  0  0  0  0  0  0  0  0  0
   21.6412   17.7091   20.8303 H   0  0  0  0  0  0  0  0  0  0  0  0
   19.6802   18.6728   20.7668 C   0  0  0  0  0  0  0  0  0  0  0  0
   19.1181   17.7315   20.8411 H   0  0  0  0  0  0  0  0  0  0  0  0
   19.7904   18.8742   19.6920 H   0  0  0  0  0  0  0  0  0  0  0  0
   18.8721   19.8344   21.4013 C   0  0  0  0  0  0  0  0  0  0  0  0
   19.5432   20.6473   21.7077 H   0  0  0  0  0  0  0  0  0  0  0  0
   18.2366   20.2673   20.6164 H   0  0  0  0  0  0  0  0  0  0  0  0
   17.9355   19.4203   22.5687 C   0  0  0  0  0  0  0  0  0  0  0  0
   17.2097   18.6857   22.1935 H   0  0  0  0  0  0  0  0  0  0  0  0
   17.3429   20.2954   22.8689 H   0  0  0  0  0  0  0  0  0  0  0  0
   18.6248   18.8349   23.8262 C   0  0  0  0  0  0  0  0  0  0  0  0
   17.8388   18.5397   24.5336 H   0  0  0  0  0  0  0  0  0  0  0  0
   19.1533   17.9096   23.5656 H   0  0  0  0  0  0  0  0  0  0  0  0
   19.5886   19.8301   24.5212 C   0  0  0  0  0  0  0  0  0  0  0  0
   19.0388   20.7369   24.8089 H   0  0  0  0  0  0  0  0  0  0  0  0
   20.3652   20.1505   23.8154 H   0  0  0  0  0  0  0  0  0  0  0  0
   20.2830   19.2305   25.7663 C   0  0  0  0  0  0  0  0  0  0  0  0
   20.8474   18.3338   25.4775 H   0  0  0  0  0  0  0  0  0  0  0  0
   21.0158   19.9539   26.1478 H   0  0  0  0  0  0  0  0  0  0  0  0
   19.2916   18.8791   26.8911 C   0  0  0  0  0  0  0  0  0  0  0  0
   18.5840   18.1241   26.5392 H   0  0  0  0  0  0  0  0  0  0  0  0
   18.7293   19.7718   27.1780 H   0  0  0  0  0  0  0  0  0  0  0  0
   19.9714   18.3359   28.1312 N   0  3  0  0  0  0  0  0  0  0  0  0
   20.4976   17.4783   27.9334 H   0  0  0  0  0  0  0  0  0  0  0  0
   19.2946   18.1085   28.8680 H   0  0  0  0  0  0  0  0  0  0  0  0
   20.6324   19.0105   28.5306 H   0  0  0  0  0  0  0  0  0  0  0  0
  1  2  1  0  0  0  0
  1  3  1  0  0  0  0
  1  4  1  0  0  0  0
  1  5  1  0  0  0  0
  5  6  1  0  0  0  0
  5  7  1  0  0  0  0
  5  8  1  0  0  0  0
  8  9  1  0  0  0  0
  8 10  1  0  0  0  0
  8 11  1  0  0  0  0
 11 12  1  0  0  0  0
 11 13  1  0  0  0  0
 11 14  1  0  0  0  0
 14 15  1  0  0  0  0
 14 16  1  0  0  0  0
 14 17  1  0  0  0  0
 17 18  1  0  0  0  0
 17 19  1  0  0  0  0
 17 20  1  0  0  0  0
 20 21  1  0  0  0  0
 20 22  1  0  0  0  0
 20 23  1  0  0  0  0
 23 24  1  0  0  0  0
 23 25  1  0  0  0  0
 23 26  1  0  0  0  0
 26 27  1  0  0  0  0
 26 28  1  0  0  0  0
 26 29  1  0  0  0  0
M  END
> <VM2 Rank>
383

> <Conf_Id>
841

> <Probability>
0.00

> <Sum Probability>
99.93

> <Delta G>
4.606

> <G>
62.752

> <E>
24.631

> <-TS>
38.121

> <U+W>
0.487

> <U>
52.469

> <W>
-51.982

> <W(PB)>
-54.381

> <W(SA)>
2.399

> <Valence>
6.500

> <Coulomb>
45.340

> <VdW>
0.629

> <VdW6>
-10.352

> <VdW12>
10.981

> <Bond>
0.305

> <Angle>
1.982

> <Pdih>
4.214

> <Idih>
0.000

> <Tether>
0.000

$$$$
VeraChem MOL file


 29 28  0  0  0  0  0  0  0  0999 V2000     
   20.9502   18.1235   20.4629 C   0  0  0  0  0  0  0  0  0  0  0  0
   21.5063   18.9492   20.0002 H   0  0  0  0  0  0  0  0  0  0  0  0
   21.6566   17.3040   20.6485 H   0  0  0  0  0  0  0  0  0  0  0  0
   20.2029   17.7677   19.7415 H   0  0  0  0  0  0  0  0  0  0  0  0
   20.2801   18.5734   21.7783 C   0  0  0  0  0  0  0  0  0  0  0  0
   21.0528   18.8990   22.4885 H   0  0  0  0  0  0  0  0  0  0  0  0
   19.7682   17.7118   22.2266 H   0  0  0  0  0  0  0  0  0  0  0  0
   19.2705   19.7193   21.5410 C   0  0  0  0  0  0  0  0  0  0  0  0
   19.7666   20.5194   20.9744 H   0  0  0  0  0  0  0  0  0  0  0  0
   18.4509   19.3580   20.9047 H   0  0  0  0  0  0  0  0  0  0  0  0
   18.6847   20.3351   22.8378 C   0  0  0  0  0  0  0  0  0  0  0  0
   18.0288   21.1648   22.5401 H   0  0  0  0  0  0  0  0  0  0  0  0
   19.4886   20.7944   23.4260 H   0  0  0  0  0  0  0  0  0  0  0  0
   17.8510   19.3518   23.7042 C   0  0  0  0  0  0  0  0  0  0  0  0
   17.0059   19.8979   24.1456 H   0  0  0  0  0  0  0  0  0  0  0  0
   17.3988   18.5883   23.0565 H   0  0  0  0  0  0  0  0  0  0  0  0
   18.6353   18.6606   24.8502 C   0  0  0  0  0  0  0  0  0  0  0  0
   19.5343   18.1744   24.4557 H   0  0  0  0  0  0  0  0  0  0  0  0
   18.0081   17.8579   25.2622 H   0  0  0  0  0  0  0  0  0  0  0  0
   19.0178   19.6270   25.9996 C   0  0  0  0  0  0  0  0  0  0  0  0
   19.7041   20.4041   25.6417 H   0  0  0  0  0  0  0  0  0  0  0  0
   18.1168   20.1443   26.3547 H   0  0  0  0  0  0  0  0  0  0  0  0
   19.6620   18.8980   27.1944 C   0  0  0  0  0  0  0  0  0  0  0  0
   18.9859   18.1202   27.5594 H   0  0  0  0  0  0  0  0  0  0  0  0
   19.8318   19.6110   28.0058 H   0  0  0  0  0  0  0  0  0  0  0  0
   20.9924   18.2492   26.8665 N   0  3  0  0  0  0  0  0  0  0  0  0
   20.8975   17.5398   26.1332 H   0  0  0  0  0  0  0  0  0  0  0  0
   21.4002   17.7836   27.6847 H   0  0  0  0  0  0  0  0  0  0  0  0
   21.6797   18.9358   26.5386 H   0  0  0  0  0  0  0  0  0  0  0  0
  1  2  1  0  0  0  0
  1  3  1  0  0  0  0
  1  4  1  0  0  0  0
  1  5  1  0  0  0  0
  5  6  1  0  0  0  0
  5  7  1  0  0  0  0
  5  8  1  0  0  0  0
  8  9  1  0  0  0  0
  8 10  1  0  0  0  0
  8 11  1  0  0  0  0
 11 12  1  0  0  0  0
 11 13  1  0  0  0  0
 11 14  1  0  0  0  0
 14 15  1  0  0  0  0
 14 16  1  0  0  0  0
 14 17  1  0  0  0  0
 17 18  1  0  0  0  0
 17 19  1  0  0  0  0
 17 20  1  0  0  0  0
 20 21  1  0  0  0  0
 20 22  1  0  0  0  0
 20 23  1  0  0  0  0
 23 24  1  0  0  0  0
 23 25  1  0  0  0  0
 23 26  1  0  0  0  0
 26 27  1  0  0  0  0
 26 28  1  0  0  0  0
 26 29  1  0  0  0  0
M  END
> <VM2 Rank>
384

> <Conf_Id>
2879

> <Probability>
0.00

> <Sum Probability>
99.94

> <Delta G>
4.613

> <G>
62.759

> <E>
25.057

> <-TS>
37.702

> <U+W>
0.913

> <U>
53.508

> <W>
-52.595

> <W(PB)>
-55.025

> <W(SA)>
2.430

> <Valence>
6.434

> <Coulomb>
46.137

> <VdW>
0.938

> <VdW6>
-9.756

> <VdW12>
10.693

> <Bond>
0.309

> <Angle>
1.511

> <Pdih>
4.614

> <Idih>
0.000

> <Tether>
0.000

$$$$
VeraChem MOL file


 29 28  0  0  0  0  0  0  0  0999 V2000     
   21.1950   18.3564   21.9536 C   0  0  0  0  0  0  0  0  0  0  0  0
   21.0858   17.3080   22.2598 H   0  0  0  0  0  0  0  0  0  0  0  0
   22.1593   18.4534   21.4381 H   0  0  0  0  0  0  0  0  0  0  0  0
   21.2437   18.9719   22.8578 H   0  0  0  0  0  0  0  0  0  0  0  0
   20.0398   18.7836   21.0185 C   0  0  0  0  0  0  0  0  0  0  0  0
   20.1087   18.1792   20.1031 H   0  0  0  0  0  0  0  0  0  0  0  0
   20.1725   19.8272   20.7012 H   0  0  0  0  0  0  0  0  0  0  0  0
   18.6294   18.5819   21.6312 C   0  0  0  0  0  0  0  0  0  0  0  0
   17.9435   18.3237   20.8126 H   0  0  0  0  0  0  0  0  0  0  0  0
   18.6211   17.7101   22.2983 H   0  0  0  0  0  0  0  0  0  0  0  0
   18.0388   19.8290   22.3436 C   0  0  0  0  0  0  0  0  0  0  0  0
   17.0051   19.6046   22.6407 H   0  0  0  0  0  0  0  0  0  0  0  0
   17.9668   20.6494   21.6165 H   0  0  0  0  0  0  0  0  0  0  0  0
   18.8110   20.3362   23.5866 C   0  0  0  0  0  0  0  0  0  0  0  0
   19.8184   20.6580   23.2948 H   0  0  0  0  0  0  0  0  0  0  0  0
   18.3071   21.2385   23.9596 H   0  0  0  0  0  0  0  0  0  0  0  0
   18.8867   19.2985   24.7322 C   0  0  0  0  0  0  0  0  0  0  0  0
   19.4011   18.3955   24.3824 H   0  0  0  0  0  0  0  0  0  0  0  0
   17.8701   18.9947   25.0178 H   0  0  0  0  0  0  0  0  0  0  0  0
   19.6223   19.8658   25.9689 C   0  0  0  0  0  0  0  0  0  0  0  0
   20.6467   20.1539   25.6978 H   0  0  0  0  0  0  0  0  0  0  0  0
   19.1174   20.7815   26.3042 H   0  0  0  0  0  0  0  0  0  0  0  0
   19.6621   18.8718   27.1454 C   0  0  0  0  0  0  0  0  0  0  0  0
   18.6440   18.5746   27.4110 H   0  0  0  0  0  0  0  0  0  0  0  0
   20.1138   19.3569   28.0149 H   0  0  0  0  0  0  0  0  0  0  0  0
   20.4588   17.6150   26.8551 N   0  3  0  0  0  0  0  0  0  0  0  0
   20.0646   17.0896   26.0686 H   0  0  0  0  0  0  0  0  0  0  0  0
   20.4763   16.9812   27.6618 H   0  0  0  0  0  0  0  0  0  0  0  0
   21.4338   17.8286   26.6205 H   0  0  0  0  0  0  0  0  0  0  0  0
  1  2  1  0  0  0  0
  1  3  1  0  0  0  0
  1  4  1  0  0  0  0
  1  5  1  0  0  0  0
  5  6  1  0  0  0  0
  5  7  1  0  0  0  0
  5  8  1  0  0  0  0
  8  9  1  0  0  0  0
  8 10  1  0  0  0  0
  8 11  1  0  0  0  0
 11 12  1  0  0  0  0
 11 13  1  0  0  0  0
 11 14  1  0  0  0  0
 14 15  1  0  0  0  0
 14 16  1  0  0  0  0
 14 17  1  0  0  0  0
 17 18  1  0  0  0  0
 17 19  1  0  0  0  0
 17 20  1  0  0  0  0
 20 21  1  0  0  0  0
 20 22  1  0  0  0  0
 20 23  1  0  0  0  0
 23 24  1  0  0  0  0
 23 25  1  0  0  0  0
 23 26  1  0  0  0  0
 26 27  1  0  0  0  0
 26 28  1  0  0  0  0
 26 29  1  0  0  0  0
M  END
> <VM2 Rank>
385

> <Conf_Id>
328

> <Probability>
0.00

> <Sum Probability>
99.94

> <Delta G>
4.627

> <G>
62.773

> <E>
24.628

> <-TS>
38.145

> <U+W>
0.483

> <U>
52.998

> <W>
-52.515

> <W(PB)>
-54.900

> <W(SA)>
2.384

> <Valence>
6.240

> <Coulomb>
46.194

> <VdW>
0.564

> <VdW6>
-10.443

> <VdW12>
11.007

> <Bond>
0.299

> <Angle>
1.873

> <Pdih>
4.069

> <Idih>
0.000

> <Tether>
0.000

$$$$
VeraChem MOL file


 29 28  0  0  0  0  0  0  0  0999 V2000     
   19.9712   18.6348   19.8794 C   0  0  0  0  0  0  0  0  0  0  0  0
   21.0377   18.8802   19.9646 H   0  0  0  0  0  0  0  0  0  0  0  0
   19.8413   18.0096   18.9865 H   0  0  0  0  0  0  0  0  0  0  0  0
   19.4160   19.5658   19.7120 H   0  0  0  0  0  0  0  0  0  0  0  0
   19.4700   17.8899   21.1376 C   0  0  0  0  0  0  0  0  0  0  0  0
   19.9651   16.9100   21.1860 H   0  0  0  0  0  0  0  0  0  0  0  0
   18.3941   17.6863   21.0443 H   0  0  0  0  0  0  0  0  0  0  0  0
   19.7476   18.6495   22.4575 C   0  0  0  0  0  0  0  0  0  0  0  0
   19.4934   17.9801   23.2889 H   0  0  0  0  0  0  0  0  0  0  0  0
   20.8219   18.8634   22.5395 H   0  0  0  0  0  0  0  0  0  0  0  0
   18.9373   19.9619   22.5971 C   0  0  0  0  0  0  0  0  0  0  0  0
   17.8635   19.7311   22.5727 H   0  0  0  0  0  0  0  0  0  0  0  0
   19.1313   20.6067   21.7307 H   0  0  0  0  0  0  0  0  0  0  0  0
   19.2591   20.7787   23.8753 C   0  0  0  0  0  0  0  0  0  0  0  0
   20.3054   21.1133   23.8547 H   0  0  0  0  0  0  0  0  0  0  0  0
   18.6555   21.6963   23.8410 H   0  0  0  0  0  0  0  0  0  0  0  0
   18.9519   20.0488   25.2089 C   0  0  0  0  0  0  0  0  0  0  0  0
   18.1440   19.3209   25.0572 H   0  0  0  0  0  0  0  0  0  0  0  0
   18.5658   20.7850   25.9275 H   0  0  0  0  0  0  0  0  0  0  0  0
   20.1964   19.3716   25.8378 C   0  0  0  0  0  0  0  0  0  0  0  0
   20.6343   18.6373   25.1521 H   0  0  0  0  0  0  0  0  0  0  0  0
   20.9703   20.1313   26.0103 H   0  0  0  0  0  0  0  0  0  0  0  0
   19.8818   18.6877   27.1818 C   0  0  0  0  0  0  0  0  0  0  0  0
   19.4408   19.4137   27.8702 H   0  0  0  0  0  0  0  0  0  0  0  0
   20.8093   18.3160   27.6259 H   0  0  0  0  0  0  0  0  0  0  0  0
   18.9287   17.5151   27.0597 N   0  3  0  0  0  0  0  0  0  0  0  0
   18.0221   17.8020   26.6776 H   0  0  0  0  0  0  0  0  0  0  0  0
   18.7466   17.0770   27.9693 H   0  0  0  0  0  0  0  0  0  0  0  0
   19.3010   16.7846   26.4442 H   0  0  0  0  0  0  0  0  0  0  0  0
  1  2  1  0  0  0  0
  1  3  1  0  0  0  0
  1  4  1  0  0  0  0
  1  5  1  0  0  0  0
  5  6  1  0  0  0  0
  5  7  1  0  0  0  0
  5  8  1  0  0  0  0
  8  9  1  0  0  0  0
  8 10  1  0  0  0  0
  8 11  1  0  0  0  0
 11 12  1  0  0  0  0
 11 13  1  0  0  0  0
 11 14  1  0  0  0  0
 14 15  1  0  0  0  0
 14 16  1  0  0  0  0
 14 17  1  0  0  0  0
 17 18  1  0  0  0  0
 17 19  1  0  0  0  0
 17 20  1  0  0  0  0
 20 21  1  0  0  0  0
 20 22  1  0  0  0  0
 20 23  1  0  0  0  0
 23 24  1  0  0  0  0
 23 25  1  0  0  0  0
 23 26  1  0  0  0  0
 26 27  1  0  0  0  0
 26 28  1  0  0  0  0
 26 29  1  0  0  0  0
M  END
> <VM2 Rank>
386

> <Conf_Id>
314

> <Probability>
0.00

> <Sum Probability>
99.94

> <Delta G>
4.632

> <G>
62.779

> <E>
25.049

> <-TS>
37.730

> <U+W>
0.904

> <U>
53.351

> <W>
-52.447

> <W(PB)>
-54.905

> <W(SA)>
2.458

> <Valence>
6.328

> <Coulomb>
46.024

> <VdW>
0.999

> <VdW6>
-9.756

> <VdW12>
10.755

> <Bond>
0.298

> <Angle>
1.517

> <Pdih>
4.514

> <Idih>
0.000

> <Tether>
0.000

$$$$
VeraChem MOL file


 29 28  0  0  0  0  0  0  0  0999 V2000     
   20.0303   20.4854   20.1736 C   0  0  0  0  0  0  0  0  0  0  0  0
   19.1246   20.5152   19.5539 H   0  0  0  0  0  0  0  0  0  0  0  0
   20.3987   21.5138   20.2811 H   0  0  0  0  0  0  0  0  0  0  0  0
   20.7938   19.9081   19.6361 H   0  0  0  0  0  0  0  0  0  0  0  0
   19.7372   19.8645   21.5558 C   0  0  0  0  0  0  0  0  0  0  0  0
   18.9906   20.4772   22.0800 H   0  0  0  0  0  0  0  0  0  0  0  0
   20.6560   19.8880   22.1563 H   0  0  0  0  0  0  0  0  0  0  0  0
   19.2272   18.4107   21.4312 C   0  0  0  0  0  0  0  0  0  0  0  0
   18.3817   18.3886   20.7297 H   0  0  0  0  0  0  0  0  0  0  0  0
   20.0117   17.7853   20.9834 H   0  0  0  0  0  0  0  0  0  0  0  0
   18.7645   17.7794   22.7696 C   0  0  0  0  0  0  0  0  0  0  0  0
   18.3777   16.7760   22.5442 H   0  0  0  0  0  0  0  0  0  0  0  0
   17.9103   18.3408   23.1676 H   0  0  0  0  0  0  0  0  0  0  0  0
   19.8833   17.6348   23.8372 C   0  0  0  0  0  0  0  0  0  0  0  0
   19.7337   16.6936   24.3841 H   0  0  0  0  0  0  0  0  0  0  0  0
   20.8546   17.5293   23.3348 H   0  0  0  0  0  0  0  0  0  0  0  0
   19.9566   18.7913   24.8682 C   0  0  0  0  0  0  0  0  0  0  0  0
   19.9829   19.7611   24.3570 H   0  0  0  0  0  0  0  0  0  0  0  0
   20.9075   18.7039   25.4100 H   0  0  0  0  0  0  0  0  0  0  0  0
   18.7902   18.7739   25.8884 C   0  0  0  0  0  0  0  0  0  0  0  0
   17.8302   18.8482   25.3635 H   0  0  0  0  0  0  0  0  0  0  0  0
   18.7772   17.8175   26.4278 H   0  0  0  0  0  0  0  0  0  0  0  0
   18.8713   19.9321   26.9014 C   0  0  0  0  0  0  0  0  0  0  0  0
   17.9813   19.9210   27.5365 H   0  0  0  0  0  0  0  0  0  0  0  0
   18.8981   20.8863   26.3683 H   0  0  0  0  0  0  0  0  0  0  0  0
   20.0835   19.8660   27.8095 N   0  3  0  0  0  0  0  0  0  0  0  0
   20.1001   20.6428   28.4796 H   0  0  0  0  0  0  0  0  0  0  0  0
   20.9586   19.9090   27.2780 H   0  0  0  0  0  0  0  0  0  0  0  0
   20.1025   18.9985   28.3557 H   0  0  0  0  0  0  0  0  0  0  0  0
  1  2  1  0  0  0  0
  1  3  1  0  0  0  0
  1  4  1  0  0  0  0
  1  5  1  0  0  0  0
  5  6  1  0  0  0  0
  5  7  1  0  0  0  0
  5  8  1  0  0  0  0
  8  9  1  0  0  0  0
  8 10  1  0  0  0  0
  8 11  1  0  0  0  0
 11 12  1  0  0  0  0
 11 13  1  0  0  0  0
 11 14  1  0  0  0  0
 14 15  1  0  0  0  0
 14 16  1  0  0  0  0
 14 17  1  0  0  0  0
 17 18  1  0  0  0  0
 17 19  1  0  0  0  0
 17 20  1  0  0  0  0
 20 21  1  0  0  0  0
 20 22  1  0  0  0  0
 20 23  1  0  0  0  0
 23 24  1  0  0  0  0
 23 25  1  0  0  0  0
 23 26  1  0  0  0  0
 26 27  1  0  0  0  0
 26 28  1  0  0  0  0
 26 29  1  0  0  0  0
M  END
> <VM2 Rank>
387

> <Conf_Id>
1045

> <Probability>
0.00

> <Sum Probability>
99.94

> <Delta G>
4.640

> <G>
62.786

> <E>
25.048

> <-TS>
37.738

> <U+W>
0.903

> <U>
52.921

> <W>
-52.018

> <W(PB)>
-54.481

> <W(SA)>
2.463

> <Valence>
6.490

> <Coulomb>
45.404

> <VdW>
1.027

> <VdW6>
-9.651

> <VdW12>
10.678

> <Bond>
0.307

> <Angle>
1.468

> <Pdih>
4.715

> <Idih>
0.000

> <Tether>
0.000

$$$$
VeraChem MOL file


 29 28  0  0  0  0  0  0  0  0999 V2000     
   21.1234   18.5745   21.3642 C   0  0  0  0  0  0  0  0  0  0  0  0
   20.9905   17.4939   21.2243 H   0  0  0  0  0  0  0  0  0  0  0  0
   22.0526   18.8639   20.8566 H   0  0  0  0  0  0  0  0  0  0  0  0
   21.2610   18.7640   22.4339 H   0  0  0  0  0  0  0  0  0  0  0  0
   19.9249   19.3594   20.7823 C   0  0  0  0  0  0  0  0  0  0  0  0
   19.8983   19.1766   19.6990 H   0  0  0  0  0  0  0  0  0  0  0  0
   20.0829   20.4402   20.9020 H   0  0  0  0  0  0  0  0  0  0  0  0
   18.5556   18.9455   21.3814 C   0  0  0  0  0  0  0  0  0  0  0  0
   17.8008   19.0431   20.5889 H   0  0  0  0  0  0  0  0  0  0  0  0
   18.5578   17.8801   21.6458 H   0  0  0  0  0  0  0  0  0  0  0  0
   18.0747   19.8115   22.5774 C   0  0  0  0  0  0  0  0  0  0  0  0
   17.0583   19.4964   22.8508 H   0  0  0  0  0  0  0  0  0  0  0  0
   17.9816   20.8535   22.2419 H   0  0  0  0  0  0  0  0  0  0  0  0
   18.9609   19.7793   23.8473 C   0  0  0  0  0  0  0  0  0  0  0  0
   19.9588   20.1720   23.6162 H   0  0  0  0  0  0  0  0  0  0  0  0
   18.5282   20.4764   24.5768 H   0  0  0  0  0  0  0  0  0  0  0  0
   19.0692   18.3724   24.4886 C   0  0  0  0  0  0  0  0  0  0  0  0
   19.4786   17.6617   23.7598 H   0  0  0  0  0  0  0  0  0  0  0  0
   18.0662   18.0064   24.7480 H   0  0  0  0  0  0  0  0  0  0  0  0
   19.9689   18.3485   25.7465 C   0  0  0  0  0  0  0  0  0  0  0  0
   20.0742   17.3104   26.0888 H   0  0  0  0  0  0  0  0  0  0  0  0
   20.9769   18.6973   25.4854 H   0  0  0  0  0  0  0  0  0  0  0  0
   19.4069   19.2026   26.8982 C   0  0  0  0  0  0  0  0  0  0  0  0
   18.4030   18.8556   27.1576 H   0  0  0  0  0  0  0  0  0  0  0  0
   19.3406   20.2480   26.5863 H   0  0  0  0  0  0  0  0  0  0  0  0
   20.2596   19.1444   28.1490 N   0  3  0  0  0  0  0  0  0  0  0  0
   20.3398   18.1888   28.5121 H   0  0  0  0  0  0  0  0  0  0  0  0
   19.8685   19.7191   28.9037 H   0  0  0  0  0  0  0  0  0  0  0  0
   21.2120   19.4836   27.9778 H   0  0  0  0  0  0  0  0  0  0  0  0
  1  2  1  0  0  0  0
  1  3  1  0  0  0  0
  1  4  1  0  0  0  0
  1  5  1  0  0  0  0
  5  6  1  0  0  0  0
  5  7  1  0  0  0  0
  5  8  1  0  0  0  0
  8  9  1  0  0  0  0
  8 10  1  0  0  0  0
  8 11  1  0  0  0  0
 11 12  1  0  0  0  0
 11 13  1  0  0  0  0
 11 14  1  0  0  0  0
 14 15  1  0  0  0  0
 14 16  1  0  0  0  0
 14 17  1  0  0  0  0
 17 18  1  0  0  0  0
 17 19  1  0  0  0  0
 17 20  1  0  0  0  0
 20 21  1  0  0  0  0
 20 22  1  0  0  0  0
 20 23  1  0  0  0  0
 23 24  1  0  0  0  0
 23 25  1  0  0  0  0
 23 26  1  0  0  0  0
 26 27  1  0  0  0  0
 26 28  1  0  0  0  0
 26 29  1  0  0  0  0
M  END
> <VM2 Rank>
388

> <Conf_Id>
139

> <Probability>
0.00

> <Sum Probability>
99.94

> <Delta G>
4.663

> <G>
62.809

> <E>
24.689

> <-TS>
38.120

> <U+W>
0.545

> <U>
52.469

> <W>
-51.924

> <W(PB)>
-54.343

> <W(SA)>
2.419

> <Valence>
6.500

> <Coulomb>
45.340

> <VdW>
0.629

> <VdW6>
-10.352

> <VdW12>
10.982

> <Bond>
0.305

> <Angle>
1.981

> <Pdih>
4.214

> <Idih>
0.000

> <Tether>
0.000

$$$$
VeraChem MOL file


 29 28  0  0  0  0  0  0  0  0999 V2000     
   20.1076   17.9422   20.4370 C   0  0  0  0  0  0  0  0  0  0  0  0
   19.6835   17.5324   19.5112 H   0  0  0  0  0  0  0  0  0  0  0  0
   21.2009   17.8863   20.3555 H   0  0  0  0  0  0  0  0  0  0  0  0
   19.7981   17.2909   21.2618 H   0  0  0  0  0  0  0  0  0  0  0  0
   19.6447   19.4032   20.6439 C   0  0  0  0  0  0  0  0  0  0  0  0
   18.5473   19.4605   20.6432 H   0  0  0  0  0  0  0  0  0  0  0  0
   19.9782   19.9902   19.7767 H   0  0  0  0  0  0  0  0  0  0  0  0
   20.2181   20.0515   21.9303 C   0  0  0  0  0  0  0  0  0  0  0  0
   21.1830   19.5941   22.1890 H   0  0  0  0  0  0  0  0  0  0  0  0
   20.4399   21.1053   21.7121 H   0  0  0  0  0  0  0  0  0  0  0  0
   19.2689   20.0195   23.1561 C   0  0  0  0  0  0  0  0  0  0  0  0
   18.3506   20.5749   22.9211 H   0  0  0  0  0  0  0  0  0  0  0  0
   19.7596   20.5674   23.9704 H   0  0  0  0  0  0  0  0  0  0  0  0
   18.8992   18.5952   23.6383 C   0  0  0  0  0  0  0  0  0  0  0  0
   18.3533   18.0775   22.8395 H   0  0  0  0  0  0  0  0  0  0  0  0
   19.8132   18.0129   23.8155 H   0  0  0  0  0  0  0  0  0  0  0  0
   18.0034   18.5790   24.9043 C   0  0  0  0  0  0  0  0  0  0  0  0
   17.7370   17.5373   25.1307 H   0  0  0  0  0  0  0  0  0  0  0  0
   17.0568   19.0909   24.6826 H   0  0  0  0  0  0  0  0  0  0  0  0
   18.6362   19.2155   26.1671 C   0  0  0  0  0  0  0  0  0  0  0  0
   18.7698   20.2946   26.0195 H   0  0  0  0  0  0  0  0  0  0  0  0
   17.9361   19.1062   27.0059 H   0  0  0  0  0  0  0  0  0  0  0  0
   19.9825   18.5726   26.5485 C   0  0  0  0  0  0  0  0  0  0  0  0
   20.7014   18.7136   25.7372 H   0  0  0  0  0  0  0  0  0  0  0  0
   19.8462   17.4994   26.7065 H   0  0  0  0  0  0  0  0  0  0  0  0
   20.5833   19.1592   27.8094 N   0  3  0  0  0  0  0  0  0  0  0  0
   20.7608   20.1647   27.7158 H   0  0  0  0  0  0  0  0  0  0  0  0
   21.4788   18.7178   28.0456 H   0  0  0  0  0  0  0  0  0  0  0  0
   19.9665   19.0353   28.6192 H   0  0  0  0  0  0  0  0  0  0  0  0
  1  2  1  0  0  0  0
  1  3  1  0  0  0  0
  1  4  1  0  0  0  0
  1  5  1  0  0  0  0
  5  6  1  0  0  0  0
  5  7  1  0  0  0  0
  5  8  1  0  0  0  0
  8  9  1  0  0  0  0
  8 10  1  0  0  0  0
  8 11  1  0  0  0  0
 11 12  1  0  0  0  0
 11 13  1  0  0  0  0
 11 14  1  0  0  0  0
 14 15  1  0  0  0  0
 14 16  1  0  0  0  0
 14 17  1  0  0  0  0
 17 18  1  0  0  0  0
 17 19  1  0  0  0  0
 17 20  1  0  0  0  0
 20 21  1  0  0  0  0
 20 22  1  0  0  0  0
 20 23  1  0  0  0  0
 23 24  1  0  0  0  0
 23 25  1  0  0  0  0
 23 26  1  0  0  0  0
 26 27  1  0  0  0  0
 26 28  1  0  0  0  0
 26 29  1  0  0  0  0
M  END
> <VM2 Rank>
389

> <Conf_Id>
614

> <Probability>
0.00

> <Sum Probability>
99.95

> <Delta G>
4.666

> <G>
62.813

> <E>
24.987

> <-TS>
37.826

> <U+W>
0.842

> <U>
52.892

> <W>
-52.049

> <W(PB)>
-54.498

> <W(SA)>
2.449

> <Valence>
6.463

> <Coulomb>
45.485

> <VdW>
0.944

> <VdW6>
-9.991

> <VdW12>
10.935

> <Bond>
0.305

> <Angle>
1.765

> <Pdih>
4.393

> <Idih>
0.000

> <Tether>
0.000

$$$$
VeraChem MOL file


 29 28  0  0  0  0  0  0  0  0999 V2000     
   20.1681   19.4454   20.1408 C   0  0  0  0  0  0  0  0  0  0  0  0
   19.7908   18.6289   19.5115 H   0  0  0  0  0  0  0  0  0  0  0  0
   19.3534   20.1628   20.3003 H   0  0  0  0  0  0  0  0  0  0  0  0
   20.9590   19.9626   19.5825 H   0  0  0  0  0  0  0  0  0  0  0  0
   20.7158   18.9058   21.4812 C   0  0  0  0  0  0  0  0  0  0  0  0
   21.0656   19.7410   22.1017 H   0  0  0  0  0  0  0  0  0  0  0  0
   21.6060   18.2945   21.2776 H   0  0  0  0  0  0  0  0  0  0  0  0
   19.6959   18.0402   22.2654 C   0  0  0  0  0  0  0  0  0  0  0  0
   19.4925   17.1322   21.6814 H   0  0  0  0  0  0  0  0  0  0  0  0
   20.1720   17.6902   23.1877 H   0  0  0  0  0  0  0  0  0  0  0  0
   18.3359   18.7225   22.5862 C   0  0  0  0  0  0  0  0  0  0  0  0
   17.6817   18.0039   23.0984 H   0  0  0  0  0  0  0  0  0  0  0  0
   17.8297   18.9411   21.6367 H   0  0  0  0  0  0  0  0  0  0  0  0
   18.4072   20.0343   23.4162 C   0  0  0  0  0  0  0  0  0  0  0  0
   19.2905   20.6251   23.1465 H   0  0  0  0  0  0  0  0  0  0  0  0
   17.5484   20.6563   23.1286 H   0  0  0  0  0  0  0  0  0  0  0  0
   18.3407   19.8505   24.9545 C   0  0  0  0  0  0  0  0  0  0  0  0
   17.3935   19.3643   25.2259 H   0  0  0  0  0  0  0  0  0  0  0  0
   18.3135   20.8480   25.4148 H   0  0  0  0  0  0  0  0  0  0  0  0
   19.5178   19.0544   25.5606 C   0  0  0  0  0  0  0  0  0  0  0  0
   19.4462   18.0022   25.2608 H   0  0  0  0  0  0  0  0  0  0  0  0
   20.4694   19.4462   25.1774 H   0  0  0  0  0  0  0  0  0  0  0  0
   19.5131   19.1299   27.0974 C   0  0  0  0  0  0  0  0  0  0  0  0
   18.5727   18.7269   27.4829 H   0  0  0  0  0  0  0  0  0  0  0  0
   19.5970   20.1726   27.4152 H   0  0  0  0  0  0  0  0  0  0  0  0
   20.6494   18.3550   27.7327 N   0  3  0  0  0  0  0  0  0  0  0  0
   20.6120   17.3583   27.4948 H   0  0  0  0  0  0  0  0  0  0  0  0
   20.6281   18.4190   28.7564 H   0  0  0  0  0  0  0  0  0  0  0  0
   21.5651   18.7039   27.4306 H   0  0  0  0  0  0  0  0  0  0  0  0
  1  2  1  0  0  0  0
  1  3  1  0  0  0  0
  1  4  1  0  0  0  0
  1  5  1  0  0  0  0
  5  6  1  0  0  0  0
  5  7  1  0  0  0  0
  5  8  1  0  0  0  0
  8  9  1  0  0  0  0
  8 10  1  0  0  0  0
  8 11  1  0  0  0  0
 11 12  1  0  0  0  0
 11 13  1  0  0  0  0
 11 14  1  0  0  0  0
 14 15  1  0  0  0  0
 14 16  1  0  0  0  0
 14 17  1  0  0  0  0
 17 18  1  0  0  0  0
 17 19  1  0  0  0  0
 17 20  1  0  0  0  0
 20 21  1  0  0  0  0
 20 22  1  0  0  0  0
 20 23  1  0  0  0  0
 23 24  1  0  0  0  0
 23 25  1  0  0  0  0
 23 26  1  0  0  0  0
 26 27  1  0  0  0  0
 26 28  1  0  0  0  0
 26 29  1  0  0  0  0
M  END
> <VM2 Rank>
390

> <Conf_Id>
1865

> <Probability>
0.00

> <Sum Probability>
99.95

> <Delta G>
4.675

> <G>
62.822

> <E>
25.272

> <-TS>
37.550

> <U+W>
1.127

> <U>
53.307

> <W>
-52.180

> <W(PB)>
-54.610

> <W(SA)>
2.430

> <Valence>
6.870

> <Coulomb>
45.552

> <VdW>
0.885

> <VdW6>
-10.165

> <VdW12>
11.050

> <Bond>
0.356

> <Angle>
2.437

> <Pdih>
4.076

> <Idih>
0.000

> <Tether>
0.000

$$$$
VeraChem MOL file


 29 28  0  0  0  0  0  0  0  0999 V2000     
   20.9567   18.7449   20.6809 C   0  0  0  0  0  0  0  0  0  0  0  0
   21.2291   18.0171   21.4553 H   0  0  0  0  0  0  0  0  0  0  0  0
   20.5368   18.1973   19.8272 H   0  0  0  0  0  0  0  0  0  0  0  0
   21.8807   19.2334   20.3456 H   0  0  0  0  0  0  0  0  0  0  0  0
   19.9538   19.7918   21.2156 C   0  0  0  0  0  0  0  0  0  0  0  0
   19.7936   20.5557   20.4420 H   0  0  0  0  0  0  0  0  0  0  0  0
   20.3903   20.3198   22.0740 H   0  0  0  0  0  0  0  0  0  0  0  0
   18.5814   19.1849   21.6024 C   0  0  0  0  0  0  0  0  0  0  0  0
   17.9088   19.9941   21.9157 H   0  0  0  0  0  0  0  0  0  0  0  0
   18.1199   18.7533   20.7037 H   0  0  0  0  0  0  0  0  0  0  0  0
   18.6282   18.0930   22.7055 C   0  0  0  0  0  0  0  0  0  0  0  0
   19.1372   17.2044   22.3088 H   0  0  0  0  0  0  0  0  0  0  0  0
   17.6010   17.7701   22.9237 H   0  0  0  0  0  0  0  0  0  0  0  0
   19.3158   18.5102   24.0316 C   0  0  0  0  0  0  0  0  0  0  0  0
   19.3115   17.6349   24.6920 H   0  0  0  0  0  0  0  0  0  0  0  0
   20.3695   18.7559   23.8456 H   0  0  0  0  0  0  0  0  0  0  0  0
   18.6155   19.6922   24.7473 C   0  0  0  0  0  0  0  0  0  0  0  0
   17.5852   19.4077   25.0011 H   0  0  0  0  0  0  0  0  0  0  0  0
   18.5385   20.5424   24.0577 H   0  0  0  0  0  0  0  0  0  0  0  0
   19.3429   20.1894   26.0227 C   0  0  0  0  0  0  0  0  0  0  0  0
   20.3546   20.5369   25.7747 H   0  0  0  0  0  0  0  0  0  0  0  0
   18.8042   21.0716   26.3936 H   0  0  0  0  0  0  0  0  0  0  0  0
   19.4030   19.1604   27.1704 C   0  0  0  0  0  0  0  0  0  0  0  0
   18.4635   18.6036   27.2200 H   0  0  0  0  0  0  0  0  0  0  0  0
   19.5334   19.6910   28.1175 H   0  0  0  0  0  0  0  0  0  0  0  0
   20.5467   18.1711   27.0587 N   0  3  0  0  0  0  0  0  0  0  0  0
   20.4945   17.6262   26.1934 H   0  0  0  0  0  0  0  0  0  0  0  0
   20.5495   17.5038   27.8380 H   0  0  0  0  0  0  0  0  0  0  0  0
   21.4572   18.6424   27.0656 H   0  0  0  0  0  0  0  0  0  0  0  0
  1  2  1  0  0  0  0
  1  3  1  0  0  0  0
  1  4  1  0  0  0  0
  1  5  1  0  0  0  0
  5  6  1  0  0  0  0
  5  7  1  0  0  0  0
  5  8  1  0  0  0  0
  8  9  1  0  0  0  0
  8 10  1  0  0  0  0
  8 11  1  0  0  0  0
 11 12  1  0  0  0  0
 11 13  1  0  0  0  0
 11 14  1  0  0  0  0
 14 15  1  0  0  0  0
 14 16  1  0  0  0  0
 14 17  1  0  0  0  0
 17 18  1  0  0  0  0
 17 19  1  0  0  0  0
 17 20  1  0  0  0  0
 20 21  1  0  0  0  0
 20 22  1  0  0  0  0
 20 23  1  0  0  0  0
 23 24  1  0  0  0  0
 23 25  1  0  0  0  0
 23 26  1  0  0  0  0
 26 27  1  0  0  0  0
 26 28  1  0  0  0  0
 26 29  1  0  0  0  0
M  END
> <VM2 Rank>
391

> <Conf_Id>
843

> <Probability>
0.00

> <Sum Probability>
99.95

> <Delta G>
4.714

> <G>
62.860

> <E>
24.807

> <-TS>
38.053

> <U+W>
0.663

> <U>
53.073

> <W>
-52.411

> <W(PB)>
-54.809

> <W(SA)>
2.398

> <Valence>
5.710

> <Coulomb>
46.606

> <VdW>
0.757

> <VdW6>
-10.974

> <VdW12>
11.731

> <Bond>
0.336

> <Angle>
2.045

> <Pdih>
3.329

> <Idih>
0.000

> <Tether>
0.000

$$$$
VeraChem MOL file


 29 28  0  0  0  0  0  0  0  0999 V2000     
   20.8697   18.5005   20.6755 C   0  0  0  0  0  0  0  0  0  0  0  0
   20.9022   19.2234   19.8500 H   0  0  0  0  0  0  0  0  0  0  0  0
   21.5296   18.8613   21.4742 H   0  0  0  0  0  0  0  0  0  0  0  0
   21.2821   17.5518   20.3082 H   0  0  0  0  0  0  0  0  0  0  0  0
   19.4235   18.3024   21.1824 C   0  0  0  0  0  0  0  0  0  0  0  0
   19.4162   17.5839   22.0131 H   0  0  0  0  0  0  0  0  0  0  0  0
   18.8277   17.8428   20.3816 H   0  0  0  0  0  0  0  0  0  0  0  0
   18.7377   19.6238   21.6122 C   0  0  0  0  0  0  0  0  0  0  0  0
   18.6654   20.2851   20.7379 H   0  0  0  0  0  0  0  0  0  0  0  0
   17.7008   19.4099   21.9026 H   0  0  0  0  0  0  0  0  0  0  0  0
   19.4482   20.3960   22.7569 C   0  0  0  0  0  0  0  0  0  0  0  0
   18.8528   21.2862   23.0022 H   0  0  0  0  0  0  0  0  0  0  0  0
   20.4096   20.7781   22.3887 H   0  0  0  0  0  0  0  0  0  0  0  0
   19.6988   19.5862   24.0557 C   0  0  0  0  0  0  0  0  0  0  0  0
   20.3630   18.7377   23.8453 H   0  0  0  0  0  0  0  0  0  0  0  0
   20.2389   20.2404   24.7502 H   0  0  0  0  0  0  0  0  0  0  0  0
   18.3993   19.0849   24.7337 C   0  0  0  0  0  0  0  0  0  0  0  0
   17.8123   18.5027   24.0121 H   0  0  0  0  0  0  0  0  0  0  0  0
   17.7767   19.9460   25.0131 H   0  0  0  0  0  0  0  0  0  0  0  0
   18.6309   18.1900   25.9780 C   0  0  0  0  0  0  0  0  0  0  0  0
   17.6510   17.8326   26.3212 H   0  0  0  0  0  0  0  0  0  0  0  0
   19.1991   17.2917   25.7022 H   0  0  0  0  0  0  0  0  0  0  0  0
   19.3115   18.9031   27.1646 C   0  0  0  0  0  0  0  0  0  0  0  0
   19.0641   18.3724   28.0880 H   0  0  0  0  0  0  0  0  0  0  0  0
   18.9342   19.9257   27.2496 H   0  0  0  0  0  0  0  0  0  0  0  0
   20.8244   18.9511   27.0760 N   0  3  0  0  0  0  0  0  0  0  0  0
   21.2324   18.0108   27.0512 H   0  0  0  0  0  0  0  0  0  0  0  0
   21.2371   19.4350   27.8810 H   0  0  0  0  0  0  0  0  0  0  0  0
   21.1403   19.4403   26.2338 H   0  0  0  0  0  0  0  0  0  0  0  0
  1  2  1  0  0  0  0
  1  3  1  0  0  0  0
  1  4  1  0  0  0  0
  1  5  1  0  0  0  0
  5  6  1  0  0  0  0
  5  7  1  0  0  0  0
  5  8  1  0  0  0  0
  8  9  1  0  0  0  0
  8 10  1  0  0  0  0
  8 11  1  0  0  0  0
 11 12  1  0  0  0  0
 11 13  1  0  0  0  0
 11 14  1  0  0  0  0
 14 15  1  0  0  0  0
 14 16  1  0  0  0  0
 14 17  1  0  0  0  0
 17 18  1  0  0  0  0
 17 19  1  0  0  0  0
 17 20  1  0  0  0  0
 20 21  1  0  0  0  0
 20 22  1  0  0  0  0
 20 23  1  0  0  0  0
 23 24  1  0  0  0  0
 23 25  1  0  0  0  0
 23 26  1  0  0  0  0
 26 27  1  0  0  0  0
 26 28  1  0  0  0  0
 26 29  1  0  0  0  0
M  END
> <VM2 Rank>
392

> <Conf_Id>
844

> <Probability>
0.00

> <Sum Probability>
99.95

> <Delta G>
4.717

> <G>
62.864

> <E>
24.810

> <-TS>
38.053

> <U+W>
0.666

> <U>
53.074

> <W>
-52.408

> <W(PB)>
-54.805

> <W(SA)>
2.397

> <Valence>
5.710

> <Coulomb>
46.607

> <VdW>
0.757

> <VdW6>
-10.975

> <VdW12>
11.732

> <Bond>
0.336

> <Angle>
2.046

> <Pdih>
3.328

> <Idih>
0.000

> <Tether>
0.000

$$$$
VeraChem MOL file


 29 28  0  0  0  0  0  0  0  0999 V2000     
   20.9896   18.6872   20.7701 C   0  0  0  0  0  0  0  0  0  0  0  0
   21.2046   18.1179   21.6831 H   0  0  0  0  0  0  0  0  0  0  0  0
   21.2500   18.0504   19.9148 H   0  0  0  0  0  0  0  0  0  0  0  0
   21.6475   19.5656   20.7483 H   0  0  0  0  0  0  0  0  0  0  0  0
   19.5034   19.1047   20.7015 C   0  0  0  0  0  0  0  0  0  0  0  0
   18.8653   18.2124   20.7490 H   0  0  0  0  0  0  0  0  0  0  0  0
   19.3089   19.5585   19.7197 H   0  0  0  0  0  0  0  0  0  0  0  0
   19.0947   20.1184   21.8010 C   0  0  0  0  0  0  0  0  0  0  0  0
   19.6448   21.0551   21.6366 H   0  0  0  0  0  0  0  0  0  0  0  0
   18.0323   20.3685   21.6752 H   0  0  0  0  0  0  0  0  0  0  0  0
   19.3350   19.6562   23.2619 C   0  0  0  0  0  0  0  0  0  0  0  0
   19.0446   20.4847   23.9193 H   0  0  0  0  0  0  0  0  0  0  0  0
   20.4063   19.4863   23.4307 H   0  0  0  0  0  0  0  0  0  0  0  0
   18.5296   18.3933   23.6555 C   0  0  0  0  0  0  0  0  0  0  0  0
   17.4551   18.6065   23.5736 H   0  0  0  0  0  0  0  0  0  0  0  0
   18.7374   17.5888   22.9389 H   0  0  0  0  0  0  0  0  0  0  0  0
   18.8418   17.8464   25.0727 C   0  0  0  0  0  0  0  0  0  0  0  0
   19.8884   17.5198   25.1248 H   0  0  0  0  0  0  0  0  0  0  0  0
   18.2435   16.9352   25.2113 H   0  0  0  0  0  0  0  0  0  0  0  0
   18.5116   18.8155   26.2393 C   0  0  0  0  0  0  0  0  0  0  0  0
   17.6000   19.3805   26.0036 H   0  0  0  0  0  0  0  0  0  0  0  0
   18.2765   18.2265   27.1358 H   0  0  0  0  0  0  0  0  0  0  0  0
   19.6475   19.7976   26.5962 C   0  0  0  0  0  0  0  0  0  0  0  0
   19.2940   20.4930   27.3623 H   0  0  0  0  0  0  0  0  0  0  0  0
   19.9375   20.3795   25.7197 H   0  0  0  0  0  0  0  0  0  0  0  0
   20.8907   19.1189   27.1368 N   0  3  0  0  0  0  0  0  0  0  0  0
   21.2975   18.4727   26.4537 H   0  0  0  0  0  0  0  0  0  0  0  0
   20.6900   18.5775   27.9841 H   0  0  0  0  0  0  0  0  0  0  0  0
   21.6199   19.7981   27.3808 H   0  0  0  0  0  0  0  0  0  0  0  0
  1  2  1  0  0  0  0
  1  3  1  0  0  0  0
  1  4  1  0  0  0  0
  1  5  1  0  0  0  0
  5  6  1  0  0  0  0
  5  7  1  0  0  0  0
  5  8  1  0  0  0  0
  8  9  1  0  0  0  0
  8 10  1  0  0  0  0
  8 11  1  0  0  0  0
 11 12  1  0  0  0  0
 11 13  1  0  0  0  0
 11 14  1  0  0  0  0
 14 15  1  0  0  0  0
 14 16  1  0  0  0  0
 14 17  1  0  0  0  0
 17 18  1  0  0  0  0
 17 19  1  0  0  0  0
 17 20  1  0  0  0  0
 20 21  1  0  0  0  0
 20 22  1  0  0  0  0
 20 23  1  0  0  0  0
 23 24  1  0  0  0  0
 23 25  1  0  0  0  0
 23 26  1  0  0  0  0
 26 27  1  0  0  0  0
 26 28  1  0  0  0  0
 26 29  1  0  0  0  0
M  END
> <VM2 Rank>
393

> <Conf_Id>
970

> <Probability>
0.00

> <Sum Probability>
99.95

> <Delta G>
4.717

> <G>
62.864

> <E>
24.898

> <-TS>
37.965

> <U+W>
0.754

> <U>
53.257

> <W>
-52.503

> <W(PB)>
-54.904

> <W(SA)>
2.400

> <Valence>
6.240

> <Coulomb>
46.087

> <VdW>
0.930

> <VdW6>
-10.706

> <VdW12>
11.636

> <Bond>
0.335

> <Angle>
2.087

> <Pdih>
3.817

> <Idih>
0.000

> <Tether>
0.000

$$$$
VeraChem MOL file


 29 28  0  0  0  0  0  0  0  0999 V2000     
   20.7790   18.1287   20.9176 C   0  0  0  0  0  0  0  0  0  0  0  0
   21.5270   18.6415   21.5361 H   0  0  0  0  0  0  0  0  0  0  0  0
   20.3240   17.3269   21.5119 H   0  0  0  0  0  0  0  0  0  0  0  0
   21.3039   17.6566   20.0771 H   0  0  0  0  0  0  0  0  0  0  0  0
   19.7117   19.1176   20.4004 C   0  0  0  0  0  0  0  0  0  0  0  0
   18.9453   18.5664   19.8378 H   0  0  0  0  0  0  0  0  0  0  0  0
   20.1842   19.8012   19.6812 H   0  0  0  0  0  0  0  0  0  0  0  0
   19.0362   19.9620   21.5107 C   0  0  0  0  0  0  0  0  0  0  0  0
   19.7869   20.5899   22.0061 H   0  0  0  0  0  0  0  0  0  0  0  0
   18.3454   20.6608   21.0192 H   0  0  0  0  0  0  0  0  0  0  0  0
   18.2276   19.1359   22.5481 C   0  0  0  0  0  0  0  0  0  0  0  0
   17.8508   18.2213   22.0699 H   0  0  0  0  0  0  0  0  0  0  0  0
   17.3331   19.7047   22.8372 H   0  0  0  0  0  0  0  0  0  0  0  0
   19.0058   18.7621   23.8365 C   0  0  0  0  0  0  0  0  0  0  0  0
   18.4304   17.9934   24.3690 H   0  0  0  0  0  0  0  0  0  0  0  0
   19.9687   18.3032   23.5828 H   0  0  0  0  0  0  0  0  0  0  0  0
   19.2369   19.9692   24.7815 C   0  0  0  0  0  0  0  0  0  0  0  0
   18.2697   20.4044   25.0690 H   0  0  0  0  0  0  0  0  0  0  0  0
   19.7851   20.7586   24.2521 H   0  0  0  0  0  0  0  0  0  0  0  0
   20.0315   19.5969   26.0553 C   0  0  0  0  0  0  0  0  0  0  0  0
   21.0068   19.1787   25.7725 H   0  0  0  0  0  0  0  0  0  0  0  0
   20.2357   20.5117   26.6274 H   0  0  0  0  0  0  0  0  0  0  0  0
   19.2812   18.5983   26.9564 C   0  0  0  0  0  0  0  0  0  0  0  0
   19.1125   17.6643   26.4144 H   0  0  0  0  0  0  0  0  0  0  0  0
   18.3100   19.0143   27.2375 H   0  0  0  0  0  0  0  0  0  0  0  0
   20.0342   18.2673   28.2285 N   0  3  0  0  0  0  0  0  0  0  0  0
   20.2018   19.1014   28.8009 H   0  0  0  0  0  0  0  0  0  0  0  0
   20.9486   17.8468   28.0325 H   0  0  0  0  0  0  0  0  0  0  0  0
   19.5182   17.6016   28.8144 H   0  0  0  0  0  0  0  0  0  0  0  0
  1  2  1  0  0  0  0
  1  3  1  0  0  0  0
  1  4  1  0  0  0  0
  1  5  1  0  0  0  0
  5  6  1  0  0  0  0
  5  7  1  0  0  0  0
  5  8  1  0  0  0  0
  8  9  1  0  0  0  0
  8 10  1  0  0  0  0
  8 11  1  0  0  0  0
 11 12  1  0  0  0  0
 11 13  1  0  0  0  0
 11 14  1  0  0  0  0
 14 15  1  0  0  0  0
 14 16  1  0  0  0  0
 14 17  1  0  0  0  0
 17 18  1  0  0  0  0
 17 19  1  0  0  0  0
 17 20  1  0  0  0  0
 20 21  1  0  0  0  0
 20 22  1  0  0  0  0
 20 23  1  0  0  0  0
 23 24  1  0  0  0  0
 23 25  1  0  0  0  0
 23 26  1  0  0  0  0
 26 27  1  0  0  0  0
 26 28  1  0  0  0  0
 26 29  1  0  0  0  0
M  END
> <VM2 Rank>
394

> <Conf_Id>
1819

> <Probability>
0.00

> <Sum Probability>
99.96

> <Delta G>
4.722

> <G>
62.868

> <E>
25.160

> <-TS>
37.708

> <U+W>
1.016

> <U>
52.804

> <W>
-51.789

> <W(PB)>
-54.253

> <W(SA)>
2.465

> <Valence>
6.649

> <Coulomb>
45.138

> <VdW>
1.018

> <VdW6>
-9.634

> <VdW12>
10.652

> <Bond>
0.309

> <Angle>
1.537

> <Pdih>
4.803

> <Idih>
0.000

> <Tether>
0.000

$$$$
VeraChem MOL file


 29 28  0  0  0  0  0  0  0  0999 V2000     
   20.7112   20.0888   21.1248 C   0  0  0  0  0  0  0  0  0  0  0  0
   21.6466   19.8630   21.6530 H   0  0  0  0  0  0  0  0  0  0  0  0
   20.9725   20.6003   20.1895 H   0  0  0  0  0  0  0  0  0  0  0  0
   20.1371   20.7948   21.7335 H   0  0  0  0  0  0  0  0  0  0  0  0
   19.9167   18.7965   20.8268 C   0  0  0  0  0  0  0  0  0  0  0  0
   20.5144   18.1894   20.1326 H   0  0  0  0  0  0  0  0  0  0  0  0
   18.9867   19.0365   20.2931 H   0  0  0  0  0  0  0  0  0  0  0  0
   19.6110   17.9387   22.0823 C   0  0  0  0  0  0  0  0  0  0  0  0
   19.5831   16.8870   21.7657 H   0  0  0  0  0  0  0  0  0  0  0  0
   20.4374   18.0009   22.8023 H   0  0  0  0  0  0  0  0  0  0  0  0
   18.2525   18.2415   22.7704 C   0  0  0  0  0  0  0  0  0  0  0  0
   18.0625   17.4672   23.5253 H   0  0  0  0  0  0  0  0  0  0  0  0
   17.4482   18.1264   22.0310 H   0  0  0  0  0  0  0  0  0  0  0  0
   18.1166   19.6360   23.4354 C   0  0  0  0  0  0  0  0  0  0  0  0
   18.1302   20.4114   22.6596 H   0  0  0  0  0  0  0  0  0  0  0  0
   17.1214   19.7057   23.8956 H   0  0  0  0  0  0  0  0  0  0  0  0
   19.1843   19.9629   24.5117 C   0  0  0  0  0  0  0  0  0  0  0  0
   19.0005   20.9802   24.8840 H   0  0  0  0  0  0  0  0  0  0  0  0
   20.1841   19.9824   24.0595 H   0  0  0  0  0  0  0  0  0  0  0  0
   19.1756   18.9819   25.7069 C   0  0  0  0  0  0  0  0  0  0  0  0
   18.1670   18.9336   26.1384 H   0  0  0  0  0  0  0  0  0  0  0  0
   19.4316   17.9707   25.3659 H   0  0  0  0  0  0  0  0  0  0  0  0
   20.1769   19.4134   26.7925 C   0  0  0  0  0  0  0  0  0  0  0  0
   19.9208   20.4133   27.1531 H   0  0  0  0  0  0  0  0  0  0  0  0
   21.1851   19.4470   26.3709 H   0  0  0  0  0  0  0  0  0  0  0  0
   20.1992   18.4782   27.9841 N   0  3  0  0  0  0  0  0  0  0  0  0
   20.4609   17.5238   27.7158 H   0  0  0  0  0  0  0  0  0  0  0  0
   19.2838   18.4229   28.4429 H   0  0  0  0  0  0  0  0  0  0  0  0
   20.8721   18.7840   28.6956 H   0  0  0  0  0  0  0  0  0  0  0  0
  1  2  1  0  0  0  0
  1  3  1  0  0  0  0
  1  4  1  0  0  0  0
  1  5  1  0  0  0  0
  5  6  1  0  0  0  0
  5  7  1  0  0  0  0
  5  8  1  0  0  0  0
  8  9  1  0  0  0  0
  8 10  1  0  0  0  0
  8 11  1  0  0  0  0
 11 12  1  0  0  0  0
 11 13  1  0  0  0  0
 11 14  1  0  0  0  0
 14 15  1  0  0  0  0
 14 16  1  0  0  0  0
 14 17  1  0  0  0  0
 17 18  1  0  0  0  0
 17 19  1  0  0  0  0
 17 20  1  0  0  0  0
 20 21  1  0  0  0  0
 20 22  1  0  0  0  0
 20 23  1  0  0  0  0
 23 24  1  0  0  0  0
 23 25  1  0  0  0  0
 23 26  1  0  0  0  0
 26 27  1  0  0  0  0
 26 28  1  0  0  0  0
 26 29  1  0  0  0  0
M  END
> <VM2 Rank>
395

> <Conf_Id>
2543

> <Probability>
0.00

> <Sum Probability>
99.96

> <Delta G>
4.739

> <G>
62.885

> <E>
24.640

> <-TS>
38.245

> <U+W>
0.496

> <U>
52.590

> <W>
-52.094

> <W(PB)>
-54.512

> <W(SA)>
2.418

> <Valence>
6.629

> <Coulomb>
45.433

> <VdW>
0.528

> <VdW6>
-10.597

> <VdW12>
11.125

> <Bond>
0.321

> <Angle>
2.254

> <Pdih>
4.053

> <Idih>
0.000

> <Tether>
0.000

$$$$
VeraChem MOL file


 29 28  0  0  0  0  0  0  0  0999 V2000     
   20.9300   18.5198   20.7664 C   0  0  0  0  0  0  0  0  0  0  0  0
   21.4435   18.7883   21.6981 H   0  0  0  0  0  0  0  0  0  0  0  0
   20.8844   17.4250   20.7008 H   0  0  0  0  0  0  0  0  0  0  0  0
   21.5464   18.8816   19.9334 H   0  0  0  0  0  0  0  0  0  0  0  0
   19.5158   19.1393   20.7022 C   0  0  0  0  0  0  0  0  0  0  0  0
   19.0921   18.9500   19.7061 H   0  0  0  0  0  0  0  0  0  0  0  0
   19.5850   20.2312   20.7940 H   0  0  0  0  0  0  0  0  0  0  0  0
   18.5426   18.5699   21.7663 C   0  0  0  0  0  0  0  0  0  0  0  0
   17.5633   19.0532   21.6458 H   0  0  0  0  0  0  0  0  0  0  0  0
   18.3786   17.5039   21.5572 H   0  0  0  0  0  0  0  0  0  0  0  0
   19.0003   18.7177   23.2409 C   0  0  0  0  0  0  0  0  0  0  0  0
   19.9351   18.1648   23.4012 H   0  0  0  0  0  0  0  0  0  0  0  0
   18.2422   18.2343   23.8690 H   0  0  0  0  0  0  0  0  0  0  0  0
   19.1697   20.1884   23.6956 C   0  0  0  0  0  0  0  0  0  0  0  0
   19.8496   20.7077   23.0086 H   0  0  0  0  0  0  0  0  0  0  0  0
   18.2037   20.7062   23.6204 H   0  0  0  0  0  0  0  0  0  0  0  0
   19.7372   20.3579   25.1288 C   0  0  0  0  0  0  0  0  0  0  0  0
   19.8481   21.4356   25.3119 H   0  0  0  0  0  0  0  0  0  0  0  0
   20.7537   19.9466   25.1791 H   0  0  0  0  0  0  0  0  0  0  0  0
   18.8521   19.7706   26.2606 C   0  0  0  0  0  0  0  0  0  0  0  0
   19.0297   20.3395   27.1830 H   0  0  0  0  0  0  0  0  0  0  0  0
   17.7921   19.9193   26.0156 H   0  0  0  0  0  0  0  0  0  0  0  0
   19.1059   18.2785   26.5623 C   0  0  0  0  0  0  0  0  0  0  0  0
   18.9750   17.6796   25.6594 H   0  0  0  0  0  0  0  0  0  0  0  0
   18.3815   17.9336   27.3051 H   0  0  0  0  0  0  0  0  0  0  0  0
   20.4903   17.9960   27.1118 N   0  3  0  0  0  0  0  0  0  0  0  0
   20.6652   18.5082   27.9826 H   0  0  0  0  0  0  0  0  0  0  0  0
   21.2237   18.2658   26.4491 H   0  0  0  0  0  0  0  0  0  0  0  0
   20.6222   16.9998   27.3183 H   0  0  0  0  0  0  0  0  0  0  0  0
  1  2  1  0  0  0  0
  1  3  1  0  0  0  0
  1  4  1  0  0  0  0
  1  5  1  0  0  0  0
  5  6  1  0  0  0  0
  5  7  1  0  0  0  0
  5  8  1  0  0  0  0
  8  9  1  0  0  0  0
  8 10  1  0  0  0  0
  8 11  1  0  0  0  0
 11 12  1  0  0  0  0
 11 13  1  0  0  0  0
 11 14  1  0  0  0  0
 14 15  1  0  0  0  0
 14 16  1  0  0  0  0
 14 17  1  0  0  0  0
 17 18  1  0  0  0  0
 17 19  1  0  0  0  0
 17 20  1  0  0  0  0
 20 21  1  0  0  0  0
 20 22  1  0  0  0  0
 20 23  1  0  0  0  0
 23 24  1  0  0  0  0
 23 25  1  0  0  0  0
 23 26  1  0  0  0  0
 26 27  1  0  0  0  0
 26 28  1  0  0  0  0
 26 29  1  0  0  0  0
M  END
> <VM2 Rank>
396

> <Conf_Id>
682

> <Probability>
0.00

> <Sum Probability>
99.96

> <Delta G>
4.741

> <G>
62.887

> <E>
24.921

> <-TS>
37.966

> <U+W>
0.777

> <U>
53.257

> <W>
-52.480

> <W(PB)>
-54.882

> <W(SA)>
2.401

> <Valence>
6.240

> <Coulomb>
46.087

> <VdW>
0.930

> <VdW6>
-10.706

> <VdW12>
11.636

> <Bond>
0.336

> <Angle>
2.087

> <Pdih>
3.818

> <Idih>
0.000

> <Tether>
0.000

$$$$
VeraChem MOL file


 29 28  0  0  0  0  0  0  0  0999 V2000     
   20.2492   19.0222   20.0690 C   0  0  0  0  0  0  0  0  0  0  0  0
   20.8674   19.4669   19.2785 H   0  0  0  0  0  0  0  0  0  0  0  0
   20.2721   17.9323   19.9401 H   0  0  0  0  0  0  0  0  0  0  0  0
   19.2190   19.3659   19.9140 H   0  0  0  0  0  0  0  0  0  0  0  0
   20.7796   19.4282   21.4627 C   0  0  0  0  0  0  0  0  0  0  0  0
   20.7153   20.5191   21.5792 H   0  0  0  0  0  0  0  0  0  0  0  0
   21.8475   19.1753   21.5218 H   0  0  0  0  0  0  0  0  0  0  0  0
   20.0400   18.7332   22.6311 C   0  0  0  0  0  0  0  0  0  0  0  0
   20.1241   17.6435   22.5192 H   0  0  0  0  0  0  0  0  0  0  0  0
   20.5613   18.9850   23.5610 H   0  0  0  0  0  0  0  0  0  0  0  0
   18.5452   19.1304   22.7364 C   0  0  0  0  0  0  0  0  0  0  0  0
   18.0302   18.7881   21.8293 H   0  0  0  0  0  0  0  0  0  0  0  0
   18.4402   20.2238   22.7517 H   0  0  0  0  0  0  0  0  0  0  0  0
   17.8206   18.5082   23.9588 C   0  0  0  0  0  0  0  0  0  0  0  0
   16.7892   18.2786   23.6573 H   0  0  0  0  0  0  0  0  0  0  0  0
   18.2684   17.5399   24.2196 H   0  0  0  0  0  0  0  0  0  0  0  0
   17.7391   19.4309   25.2047 C   0  0  0  0  0  0  0  0  0  0  0  0
   17.1113   18.9411   25.9619 H   0  0  0  0  0  0  0  0  0  0  0  0
   17.2112   20.3550   24.9318 H   0  0  0  0  0  0  0  0  0  0  0  0
   19.0946   19.8013   25.8521 C   0  0  0  0  0  0  0  0  0  0  0  0
   19.7003   20.3841   25.1472 H   0  0  0  0  0  0  0  0  0  0  0  0
   18.9070   20.4599   26.7104 H   0  0  0  0  0  0  0  0  0  0  0  0
   19.8775   18.5655   26.3336 C   0  0  0  0  0  0  0  0  0  0  0  0
   20.0861   17.9063   25.4872 H   0  0  0  0  0  0  0  0  0  0  0  0
   19.2782   18.0115   27.0610 H   0  0  0  0  0  0  0  0  0  0  0  0
   21.1982   18.9180   26.9865 N   0  3  0  0  0  0  0  0  0  0  0  0
   21.0683   19.5139   27.8108 H   0  0  0  0  0  0  0  0  0  0  0  0
   21.8201   19.4211   26.3453 H   0  0  0  0  0  0  0  0  0  0  0  0
   21.7032   18.0817   27.2997 H   0  0  0  0  0  0  0  0  0  0  0  0
  1  2  1  0  0  0  0
  1  3  1  0  0  0  0
  1  4  1  0  0  0  0
  1  5  1  0  0  0  0
  5  6  1  0  0  0  0
  5  7  1  0  0  0  0
  5  8  1  0  0  0  0
  8  9  1  0  0  0  0
  8 10  1  0  0  0  0
  8 11  1  0  0  0  0
 11 12  1  0  0  0  0
 11 13  1  0  0  0  0
 11 14  1  0  0  0  0
 14 15  1  0  0  0  0
 14 16  1  0  0  0  0
 14 17  1  0  0  0  0
 17 18  1  0  0  0  0
 17 19  1  0  0  0  0
 17 20  1  0  0  0  0
 20 21  1  0  0  0  0
 20 22  1  0  0  0  0
 20 23  1  0  0  0  0
 23 24  1  0  0  0  0
 23 25  1  0  0  0  0
 23 26  1  0  0  0  0
 26 27  1  0  0  0  0
 26 28  1  0  0  0  0
 26 29  1  0  0  0  0
M  END
> <VM2 Rank>
397

> <Conf_Id>
2507

> <Probability>
0.00

> <Sum Probability>
99.96

> <Delta G>
4.757

> <G>
62.904

> <E>
24.852

> <-TS>
38.052

> <U+W>
0.707

> <U>
53.465

> <W>
-52.757

> <W(PB)>
-55.178

> <W(SA)>
2.420

> <Valence>
6.491

> <Coulomb>
46.407

> <VdW>
0.567

> <VdW6>
-10.393

> <VdW12>
10.960

> <Bond>
0.299

> <Angle>
1.747

> <Pdih>
4.444

> <Idih>
0.000

> <Tether>
0.000

$$$$
VeraChem MOL file


 29 28  0  0  0  0  0  0  0  0999 V2000     
   20.5525   20.0776   20.7670 C   0  0  0  0  0  0  0  0  0  0  0  0
   20.2790   20.7492   21.5895 H   0  0  0  0  0  0  0  0  0  0  0  0
   21.6205   20.2233   20.5601 H   0  0  0  0  0  0  0  0  0  0  0  0
   19.9928   20.3866   19.8747 H   0  0  0  0  0  0  0  0  0  0  0  0
   20.2649   18.5991   21.1147 C   0  0  0  0  0  0  0  0  0  0  0  0
   20.8473   18.2930   21.9930 H   0  0  0  0  0  0  0  0  0  0  0  0
   20.6228   17.9703   20.2875 H   0  0  0  0  0  0  0  0  0  0  0  0
   18.7617   18.3045   21.3390 C   0  0  0  0  0  0  0  0  0  0  0  0
   18.2156   18.5531   20.4187 H   0  0  0  0  0  0  0  0  0  0  0  0
   18.6310   17.2225   21.4783 H   0  0  0  0  0  0  0  0  0  0  0  0
   18.0922   19.0469   22.5269 C   0  0  0  0  0  0  0  0  0  0  0  0
   17.0222   18.7986   22.5011 H   0  0  0  0  0  0  0  0  0  0  0  0
   18.1396   20.1344   22.3836 H   0  0  0  0  0  0  0  0  0  0  0  0
   18.6348   18.6560   23.9269 C   0  0  0  0  0  0  0  0  0  0  0  0
   17.7905   18.6589   24.6290 H   0  0  0  0  0  0  0  0  0  0  0  0
   19.0119   17.6243   23.9098 H   0  0  0  0  0  0  0  0  0  0  0  0
   19.7247   19.6193   24.4627 C   0  0  0  0  0  0  0  0  0  0  0  0
   19.3126   20.6349   24.5409 H   0  0  0  0  0  0  0  0  0  0  0  0
   20.5562   19.6802   23.7517 H   0  0  0  0  0  0  0  0  0  0  0  0
   20.2911   19.1884   25.8360 C   0  0  0  0  0  0  0  0  0  0  0  0
   20.7229   18.1818   25.7571 H   0  0  0  0  0  0  0  0  0  0  0  0
   21.1136   19.8628   26.1092 H   0  0  0  0  0  0  0  0  0  0  0  0
   19.2308   19.2112   26.9528 C   0  0  0  0  0  0  0  0  0  0  0  0
   18.4278   18.5086   26.7157 H   0  0  0  0  0  0  0  0  0  0  0  0
   18.8006   20.2132   27.0314 H   0  0  0  0  0  0  0  0  0  0  0  0
   19.7913   18.8351   28.3090 N   0  3  0  0  0  0  0  0  0  0  0  0
   20.1888   17.8898   28.3090 H   0  0  0  0  0  0  0  0  0  0  0  0
   19.0701   18.8562   29.0385 H   0  0  0  0  0  0  0  0  0  0  0  0
   20.5351   19.4756   28.6056 H   0  0  0  0  0  0  0  0  0  0  0  0
  1  2  1  0  0  0  0
  1  3  1  0  0  0  0
  1  4  1  0  0  0  0
  1  5  1  0  0  0  0
  5  6  1  0  0  0  0
  5  7  1  0  0  0  0
  5  8  1  0  0  0  0
  8  9  1  0  0  0  0
  8 10  1  0  0  0  0
  8 11  1  0  0  0  0
 11 12  1  0  0  0  0
 11 13  1  0  0  0  0
 11 14  1  0  0  0  0
 14 15  1  0  0  0  0
 14 16  1  0  0  0  0
 14 17  1  0  0  0  0
 17 18  1  0  0  0  0
 17 19  1  0  0  0  0
 17 20  1  0  0  0  0
 20 21  1  0  0  0  0
 20 22  1  0  0  0  0
 20 23  1  0  0  0  0
 23 24  1  0  0  0  0
 23 25  1  0  0  0  0
 23 26  1  0  0  0  0
 26 27  1  0  0  0  0
 26 28  1  0  0  0  0
 26 29  1  0  0  0  0
M  END
> <VM2 Rank>
398

> <Conf_Id>
2308

> <Probability>
0.00

> <Sum Probability>
99.96

> <Delta G>
4.760

> <G>
62.906

> <E>
24.807

> <-TS>
38.099

> <U+W>
0.663

> <U>
52.451

> <W>
-51.788

> <W(PB)>
-54.223

> <W(SA)>
2.434

> <Valence>
6.551

> <Coulomb>
45.186

> <VdW>
0.714

> <VdW6>
-10.138

> <VdW12>
10.851

> <Bond>
0.301

> <Angle>
1.825

> <Pdih>
4.425

> <Idih>
0.000

> <Tether>
0.000

$$$$
VeraChem MOL file


 29 28  0  0  0  0  0  0  0  0999 V2000     
   19.6200   18.9641   20.1461 C   0  0  0  0  0  0  0  0  0  0  0  0
   19.0954   19.3928   19.2825 H   0  0  0  0  0  0  0  0  0  0  0  0
   20.4604   19.6275   20.3851 H   0  0  0  0  0  0  0  0  0  0  0  0
   20.0257   17.9900   19.8436 H   0  0  0  0  0  0  0  0  0  0  0  0
   18.6571   18.8158   21.3455 C   0  0  0  0  0  0  0  0  0  0  0  0
   17.7785   18.2394   21.0242 H   0  0  0  0  0  0  0  0  0  0  0  0
   18.2780   19.8034   21.6405 H   0  0  0  0  0  0  0  0  0  0  0  0
   19.2968   18.1025   22.5636 C   0  0  0  0  0  0  0  0  0  0  0  0
   18.5325   17.9803   23.3413 H   0  0  0  0  0  0  0  0  0  0  0  0
   19.5820   17.0838   22.2674 H   0  0  0  0  0  0  0  0  0  0  0  0
   20.5419   18.8110   23.1626 C   0  0  0  0  0  0  0  0  0  0  0  0
   21.3513   18.7992   22.4208 H   0  0  0  0  0  0  0  0  0  0  0  0
   20.9253   18.2223   24.0049 H   0  0  0  0  0  0  0  0  0  0  0  0
   20.3127   20.2759   23.6182 C   0  0  0  0  0  0  0  0  0  0  0  0
   21.2560   20.6692   24.0212 H   0  0  0  0  0  0  0  0  0  0  0  0
   20.0964   20.8919   22.7353 H   0  0  0  0  0  0  0  0  0  0  0  0
   19.1883   20.5015   24.6650 C   0  0  0  0  0  0  0  0  0  0  0  0
   18.2186   20.1664   24.2736 H   0  0  0  0  0  0  0  0  0  0  0  0
   19.0869   21.5866   24.8046 H   0  0  0  0  0  0  0  0  0  0  0  0
   19.4547   19.8704   26.0552 C   0  0  0  0  0  0  0  0  0  0  0  0
   20.5155   19.9746   26.3189 H   0  0  0  0  0  0  0  0  0  0  0  0
   18.8914   20.4381   26.8078 H   0  0  0  0  0  0  0  0  0  0  0  0
   19.0247   18.3944   26.1512 C   0  0  0  0  0  0  0  0  0  0  0  0
   19.5839   17.7902   25.4349 H   0  0  0  0  0  0  0  0  0  0  0  0
   17.9606   18.3070   25.9162 H   0  0  0  0  0  0  0  0  0  0  0  0
   19.2479   17.8024   27.5276 N   0  3  0  0  0  0  0  0  0  0  0  0
   20.2362   17.8304   27.7993 H   0  0  0  0  0  0  0  0  0  0  0  0
   18.9526   16.8209   27.5730 H   0  0  0  0  0  0  0  0  0  0  0  0
   18.7221   18.3063   28.2494 H   0  0  0  0  0  0  0  0  0  0  0  0
  1  2  1  0  0  0  0
  1  3  1  0  0  0  0
  1  4  1  0  0  0  0
  1  5  1  0  0  0  0
  5  6  1  0  0  0  0
  5  7  1  0  0  0  0
  5  8  1  0  0  0  0
  8  9  1  0  0  0  0
  8 10  1  0  0  0  0
  8 11  1  0  0  0  0
 11 12  1  0  0  0  0
 11 13  1  0  0  0  0
 11 14  1  0  0  0  0
 14 15  1  0  0  0  0
 14 16  1  0  0  0  0
 14 17  1  0  0  0  0
 17 18  1  0  0  0  0
 17 19  1  0  0  0  0
 17 20  1  0  0  0  0
 20 21  1  0  0  0  0
 20 22  1  0  0  0  0
 20 23  1  0  0  0  0
 23 24  1  0  0  0  0
 23 25  1  0  0  0  0
 23 26  1  0  0  0  0
 26 27  1  0  0  0  0
 26 28  1  0  0  0  0
 26 29  1  0  0  0  0
M  END
> <VM2 Rank>
399

> <Conf_Id>
2571

> <Probability>
0.00

> <Sum Probability>
99.97

> <Delta G>
4.774

> <G>
62.920

> <E>
24.349

> <-TS>
38.571

> <U+W>
0.204

> <U>
52.862

> <W>
-52.657

> <W(PB)>
-55.034

> <W(SA)>
2.376

> <Valence>
6.386

> <Coulomb>
46.094

> <VdW>
0.382

> <VdW6>
-11.635

> <VdW12>
12.017

> <Bond>
0.346

> <Angle>
2.395

> <Pdih>
3.645

> <Idih>
0.000

> <Tether>
0.000

$$$$
VeraChem MOL file


 29 28  0  0  0  0  0  0  0  0999 V2000     
   19.7025   19.1965   20.1513 C   0  0  0  0  0  0  0  0  0  0  0  0
   19.9322   18.1427   20.3520 H   0  0  0  0  0  0  0  0  0  0  0  0
   19.0372   19.2297   19.2790 H   0  0  0  0  0  0  0  0  0  0  0  0
   20.6362   19.7070   19.8819 H   0  0  0  0  0  0  0  0  0  0  0  0
   19.0325   19.8716   21.3692 C   0  0  0  0  0  0  0  0  0  0  0  0
   18.1111   19.3341   21.6302 H   0  0  0  0  0  0  0  0  0  0  0  0
   18.7194   20.8854   21.0833 H   0  0  0  0  0  0  0  0  0  0  0  0
   19.9617   19.9722   22.6053 C   0  0  0  0  0  0  0  0  0  0  0  0
   20.8300   20.5932   22.3457 H   0  0  0  0  0  0  0  0  0  0  0  0
   19.4352   20.5184   23.3980 H   0  0  0  0  0  0  0  0  0  0  0  0
   20.4719   18.6138   23.1582 C   0  0  0  0  0  0  0  0  0  0  0  0
   21.1289   18.7945   24.0177 H   0  0  0  0  0  0  0  0  0  0  0  0
   21.1175   18.1416   22.4061 H   0  0  0  0  0  0  0  0  0  0  0  0
   19.3632   17.6056   23.5586 C   0  0  0  0  0  0  0  0  0  0  0  0
   18.8191   17.2998   22.6551 H   0  0  0  0  0  0  0  0  0  0  0  0
   19.8410   16.6897   23.9324 H   0  0  0  0  0  0  0  0  0  0  0  0
   18.3340   18.0989   24.6113 C   0  0  0  0  0  0  0  0  0  0  0  0
   17.5687   17.3167   24.7092 H   0  0  0  0  0  0  0  0  0  0  0  0
   17.7989   18.9860   24.2471 H   0  0  0  0  0  0  0  0  0  0  0  0
   18.9193   18.3647   26.0215 C   0  0  0  0  0  0  0  0  0  0  0  0
   18.1136   18.2505   26.7589 H   0  0  0  0  0  0  0  0  0  0  0  0
   19.6726   17.6041   26.2659 H   0  0  0  0  0  0  0  0  0  0  0  0
   19.5159   19.7757   26.1820 C   0  0  0  0  0  0  0  0  0  0  0  0
   18.7490   20.5242   25.9656 H   0  0  0  0  0  0  0  0  0  0  0  0
   20.3409   19.9193   25.4825 H   0  0  0  0  0  0  0  0  0  0  0  0
   20.0431   20.0390   27.5775 N   0  3  0  0  0  0  0  0  0  0  0  0
   19.3071   19.9519   28.2861 H   0  0  0  0  0  0  0  0  0  0  0  0
   20.4328   20.9839   27.6659 H   0  0  0  0  0  0  0  0  0  0  0  0
   20.7881   19.3828   27.8340 H   0  0  0  0  0  0  0  0  0  0  0  0
  1  2  1  0  0  0  0
  1  3  1  0  0  0  0
  1  4  1  0  0  0  0
  1  5  1  0  0  0  0
  5  6  1  0  0  0  0
  5  7  1  0  0  0  0
  5  8  1  0  0  0  0
  8  9  1  0  0  0  0
  8 10  1  0  0  0  0
  8 11  1  0  0  0  0
 11 12  1  0  0  0  0
 11 13  1  0  0  0  0
 11 14  1  0  0  0  0
 14 15  1  0  0  0  0
 14 16  1  0  0  0  0
 14 17  1  0  0  0  0
 17 18  1  0  0  0  0
 17 19  1  0  0  0  0
 17 20  1  0  0  0  0
 20 21  1  0  0  0  0
 20 22  1  0  0  0  0
 20 23  1  0  0  0  0
 23 24  1  0  0  0  0
 23 25  1  0  0  0  0
 23 26  1  0  0  0  0
 26 27  1  0  0  0  0
 26 28  1  0  0  0  0
 26 29  1  0  0  0  0
M  END
> <VM2 Rank>
400

> <Conf_Id>
971

> <Probability>
0.00

> <Sum Probability>
99.97

> <Delta G>
4.774

> <G>
62.920

> <E>
24.349

> <-TS>
38.572

> <U+W>
0.204

> <U>
52.862

> <W>
-52.657

> <W(PB)>
-55.038

> <W(SA)>
2.380

> <Valence>
6.386

> <Coulomb>
46.094

> <VdW>
0.382

> <VdW6>
-11.635

> <VdW12>
12.017

> <Bond>
0.346

> <Angle>
2.395

> <Pdih>
3.645

> <Idih>
0.000

> <Tether>
0.000

$$$$
VeraChem MOL file


 29 28  0  0  0  0  0  0  0  0999 V2000     
   20.7425   19.1935   20.5357 C   0  0  0  0  0  0  0  0  0  0  0  0
   21.6402   19.1379   21.1650 H   0  0  0  0  0  0  0  0  0  0  0  0
   21.0452   18.9912   19.5001 H   0  0  0  0  0  0  0  0  0  0  0  0
   20.3596   20.2208   20.5725 H   0  0  0  0  0  0  0  0  0  0  0  0
   19.6769   18.1735   20.9965 C   0  0  0  0  0  0  0  0  0  0  0  0
   20.0630   17.1583   20.8291 H   0  0  0  0  0  0  0  0  0  0  0  0
   18.7787   18.2679   20.3704 H   0  0  0  0  0  0  0  0  0  0  0  0
   19.2941   18.3194   22.4888 C   0  0  0  0  0  0  0  0  0  0  0  0
   18.6267   17.4893   22.7579 H   0  0  0  0  0  0  0  0  0  0  0  0
   20.1956   18.1996   23.0995 H   0  0  0  0  0  0  0  0  0  0  0  0
   18.5865   19.6607   22.8115 C   0  0  0  0  0  0  0  0  0  0  0  0
   17.7319   19.7657   22.1290 H   0  0  0  0  0  0  0  0  0  0  0  0
   19.2487   20.5107   22.6018 H   0  0  0  0  0  0  0  0  0  0  0  0
   18.0573   19.7572   24.2667 C   0  0  0  0  0  0  0  0  0  0  0  0
   17.1408   20.3631   24.2491 H   0  0  0  0  0  0  0  0  0  0  0  0
   17.7436   18.7691   24.6286 H   0  0  0  0  0  0  0  0  0  0  0  0
   19.0302   20.4298   25.2725 C   0  0  0  0  0  0  0  0  0  0  0  0
   18.5061   20.5654   26.2281 H   0  0  0  0  0  0  0  0  0  0  0  0
   19.2631   21.4440   24.9200 H   0  0  0  0  0  0  0  0  0  0  0  0
   20.3587   19.6755   25.5311 C   0  0  0  0  0  0  0  0  0  0  0  0
   20.9701   19.6838   24.6206 H   0  0  0  0  0  0  0  0  0  0  0  0
   20.9412   20.2232   26.2837 H   0  0  0  0  0  0  0  0  0  0  0  0
   20.1682   18.2212   26.0068 C   0  0  0  0  0  0  0  0  0  0  0  0
   21.1459   17.7475   26.1304 H   0  0  0  0  0  0  0  0  0  0  0  0
   19.6084   17.6574   25.2564 H   0  0  0  0  0  0  0  0  0  0  0  0
   19.4297   18.1072   27.3253 N   0  3  0  0  0  0  0  0  0  0  0  0
   19.9235   18.5939   28.0805 H   0  0  0  0  0  0  0  0  0  0  0  0
   19.3200   17.1303   27.6184 H   0  0  0  0  0  0  0  0  0  0  0  0
   18.4904   18.5128   27.2665 H   0  0  0  0  0  0  0  0  0  0  0  0
  1  2  1  0  0  0  0
  1  3  1  0  0  0  0
  1  4  1  0  0  0  0
  1  5  1  0  0  0  0
  5  6  1  0  0  0  0
  5  7  1  0  0  0  0
  5  8  1  0  0  0  0
  8  9  1  0  0  0  0
  8 10  1  0  0  0  0
  8 11  1  0  0  0  0
 11 12  1  0  0  0  0
 11 13  1  0  0  0  0
 11 14  1  0  0  0  0
 14 15  1  0  0  0  0
 14 16  1  0  0  0  0
 14 17  1  0  0  0  0
 17 18  1  0  0  0  0
 17 19  1  0  0  0  0
 17 20  1  0  0  0  0
 20 21  1  0  0  0  0
 20 22  1  0  0  0  0
 20 23  1  0  0  0  0
 23 24  1  0  0  0  0
 23 25  1  0  0  0  0
 23 26  1  0  0  0  0
 26 27  1  0  0  0  0
 26 28  1  0  0  0  0
 26 29  1  0  0  0  0
M  END
> <VM2 Rank>
401

> <Conf_Id>
624

> <Probability>
0.00

> <Sum Probability>
99.97

> <Delta G>
4.799

> <G>
62.945

> <E>
24.773

> <-TS>
38.172

> <U+W>
0.629

> <U>
53.096

> <W>
-52.467

> <W(PB)>
-54.850

> <W(SA)>
2.382

> <Valence>
6.476

> <Coulomb>
46.057

> <VdW>
0.563

> <VdW6>
-11.156

> <VdW12>
11.719

> <Bond>
0.325

> <Angle>
1.896

> <Pdih>
4.256

> <Idih>
0.000

> <Tether>
0.000

$$$$
VeraChem MOL file


 29 28  0  0  0  0  0  0  0  0999 V2000     
   19.1348   19.1591   20.0559 C   0  0  0  0  0  0  0  0  0  0  0  0
   18.3118   18.9427   19.3627 H   0  0  0  0  0  0  0  0  0  0  0  0
   19.0309   20.2033   20.3764 H   0  0  0  0  0  0  0  0  0  0  0  0
   20.0769   19.0607   19.5012 H   0  0  0  0  0  0  0  0  0  0  0  0
   19.0964   18.1923   21.2608 C   0  0  0  0  0  0  0  0  0  0  0  0
   19.0800   17.1601   20.8841 H   0  0  0  0  0  0  0  0  0  0  0  0
   18.1554   18.3221   21.8109 H   0  0  0  0  0  0  0  0  0  0  0  0
   20.3064   18.3461   22.2179 C   0  0  0  0  0  0  0  0  0  0  0  0
   20.2070   17.6154   23.0274 H   0  0  0  0  0  0  0  0  0  0  0  0
   21.2156   18.0534   21.6751 H   0  0  0  0  0  0  0  0  0  0  0  0
   20.5305   19.7701   22.8009 C   0  0  0  0  0  0  0  0  0  0  0  0
   20.7798   20.4430   21.9698 H   0  0  0  0  0  0  0  0  0  0  0  0
   21.4240   19.7632   23.4400 H   0  0  0  0  0  0  0  0  0  0  0  0
   19.3412   20.3880   23.5875 C   0  0  0  0  0  0  0  0  0  0  0  0
   19.4201   21.4804   23.5003 H   0  0  0  0  0  0  0  0  0  0  0  0
   18.3828   20.1338   23.1196 H   0  0  0  0  0  0  0  0  0  0  0  0
   19.2997   20.0563   25.1017 C   0  0  0  0  0  0  0  0  0  0  0  0
   18.4819   20.6357   25.5523 H   0  0  0  0  0  0  0  0  0  0  0  0
   20.2242   20.4116   25.5764 H   0  0  0  0  0  0  0  0  0  0  0  0
   19.0868   18.5592   25.4291 C   0  0  0  0  0  0  0  0  0  0  0  0
   18.2782   18.1570   24.8045 H   0  0  0  0  0  0  0  0  0  0  0  0
   19.9931   17.9895   25.1928 H   0  0  0  0  0  0  0  0  0  0  0  0
   18.7276   18.3245   26.9087 C   0  0  0  0  0  0  0  0  0  0  0  0
   18.5296   17.2615   27.0710 H   0  0  0  0  0  0  0  0  0  0  0  0
   17.8220   18.8829   27.1607 H   0  0  0  0  0  0  0  0  0  0  0  0
   19.8206   18.7425   27.8725 N   0  3  0  0  0  0  0  0  0  0  0  0
   20.6933   18.2319   27.7026 H   0  0  0  0  0  0  0  0  0  0  0  0
   19.5555   18.5681   28.8481 H   0  0  0  0  0  0  0  0  0  0  0  0
   20.0334   19.7418   27.7925 H   0  0  0  0  0  0  0  0  0  0  0  0
  1  2  1  0  0  0  0
  1  3  1  0  0  0  0
  1  4  1  0  0  0  0
  1  5  1  0  0  0  0
  5  6  1  0  0  0  0
  5  7  1  0  0  0  0
  5  8  1  0  0  0  0
  8  9  1  0  0  0  0
  8 10  1  0  0  0  0
  8 11  1  0  0  0  0
 11 12  1  0  0  0  0
 11 13  1  0  0  0  0
 11 14  1  0  0  0  0
 14 15  1  0  0  0  0
 14 16  1  0  0  0  0
 14 17  1  0  0  0  0
 17 18  1  0  0  0  0
 17 19  1  0  0  0  0
 17 20  1  0  0  0  0
 20 21  1  0  0  0  0
 20 22  1  0  0  0  0
 20 23  1  0  0  0  0
 23 24  1  0  0  0  0
 23 25  1  0  0  0  0
 23 26  1  0  0  0  0
 26 27  1  0  0  0  0
 26 28  1  0  0  0  0
 26 29  1  0  0  0  0
M  END
> <VM2 Rank>
402

> <Conf_Id>
1374

> <Probability>
0.00

> <Sum Probability>
99.97

> <Delta G>
4.820

> <G>
62.967

> <E>
25.361

> <-TS>
37.605

> <U+W>
1.217

> <U>
53.379

> <W>
-52.162

> <W(PB)>
-54.562

> <W(SA)>
2.400

> <Valence>
6.973

> <Coulomb>
45.451

> <VdW>
0.955

> <VdW6>
-10.740

> <VdW12>
11.695

> <Bond>
0.375

> <Angle>
2.531

> <Pdih>
4.067

> <Idih>
0.000

> <Tether>
0.000

$$$$
VeraChem MOL file


 29 28  0  0  0  0  0  0  0  0999 V2000     
   19.2025   19.3643   20.0649 C   0  0  0  0  0  0  0  0  0  0  0  0
   18.4527   18.6137   20.3448 H   0  0  0  0  0  0  0  0  0  0  0  0
   18.7148   20.0854   19.3964 H   0  0  0  0  0  0  0  0  0  0  0  0
   19.9970   18.8629   19.4971 H   0  0  0  0  0  0  0  0  0  0  0  0
   19.7761   20.0805   21.3082 C   0  0  0  0  0  0  0  0  0  0  0  0
   18.9626   20.5577   21.8700 H   0  0  0  0  0  0  0  0  0  0  0  0
   20.4268   20.9006   20.9739 H   0  0  0  0  0  0  0  0  0  0  0  0
   20.5982   19.1491   22.2359 C   0  0  0  0  0  0  0  0  0  0  0  0
   21.4910   18.8170   21.6886 H   0  0  0  0  0  0  0  0  0  0  0  0
   20.9789   19.7396   23.0758 H   0  0  0  0  0  0  0  0  0  0  0  0
   19.8549   17.8865   22.7569 C   0  0  0  0  0  0  0  0  0  0  0  0
   20.5388   17.2957   23.3813 H   0  0  0  0  0  0  0  0  0  0  0  0
   19.6292   17.2446   21.8951 H   0  0  0  0  0  0  0  0  0  0  0  0
   18.5339   18.1362   23.5365 C   0  0  0  0  0  0  0  0  0  0  0  0
   17.9622   18.9597   23.0925 H   0  0  0  0  0  0  0  0  0  0  0  0
   17.9012   17.2475   23.4062 H   0  0  0  0  0  0  0  0  0  0  0  0
   18.6924   18.3594   25.0628 C   0  0  0  0  0  0  0  0  0  0  0  0
   19.1747   17.4797   25.5099 H   0  0  0  0  0  0  0  0  0  0  0  0
   17.6868   18.4138   25.5024 H   0  0  0  0  0  0  0  0  0  0  0  0
   19.4739   19.6370   25.4510 C   0  0  0  0  0  0  0  0  0  0  0  0
   20.5391   19.5099   25.2255 H   0  0  0  0  0  0  0  0  0  0  0  0
   19.1140   20.4848   24.8532 H   0  0  0  0  0  0  0  0  0  0  0  0
   19.3238   19.9893   26.9433 C   0  0  0  0  0  0  0  0  0  0  0  0
   18.2661   20.1240   27.1850 H   0  0  0  0  0  0  0  0  0  0  0  0
   19.8435   20.9290   27.1494 H   0  0  0  0  0  0  0  0  0  0  0  0
   19.8882   18.9356   27.8756 N   0  3  0  0  0  0  0  0  0  0  0  0
   19.7799   19.2011   28.8606 H   0  0  0  0  0  0  0  0  0  0  0  0
   20.8890   18.7818   27.7144 H   0  0  0  0  0  0  0  0  0  0  0  0
   19.4191   18.0326   27.7539 H   0  0  0  0  0  0  0  0  0  0  0  0
  1  2  1  0  0  0  0
  1  3  1  0  0  0  0
  1  4  1  0  0  0  0
  1  5  1  0  0  0  0
  5  6  1  0  0  0  0
  5  7  1  0  0  0  0
  5  8  1  0  0  0  0
  8  9  1  0  0  0  0
  8 10  1  0  0  0  0
  8 11  1  0  0  0  0
 11 12  1  0  0  0  0
 11 13  1  0  0  0  0
 11 14  1  0  0  0  0
 14 15  1  0  0  0  0
 14 16  1  0  0  0  0
 14 17  1  0  0  0  0
 17 18  1  0  0  0  0
 17 19  1  0  0  0  0
 17 20  1  0  0  0  0
 20 21  1  0  0  0  0
 20 22  1  0  0  0  0
 20 23  1  0  0  0  0
 23 24  1  0  0  0  0
 23 25  1  0  0  0  0
 23 26  1  0  0  0  0
 26 27  1  0  0  0  0
 26 28  1  0  0  0  0
 26 29  1  0  0  0  0
M  END
> <VM2 Rank>
403

> <Conf_Id>
1046

> <Probability>
0.00

> <Sum Probability>
99.97

> <Delta G>
4.838

> <G>
62.985

> <E>
25.387

> <-TS>
37.598

> <U+W>
1.243

> <U>
53.380

> <W>
-52.137

> <W(PB)>
-54.543

> <W(SA)>
2.406

> <Valence>
6.975

> <Coulomb>
45.454

> <VdW>
0.951

> <VdW6>
-10.746

> <VdW12>
11.697

> <Bond>
0.375

> <Angle>
2.543

> <Pdih>
4.058

> <Idih>
0.000

> <Tether>
0.000

$$$$
VeraChem MOL file


 29 28  0  0  0  0  0  0  0  0999 V2000     
   21.3951   19.2264   20.8116 C   0  0  0  0  0  0  0  0  0  0  0  0
   21.7355   18.1828   20.7907 H   0  0  0  0  0  0  0  0  0  0  0  0
   21.0125   19.4813   19.8147 H   0  0  0  0  0  0  0  0  0  0  0  0
   22.2679   19.8619   21.0097 H   0  0  0  0  0  0  0  0  0  0  0  0
   20.3127   19.4348   21.8917 C   0  0  0  0  0  0  0  0  0  0  0  0
   20.0109   20.4913   21.9069 H   0  0  0  0  0  0  0  0  0  0  0  0
   20.7459   19.2052   22.8730 H   0  0  0  0  0  0  0  0  0  0  0  0
   19.0776   18.5403   21.6415 C   0  0  0  0  0  0  0  0  0  0  0  0
   18.7357   18.6863   20.6075 H   0  0  0  0  0  0  0  0  0  0  0  0
   19.3701   17.4841   21.7197 H   0  0  0  0  0  0  0  0  0  0  0  0
   17.8828   18.8161   22.5904 C   0  0  0  0  0  0  0  0  0  0  0  0
   17.0588   18.1580   22.2817 H   0  0  0  0  0  0  0  0  0  0  0  0
   17.5129   19.8401   22.4436 H   0  0  0  0  0  0  0  0  0  0  0  0
   18.1701   18.5554   24.0922 C   0  0  0  0  0  0  0  0  0  0  0  0
   17.2589   18.1494   24.5527 H   0  0  0  0  0  0  0  0  0  0  0  0
   18.9348   17.7741   24.1932 H   0  0  0  0  0  0  0  0  0  0  0  0
   18.5743   19.8328   24.8727 C   0  0  0  0  0  0  0  0  0  0  0  0
   17.7859   20.5885   24.7520 H   0  0  0  0  0  0  0  0  0  0  0  0
   19.4818   20.2771   24.4488 H   0  0  0  0  0  0  0  0  0  0  0  0
   18.7772   19.5786   26.3874 C   0  0  0  0  0  0  0  0  0  0  0  0
   19.0034   20.5294   26.8881 H   0  0  0  0  0  0  0  0  0  0  0  0
   17.8352   19.2201   26.8234 H   0  0  0  0  0  0  0  0  0  0  0  0
   19.8901   18.5613   26.7103 C   0  0  0  0  0  0  0  0  0  0  0  0
   19.6583   17.5987   26.2474 H   0  0  0  0  0  0  0  0  0  0  0  0
   19.9430   18.4132   27.7923 H   0  0  0  0  0  0  0  0  0  0  0  0
   21.2640   18.9923   26.2372 N   0  3  0  0  0  0  0  0  0  0  0  0
   21.2895   19.1195   25.2212 H   0  0  0  0  0  0  0  0  0  0  0  0
   21.9827   18.2996   26.4747 H   0  0  0  0  0  0  0  0  0  0  0  0
   21.5505   19.8798   26.6634 H   0  0  0  0  0  0  0  0  0  0  0  0
  1  2  1  0  0  0  0
  1  3  1  0  0  0  0
  1  4  1  0  0  0  0
  1  5  1  0  0  0  0
  5  6  1  0  0  0  0
  5  7  1  0  0  0  0
  5  8  1  0  0  0  0
  8  9  1  0  0  0  0
  8 10  1  0  0  0  0
  8 11  1  0  0  0  0
 11 12  1  0  0  0  0
 11 13  1  0  0  0  0
 11 14  1  0  0  0  0
 14 15  1  0  0  0  0
 14 16  1  0  0  0  0
 14 17  1  0  0  0  0
 17 18  1  0  0  0  0
 17 19  1  0  0  0  0
 17 20  1  0  0  0  0
 20 21  1  0  0  0  0
 20 22  1  0  0  0  0
 20 23  1  0  0  0  0
 23 24  1  0  0  0  0
 23 25  1  0  0  0  0
 23 26  1  0  0  0  0
 26 27  1  0  0  0  0
 26 28  1  0  0  0  0
 26 29  1  0  0  0  0
M  END
> <VM2 Rank>
404

> <Conf_Id>
687

> <Probability>
0.00

> <Sum Probability>
99.97

> <Delta G>
4.864

> <G>
63.010

> <E>
25.239

> <-TS>
37.772

> <U+W>
1.094

> <U>
53.627

> <W>
-52.533

> <W(PB)>
-54.952

> <W(SA)>
2.420

> <Valence>
6.009

> <Coulomb>
47.034

> <VdW>
0.585

> <VdW6>
-10.174

> <VdW12>
10.759

> <Bond>
0.284

> <Angle>
1.441

> <Pdih>
4.284

> <Idih>
0.000

> <Tether>
0.000

$$$$
VeraChem MOL file


 29 28  0  0  0  0  0  0  0  0999 V2000     
   20.4890   17.5826   21.7682 C   0  0  0  0  0  0  0  0  0  0  0  0
   20.1693   17.3841   22.7978 H   0  0  0  0  0  0  0  0  0  0  0  0
   20.6762   16.6119   21.2913 H   0  0  0  0  0  0  0  0  0  0  0  0
   21.4385   18.1328   21.7950 H   0  0  0  0  0  0  0  0  0  0  0  0
   19.4116   18.3672   20.9886 C   0  0  0  0  0  0  0  0  0  0  0  0
   18.4550   17.8296   21.0478 H   0  0  0  0  0  0  0  0  0  0  0  0
   19.6875   18.3804   19.9249 H   0  0  0  0  0  0  0  0  0  0  0  0
   19.2166   19.8302   21.4621 C   0  0  0  0  0  0  0  0  0  0  0  0
   20.1420   20.4025   21.3102 H   0  0  0  0  0  0  0  0  0  0  0  0
   18.4712   20.2935   20.8009 H   0  0  0  0  0  0  0  0  0  0  0  0
   18.7222   19.9810   22.9245 C   0  0  0  0  0  0  0  0  0  0  0  0
   18.1090   19.1123   23.1969 H   0  0  0  0  0  0  0  0  0  0  0  0
   18.0567   20.8535   22.9769 H   0  0  0  0  0  0  0  0  0  0  0  0
   19.8705   20.1897   23.9450 C   0  0  0  0  0  0  0  0  0  0  0  0
   20.5524   19.3323   23.9396 H   0  0  0  0  0  0  0  0  0  0  0  0
   20.4733   21.0520   23.6288 H   0  0  0  0  0  0  0  0  0  0  0  0
   19.3714   20.4523   25.3893 C   0  0  0  0  0  0  0  0  0  0  0  0
   18.7783   21.3771   25.4016 H   0  0  0  0  0  0  0  0  0  0  0  0
   20.2392   20.6480   26.0334 H   0  0  0  0  0  0  0  0  0  0  0  0
   18.5253   19.3078   26.0065 C   0  0  0  0  0  0  0  0  0  0  0  0
   18.2728   19.5653   27.0437 H   0  0  0  0  0  0  0  0  0  0  0  0
   17.5675   19.2294   25.4765 H   0  0  0  0  0  0  0  0  0  0  0  0
   19.2204   17.9320   25.9834 C   0  0  0  0  0  0  0  0  0  0  0  0
   19.4396   17.6479   24.9512 H   0  0  0  0  0  0  0  0  0  0  0  0
   18.5517   17.1791   26.4092 H   0  0  0  0  0  0  0  0  0  0  0  0
   20.5170   17.8951   26.7673 N   0  3  0  0  0  0  0  0  0  0  0  0
   21.1980   18.5669   26.4000 H   0  0  0  0  0  0  0  0  0  0  0  0
   20.9564   16.9687   26.7351 H   0  0  0  0  0  0  0  0  0  0  0  0
   20.3690   18.1232   27.7558 H   0  0  0  0  0  0  0  0  0  0  0  0
  1  2  1  0  0  0  0
  1  3  1  0  0  0  0
  1  4  1  0  0  0  0
  1  5  1  0  0  0  0
  5  6  1  0  0  0  0
  5  7  1  0  0  0  0
  5  8  1  0  0  0  0
  8  9  1  0  0  0  0
  8 10  1  0  0  0  0
  8 11  1  0  0  0  0
 11 12  1  0  0  0  0
 11 13  1  0  0  0  0
 11 14  1  0  0  0  0
 14 15  1  0  0  0  0
 14 16  1  0  0  0  0
 14 17  1  0  0  0  0
 17 18  1  0  0  0  0
 17 19  1  0  0  0  0
 17 20  1  0  0  0  0
 20 21  1  0  0  0  0
 20 22  1  0  0  0  0
 20 23  1  0  0  0  0
 23 24  1  0  0  0  0
 23 25  1  0  0  0  0
 23 26  1  0  0  0  0
 26 27  1  0  0  0  0
 26 28  1  0  0  0  0
 26 29  1  0  0  0  0
M  END
> <VM2 Rank>
405

> <Conf_Id>
1690

> <Probability>
0.00

> <Sum Probability>
99.98

> <Delta G>
4.895

> <G>
63.042

> <E>
24.811

> <-TS>
38.231

> <U+W>
0.666

> <U>
53.349

> <W>
-52.683

> <W(PB)>
-55.037

> <W(SA)>
2.354

> <Valence>
6.413

> <Coulomb>
46.398

> <VdW>
0.538

> <VdW6>
-11.259

> <VdW12>
11.797

> <Bond>
0.329

> <Angle>
1.770

> <Pdih>
4.314

> <Idih>
0.000

> <Tether>
0.000

$$$$
VeraChem MOL file


 29 28  0  0  0  0  0  0  0  0999 V2000     
   20.1931   18.1977   20.4784 C   0  0  0  0  0  0  0  0  0  0  0  0
   19.7041   17.4577   21.1239 H   0  0  0  0  0  0  0  0  0  0  0  0
   20.1902   17.7953   19.4572 H   0  0  0  0  0  0  0  0  0  0  0  0
   21.2387   18.3024   20.7953 H   0  0  0  0  0  0  0  0  0  0  0  0
   19.4585   19.5552   20.5255 C   0  0  0  0  0  0  0  0  0  0  0  0
   18.4036   19.4079   20.2549 H   0  0  0  0  0  0  0  0  0  0  0  0
   19.8820   20.2120   19.7530 H   0  0  0  0  0  0  0  0  0  0  0  0
   19.5471   20.2816   21.8919 C   0  0  0  0  0  0  0  0  0  0  0  0
   20.5934   20.5227   22.1248 H   0  0  0  0  0  0  0  0  0  0  0  0
   19.0371   21.2490   21.7853 H   0  0  0  0  0  0  0  0  0  0  0  0
   18.8941   19.5186   23.0736 C   0  0  0  0  0  0  0  0  0  0  0  0
   18.0819   18.8774   22.7047 H   0  0  0  0  0  0  0  0  0  0  0  0
   18.4238   20.2564   23.7369 H   0  0  0  0  0  0  0  0  0  0  0  0
   19.9070   18.6862   23.9007 C   0  0  0  0  0  0  0  0  0  0  0  0
   20.4759   18.0248   23.2368 H   0  0  0  0  0  0  0  0  0  0  0  0
   20.6470   19.3575   24.3561 H   0  0  0  0  0  0  0  0  0  0  0  0
   19.2393   17.8145   24.9953 C   0  0  0  0  0  0  0  0  0  0  0  0
   20.0151   17.2220   25.4986 H   0  0  0  0  0  0  0  0  0  0  0  0
   18.5736   17.0846   24.5145 H   0  0  0  0  0  0  0  0  0  0  0  0
   18.4303   18.6051   26.0569 C   0  0  0  0  0  0  0  0  0  0  0  0
   17.5509   19.0625   25.5858 H   0  0  0  0  0  0  0  0  0  0  0  0
   18.0383   17.9049   26.8064 H   0  0  0  0  0  0  0  0  0  0  0  0
   19.2417   19.7050   26.7702 C   0  0  0  0  0  0  0  0  0  0  0  0
   18.5957   20.2339   27.4762 H   0  0  0  0  0  0  0  0  0  0  0  0
   19.6077   20.4278   26.0364 H   0  0  0  0  0  0  0  0  0  0  0  0
   20.4329   19.1741   27.5425 N   0  3  0  0  0  0  0  0  0  0  0  0
   20.1484   18.5107   28.2705 H   0  0  0  0  0  0  0  0  0  0  0  0
   20.9523   19.9266   28.0075 H   0  0  0  0  0  0  0  0  0  0  0  0
   21.0921   18.6860   26.9282 H   0  0  0  0  0  0  0  0  0  0  0  0
  1  2  1  0  0  0  0
  1  3  1  0  0  0  0
  1  4  1  0  0  0  0
  1  5  1  0  0  0  0
  5  6  1  0  0  0  0
  5  7  1  0  0  0  0
  5  8  1  0  0  0  0
  8  9  1  0  0  0  0
  8 10  1  0  0  0  0
  8 11  1  0  0  0  0
 11 12  1  0  0  0  0
 11 13  1  0  0  0  0
 11 14  1  0  0  0  0
 14 15  1  0  0  0  0
 14 16  1  0  0  0  0
 14 17  1  0  0  0  0
 17 18  1  0  0  0  0
 17 19  1  0  0  0  0
 17 20  1  0  0  0  0
 20 21  1  0  0  0  0
 20 22  1  0  0  0  0
 20 23  1  0  0  0  0
 23 24  1  0  0  0  0
 23 25  1  0  0  0  0
 23 26  1  0  0  0  0
 26 27  1  0  0  0  0
 26 28  1  0  0  0  0
 26 29  1  0  0  0  0
M  END
> <VM2 Rank>
406

> <Conf_Id>
600

> <Probability>
0.00

> <Sum Probability>
99.98

> <Delta G>
4.914

> <G>
63.060

> <E>
24.931

> <-TS>
38.129

> <U+W>
0.787

> <U>
52.914

> <W>
-52.128

> <W(PB)>
-54.567

> <W(SA)>
2.440

> <Valence>
6.450

> <Coulomb>
45.609

> <VdW>
0.855

> <VdW6>
-10.785

> <VdW12>
11.640

> <Bond>
0.323

> <Angle>
1.665

> <Pdih>
4.462

> <Idih>
0.000

> <Tether>
0.000

$$$$
VeraChem MOL file


 29 28  0  0  0  0  0  0  0  0999 V2000     
   21.6284   18.9158   21.5222 C   0  0  0  0  0  0  0  0  0  0  0  0
   21.8815   18.0107   22.0894 H   0  0  0  0  0  0  0  0  0  0  0  0
   21.5158   18.6374   20.4663 H   0  0  0  0  0  0  0  0  0  0  0  0
   22.4753   19.6100   21.5992 H   0  0  0  0  0  0  0  0  0  0  0  0
   20.3390   19.5672   22.0646 C   0  0  0  0  0  0  0  0  0  0  0  0
   20.1283   20.4858   21.4995 H   0  0  0  0  0  0  0  0  0  0  0  0
   20.5037   19.8690   23.1065 H   0  0  0  0  0  0  0  0  0  0  0  0
   19.1300   18.6071   21.9646 C   0  0  0  0  0  0  0  0  0  0  0  0
   19.0039   18.3091   20.9146 H   0  0  0  0  0  0  0  0  0  0  0  0
   19.3314   17.6783   22.5120 H   0  0  0  0  0  0  0  0  0  0  0  0
   17.7999   19.2321   22.4535 C   0  0  0  0  0  0  0  0  0  0  0  0
   16.9900   18.5084   22.2878 H   0  0  0  0  0  0  0  0  0  0  0  0
   17.5632   20.0928   21.8129 H   0  0  0  0  0  0  0  0  0  0  0  0
   17.7608   19.6967   23.9348 C   0  0  0  0  0  0  0  0  0  0  0  0
   18.4872   20.5000   24.1067 H   0  0  0  0  0  0  0  0  0  0  0  0
   16.7794   20.1638   24.0962 H   0  0  0  0  0  0  0  0  0  0  0  0
   17.9151   18.5616   24.9849 C   0  0  0  0  0  0  0  0  0  0  0  0
   17.4674   17.6369   24.5959 H   0  0  0  0  0  0  0  0  0  0  0  0
   17.3212   18.8265   25.8706 H   0  0  0  0  0  0  0  0  0  0  0  0
   19.3652   18.2801   25.4547 C   0  0  0  0  0  0  0  0  0  0  0  0
   19.3495   17.4244   26.1426 H   0  0  0  0  0  0  0  0  0  0  0  0
   19.9965   17.9814   24.6116 H   0  0  0  0  0  0  0  0  0  0  0  0
   20.0030   19.4823   26.1760 C   0  0  0  0  0  0  0  0  0  0  0  0
   19.3870   19.7659   27.0336 H   0  0  0  0  0  0  0  0  0  0  0  0
   20.0618   20.3361   25.4968 H   0  0  0  0  0  0  0  0  0  0  0  0
   21.4025   19.1950   26.6798 N   0  3  0  0  0  0  0  0  0  0  0  0
   21.4146   18.4181   27.3489 H   0  0  0  0  0  0  0  0  0  0  0  0
   21.8091   20.0068   27.1576 H   0  0  0  0  0  0  0  0  0  0  0  0
   22.0400   18.9465   25.9162 H   0  0  0  0  0  0  0  0  0  0  0  0
  1  2  1  0  0  0  0
  1  3  1  0  0  0  0
  1  4  1  0  0  0  0
  1  5  1  0  0  0  0
  5  6  1  0  0  0  0
  5  7  1  0  0  0  0
  5  8  1  0  0  0  0
  8  9  1  0  0  0  0
  8 10  1  0  0  0  0
  8 11  1  0  0  0  0
 11 12  1  0  0  0  0
 11 13  1  0  0  0  0
 11 14  1  0  0  0  0
 14 15  1  0  0  0  0
 14 16  1  0  0  0  0
 14 17  1  0  0  0  0
 17 18  1  0  0  0  0
 17 19  1  0  0  0  0
 17 20  1  0  0  0  0
 20 21  1  0  0  0  0
 20 22  1  0  0  0  0
 20 23  1  0  0  0  0
 23 24  1  0  0  0  0
 23 25  1  0  0  0  0
 23 26  1  0  0  0  0
 26 27  1  0  0  0  0
 26 28  1  0  0  0  0
 26 29  1  0  0  0  0
M  END
> <VM2 Rank>
407

> <Conf_Id>
2951

> <Probability>
0.00

> <Sum Probability>
99.98

> <Delta G>
5.011

> <G>
63.157

> <E>
24.857

> <-TS>
38.300

> <U+W>
0.712

> <U>
53.539

> <W>
-52.827

> <W(PB)>
-55.205

> <W(SA)>
2.379

> <Valence>
6.581

> <Coulomb>
46.682

> <VdW>
0.276

> <VdW6>
-10.908

> <VdW12>
11.183

> <Bond>
0.323

> <Angle>
2.235

> <Pdih>
4.024

> <Idih>
0.000

> <Tether>
0.000

$$$$
VeraChem MOL file


 29 28  0  0  0  0  0  0  0  0999 V2000     
   21.1878   19.2475   21.3241 C   0  0  0  0  0  0  0  0  0  0  0  0
   21.5385   20.1728   21.7990 H   0  0  0  0  0  0  0  0  0  0  0  0
   21.3026   18.4298   22.0429 H   0  0  0  0  0  0  0  0  0  0  0  0
   21.8537   19.0349   20.4777 H   0  0  0  0  0  0  0  0  0  0  0  0
   19.7282   19.3933   20.8360 C   0  0  0  0  0  0  0  0  0  0  0  0
   19.3921   18.4623   20.3587 H   0  0  0  0  0  0  0  0  0  0  0  0
   19.7144   20.1583   20.0471 H   0  0  0  0  0  0  0  0  0  0  0  0
   18.7306   19.8207   21.9440 C   0  0  0  0  0  0  0  0  0  0  0  0
   19.2121   20.5071   22.6526 H   0  0  0  0  0  0  0  0  0  0  0  0
   17.9373   20.4110   21.4650 H   0  0  0  0  0  0  0  0  0  0  0  0
   18.0364   18.6499   22.6912 C   0  0  0  0  0  0  0  0  0  0  0  0
   17.5309   18.0108   21.9544 H   0  0  0  0  0  0  0  0  0  0  0  0
   17.2319   19.0609   23.3149 H   0  0  0  0  0  0  0  0  0  0  0  0
   18.9514   17.7597   23.5719 C   0  0  0  0  0  0  0  0  0  0  0  0
   18.3297   16.9929   24.0542 H   0  0  0  0  0  0  0  0  0  0  0  0
   19.6452   17.2048   22.9283 H   0  0  0  0  0  0  0  0  0  0  0  0
   19.7522   18.5097   24.6682 C   0  0  0  0  0  0  0  0  0  0  0  0
   20.4395   19.2306   24.2077 H   0  0  0  0  0  0  0  0  0  0  0  0
   20.3841   17.7773   25.1873 H   0  0  0  0  0  0  0  0  0  0  0  0
   18.8538   19.2368   25.6994 C   0  0  0  0  0  0  0  0  0  0  0  0
   18.2477   19.9972   25.1913 H   0  0  0  0  0  0  0  0  0  0  0  0
   18.1514   18.5261   26.1547 H   0  0  0  0  0  0  0  0  0  0  0  0
   19.6665   19.9377   26.8050 C   0  0  0  0  0  0  0  0  0  0  0  0
   18.9894   20.5115   27.4436 H   0  0  0  0  0  0  0  0  0  0  0  0
   20.3800   20.6321   26.3534 H   0  0  0  0  0  0  0  0  0  0  0  0
   20.4372   18.9828   27.6953 N   0  3  0  0  0  0  0  0  0  0  0  0
   19.8158   18.3171   28.1664 H   0  0  0  0  0  0  0  0  0  0  0  0
   20.9554   19.4799   28.4281 H   0  0  0  0  0  0  0  0  0  0  0  0
   21.1203   18.4353   27.1627 H   0  0  0  0  0  0  0  0  0  0  0  0
  1  2  1  0  0  0  0
  1  3  1  0  0  0  0
  1  4  1  0  0  0  0
  1  5  1  0  0  0  0
  5  6  1  0  0  0  0
  5  7  1  0  0  0  0
  5  8  1  0  0  0  0
  8  9  1  0  0  0  0
  8 10  1  0  0  0  0
  8 11  1  0  0  0  0
 11 12  1  0  0  0  0
 11 13  1  0  0  0  0
 11 14  1  0  0  0  0
 14 15  1  0  0  0  0
 14 16  1  0  0  0  0
 14 17  1  0  0  0  0
 17 18  1  0  0  0  0
 17 19  1  0  0  0  0
 17 20  1  0  0  0  0
 20 21  1  0  0  0  0
 20 22  1  0  0  0  0
 20 23  1  0  0  0  0
 23 24  1  0  0  0  0
 23 25  1  0  0  0  0
 23 26  1  0  0  0  0
 26 27  1  0  0  0  0
 26 28  1  0  0  0  0
 26 29  1  0  0  0  0
M  END
> <VM2 Rank>
408

> <Conf_Id>
997

> <Probability>
0.00

> <Sum Probability>
99.98

> <Delta G>
5.016

> <G>
63.162

> <E>
24.822

> <-TS>
38.340

> <U+W>
0.677

> <U>
52.977

> <W>
-52.299

> <W(PB)>
-54.668

> <W(SA)>
2.369

> <Valence>
6.751

> <Coulomb>
45.559

> <VdW>
0.667

> <VdW6>
-11.105

> <VdW12>
11.772

> <Bond>
0.347

> <Angle>
2.334

> <Pdih>
4.070

> <Idih>
0.000

> <Tether>
0.000

$$$$
VeraChem MOL file


 29 28  0  0  0  0  0  0  0  0999 V2000     
   19.9628   19.9666   20.1968 C   0  0  0  0  0  0  0  0  0  0  0  0
   20.6359   20.3764   19.4326 H   0  0  0  0  0  0  0  0  0  0  0  0
   19.0838   19.5547   19.6842 H   0  0  0  0  0  0  0  0  0  0  0  0
   19.6336   20.8012   20.8280 H   0  0  0  0  0  0  0  0  0  0  0  0
   20.6834   18.8786   21.0247 C   0  0  0  0  0  0  0  0  0  0  0  0
   21.5402   19.3221   21.5510 H   0  0  0  0  0  0  0  0  0  0  0  0
   21.0994   18.1284   20.3377 H   0  0  0  0  0  0  0  0  0  0  0  0
   19.7582   18.1642   22.0390 C   0  0  0  0  0  0  0  0  0  0  0  0
   18.9172   17.7010   21.5046 H   0  0  0  0  0  0  0  0  0  0  0  0
   20.3196   17.3417   22.5030 H   0  0  0  0  0  0  0  0  0  0  0  0
   19.2199   19.1004   23.1471 C   0  0  0  0  0  0  0  0  0  0  0  0
   18.5870   19.8792   22.7019 H   0  0  0  0  0  0  0  0  0  0  0  0
   20.0632   19.6136   23.6251 H   0  0  0  0  0  0  0  0  0  0  0  0
   18.3937   18.3233   24.2001 C   0  0  0  0  0  0  0  0  0  0  0  0
   17.5700   17.8065   23.6882 H   0  0  0  0  0  0  0  0  0  0  0  0
   18.9997   17.5304   24.6553 H   0  0  0  0  0  0  0  0  0  0  0  0
   17.7850   19.2273   25.3021 C   0  0  0  0  0  0  0  0  0  0  0  0
   17.1762   18.6028   25.9703 H   0  0  0  0  0  0  0  0  0  0  0  0
   17.0843   19.9309   24.8319 H   0  0  0  0  0  0  0  0  0  0  0  0
   18.7948   20.0360   26.1600 C   0  0  0  0  0  0  0  0  0  0  0  0
   19.3482   20.7545   25.5420 H   0  0  0  0  0  0  0  0  0  0  0  0
   18.2172   20.6422   26.8704 H   0  0  0  0  0  0  0  0  0  0  0  0
   19.7748   19.1683   26.9766 C   0  0  0  0  0  0  0  0  0  0  0  0
   19.2475   18.3029   27.3869 H   0  0  0  0  0  0  0  0  0  0  0  0
   20.1634   19.7565   27.8123 H   0  0  0  0  0  0  0  0  0  0  0  0
   20.9713   18.6733   26.1886 N   0  3  0  0  0  0  0  0  0  0  0  0
   20.6821   18.1351   25.3662 H   0  0  0  0  0  0  0  0  0  0  0  0
   21.5763   18.0685   26.7551 H   0  0  0  0  0  0  0  0  0  0  0  0
   21.5517   19.4500   25.8554 H   0  0  0  0  0  0  0  0  0  0  0  0
  1  2  1  0  0  0  0
  1  3  1  0  0  0  0
  1  4  1  0  0  0  0
  1  5  1  0  0  0  0
  5  6  1  0  0  0  0
  5  7  1  0  0  0  0
  5  8  1  0  0  0  0
  8  9  1  0  0  0  0
  8 10  1  0  0  0  0
  8 11  1  0  0  0  0
 11 12  1  0  0  0  0
 11 13  1  0  0  0  0
 11 14  1  0  0  0  0
 14 15  1  0  0  0  0
 14 16  1  0  0  0  0
 14 17  1  0  0  0  0
 17 18  1  0  0  0  0
 17 19  1  0  0  0  0
 17 20  1  0  0  0  0
 20 21  1  0  0  0  0
 20 22  1  0  0  0  0
 20 23  1  0  0  0  0
 23 24  1  0  0  0  0
 23 25  1  0  0  0  0
 23 26  1  0  0  0  0
 26 27  1  0  0  0  0
 26 28  1  0  0  0  0
 26 29  1  0  0  0  0
M  END
> <VM2 Rank>
409

> <Conf_Id>
1643

> <Probability>
0.00

> <Sum Probability>
99.98

> <Delta G>
5.017

> <G>
63.163

> <E>
25.087

> <-TS>
38.077

> <U+W>
0.942

> <U>
52.883

> <W>
-51.941

> <W(PB)>
-54.354

> <W(SA)>
2.413

> <Valence>
5.142

> <Coulomb>
47.176

> <VdW>
0.566

> <VdW6>
-10.484

> <VdW12>
11.050

> <Bond>
0.281

> <Angle>
1.693

> <Pdih>
3.167

> <Idih>
0.000

> <Tether>
0.000

$$$$
VeraChem MOL file


 29 28  0  0  0  0  0  0  0  0999 V2000     
   21.3887   19.6538   21.7210 C   0  0  0  0  0  0  0  0  0  0  0  0
   21.6572   18.8340   22.3977 H   0  0  0  0  0  0  0  0  0  0  0  0
   21.5439   19.3117   20.6896 H   0  0  0  0  0  0  0  0  0  0  0  0
   22.0887   20.4782   21.9088 H   0  0  0  0  0  0  0  0  0  0  0  0
   19.9317   20.1237   21.9365 C   0  0  0  0  0  0  0  0  0  0  0  0
   19.7589   21.0120   21.3130 H   0  0  0  0  0  0  0  0  0  0  0  0
   19.8019   20.4564   22.9722 H   0  0  0  0  0  0  0  0  0  0  0  0
   18.8758   19.0518   21.5603 C   0  0  0  0  0  0  0  0  0  0  0  0
   17.8770   19.5092   21.5530 H   0  0  0  0  0  0  0  0  0  0  0  0
   19.0636   18.7434   20.5226 H   0  0  0  0  0  0  0  0  0  0  0  0
   18.8547   17.7814   22.4550 C   0  0  0  0  0  0  0  0  0  0  0  0
   19.8612   17.5219   22.8025 H   0  0  0  0  0  0  0  0  0  0  0  0
   18.5476   16.9374   21.8221 H   0  0  0  0  0  0  0  0  0  0  0  0
   17.8614   17.8365   23.6474 C   0  0  0  0  0  0  0  0  0  0  0  0
   16.8467   17.9921   23.2558 H   0  0  0  0  0  0  0  0  0  0  0  0
   17.8437   16.8506   24.1320 H   0  0  0  0  0  0  0  0  0  0  0  0
   18.1467   18.9110   24.7256 C   0  0  0  0  0  0  0  0  0  0  0  0
   17.3531   18.8573   25.4837 H   0  0  0  0  0  0  0  0  0  0  0  0
   18.0688   19.9131   24.2860 H   0  0  0  0  0  0  0  0  0  0  0  0
   19.5141   18.7341   25.4267 C   0  0  0  0  0  0  0  0  0  0  0  0
   19.5739   17.7309   25.8690 H   0  0  0  0  0  0  0  0  0  0  0  0
   20.3291   18.8123   24.6971 H   0  0  0  0  0  0  0  0  0  0  0  0
   19.7206   19.7914   26.5250 C   0  0  0  0  0  0  0  0  0  0  0  0
   18.9268   19.7062   27.2721 H   0  0  0  0  0  0  0  0  0  0  0  0
   19.6746   20.7918   26.0861 H   0  0  0  0  0  0  0  0  0  0  0  0
   21.0503   19.6542   27.2376 N   0  3  0  0  0  0  0  0  0  0  0  0
   21.8413   19.7530   26.5927 H   0  0  0  0  0  0  0  0  0  0  0  0
   21.1454   18.7416   27.6954 H   0  0  0  0  0  0  0  0  0  0  0  0
   21.1671   20.3674   27.9659 H   0  0  0  0  0  0  0  0  0  0  0  0
  1  2  1  0  0  0  0
  1  3  1  0  0  0  0
  1  4  1  0  0  0  0
  1  5  1  0  0  0  0
  5  6  1  0  0  0  0
  5  7  1  0  0  0  0
  5  8  1  0  0  0  0
  8  9  1  0  0  0  0
  8 10  1  0  0  0  0
  8 11  1  0  0  0  0
 11 12  1  0  0  0  0
 11 13  1  0  0  0  0
 11 14  1  0  0  0  0
 14 15  1  0  0  0  0
 14 16  1  0  0  0  0
 14 17  1  0  0  0  0
 17 18  1  0  0  0  0
 17 19  1  0  0  0  0
 17 20  1  0  0  0  0
 20 21  1  0  0  0  0
 20 22  1  0  0  0  0
 20 23  1  0  0  0  0
 23 24  1  0  0  0  0
 23 25  1  0  0  0  0
 23 26  1  0  0  0  0
 26 27  1  0  0  0  0
 26 28  1  0  0  0  0
 26 29  1  0  0  0  0
M  END
> <VM2 Rank>
410

> <Conf_Id>
2153

> <Probability>
0.00

> <Sum Probability>
99.98

> <Delta G>
5.019

> <G>
63.165

> <E>
24.842

> <-TS>
38.324

> <U+W>
0.697

> <U>
53.285

> <W>
-52.588

> <W(PB)>
-54.953

> <W(SA)>
2.365

> <Valence>
6.888

> <Coulomb>
45.950

> <VdW>
0.447

> <VdW6>
-10.702

> <VdW12>
11.150

> <Bond>
0.336

> <Angle>
2.315

> <Pdih>
4.237

> <Idih>
0.000

> <Tether>
0.000

$$$$
VeraChem MOL file


 29 28  0  0  0  0  0  0  0  0999 V2000     
   21.0637   18.9184   20.7351 C   0  0  0  0  0  0  0  0  0  0  0  0
   21.4894   19.2479   21.6893 H   0  0  0  0  0  0  0  0  0  0  0  0
   21.3439   17.8675   20.5859 H   0  0  0  0  0  0  0  0  0  0  0  0
   21.5377   19.5057   19.9381 H   0  0  0  0  0  0  0  0  0  0  0  0
   19.5273   19.0900   20.6931 C   0  0  0  0  0  0  0  0  0  0  0  0
   19.1759   18.7541   19.7074 H   0  0  0  0  0  0  0  0  0  0  0  0
   19.2591   20.1534   20.7629 H   0  0  0  0  0  0  0  0  0  0  0  0
   18.7891   18.2746   21.7857 C   0  0  0  0  0  0  0  0  0  0  0  0
   17.8515   17.8967   21.3551 H   0  0  0  0  0  0  0  0  0  0  0  0
   19.3719   17.3823   22.0530 H   0  0  0  0  0  0  0  0  0  0  0  0
   18.4256   19.0746   23.0633 C   0  0  0  0  0  0  0  0  0  0  0  0
   17.8502   18.4095   23.7196 H   0  0  0  0  0  0  0  0  0  0  0  0
   17.7529   19.9013   22.7972 H   0  0  0  0  0  0  0  0  0  0  0  0
   19.6471   19.6334   23.8337 C   0  0  0  0  0  0  0  0  0  0  0  0
   20.3567   18.8225   24.0438 H   0  0  0  0  0  0  0  0  0  0  0  0
   20.1766   20.3498   23.1929 H   0  0  0  0  0  0  0  0  0  0  0  0
   19.2705   20.3675   25.1470 C   0  0  0  0  0  0  0  0  0  0  0  0
   18.6221   21.2215   24.9073 H   0  0  0  0  0  0  0  0  0  0  0  0
   20.1815   20.8002   25.5819 H   0  0  0  0  0  0  0  0  0  0  0  0
   18.5667   19.4886   26.2144 C   0  0  0  0  0  0  0  0  0  0  0  0
   18.4055   20.0850   27.1222 H   0  0  0  0  0  0  0  0  0  0  0  0
   17.5665   19.2069   25.8620 H   0  0  0  0  0  0  0  0  0  0  0  0
   19.3435   18.2092   26.5838 C   0  0  0  0  0  0  0  0  0  0  0  0
   19.4781   17.5897   25.6933 H   0  0  0  0  0  0  0  0  0  0  0  0
   18.7701   17.6336   27.3155 H   0  0  0  0  0  0  0  0  0  0  0  0
   20.7105   18.4818   27.1789 N   0  3  0  0  0  0  0  0  0  0  0  0
   21.3073   19.0015   26.5278 H   0  0  0  0  0  0  0  0  0  0  0  0
   21.2036   17.6139   27.4155 H   0  0  0  0  0  0  0  0  0  0  0  0
   20.6464   19.0353   28.0395 H   0  0  0  0  0  0  0  0  0  0  0  0
  1  2  1  0  0  0  0
  1  3  1  0  0  0  0
  1  4  1  0  0  0  0
  1  5  1  0  0  0  0
  5  6  1  0  0  0  0
  5  7  1  0  0  0  0
  5  8  1  0  0  0  0
  8  9  1  0  0  0  0
  8 10  1  0  0  0  0
  8 11  1  0  0  0  0
 11 12  1  0  0  0  0
 11 13  1  0  0  0  0
 11 14  1  0  0  0  0
 14 15  1  0  0  0  0
 14 16  1  0  0  0  0
 14 17  1  0  0  0  0
 17 18  1  0  0  0  0
 17 19  1  0  0  0  0
 17 20  1  0  0  0  0
 20 21  1  0  0  0  0
 20 22  1  0  0  0  0
 20 23  1  0  0  0  0
 23 24  1  0  0  0  0
 23 25  1  0  0  0  0
 23 26  1  0  0  0  0
 26 27  1  0  0  0  0
 26 28  1  0  0  0  0
 26 29  1  0  0  0  0
M  END
> <VM2 Rank>
411

> <Conf_Id>
277

> <Probability>
0.00

> <Sum Probability>
99.98

> <Delta G>
5.022

> <G>
63.168

> <E>
25.120

> <-TS>
38.049

> <U+W>
0.975

> <U>
53.225

> <W>
-52.250

> <W(PB)>
-54.667

> <W(SA)>
2.417

> <Valence>
6.562

> <Coulomb>
45.742

> <VdW>
0.921

> <VdW6>
-10.737

> <VdW12>
11.658

> <Bond>
0.330

> <Angle>
1.826

> <Pdih>
4.407

> <Idih>
0.000

> <Tether>
0.000

$$$$
VeraChem MOL file


 29 28  0  0  0  0  0  0  0  0999 V2000     
   20.8794   20.3079   21.9175 C   0  0  0  0  0  0  0  0  0  0  0  0
   20.9475   20.0103   22.9706 H   0  0  0  0  0  0  0  0  0  0  0  0
   21.7169   19.8472   21.3779 H   0  0  0  0  0  0  0  0  0  0  0  0
   21.0087   21.3968   21.8714 H   0  0  0  0  0  0  0  0  0  0  0  0
   19.5265   19.8962   21.2931 C   0  0  0  0  0  0  0  0  0  0  0  0
   19.4809   20.2896   20.2680 H   0  0  0  0  0  0  0  0  0  0  0  0
   18.6973   20.3741   21.8295 H   0  0  0  0  0  0  0  0  0  0  0  0
   19.3160   18.3635   21.2384 C   0  0  0  0  0  0  0  0  0  0  0  0
   18.3691   18.1552   20.7216 H   0  0  0  0  0  0  0  0  0  0  0  0
   20.1010   17.9272   20.6054 H   0  0  0  0  0  0  0  0  0  0  0  0
   19.3177   17.6227   22.6030 C   0  0  0  0  0  0  0  0  0  0  0  0
   20.2865   17.7397   23.1016 H   0  0  0  0  0  0  0  0  0  0  0  0
   19.2391   16.5490   22.3837 H   0  0  0  0  0  0  0  0  0  0  0  0
   18.1426   17.9924   23.5504 C   0  0  0  0  0  0  0  0  0  0  0  0
   17.2587   18.2473   22.9500 H   0  0  0  0  0  0  0  0  0  0  0  0
   17.8593   17.0972   24.1211 H   0  0  0  0  0  0  0  0  0  0  0  0
   18.4250   19.1348   24.5613 C   0  0  0  0  0  0  0  0  0  0  0  0
   17.4801   19.3921   25.0597 H   0  0  0  0  0  0  0  0  0  0  0  0
   18.7461   20.0435   24.0402 H   0  0  0  0  0  0  0  0  0  0  0  0
   19.4651   18.7607   25.6438 C   0  0  0  0  0  0  0  0  0  0  0  0
   19.1485   17.8443   26.1593 H   0  0  0  0  0  0  0  0  0  0  0  0
   20.4384   18.5518   25.1838 H   0  0  0  0  0  0  0  0  0  0  0  0
   19.6319   19.8930   26.6722 C   0  0  0  0  0  0  0  0  0  0  0  0
   18.6721   20.0965   27.1546 H   0  0  0  0  0  0  0  0  0  0  0  0
   19.9632   20.8039   26.1663 H   0  0  0  0  0  0  0  0  0  0  0  0
   20.6396   19.5668   27.7554 N   0  3  0  0  0  0  0  0  0  0  0  0
   21.5729   19.3914   27.3687 H   0  0  0  0  0  0  0  0  0  0  0  0
   20.3711   18.7324   28.2875 H   0  0  0  0  0  0  0  0  0  0  0  0
   20.7348   20.3338   28.4302 H   0  0  0  0  0  0  0  0  0  0  0  0
  1  2  1  0  0  0  0
  1  3  1  0  0  0  0
  1  4  1  0  0  0  0
  1  5  1  0  0  0  0
  5  6  1  0  0  0  0
  5  7  1  0  0  0  0
  5  8  1  0  0  0  0
  8  9  1  0  0  0  0
  8 10  1  0  0  0  0
  8 11  1  0  0  0  0
 11 12  1  0  0  0  0
 11 13  1  0  0  0  0
 11 14  1  0  0  0  0
 14 15  1  0  0  0  0
 14 16  1  0  0  0  0
 14 17  1  0  0  0  0
 17 18  1  0  0  0  0
 17 19  1  0  0  0  0
 17 20  1  0  0  0  0
 20 21  1  0  0  0  0
 20 22  1  0  0  0  0
 20 23  1  0  0  0  0
 23 24  1  0  0  0  0
 23 25  1  0  0  0  0
 23 26  1  0  0  0  0
 26 27  1  0  0  0  0
 26 28  1  0  0  0  0
 26 29  1  0  0  0  0
M  END
> <VM2 Rank>
412

> <Conf_Id>
2230

> <Probability>
0.00

> <Sum Probability>
99.98

> <Delta G>
5.052

> <G>
63.199

> <E>
24.959

> <-TS>
38.240

> <U+W>
0.815

> <U>
53.092

> <W>
-52.278

> <W(PB)>
-54.666

> <W(SA)>
2.388

> <Valence>
6.910

> <Coulomb>
45.632

> <VdW>
0.549

> <VdW6>
-10.516

> <VdW12>
11.065

> <Bond>
0.337

> <Angle>
2.297

> <Pdih>
4.276

> <Idih>
0.000

> <Tether>
0.000

$$$$
VeraChem MOL file


 29 28  0  0  0  0  0  0  0  0999 V2000     
   20.2587   19.6354   20.4152 C   0  0  0  0  0  0  0  0  0  0  0  0
   20.1259   18.8370   19.6737 H   0  0  0  0  0  0  0  0  0  0  0  0
   19.3217   20.2023   20.4821 H   0  0  0  0  0  0  0  0  0  0  0  0
   21.0321   20.3179   20.0398 H   0  0  0  0  0  0  0  0  0  0  0  0
   20.6677   19.0561   21.7880 C   0  0  0  0  0  0  0  0  0  0  0  0
   20.7768   19.8733   22.5123 H   0  0  0  0  0  0  0  0  0  0  0  0
   21.6624   18.5983   21.6964 H   0  0  0  0  0  0  0  0  0  0  0  0
   19.6794   17.9877   22.3220 C   0  0  0  0  0  0  0  0  0  0  0  0
   19.6517   17.1510   21.6106 H   0  0  0  0  0  0  0  0  0  0  0  0
   20.0682   17.5605   23.2545 H   0  0  0  0  0  0  0  0  0  0  0  0
   18.2284   18.4864   22.5476 C   0  0  0  0  0  0  0  0  0  0  0  0
   17.6208   17.6451   22.9079 H   0  0  0  0  0  0  0  0  0  0  0  0
   17.7930   18.7623   21.5781 H   0  0  0  0  0  0  0  0  0  0  0  0
   18.0580   19.6813   23.5242 C   0  0  0  0  0  0  0  0  0  0  0  0
   18.6120   20.5594   23.1675 H   0  0  0  0  0  0  0  0  0  0  0  0
   16.9998   19.9752   23.4901 H   0  0  0  0  0  0  0  0  0  0  0  0
   18.4112   19.3736   25.0034 C   0  0  0  0  0  0  0  0  0  0  0  0
   18.1787   18.3248   25.2305 H   0  0  0  0  0  0  0  0  0  0  0  0
   17.7523   19.9762   25.6439 H   0  0  0  0  0  0  0  0  0  0  0  0
   19.8766   19.7046   25.3834 C   0  0  0  0  0  0  0  0  0  0  0  0
   20.5794   19.0850   24.8168 H   0  0  0  0  0  0  0  0  0  0  0  0
   20.0936   20.7473   25.1165 H   0  0  0  0  0  0  0  0  0  0  0  0
   20.1503   19.5231   26.8885 C   0  0  0  0  0  0  0  0  0  0  0  0
   19.4557   20.1391   27.4661 H   0  0  0  0  0  0  0  0  0  0  0  0
   21.1680   19.8522   27.1151 H   0  0  0  0  0  0  0  0  0  0  0  0
   20.0138   18.0897   27.3628 N   0  3  0  0  0  0  0  0  0  0  0  0
   20.2101   18.0005   28.3658 H   0  0  0  0  0  0  0  0  0  0  0  0
   20.6615   17.4637   26.8733 H   0  0  0  0  0  0  0  0  0  0  0  0
   19.0673   17.7285   27.2084 H   0  0  0  0  0  0  0  0  0  0  0  0
  1  2  1  0  0  0  0
  1  3  1  0  0  0  0
  1  4  1  0  0  0  0
  1  5  1  0  0  0  0
  5  6  1  0  0  0  0
  5  7  1  0  0  0  0
  5  8  1  0  0  0  0
  8  9  1  0  0  0  0
  8 10  1  0  0  0  0
  8 11  1  0  0  0  0
 11 12  1  0  0  0  0
 11 13  1  0  0  0  0
 11 14  1  0  0  0  0
 14 15  1  0  0  0  0
 14 16  1  0  0  0  0
 14 17  1  0  0  0  0
 17 18  1  0  0  0  0
 17 19  1  0  0  0  0
 17 20  1  0  0  0  0
 20 21  1  0  0  0  0
 20 22  1  0  0  0  0
 20 23  1  0  0  0  0
 23 24  1  0  0  0  0
 23 25  1  0  0  0  0
 23 26  1  0  0  0  0
 26 27  1  0  0  0  0
 26 28  1  0  0  0  0
 26 29  1  0  0  0  0
M  END
> <VM2 Rank>
413

> <Conf_Id>
1961

> <Probability>
0.00

> <Sum Probability>
99.98

> <Delta G>
5.097

> <G>
63.244

> <E>
24.900

> <-TS>
38.344

> <U+W>
0.755

> <U>
53.357

> <W>
-52.602

> <W(PB)>
-54.996

> <W(SA)>
2.394

> <Valence>
6.734

> <Coulomb>
46.026

> <VdW>
0.597

> <VdW6>
-11.150

> <VdW12>
11.747

> <Bond>
0.344

> <Angle>
2.228

> <Pdih>
4.162

> <Idih>
0.000

> <Tether>
0.000

$$$$
VeraChem MOL file


 29 28  0  0  0  0  0  0  0  0999 V2000     
   19.8053   17.2904   21.8498 C   0  0  0  0  0  0  0  0  0  0  0  0
   20.0311   17.4359   22.9128 H   0  0  0  0  0  0  0  0  0  0  0  0
   19.2184   16.3674   21.7587 H   0  0  0  0  0  0  0  0  0  0  0  0
   20.7531   17.1396   21.3171 H   0  0  0  0  0  0  0  0  0  0  0  0
   19.0254   18.4884   21.2615 C   0  0  0  0  0  0  0  0  0  0  0  0
   18.0732   18.6209   21.7902 H   0  0  0  0  0  0  0  0  0  0  0  0
   18.7560   18.2534   20.2224 H   0  0  0  0  0  0  0  0  0  0  0  0
   19.8311   19.8103   21.2707 C   0  0  0  0  0  0  0  0  0  0  0  0
   20.7240   19.6775   20.6445 H   0  0  0  0  0  0  0  0  0  0  0  0
   19.2359   20.5901   20.7760 H   0  0  0  0  0  0  0  0  0  0  0  0
   20.2809   20.3286   22.6635 C   0  0  0  0  0  0  0  0  0  0  0  0
   20.9012   21.2183   22.4882 H   0  0  0  0  0  0  0  0  0  0  0  0
   20.9510   19.6063   23.1433 H   0  0  0  0  0  0  0  0  0  0  0  0
   19.1231   20.7469   23.6120 C   0  0  0  0  0  0  0  0  0  0  0  0
   19.4608   21.5964   24.2216 H   0  0  0  0  0  0  0  0  0  0  0  0
   18.2854   21.1315   23.0144 H   0  0  0  0  0  0  0  0  0  0  0  0
   18.6063   19.6438   24.5726 C   0  0  0  0  0  0  0  0  0  0  0  0
   18.2887   18.7582   24.0115 H   0  0  0  0  0  0  0  0  0  0  0  0
   17.7043   20.0216   25.0737 H   0  0  0  0  0  0  0  0  0  0  0  0
   19.6336   19.2337   25.6543 C   0  0  0  0  0  0  0  0  0  0  0  0
   20.5264   18.7988   25.1892 H   0  0  0  0  0  0  0  0  0  0  0  0
   19.9599   20.1229   26.2099 H   0  0  0  0  0  0  0  0  0  0  0  0
   19.0332   18.2113   26.6349 C   0  0  0  0  0  0  0  0  0  0  0  0
   18.7216   17.3167   26.0889 H   0  0  0  0  0  0  0  0  0  0  0  0
   18.1540   18.6410   27.1224 H   0  0  0  0  0  0  0  0  0  0  0  0
   20.0051   17.7845   27.7158 N   0  3  0  0  0  0  0  0  0  0  0  0
   20.8447   17.3459   27.3232 H   0  0  0  0  0  0  0  0  0  0  0  0
   19.5849   17.1041   28.3585 H   0  0  0  0  0  0  0  0  0  0  0  0
   20.3168   18.5791   28.2840 H   0  0  0  0  0  0  0  0  0  0  0  0
  1  2  1  0  0  0  0
  1  3  1  0  0  0  0
  1  4  1  0  0  0  0
  1  5  1  0  0  0  0
  5  6  1  0  0  0  0
  5  7  1  0  0  0  0
  5  8  1  0  0  0  0
  8  9  1  0  0  0  0
  8 10  1  0  0  0  0
  8 11  1  0  0  0  0
 11 12  1  0  0  0  0
 11 13  1  0  0  0  0
 11 14  1  0  0  0  0
 14 15  1  0  0  0  0
 14 16  1  0  0  0  0
 14 17  1  0  0  0  0
 17 18  1  0  0  0  0
 17 19  1  0  0  0  0
 17 20  1  0  0  0  0
 20 21  1  0  0  0  0
 20 22  1  0  0  0  0
 20 23  1  0  0  0  0
 23 24  1  0  0  0  0
 23 25  1  0  0  0  0
 23 26  1  0  0  0  0
 26 27  1  0  0  0  0
 26 28  1  0  0  0  0
 26 29  1  0  0  0  0
M  END
> <VM2 Rank>
414

> <Conf_Id>
261

> <Probability>
0.00

> <Sum Probability>
99.99

> <Delta G>
5.103

> <G>
63.249

> <E>
25.010

> <-TS>
38.239

> <U+W>
0.865

> <U>
53.092

> <W>
-52.227

> <W(PB)>
-54.663

> <W(SA)>
2.436

> <Valence>
6.910

> <Coulomb>
45.632

> <VdW>
0.549

> <VdW6>
-10.516

> <VdW12>
11.065

> <Bond>
0.337

> <Angle>
2.297

> <Pdih>
4.277

> <Idih>
0.000

> <Tether>
0.000

$$$$
VeraChem MOL file


 29 28  0  0  0  0  0  0  0  0999 V2000     
   21.5869   19.1757   21.2783 C   0  0  0  0  0  0  0  0  0  0  0  0
   21.5652   18.3602   20.5436 H   0  0  0  0  0  0  0  0  0  0  0  0
   22.0874   20.0348   20.8131 H   0  0  0  0  0  0  0  0  0  0  0  0
   22.1970   18.8516   22.1314 H   0  0  0  0  0  0  0  0  0  0  0  0
   20.1605   19.5549   21.7293 C   0  0  0  0  0  0  0  0  0  0  0  0
   19.5849   19.9045   20.8609 H   0  0  0  0  0  0  0  0  0  0  0  0
   20.2240   20.3984   22.4280 H   0  0  0  0  0  0  0  0  0  0  0  0
   19.4358   18.3568   22.3877 C   0  0  0  0  0  0  0  0  0  0  0  0
   19.4415   17.5155   21.6810 H   0  0  0  0  0  0  0  0  0  0  0  0
   20.0051   18.0159   23.2583 H   0  0  0  0  0  0  0  0  0  0  0  0
   17.9610   18.6509   22.7714 C   0  0  0  0  0  0  0  0  0  0  0  0
   17.4684   17.7150   23.0686 H   0  0  0  0  0  0  0  0  0  0  0  0
   17.4374   18.9808   21.8635 H   0  0  0  0  0  0  0  0  0  0  0  0
   17.7417   19.7195   23.8783 C   0  0  0  0  0  0  0  0  0  0  0  0
   18.4678   20.5361   23.7940 H   0  0  0  0  0  0  0  0  0  0  0  0
   16.7661   20.1894   23.6920 H   0  0  0  0  0  0  0  0  0  0  0  0
   17.7064   19.1704   25.3306 C   0  0  0  0  0  0  0  0  0  0  0  0
   16.8970   18.4324   25.4167 H   0  0  0  0  0  0  0  0  0  0  0  0
   17.4311   19.9941   26.0037 H   0  0  0  0  0  0  0  0  0  0  0  0
   19.0194   18.5358   25.8471 C   0  0  0  0  0  0  0  0  0  0  0  0
   18.8814   18.2472   26.8975 H   0  0  0  0  0  0  0  0  0  0  0  0
   19.2241   17.6059   25.3033 H   0  0  0  0  0  0  0  0  0  0  0  0
   20.2235   19.4908   25.7449 C   0  0  0  0  0  0  0  0  0  0  0  0
   20.0215   20.3999   26.3176 H   0  0  0  0  0  0  0  0  0  0  0  0
   20.3850   19.7705   24.7008 H   0  0  0  0  0  0  0  0  0  0  0  0
   21.5089   18.8832   26.2675 N   0  3  0  0  0  0  0  0  0  0  0  0
   21.4326   18.6241   27.2566 H   0  0  0  0  0  0  0  0  0  0  0  0
   22.2972   19.5351   26.1896 H   0  0  0  0  0  0  0  0  0  0  0  0
   21.7684   18.0358   25.7523 H   0  0  0  0  0  0  0  0  0  0  0  0
  1  2  1  0  0  0  0
  1  3  1  0  0  0  0
  1  4  1  0  0  0  0
  1  5  1  0  0  0  0
  5  6  1  0  0  0  0
  5  7  1  0  0  0  0
  5  8  1  0  0  0  0
  8  9  1  0  0  0  0
  8 10  1  0  0  0  0
  8 11  1  0  0  0  0
 11 12  1  0  0  0  0
 11 13  1  0  0  0  0
 11 14  1  0  0  0  0
 14 15  1  0  0  0  0
 14 16  1  0  0  0  0
 14 17  1  0  0  0  0
 17 18  1  0  0  0  0
 17 19  1  0  0  0  0
 17 20  1  0  0  0  0
 20 21  1  0  0  0  0
 20 22  1  0  0  0  0
 20 23  1  0  0  0  0
 23 24  1  0  0  0  0
 23 25  1  0  0  0  0
 23 26  1  0  0  0  0
 26 27  1  0  0  0  0
 26 28  1  0  0  0  0
 26 29  1  0  0  0  0
M  END
> <VM2 Rank>
415

> <Conf_Id>
621

> <Probability>
0.00

> <Sum Probability>
99.99

> <Delta G>
5.138

> <G>
63.284

> <E>
25.046

> <-TS>
38.238

> <U+W>
0.902

> <U>
53.767

> <W>
-52.865

> <W(PB)>
-55.256

> <W(SA)>
2.391

> <Valence>
6.611

> <Coulomb>
46.905

> <VdW>
0.251

> <VdW6>
-11.031

> <VdW12>
11.282

> <Bond>
0.334

> <Angle>
2.337

> <Pdih>
3.940

> <Idih>
0.000

> <Tether>
0.000

$$$$
VeraChem MOL file


 29 28  0  0  0  0  0  0  0  0999 V2000     
   19.4280   19.9160   20.2594 C   0  0  0  0  0  0  0  0  0  0  0  0
   19.3522   20.7925   19.6028 H   0  0  0  0  0  0  0  0  0  0  0  0
   20.1140   19.2010   19.7870 H   0  0  0  0  0  0  0  0  0  0  0  0
   18.4333   19.4564   20.3112 H   0  0  0  0  0  0  0  0  0  0  0  0
   19.9356   20.3314   21.6588 C   0  0  0  0  0  0  0  0  0  0  0  0
   19.2161   21.0197   22.1236 H   0  0  0  0  0  0  0  0  0  0  0  0
   20.8705   20.8970   21.5419 H   0  0  0  0  0  0  0  0  0  0  0  0
   20.1964   19.1321   22.6014 C   0  0  0  0  0  0  0  0  0  0  0  0
   20.9289   18.4551   22.1408 H   0  0  0  0  0  0  0  0  0  0  0  0
   20.6650   19.5152   23.5154 H   0  0  0  0  0  0  0  0  0  0  0  0
   18.9128   18.3419   22.9613 C   0  0  0  0  0  0  0  0  0  0  0  0
   18.4882   17.9120   22.0450 H   0  0  0  0  0  0  0  0  0  0  0  0
   18.1444   19.0186   23.3548 H   0  0  0  0  0  0  0  0  0  0  0  0
   19.1583   17.1807   23.9573 C   0  0  0  0  0  0  0  0  0  0  0  0
   18.2172   16.6287   24.0871 H   0  0  0  0  0  0  0  0  0  0  0  0
   19.8585   16.4680   23.5002 H   0  0  0  0  0  0  0  0  0  0  0  0
   19.6990   17.5753   25.3587 C   0  0  0  0  0  0  0  0  0  0  0  0
   20.7050   18.0051   25.2784 H   0  0  0  0  0  0  0  0  0  0  0  0
   19.8297   16.6452   25.9287 H   0  0  0  0  0  0  0  0  0  0  0  0
   18.7644   18.5042   26.1791 C   0  0  0  0  0  0  0  0  0  0  0  0
   17.7176   18.2287   25.9949 H   0  0  0  0  0  0  0  0  0  0  0  0
   18.9366   18.3300   27.2495 H   0  0  0  0  0  0  0  0  0  0  0  0
   18.9538   20.0098   25.9006 C   0  0  0  0  0  0  0  0  0  0  0  0
   18.1787   20.5736   26.4266 H   0  0  0  0  0  0  0  0  0  0  0  0
   18.8550   20.2134   24.8328 H   0  0  0  0  0  0  0  0  0  0  0  0
   20.2957   20.5467   26.3584 N   0  3  0  0  0  0  0  0  0  0  0  0
   21.0744   20.0731   25.8910 H   0  0  0  0  0  0  0  0  0  0  0  0
   20.4285   20.4228   27.3676 H   0  0  0  0  0  0  0  0  0  0  0  0
   20.3904   21.5497   26.1653 H   0  0  0  0  0  0  0  0  0  0  0  0
  1  2  1  0  0  0  0
  1  3  1  0  0  0  0
  1  4  1  0  0  0  0
  1  5  1  0  0  0  0
  5  6  1  0  0  0  0
  5  7  1  0  0  0  0
  5  8  1  0  0  0  0
  8  9  1  0  0  0  0
  8 10  1  0  0  0  0
  8 11  1  0  0  0  0
 11 12  1  0  0  0  0
 11 13  1  0  0  0  0
 11 14  1  0  0  0  0
 14 15  1  0  0  0  0
 14 16  1  0  0  0  0
 14 17  1  0  0  0  0
 17 18  1  0  0  0  0
 17 19  1  0  0  0  0
 17 20  1  0  0  0  0
 20 21  1  0  0  0  0
 20 22  1  0  0  0  0
 20 23  1  0  0  0  0
 23 24  1  0  0  0  0
 23 25  1  0  0  0  0
 23 26  1  0  0  0  0
 26 27  1  0  0  0  0
 26 28  1  0  0  0  0
 26 29  1  0  0  0  0
M  END
> <VM2 Rank>
416

> <Conf_Id>
681

> <Probability>
0.00

> <Sum Probability>
99.99

> <Delta G>
5.188

> <G>
63.334

> <E>
24.929

> <-TS>
38.405

> <U+W>
0.785

> <U>
53.794

> <W>
-53.009

> <W(PB)>
-55.393

> <W(SA)>
2.385

> <Valence>
6.295

> <Coulomb>
47.099

> <VdW>
0.400

> <VdW6>
-11.434

> <VdW12>
11.834

> <Bond>
0.333

> <Angle>
2.105

> <Pdih>
3.857

> <Idih>
0.000

> <Tether>
0.000

$$$$
VeraChem MOL file


 29 28  0  0  0  0  0  0  0  0999 V2000     
   21.3908   19.3991   21.6127 C   0  0  0  0  0  0  0  0  0  0  0  0
   21.9268   18.9517   22.4596 H   0  0  0  0  0  0  0  0  0  0  0  0
   22.0857   19.4477   20.7644 H   0  0  0  0  0  0  0  0  0  0  0  0
   21.1239   20.4292   21.8790 H   0  0  0  0  0  0  0  0  0  0  0  0
   20.1431   18.5658   21.2414 C   0  0  0  0  0  0  0  0  0  0  0  0
   20.4711   17.5833   20.8742 H   0  0  0  0  0  0  0  0  0  0  0  0
   19.6116   19.0444   20.4071 H   0  0  0  0  0  0  0  0  0  0  0  0
   19.1743   18.3539   22.4288 C   0  0  0  0  0  0  0  0  0  0  0  0
   18.3940   17.6434   22.1232 H   0  0  0  0  0  0  0  0  0  0  0  0
   19.7187   17.8769   23.2522 H   0  0  0  0  0  0  0  0  0  0  0  0
   18.4992   19.6627   22.9107 C   0  0  0  0  0  0  0  0  0  0  0  0
   17.9850   20.1272   22.0582 H   0  0  0  0  0  0  0  0  0  0  0  0
   19.2483   20.3928   23.2374 H   0  0  0  0  0  0  0  0  0  0  0  0
   17.4637   19.4410   24.0411 C   0  0  0  0  0  0  0  0  0  0  0  0
   16.9818   20.4021   24.2675 H   0  0  0  0  0  0  0  0  0  0  0  0
   16.6635   18.7903   23.6626 H   0  0  0  0  0  0  0  0  0  0  0  0
   18.0116   18.8347   25.3618 C   0  0  0  0  0  0  0  0  0  0  0  0
   18.3877   17.8181   25.1931 H   0  0  0  0  0  0  0  0  0  0  0  0
   17.1573   18.7157   26.0425 H   0  0  0  0  0  0  0  0  0  0  0  0
   19.0744   19.7045   26.0855 C   0  0  0  0  0  0  0  0  0  0  0  0
   18.8179   20.7664   25.9748 H   0  0  0  0  0  0  0  0  0  0  0  0
   19.0328   19.4967   27.1630 H   0  0  0  0  0  0  0  0  0  0  0  0
   20.5236   19.4762   25.6079 C   0  0  0  0  0  0  0  0  0  0  0  0
   21.1793   20.2105   26.0835 H   0  0  0  0  0  0  0  0  0  0  0  0
   20.5928   19.6107   24.5269 H   0  0  0  0  0  0  0  0  0  0  0  0
   21.0633   18.1001   25.9450 N   0  3  0  0  0  0  0  0  0  0  0  0
   21.0629   17.9313   26.9563 H   0  0  0  0  0  0  0  0  0  0  0  0
   22.0296   17.9803   25.6223 H   0  0  0  0  0  0  0  0  0  0  0  0
   20.5050   17.3569   25.5146 H   0  0  0  0  0  0  0  0  0  0  0  0
  1  2  1  0  0  0  0
  1  3  1  0  0  0  0
  1  4  1  0  0  0  0
  1  5  1  0  0  0  0
  5  6  1  0  0  0  0
  5  7  1  0  0  0  0
  5  8  1  0  0  0  0
  8  9  1  0  0  0  0
  8 10  1  0  0  0  0
  8 11  1  0  0  0  0
 11 12  1  0  0  0  0
 11 13  1  0  0  0  0
 11 14  1  0  0  0  0
 14 15  1  0  0  0  0
 14 16  1  0  0  0  0
 14 17  1  0  0  0  0
 17 18  1  0  0  0  0
 17 19  1  0  0  0  0
 17 20  1  0  0  0  0
 20 21  1  0  0  0  0
 20 22  1  0  0  0  0
 20 23  1  0  0  0  0
 23 24  1  0  0  0  0
 23 25  1  0  0  0  0
 23 26  1  0  0  0  0
 26 27  1  0  0  0  0
 26 28  1  0  0  0  0
 26 29  1  0  0  0  0
M  END
> <VM2 Rank>
417

> <Conf_Id>
958

> <Probability>
0.00

> <Sum Probability>
99.99

> <Delta G>
5.210

> <G>
63.356

> <E>
24.823

> <-TS>
38.533

> <U+W>
0.678

> <U>
53.662

> <W>
-52.983

> <W(PB)>
-55.322

> <W(SA)>
2.338

> <Valence>
6.196

> <Coulomb>
47.384

> <VdW>
0.081

> <VdW6>
-11.956

> <VdW12>
12.037

> <Bond>
0.329

> <Angle>
2.009

> <Pdih>
3.857

> <Idih>
0.000

> <Tether>
0.000

$$$$
VeraChem MOL file


 29 28  0  0  0  0  0  0  0  0999 V2000     
   20.3232   18.4811   19.7327 C   0  0  0  0  0  0  0  0  0  0  0  0
   20.9471   17.6116   19.9777 H   0  0  0  0  0  0  0  0  0  0  0  0
   19.6836   18.2085   18.8832 H   0  0  0  0  0  0  0  0  0  0  0  0
   20.9840   19.2958   19.4090 H   0  0  0  0  0  0  0  0  0  0  0  0
   19.4675   18.9081   20.9440 C   0  0  0  0  0  0  0  0  0  0  0  0
   18.7930   18.0838   21.2108 H   0  0  0  0  0  0  0  0  0  0  0  0
   18.8340   19.7600   20.6601 H   0  0  0  0  0  0  0  0  0  0  0  0
   20.3482   19.2929   22.1562 C   0  0  0  0  0  0  0  0  0  0  0  0
   20.9405   18.4238   22.4733 H   0  0  0  0  0  0  0  0  0  0  0  0
   21.0703   20.0591   21.8415 H   0  0  0  0  0  0  0  0  0  0  0  0
   19.5440   19.8439   23.3593 C   0  0  0  0  0  0  0  0  0  0  0  0
   18.9606   20.7186   23.0406 H   0  0  0  0  0  0  0  0  0  0  0  0
   20.2591   20.2109   24.1055 H   0  0  0  0  0  0  0  0  0  0  0  0
   18.5990   18.7973   24.0031 C   0  0  0  0  0  0  0  0  0  0  0  0
   17.8478   18.4897   23.2642 H   0  0  0  0  0  0  0  0  0  0  0  0
   19.1525   17.8853   24.2578 H   0  0  0  0  0  0  0  0  0  0  0  0
   17.8416   19.3264   25.2479 C   0  0  0  0  0  0  0  0  0  0  0  0
   17.1529   18.5437   25.5949 H   0  0  0  0  0  0  0  0  0  0  0  0
   17.2051   20.1678   24.9410 H   0  0  0  0  0  0  0  0  0  0  0  0
   18.7176   19.7811   26.4463 C   0  0  0  0  0  0  0  0  0  0  0  0
   19.3308   20.6505   26.1776 H   0  0  0  0  0  0  0  0  0  0  0  0
   18.0420   20.1317   27.2377 H   0  0  0  0  0  0  0  0  0  0  0  0
   19.6026   18.6694   27.0469 C   0  0  0  0  0  0  0  0  0  0  0  0
   19.0456   17.7291   27.0752 H   0  0  0  0  0  0  0  0  0  0  0  0
   19.8686   18.9377   28.0729 H   0  0  0  0  0  0  0  0  0  0  0  0
   20.9003   18.4378   26.2985 N   0  3  0  0  0  0  0  0  0  0  0  0
   20.7296   18.2117   25.3139 H   0  0  0  0  0  0  0  0  0  0  0  0
   21.4404   17.6649   26.7031 H   0  0  0  0  0  0  0  0  0  0  0  0
   21.5021   19.2676   26.3202 H   0  0  0  0  0  0  0  0  0  0  0  0
  1  2  1  0  0  0  0
  1  3  1  0  0  0  0
  1  4  1  0  0  0  0
  1  5  1  0  0  0  0
  5  6  1  0  0  0  0
  5  7  1  0  0  0  0
  5  8  1  0  0  0  0
  8  9  1  0  0  0  0
  8 10  1  0  0  0  0
  8 11  1  0  0  0  0
 11 12  1  0  0  0  0
 11 13  1  0  0  0  0
 11 14  1  0  0  0  0
 14 15  1  0  0  0  0
 14 16  1  0  0  0  0
 14 17  1  0  0  0  0
 17 18  1  0  0  0  0
 17 19  1  0  0  0  0
 17 20  1  0  0  0  0
 20 21  1  0  0  0  0
 20 22  1  0  0  0  0
 20 23  1  0  0  0  0
 23 24  1  0  0  0  0
 23 25  1  0  0  0  0
 23 26  1  0  0  0  0
 26 27  1  0  0  0  0
 26 28  1  0  0  0  0
 26 29  1  0  0  0  0
M  END
> <VM2 Rank>
418

> <Conf_Id>
969

> <Probability>
0.00

> <Sum Probability>
99.99

> <Delta G>
5.226

> <G>
63.372

> <E>
25.310

> <-TS>
38.062

> <U+W>
1.165

> <U>
53.030

> <W>
-51.865

> <W(PB)>
-54.282

> <W(SA)>
2.417

> <Valence>
5.259

> <Coulomb>
47.142

> <VdW>
0.629

> <VdW6>
-10.479

> <VdW12>
11.108

> <Bond>
0.295

> <Angle>
1.787

> <Pdih>
3.177

> <Idih>
0.000

> <Tether>
0.000

$$$$
VeraChem MOL file


 29 28  0  0  0  0  0  0  0  0999 V2000     
   20.2469   20.6957   21.7533 C   0  0  0  0  0  0  0  0  0  0  0  0
   20.5959   20.4581   22.7653 H   0  0  0  0  0  0  0  0  0  0  0  0
   21.0850   20.5478   21.0600 H   0  0  0  0  0  0  0  0  0  0  0  0
   19.9805   21.7604   21.7357 H   0  0  0  0  0  0  0  0  0  0  0  0
   19.0343   19.8272   21.3475 C   0  0  0  0  0  0  0  0  0  0  0  0
   18.6787   20.1620   20.3631 H   0  0  0  0  0  0  0  0  0  0  0  0
   18.1970   19.9949   22.0364 H   0  0  0  0  0  0  0  0  0  0  0  0
   19.3621   18.3166   21.2612 C   0  0  0  0  0  0  0  0  0  0  0  0
   18.4728   17.7822   20.8998 H   0  0  0  0  0  0  0  0  0  0  0  0
   20.1295   18.1710   20.4885 H   0  0  0  0  0  0  0  0  0  0  0  0
   19.8529   17.6469   22.5733 C   0  0  0  0  0  0  0  0  0  0  0  0
   20.7899   18.1048   22.9095 H   0  0  0  0  0  0  0  0  0  0  0  0
   20.1168   16.6100   22.3237 H   0  0  0  0  0  0  0  0  0  0  0  0
   18.8011   17.5985   23.7163 C   0  0  0  0  0  0  0  0  0  0  0  0
   17.7958   17.5211   23.2803 H   0  0  0  0  0  0  0  0  0  0  0  0
   18.9447   16.6693   24.2849 H   0  0  0  0  0  0  0  0  0  0  0  0
   18.8375   18.7832   24.7173 C   0  0  0  0  0  0  0  0  0  0  0  0
   17.9476   18.7106   25.3561 H   0  0  0  0  0  0  0  0  0  0  0  0
   18.7519   19.7391   24.1891 H   0  0  0  0  0  0  0  0  0  0  0  0
   20.1015   18.7952   25.6140 C   0  0  0  0  0  0  0  0  0  0  0  0
   20.1811   17.8482   26.1641 H   0  0  0  0  0  0  0  0  0  0  0  0
   21.0025   18.8729   24.9943 H   0  0  0  0  0  0  0  0  0  0  0  0
   20.1091   19.9699   26.6110 C   0  0  0  0  0  0  0  0  0  0  0  0
   20.0139   20.9141   26.0681 H   0  0  0  0  0  0  0  0  0  0  0  0
   21.0601   19.9809   27.1505 H   0  0  0  0  0  0  0  0  0  0  0  0
   18.9986   19.9048   27.6411 N   0  3  0  0  0  0  0  0  0  0  0  0
   18.0727   19.9277   27.2026 H   0  0  0  0  0  0  0  0  0  0  0  0
   19.0406   20.6928   28.2966 H   0  0  0  0  0  0  0  0  0  0  0  0
   19.0484   19.0467   28.2000 H   0  0  0  0  0  0  0  0  0  0  0  0
  1  2  1  0  0  0  0
  1  3  1  0  0  0  0
  1  4  1  0  0  0  0
  1  5  1  0  0  0  0
  5  6  1  0  0  0  0
  5  7  1  0  0  0  0
  5  8  1  0  0  0  0
  8  9  1  0  0  0  0
  8 10  1  0  0  0  0
  8 11  1  0  0  0  0
 11 12  1  0  0  0  0
 11 13  1  0  0  0  0
 11 14  1  0  0  0  0
 14 15  1  0  0  0  0
 14 16  1  0  0  0  0
 14 17  1  0  0  0  0
 17 18  1  0  0  0  0
 17 19  1  0  0  0  0
 17 20  1  0  0  0  0
 20 21  1  0  0  0  0
 20 22  1  0  0  0  0
 20 23  1  0  0  0  0
 23 24  1  0  0  0  0
 23 25  1  0  0  0  0
 23 26  1  0  0  0  0
 26 27  1  0  0  0  0
 26 28  1  0  0  0  0
 26 29  1  0  0  0  0
M  END
> <VM2 Rank>
419

> <Conf_Id>
854

> <Probability>
0.00

> <Sum Probability>
99.99

> <Delta G>
5.271

> <G>
63.418

> <E>
25.138

> <-TS>
38.280

> <U+W>
0.993

> <U>
53.387

> <W>
-52.393

> <W(PB)>
-54.766

> <W(SA)>
2.373

> <Valence>
7.038

> <Coulomb>
45.647

> <VdW>
0.702

> <VdW6>
-10.995

> <VdW12>
11.696

> <Bond>
0.363

> <Angle>
2.317

> <Pdih>
4.358

> <Idih>
0.000

> <Tether>
0.000

$$$$
VeraChem MOL file


 29 28  0  0  0  0  0  0  0  0999 V2000     
   20.5591   19.1428   19.7478 C   0  0  0  0  0  0  0  0  0  0  0  0
   21.5885   19.4118   20.0184 H   0  0  0  0  0  0  0  0  0  0  0  0
   20.5608   18.1076   19.3825 H   0  0  0  0  0  0  0  0  0  0  0  0
   20.2478   19.7919   18.9190 H   0  0  0  0  0  0  0  0  0  0  0  0
   19.6089   19.3048   20.9532 C   0  0  0  0  0  0  0  0  0  0  0  0
   18.5837   19.0570   20.6445 H   0  0  0  0  0  0  0  0  0  0  0  0
   19.6033   20.3584   21.2621 H   0  0  0  0  0  0  0  0  0  0  0  0
   20.0310   18.4022   22.1364 C   0  0  0  0  0  0  0  0  0  0  0  0
   20.1111   17.3654   21.7813 H   0  0  0  0  0  0  0  0  0  0  0  0
   21.0346   18.6881   22.4796 H   0  0  0  0  0  0  0  0  0  0  0  0
   19.0425   18.4357   23.3279 C   0  0  0  0  0  0  0  0  0  0  0  0
   19.3544   17.6704   24.0488 H   0  0  0  0  0  0  0  0  0  0  0  0
   18.0423   18.1395   22.9828 H   0  0  0  0  0  0  0  0  0  0  0  0
   18.9616   19.8175   24.0259 C   0  0  0  0  0  0  0  0  0  0  0  0
   19.9631   20.1643   24.3084 H   0  0  0  0  0  0  0  0  0  0  0  0
   18.5837   20.5593   23.3104 H   0  0  0  0  0  0  0  0  0  0  0  0
   18.0230   19.8366   25.2594 C   0  0  0  0  0  0  0  0  0  0  0  0
   17.0025   19.5990   24.9287 H   0  0  0  0  0  0  0  0  0  0  0  0
   17.9784   20.8639   25.6468 H   0  0  0  0  0  0  0  0  0  0  0  0
   18.3985   18.8840   26.4264 C   0  0  0  0  0  0  0  0  0  0  0  0
   17.6424   19.0079   27.2130 H   0  0  0  0  0  0  0  0  0  0  0  0
   18.3287   17.8341   26.1150 H   0  0  0  0  0  0  0  0  0  0  0  0
   19.7784   19.1625   27.0576 C   0  0  0  0  0  0  0  0  0  0  0  0
   19.8010   18.7462   28.0683 H   0  0  0  0  0  0  0  0  0  0  0  0
   19.9399   20.2412   27.1308 H   0  0  0  0  0  0  0  0  0  0  0  0
   20.9410   18.5519   26.3004 N   0  3  0  0  0  0  0  0  0  0  0  0
   20.9650   18.8737   25.3280 H   0  0  0  0  0  0  0  0  0  0  0  0
   20.8833   17.5284   26.2809 H   0  0  0  0  0  0  0  0  0  0  0  0
   21.8422   18.7934   26.7273 H   0  0  0  0  0  0  0  0  0  0  0  0
  1  2  1  0  0  0  0
  1  3  1  0  0  0  0
  1  4  1  0  0  0  0
  1  5  1  0  0  0  0
  5  6  1  0  0  0  0
  5  7  1  0  0  0  0
  5  8  1  0  0  0  0
  8  9  1  0  0  0  0
  8 10  1  0  0  0  0
  8 11  1  0  0  0  0
 11 12  1  0  0  0  0
 11 13  1  0  0  0  0
 11 14  1  0  0  0  0
 14 15  1  0  0  0  0
 14 16  1  0  0  0  0
 14 17  1  0  0  0  0
 17 18  1  0  0  0  0
 17 19  1  0  0  0  0
 17 20  1  0  0  0  0
 20 21  1  0  0  0  0
 20 22  1  0  0  0  0
 20 23  1  0  0  0  0
 23 24  1  0  0  0  0
 23 25  1  0  0  0  0
 23 26  1  0  0  0  0
 26 27  1  0  0  0  0
 26 28  1  0  0  0  0
 26 29  1  0  0  0  0
M  END
> <VM2 Rank>
420

> <Conf_Id>
2923

> <Probability>
0.00

> <Sum Probability>
99.99

> <Delta G>
5.274

> <G>
63.420

> <E>
25.358

> <-TS>
38.062

> <U+W>
1.213

> <U>
53.031

> <W>
-51.817

> <W(PB)>
-54.239

> <W(SA)>
2.421

> <Valence>
5.259

> <Coulomb>
47.142

> <VdW>
0.629

> <VdW6>
-10.480

> <VdW12>
11.109

> <Bond>
0.295

> <Angle>
1.787

> <Pdih>
3.177

> <Idih>
0.000

> <Tether>
0.000

$$$$
VeraChem MOL file


 29 28  0  0  0  0  0  0  0  0999 V2000     
   19.0749   17.3953   21.6802 C   0  0  0  0  0  0  0  0  0  0  0  0
   19.4813   17.3196   22.6957 H   0  0  0  0  0  0  0  0  0  0  0  0
   18.1972   16.7386   21.6242 H   0  0  0  0  0  0  0  0  0  0  0  0
   19.8283   17.0090   20.9816 H   0  0  0  0  0  0  0  0  0  0  0  0
   18.6869   18.8491   21.3259 C   0  0  0  0  0  0  0  0  0  0  0  0
   17.9216   19.2198   22.0192 H   0  0  0  0  0  0  0  0  0  0  0  0
   18.2137   18.8525   20.3341 H   0  0  0  0  0  0  0  0  0  0  0  0
   19.8948   19.8170   21.2947 C   0  0  0  0  0  0  0  0  0  0  0  0
   20.5930   19.4767   20.5176 H   0  0  0  0  0  0  0  0  0  0  0  0
   19.5466   20.8062   20.9673 H   0  0  0  0  0  0  0  0  0  0  0  0
   20.6796   19.9748   22.6251 C   0  0  0  0  0  0  0  0  0  0  0  0
   21.5416   20.6222   22.4129 H   0  0  0  0  0  0  0  0  0  0  0  0
   21.1136   19.0158   22.9297 H   0  0  0  0  0  0  0  0  0  0  0  0
   19.8780   20.6303   23.7840 C   0  0  0  0  0  0  0  0  0  0  0  0
   20.5674   21.2374   24.3868 H   0  0  0  0  0  0  0  0  0  0  0  0
   19.1528   21.3416   23.3656 H   0  0  0  0  0  0  0  0  0  0  0  0
   19.1451   19.6494   24.7366 C   0  0  0  0  0  0  0  0  0  0  0  0
   18.4831   18.9836   24.1723 H   0  0  0  0  0  0  0  0  0  0  0  0
   18.4916   20.2416   25.3904 H   0  0  0  0  0  0  0  0  0  0  0  0
   20.1058   18.8073   25.6140 C   0  0  0  0  0  0  0  0  0  0  0  0
   20.7644   18.2033   24.9789 H   0  0  0  0  0  0  0  0  0  0  0  0
   20.7572   19.4691   26.1999 H   0  0  0  0  0  0  0  0  0  0  0  0
   19.3569   17.8524   26.5635 C   0  0  0  0  0  0  0  0  0  0  0  0
   20.0802   17.2226   27.0884 H   0  0  0  0  0  0  0  0  0  0  0  0
   18.6950   17.2023   25.9850 H   0  0  0  0  0  0  0  0  0  0  0  0
   18.5220   18.5623   27.6111 N   0  3  0  0  0  0  0  0  0  0  0  0
   19.0942   19.1737   28.2029 H   0  0  0  0  0  0  0  0  0  0  0  0
   18.0485   17.8990   28.2342 H   0  0  0  0  0  0  0  0  0  0  0  0
   17.7953   19.1460   27.1853 H   0  0  0  0  0  0  0  0  0  0  0  0
  1  2  1  0  0  0  0
  1  3  1  0  0  0  0
  1  4  1  0  0  0  0
  1  5  1  0  0  0  0
  5  6  1  0  0  0  0
  5  7  1  0  0  0  0
  5  8  1  0  0  0  0
  8  9  1  0  0  0  0
  8 10  1  0  0  0  0
  8 11  1  0  0  0  0
 11 12  1  0  0  0  0
 11 13  1  0  0  0  0
 11 14  1  0  0  0  0
 14 15  1  0  0  0  0
 14 16  1  0  0  0  0
 14 17  1  0  0  0  0
 17 18  1  0  0  0  0
 17 19  1  0  0  0  0
 17 20  1  0  0  0  0
 20 21  1  0  0  0  0
 20 22  1  0  0  0  0
 20 23  1  0  0  0  0
 23 24  1  0  0  0  0
 23 25  1  0  0  0  0
 23 26  1  0  0  0  0
 26 27  1  0  0  0  0
 26 28  1  0  0  0  0
 26 29  1  0  0  0  0
M  END
> <VM2 Rank>
421

> <Conf_Id>
135

> <Probability>
0.00

> <Sum Probability>
99.99

> <Delta G>
5.309

> <G>
63.455

> <E>
25.174

> <-TS>
38.281

> <U+W>
1.030

> <U>
53.387

> <W>
-52.357

> <W(PB)>
-54.753

> <W(SA)>
2.396

> <Valence>
7.037

> <Coulomb>
45.648

> <VdW>
0.702

> <VdW6>
-10.996

> <VdW12>
11.697

> <Bond>
0.363

> <Angle>
2.318

> <Pdih>
4.356

> <Idih>
0.000

> <Tether>
0.000

$$$$
VeraChem MOL file


 29 28  0  0  0  0  0  0  0  0999 V2000     
   21.2338   19.2611   21.5088 C   0  0  0  0  0  0  0  0  0  0  0  0
   21.0700   20.1597   22.1123 H   0  0  0  0  0  0  0  0  0  0  0  0
   21.8071   18.5439   22.1102 H   0  0  0  0  0  0  0  0  0  0  0  0
   21.8573   19.5510   20.6532 H   0  0  0  0  0  0  0  0  0  0  0  0
   19.9061   18.6383   21.0194 C   0  0  0  0  0  0  0  0  0  0  0  0
   20.1555   17.8106   20.3408 H   0  0  0  0  0  0  0  0  0  0  0  0
   19.3454   19.3648   20.4151 H   0  0  0  0  0  0  0  0  0  0  0  0
   19.0120   18.0805   22.1573 C   0  0  0  0  0  0  0  0  0  0  0  0
   18.4500   17.2291   21.7492 H   0  0  0  0  0  0  0  0  0  0  0  0
   19.6293   17.6590   22.9613 H   0  0  0  0  0  0  0  0  0  0  0  0
   17.9698   19.0815   22.7254 C   0  0  0  0  0  0  0  0  0  0  0  0
   17.2852   18.5350   23.3874 H   0  0  0  0  0  0  0  0  0  0  0  0
   17.3430   19.4459   21.9001 H   0  0  0  0  0  0  0  0  0  0  0  0
   18.5394   20.3041   23.4907 C   0  0  0  0  0  0  0  0  0  0  0  0
   19.0828   20.9505   22.7905 H   0  0  0  0  0  0  0  0  0  0  0  0
   17.6978   20.9117   23.8505 H   0  0  0  0  0  0  0  0  0  0  0  0
   19.4544   19.9615   24.6949 C   0  0  0  0  0  0  0  0  0  0  0  0
   19.8127   20.9017   25.1363 H   0  0  0  0  0  0  0  0  0  0  0  0
   20.3476   19.4307   24.3440 H   0  0  0  0  0  0  0  0  0  0  0  0
   18.7422   19.1309   25.7909 C   0  0  0  0  0  0  0  0  0  0  0  0
   17.8122   19.6361   26.0835 H   0  0  0  0  0  0  0  0  0  0  0  0
   18.4566   18.1461   25.3998 H   0  0  0  0  0  0  0  0  0  0  0  0
   19.6121   18.9413   27.0481 C   0  0  0  0  0  0  0  0  0  0  0  0
   19.0331   18.4202   27.8152 H   0  0  0  0  0  0  0  0  0  0  0  0
   19.9036   19.9176   27.4447 H   0  0  0  0  0  0  0  0  0  0  0  0
   20.8741   18.1388   26.7995 N   0  3  0  0  0  0  0  0  0  0  0  0
   21.4819   18.5929   26.1108 H   0  0  0  0  0  0  0  0  0  0  0  0
   20.6637   17.1991   26.4475 H   0  0  0  0  0  0  0  0  0  0  0  0
   21.4252   18.0218   27.6569 H   0  0  0  0  0  0  0  0  0  0  0  0
  1  2  1  0  0  0  0
  1  3  1  0  0  0  0
  1  4  1  0  0  0  0
  1  5  1  0  0  0  0
  5  6  1  0  0  0  0
  5  7  1  0  0  0  0
  5  8  1  0  0  0  0
  8  9  1  0  0  0  0
  8 10  1  0  0  0  0
  8 11  1  0  0  0  0
 11 12  1  0  0  0  0
 11 13  1  0  0  0  0
 11 14  1  0  0  0  0
 14 15  1  0  0  0  0
 14 16  1  0  0  0  0
 14 17  1  0  0  0  0
 17 18  1  0  0  0  0
 17 19  1  0  0  0  0
 17 20  1  0  0  0  0
 20 21  1  0  0  0  0
 20 22  1  0  0  0  0
 20 23  1  0  0  0  0
 23 24  1  0  0  0  0
 23 25  1  0  0  0  0
 23 26  1  0  0  0  0
 26 27  1  0  0  0  0
 26 28  1  0  0  0  0
 26 29  1  0  0  0  0
M  END
> <VM2 Rank>
422

> <Conf_Id>
1376

> <Probability>
0.00

> <Sum Probability>
99.99

> <Delta G>
5.330

> <G>
63.477

> <E>
25.107

> <-TS>
38.369

> <U+W>
0.963

> <U>
53.573

> <W>
-52.610

> <W(PB)>
-54.983

> <W(SA)>
2.373

> <Valence>
6.709

> <Coulomb>
46.319

> <VdW>
0.545

> <VdW6>
-11.239

> <VdW12>
11.784

> <Bond>
0.343

> <Angle>
2.260

> <Pdih>
4.107

> <Idih>
0.000

> <Tether>
0.000

$$$$
VeraChem MOL file


 29 28  0  0  0  0  0  0  0  0999 V2000     
   21.2748   19.5265   21.0167 C   0  0  0  0  0  0  0  0  0  0  0  0
   21.2618   20.3249   21.7687 H   0  0  0  0  0  0  0  0  0  0  0  0
   21.9160   18.7153   21.3853 H   0  0  0  0  0  0  0  0  0  0  0  0
   21.7396   19.9357   20.1103 H   0  0  0  0  0  0  0  0  0  0  0  0
   19.8501   19.0127   20.7080 C   0  0  0  0  0  0  0  0  0  0  0  0
   19.9027   18.3103   19.8643 H   0  0  0  0  0  0  0  0  0  0  0  0
   19.2198   19.8484   20.3734 H   0  0  0  0  0  0  0  0  0  0  0  0
   19.1803   18.2986   21.9065 C   0  0  0  0  0  0  0  0  0  0  0  0
   18.2293   17.8653   21.5671 H   0  0  0  0  0  0  0  0  0  0  0  0
   19.8071   17.4551   22.2264 H   0  0  0  0  0  0  0  0  0  0  0  0
   18.9079   19.2354   23.1075 C   0  0  0  0  0  0  0  0  0  0  0  0
   18.3069   20.0925   22.7742 H   0  0  0  0  0  0  0  0  0  0  0  0
   19.8557   19.6407   23.4787 H   0  0  0  0  0  0  0  0  0  0  0  0
   18.1635   18.5001   24.2480 C   0  0  0  0  0  0  0  0  0  0  0  0
   17.2180   18.1038   23.8527 H   0  0  0  0  0  0  0  0  0  0  0  0
   18.7350   17.6230   24.5759 H   0  0  0  0  0  0  0  0  0  0  0  0
   17.8366   19.4064   25.4620 C   0  0  0  0  0  0  0  0  0  0  0  0
   17.2650   18.8181   26.1931 H   0  0  0  0  0  0  0  0  0  0  0  0
   17.1612   20.2074   25.1312 H   0  0  0  0  0  0  0  0  0  0  0  0
   19.0509   20.0508   26.1834 C   0  0  0  0  0  0  0  0  0  0  0  0
   19.5811   20.7432   25.5173 H   0  0  0  0  0  0  0  0  0  0  0  0
   18.6611   20.6703   27.0019 H   0  0  0  0  0  0  0  0  0  0  0  0
   20.0397   19.0369   26.7955 C   0  0  0  0  0  0  0  0  0  0  0  0
   19.4869   18.2070   27.2438 H   0  0  0  0  0  0  0  0  0  0  0  0
   20.6138   19.5284   27.5856 H   0  0  0  0  0  0  0  0  0  0  0  0
   21.0402   18.4707   25.8074 N   0  3  0  0  0  0  0  0  0  0  0  0
   21.6481   19.2020   25.4244 H   0  0  0  0  0  0  0  0  0  0  0  0
   20.5710   18.0196   25.0160 H   0  0  0  0  0  0  0  0  0  0  0  0
   21.6509   17.7708   26.2433 H   0  0  0  0  0  0  0  0  0  0  0  0
  1  2  1  0  0  0  0
  1  3  1  0  0  0  0
  1  4  1  0  0  0  0
  1  5  1  0  0  0  0
  5  6  1  0  0  0  0
  5  7  1  0  0  0  0
  5  8  1  0  0  0  0
  8  9  1  0  0  0  0
  8 10  1  0  0  0  0
  8 11  1  0  0  0  0
 11 12  1  0  0  0  0
 11 13  1  0  0  0  0
 11 14  1  0  0  0  0
 14 15  1  0  0  0  0
 14 16  1  0  0  0  0
 14 17  1  0  0  0  0
 17 18  1  0  0  0  0
 17 19  1  0  0  0  0
 17 20  1  0  0  0  0
 20 21  1  0  0  0  0
 20 22  1  0  0  0  0
 20 23  1  0  0  0  0
 23 24  1  0  0  0  0
 23 25  1  0  0  0  0
 23 26  1  0  0  0  0
 26 27  1  0  0  0  0
 26 28  1  0  0  0  0
 26 29  1  0  0  0  0
M  END
> <VM2 Rank>
423

> <Conf_Id>
2014

> <Probability>
0.00

> <Sum Probability>
99.99

> <Delta G>
5.417

> <G>
63.564

> <E>
25.471

> <-TS>
38.092

> <U+W>
1.327

> <U>
53.053

> <W>
-51.726

> <W(PB)>
-54.121

> <W(SA)>
2.395

> <Valence>
5.137

> <Coulomb>
47.396

> <VdW>
0.520

> <VdW6>
-10.608

> <VdW12>
11.128

> <Bond>
0.284

> <Angle>
1.688

> <Pdih>
3.165

> <Idih>
0.000

> <Tether>
0.000

$$$$
VeraChem MOL file


 29 28  0  0  0  0  0  0  0  0999 V2000     
   20.6176   17.6812   20.9754 C   0  0  0  0  0  0  0  0  0  0  0  0
   20.0922   17.0414   21.6951 H   0  0  0  0  0  0  0  0  0  0  0  0
   20.7322   17.1068   20.0470 H   0  0  0  0  0  0  0  0  0  0  0  0
   21.6217   17.8893   21.3671 H   0  0  0  0  0  0  0  0  0  0  0  0
   19.8426   18.9913   20.7075 C   0  0  0  0  0  0  0  0  0  0  0  0
   18.8308   18.7559   20.3488 H   0  0  0  0  0  0  0  0  0  0  0  0
   20.3392   19.5352   19.8918 H   0  0  0  0  0  0  0  0  0  0  0  0
   19.7576   19.9197   21.9428 C   0  0  0  0  0  0  0  0  0  0  0  0
   20.7718   20.1640   22.2870 H   0  0  0  0  0  0  0  0  0  0  0  0
   19.2991   20.8694   21.6343 H   0  0  0  0  0  0  0  0  0  0  0  0
   18.9376   19.3190   23.1093 C   0  0  0  0  0  0  0  0  0  0  0  0
   19.4110   18.3916   23.4508 H   0  0  0  0  0  0  0  0  0  0  0  0
   17.9351   19.0482   22.7507 H   0  0  0  0  0  0  0  0  0  0  0  0
   18.8091   20.3132   24.2885 C   0  0  0  0  0  0  0  0  0  0  0  0
   19.8014   20.6182   24.6428 H   0  0  0  0  0  0  0  0  0  0  0  0
   18.3321   21.2330   23.9226 H   0  0  0  0  0  0  0  0  0  0  0  0
   17.9660   19.7699   25.4701 C   0  0  0  0  0  0  0  0  0  0  0  0
   16.9412   19.5894   25.1173 H   0  0  0  0  0  0  0  0  0  0  0  0
   17.8842   20.5575   26.2319 H   0  0  0  0  0  0  0  0  0  0  0  0
   18.4900   18.4753   26.1482 C   0  0  0  0  0  0  0  0  0  0  0  0
   17.7849   18.2095   26.9469 H   0  0  0  0  0  0  0  0  0  0  0  0
   18.4730   17.6307   25.4477 H   0  0  0  0  0  0  0  0  0  0  0  0
   19.8881   18.6115   26.7861 C   0  0  0  0  0  0  0  0  0  0  0  0
   20.0116   17.8369   27.5479 H   0  0  0  0  0  0  0  0  0  0  0  0
   19.9776   19.5854   27.2746 H   0  0  0  0  0  0  0  0  0  0  0  0
   21.0353   18.4571   25.8072 N   0  3  0  0  0  0  0  0  0  0  0  0
   21.0500   17.5220   25.3870 H   0  0  0  0  0  0  0  0  0  0  0  0
   21.9446   18.5959   26.2618 H   0  0  0  0  0  0  0  0  0  0  0  0
   20.9678   19.1341   25.0410 H   0  0  0  0  0  0  0  0  0  0  0  0
  1  2  1  0  0  0  0
  1  3  1  0  0  0  0
  1  4  1  0  0  0  0
  1  5  1  0  0  0  0
  5  6  1  0  0  0  0
  5  7  1  0  0  0  0
  5  8  1  0  0  0  0
  8  9  1  0  0  0  0
  8 10  1  0  0  0  0
  8 11  1  0  0  0  0
 11 12  1  0  0  0  0
 11 13  1  0  0  0  0
 11 14  1  0  0  0  0
 14 15  1  0  0  0  0
 14 16  1  0  0  0  0
 14 17  1  0  0  0  0
 17 18  1  0  0  0  0
 17 19  1  0  0  0  0
 17 20  1  0  0  0  0
 20 21  1  0  0  0  0
 20 22  1  0  0  0  0
 20 23  1  0  0  0  0
 23 24  1  0  0  0  0
 23 25  1  0  0  0  0
 23 26  1  0  0  0  0
 26 27  1  0  0  0  0
 26 28  1  0  0  0  0
 26 29  1  0  0  0  0
M  END
> <VM2 Rank>
424

> <Conf_Id>
1981

> <Probability>
0.00

> <Sum Probability>
99.99

> <Delta G>
5.495

> <G>
63.641

> <E>
25.549

> <-TS>
38.092

> <U+W>
1.404

> <U>
53.053

> <W>
-51.648

> <W(PB)>
-54.061

> <W(SA)>
2.412

> <Valence>
5.137

> <Coulomb>
47.396

> <VdW>
0.520

> <VdW6>
-10.608

> <VdW12>
11.128

> <Bond>
0.284

> <Angle>
1.688

> <Pdih>
3.165

> <Idih>
0.000

> <Tether>
0.000

$$$$
VeraChem MOL file


 29 28  0  0  0  0  0  0  0  0999 V2000     
   20.6380   17.8537   21.4178 C   0  0  0  0  0  0  0  0  0  0  0  0
   21.5560   18.3166   21.0334 H   0  0  0  0  0  0  0  0  0  0  0  0
   20.7396   17.7449   22.5038 H   0  0  0  0  0  0  0  0  0  0  0  0
   20.5649   16.8460   20.9888 H   0  0  0  0  0  0  0  0  0  0  0  0
   19.3961   18.6935   21.0424 C   0  0  0  0  0  0  0  0  0  0  0  0
   18.4840   18.2152   21.4205 H   0  0  0  0  0  0  0  0  0  0  0  0
   19.2958   18.6986   19.9481 H   0  0  0  0  0  0  0  0  0  0  0  0
   19.4749   20.1596   21.5331 C   0  0  0  0  0  0  0  0  0  0  0  0
   20.3419   20.6399   21.0591 H   0  0  0  0  0  0  0  0  0  0  0  0
   18.5953   20.7033   21.1620 H   0  0  0  0  0  0  0  0  0  0  0  0
   19.5789   20.3620   23.0690 C   0  0  0  0  0  0  0  0  0  0  0  0
   19.6942   21.4408   23.2420 H   0  0  0  0  0  0  0  0  0  0  0  0
   20.5019   19.9140   23.4538 H   0  0  0  0  0  0  0  0  0  0  0  0
   18.3375   19.8895   23.8754 C   0  0  0  0  0  0  0  0  0  0  0  0
   18.1826   20.5803   24.7147 H   0  0  0  0  0  0  0  0  0  0  0  0
   17.4393   19.9947   23.2518 H   0  0  0  0  0  0  0  0  0  0  0  0
   18.4044   18.4406   24.4329 C   0  0  0  0  0  0  0  0  0  0  0  0
   18.5034   17.7228   23.6109 H   0  0  0  0  0  0  0  0  0  0  0  0
   17.4411   18.2108   24.9090 H   0  0  0  0  0  0  0  0  0  0  0  0
   19.5323   18.1823   25.4642 C   0  0  0  0  0  0  0  0  0  0  0  0
   19.4588   17.1432   25.8116 H   0  0  0  0  0  0  0  0  0  0  0  0
   20.5151   18.2749   24.9868 H   0  0  0  0  0  0  0  0  0  0  0  0
   19.4585   19.1229   26.6811 C   0  0  0  0  0  0  0  0  0  0  0  0
   18.4819   19.0257   27.1627 H   0  0  0  0  0  0  0  0  0  0  0  0
   19.5811   20.1589   26.3546 H   0  0  0  0  0  0  0  0  0  0  0  0
   20.5234   18.8339   27.7191 N   0  3  0  0  0  0  0  0  0  0  0  0
   20.4473   17.8804   28.0884 H   0  0  0  0  0  0  0  0  0  0  0  0
   20.4566   19.4710   28.5205 H   0  0  0  0  0  0  0  0  0  0  0  0
   21.4686   18.9349   27.3348 H   0  0  0  0  0  0  0  0  0  0  0  0
  1  2  1  0  0  0  0
  1  3  1  0  0  0  0
  1  4  1  0  0  0  0
  1  5  1  0  0  0  0
  5  6  1  0  0  0  0
  5  7  1  0  0  0  0
  5  8  1  0  0  0  0
  8  9  1  0  0  0  0
  8 10  1  0  0  0  0
  8 11  1  0  0  0  0
 11 12  1  0  0  0  0
 11 13  1  0  0  0  0
 11 14  1  0  0  0  0
 14 15  1  0  0  0  0
 14 16  1  0  0  0  0
 14 17  1  0  0  0  0
 17 18  1  0  0  0  0
 17 19  1  0  0  0  0
 17 20  1  0  0  0  0
 20 21  1  0  0  0  0
 20 22  1  0  0  0  0
 20 23  1  0  0  0  0
 23 24  1  0  0  0  0
 23 25  1  0  0  0  0
 23 26  1  0  0  0  0
 26 27  1  0  0  0  0
 26 28  1  0  0  0  0
 26 29  1  0  0  0  0
M  END
> <VM2 Rank>
425

> <Conf_Id>
345

> <Probability>
0.00

> <Sum Probability>
99.99

> <Delta G>
5.620

> <G>
63.766

> <E>
25.273

> <-TS>
38.493

> <U+W>
1.129

> <U>
53.578

> <W>
-52.450

> <W(PB)>
-54.823

> <W(SA)>
2.374

> <Valence>
7.222

> <Coulomb>
45.791

> <VdW>
0.565

> <VdW6>
-11.257

> <VdW12>
11.821

> <Bond>
0.375

> <Angle>
2.547

> <Pdih>
4.300

> <Idih>
0.000

> <Tether>
0.000

$$$$
VeraChem MOL file


 29 28  0  0  0  0  0  0  0  0999 V2000     
   19.8497   18.4003   20.2371 C   0  0  0  0  0  0  0  0  0  0  0  0
   19.9386   17.4672   20.8071 H   0  0  0  0  0  0  0  0  0  0  0  0
   19.2414   18.1885   19.3484 H   0  0  0  0  0  0  0  0  0  0  0  0
   20.8516   18.6927   19.8970 H   0  0  0  0  0  0  0  0  0  0  0  0
   19.2020   19.5201   21.0823 C   0  0  0  0  0  0  0  0  0  0  0  0
   18.2090   19.1987   21.4239 H   0  0  0  0  0  0  0  0  0  0  0  0
   19.0309   20.3945   20.4392 H   0  0  0  0  0  0  0  0  0  0  0  0
   20.0686   19.9578   22.2902 C   0  0  0  0  0  0  0  0  0  0  0  0
   21.0168   20.3667   21.9151 H   0  0  0  0  0  0  0  0  0  0  0  0
   19.5703   20.7915   22.8023 H   0  0  0  0  0  0  0  0  0  0  0  0
   20.3850   18.8375   23.3171 C   0  0  0  0  0  0  0  0  0  0  0  0
   21.0058   19.2629   24.1153 H   0  0  0  0  0  0  0  0  0  0  0  0
   21.0132   18.0752   22.8378 H   0  0  0  0  0  0  0  0  0  0  0  0
   19.1417   18.1440   23.9367 C   0  0  0  0  0  0  0  0  0  0  0  0
   18.5988   17.6106   23.1452 H   0  0  0  0  0  0  0  0  0  0  0  0
   19.4695   17.3588   24.6285 H   0  0  0  0  0  0  0  0  0  0  0  0
   18.1496   19.0929   24.6603 C   0  0  0  0  0  0  0  0  0  0  0  0
   17.3173   18.4943   25.0553 H   0  0  0  0  0  0  0  0  0  0  0  0
   17.6981   19.7674   23.9209 H   0  0  0  0  0  0  0  0  0  0  0  0
   18.7399   19.9476   25.8134 C   0  0  0  0  0  0  0  0  0  0  0  0
   19.5472   20.5956   25.4496 H   0  0  0  0  0  0  0  0  0  0  0  0
   17.9502   20.6264   26.1617 H   0  0  0  0  0  0  0  0  0  0  0  0
   19.2176   19.1297   27.0311 C   0  0  0  0  0  0  0  0  0  0  0  0
   18.5002   18.3328   27.2447 H   0  0  0  0  0  0  0  0  0  0  0  0
   19.2664   19.7850   27.9049 H   0  0  0  0  0  0  0  0  0  0  0  0
   20.5898   18.5081   26.8667 N   0  3  0  0  0  0  0  0  0  0  0  0
   20.6258   17.8881   26.0524 H   0  0  0  0  0  0  0  0  0  0  0  0
   20.8563   17.9522   27.6868 H   0  0  0  0  0  0  0  0  0  0  0  0
   21.3151   19.2213   26.7392 H   0  0  0  0  0  0  0  0  0  0  0  0
  1  2  1  0  0  0  0
  1  3  1  0  0  0  0
  1  4  1  0  0  0  0
  1  5  1  0  0  0  0
  5  6  1  0  0  0  0
  5  7  1  0  0  0  0
  5  8  1  0  0  0  0
  8  9  1  0  0  0  0
  8 10  1  0  0  0  0
  8 11  1  0  0  0  0
 11 12  1  0  0  0  0
 11 13  1  0  0  0  0
 11 14  1  0  0  0  0
 14 15  1  0  0  0  0
 14 16  1  0  0  0  0
 14 17  1  0  0  0  0
 17 18  1  0  0  0  0
 17 19  1  0  0  0  0
 17 20  1  0  0  0  0
 20 21  1  0  0  0  0
 20 22  1  0  0  0  0
 20 23  1  0  0  0  0
 23 24  1  0  0  0  0
 23 25  1  0  0  0  0
 23 26  1  0  0  0  0
 26 27  1  0  0  0  0
 26 28  1  0  0  0  0
 26 29  1  0  0  0  0
M  END
> <VM2 Rank>
426

> <Conf_Id>
610

> <Probability>
0.00

> <Sum Probability>
99.99

> <Delta G>
5.789

> <G>
63.936

> <E>
25.141

> <-TS>
38.795

> <U+W>
0.996

> <U>
53.436

> <W>
-52.439

> <W(PB)>
-54.789

> <W(SA)>
2.350

> <Valence>
5.973

> <Coulomb>
47.084

> <VdW>
0.378

> <VdW6>
-12.409

> <VdW12>
12.787

> <Bond>
0.379

> <Angle>
2.441

> <Pdih>
3.152

> <Idih>
0.000

> <Tether>
0.000

$$$$
VeraChem MOL file


 29 28  0  0  0  0  0  0  0  0999 V2000     
   19.4205   19.5322   20.1962 C   0  0  0  0  0  0  0  0  0  0  0  0
   20.3902   19.9511   19.8974 H   0  0  0  0  0  0  0  0  0  0  0  0
   18.8339   19.3585   19.2848 H   0  0  0  0  0  0  0  0  0  0  0  0
   18.8895   20.2844   20.7926 H   0  0  0  0  0  0  0  0  0  0  0  0
   19.6037   18.2140   20.9815 C   0  0  0  0  0  0  0  0  0  0  0  0
   20.0297   17.4576   20.3076 H   0  0  0  0  0  0  0  0  0  0  0  0
   18.6233   17.8248   21.2868 H   0  0  0  0  0  0  0  0  0  0  0  0
   20.5330   18.3547   22.2140 C   0  0  0  0  0  0  0  0  0  0  0  0
   20.6329   17.3720   22.6946 H   0  0  0  0  0  0  0  0  0  0  0  0
   21.5407   18.6229   21.8676 H   0  0  0  0  0  0  0  0  0  0  0  0
   20.0806   19.3930   23.2731 C   0  0  0  0  0  0  0  0  0  0  0  0
   20.0800   20.3991   22.8335 H   0  0  0  0  0  0  0  0  0  0  0  0
   20.8371   19.4159   24.0667 H   0  0  0  0  0  0  0  0  0  0  0  0
   18.6869   19.0905   23.8800 C   0  0  0  0  0  0  0  0  0  0  0  0
   17.9331   19.1354   23.0830 H   0  0  0  0  0  0  0  0  0  0  0  0
   18.6496   18.0638   24.2636 H   0  0  0  0  0  0  0  0  0  0  0  0
   18.2599   20.0899   24.9853 C   0  0  0  0  0  0  0  0  0  0  0  0
   17.2405   19.8370   25.3082 H   0  0  0  0  0  0  0  0  0  0  0  0
   18.1916   21.0939   24.5442 H   0  0  0  0  0  0  0  0  0  0  0  0
   19.1725   20.1621   26.2392 C   0  0  0  0  0  0  0  0  0  0  0  0
   20.1703   20.5368   25.9780 H   0  0  0  0  0  0  0  0  0  0  0  0
   18.7456   20.9120   26.9182 H   0  0  0  0  0  0  0  0  0  0  0  0
   19.2880   18.8369   27.0204 C   0  0  0  0  0  0  0  0  0  0  0  0
   18.3131   18.3434   27.0563 H   0  0  0  0  0  0  0  0  0  0  0  0
   19.5982   19.0514   28.0466 H   0  0  0  0  0  0  0  0  0  0  0  0
   20.2988   17.8646   26.4455 N   0  3  0  0  0  0  0  0  0  0  0  0
   20.0891   17.6414   25.4677 H   0  0  0  0  0  0  0  0  0  0  0  0
   20.3162   16.9810   26.9666 H   0  0  0  0  0  0  0  0  0  0  0  0
   21.2494   18.2477   26.4730 H   0  0  0  0  0  0  0  0  0  0  0  0
  1  2  1  0  0  0  0
  1  3  1  0  0  0  0
  1  4  1  0  0  0  0
  1  5  1  0  0  0  0
  5  6  1  0  0  0  0
  5  7  1  0  0  0  0
  5  8  1  0  0  0  0
  8  9  1  0  0  0  0
  8 10  1  0  0  0  0
  8 11  1  0  0  0  0
 11 12  1  0  0  0  0
 11 13  1  0  0  0  0
 11 14  1  0  0  0  0
 14 15  1  0  0  0  0
 14 16  1  0  0  0  0
 14 17  1  0  0  0  0
 17 18  1  0  0  0  0
 17 19  1  0  0  0  0
 17 20  1  0  0  0  0
 20 21  1  0  0  0  0
 20 22  1  0  0  0  0
 20 23  1  0  0  0  0
 23 24  1  0  0  0  0
 23 25  1  0  0  0  0
 23 26  1  0  0  0  0
 26 27  1  0  0  0  0
 26 28  1  0  0  0  0
 26 29  1  0  0  0  0
M  END
> <VM2 Rank>
427

> <Conf_Id>
180

> <Probability>
0.00

> <Sum Probability>
99.99

> <Delta G>
5.899

> <G>
64.045

> <E>
25.626

> <-TS>
38.420

> <U+W>
1.481

> <U>
53.409

> <W>
-51.928

> <W(PB)>
-54.310

> <W(SA)>
2.382

> <Valence>
5.669

> <Coulomb>
47.137

> <VdW>
0.603

> <VdW6>
-11.423

> <VdW12>
12.027

> <Bond>
0.335

> <Angle>
2.177

> <Pdih>
3.156

> <Idih>
0.000

> <Tether>
0.000

$$$$
VeraChem MOL file


 29 28  0  0  0  0  0  0  0  0999 V2000     
   20.9914   19.0417   20.2019 C   0  0  0  0  0  0  0  0  0  0  0  0
   20.8258   18.0674   19.7238 H   0  0  0  0  0  0  0  0  0  0  0  0
   20.4496   19.8023   19.6246 H   0  0  0  0  0  0  0  0  0  0  0  0
   22.0632   19.2702   20.1382 H   0  0  0  0  0  0  0  0  0  0  0  0
   20.5240   19.0251   21.6725 C   0  0  0  0  0  0  0  0  0  0  0  0
   20.7428   20.0013   22.1248 H   0  0  0  0  0  0  0  0  0  0  0  0
   21.1042   18.2753   22.2279 H   0  0  0  0  0  0  0  0  0  0  0  0
   19.0141   18.7079   21.7855 C   0  0  0  0  0  0  0  0  0  0  0  0
   18.4324   19.4805   21.2639 H   0  0  0  0  0  0  0  0  0  0  0  0
   18.8088   17.7633   21.2630 H   0  0  0  0  0  0  0  0  0  0  0  0
   18.5152   18.5789   23.2452 C   0  0  0  0  0  0  0  0  0  0  0  0
   19.0945   17.7998   23.7558 H   0  0  0  0  0  0  0  0  0  0  0  0
   17.4757   18.2237   23.2272 H   0  0  0  0  0  0  0  0  0  0  0  0
   18.5724   19.9111   24.0353 C   0  0  0  0  0  0  0  0  0  0  0  0
   19.6006   20.2828   24.1061 H   0  0  0  0  0  0  0  0  0  0  0  0
   18.0200   20.6766   23.4730 H   0  0  0  0  0  0  0  0  0  0  0  0
   17.9546   19.8137   25.4532 C   0  0  0  0  0  0  0  0  0  0  0  0
   16.8883   19.5672   25.3565 H   0  0  0  0  0  0  0  0  0  0  0  0
   17.9890   20.8082   25.9193 H   0  0  0  0  0  0  0  0  0  0  0  0
   18.6129   18.7895   26.4163 C   0  0  0  0  0  0  0  0  0  0  0  0
   18.0552   18.8156   27.3619 H   0  0  0  0  0  0  0  0  0  0  0  0
   18.5012   17.7660   26.0365 H   0  0  0  0  0  0  0  0  0  0  0  0
   20.0932   19.0802   26.7394 C   0  0  0  0  0  0  0  0  0  0  0  0
   20.3599   18.5842   27.6766 H   0  0  0  0  0  0  0  0  0  0  0  0
   20.2376   20.1558   26.8715 H   0  0  0  0  0  0  0  0  0  0  0  0
   21.0663   18.5899   25.6856 N   0  3  0  0  0  0  0  0  0  0  0  0
   21.0364   17.5694   25.5909 H   0  0  0  0  0  0  0  0  0  0  0  0
   22.0341   18.8416   25.9154 H   0  0  0  0  0  0  0  0  0  0  0  0
   20.8530   18.9884   24.7662 H   0  0  0  0  0  0  0  0  0  0  0  0
  1  2  1  0  0  0  0
  1  3  1  0  0  0  0
  1  4  1  0  0  0  0
  1  5  1  0  0  0  0
  5  6  1  0  0  0  0
  5  7  1  0  0  0  0
  5  8  1  0  0  0  0
  8  9  1  0  0  0  0
  8 10  1  0  0  0  0
  8 11  1  0  0  0  0
 11 12  1  0  0  0  0
 11 13  1  0  0  0  0
 11 14  1  0  0  0  0
 14 15  1  0  0  0  0
 14 16  1  0  0  0  0
 14 17  1  0  0  0  0
 17 18  1  0  0  0  0
 17 19  1  0  0  0  0
 17 20  1  0  0  0  0
 20 21  1  0  0  0  0
 20 22  1  0  0  0  0
 20 23  1  0  0  0  0
 23 24  1  0  0  0  0
 23 25  1  0  0  0  0
 23 26  1  0  0  0  0
 26 27  1  0  0  0  0
 26 28  1  0  0  0  0
 26 29  1  0  0  0  0
M  END
> <VM2 Rank>
428

> <Conf_Id>
1998

> <Probability>
0.00

> <Sum Probability>
99.99

> <Delta G>
5.908

> <G>
64.055

> <E>
25.918

> <-TS>
38.137

> <U+W>
1.773

> <U>
53.452

> <W>
-51.679

> <W(PB)>
-54.077

> <W(SA)>
2.398

> <Valence>
5.149

> <Coulomb>
47.943

> <VdW>
0.360

> <VdW6>
-10.799

> <VdW12>
11.159

> <Bond>
0.286

> <Angle>
1.682

> <Pdih>
3.181

> <Idih>
0.000

> <Tether>
0.000

$$$$
VeraChem MOL file


 29 28  0  0  0  0  0  0  0  0999 V2000     
   20.5965   17.4438   20.8946 C   0  0  0  0  0  0  0  0  0  0  0  0
   21.2056   16.9981   21.6917 H   0  0  0  0  0  0  0  0  0  0  0  0
   20.2853   16.6378   20.2174 H   0  0  0  0  0  0  0  0  0  0  0  0
   21.2309   18.1360   20.3257 H   0  0  0  0  0  0  0  0  0  0  0  0
   19.3664   18.1710   21.4772 C   0  0  0  0  0  0  0  0  0  0  0  0
   18.7356   17.4472   22.0121 H   0  0  0  0  0  0  0  0  0  0  0  0
   18.7583   18.5759   20.6562 H   0  0  0  0  0  0  0  0  0  0  0  0
   19.7771   19.3118   22.4336 C   0  0  0  0  0  0  0  0  0  0  0  0
   20.4016   18.9045   23.2370 H   0  0  0  0  0  0  0  0  0  0  0  0
   20.4037   20.0339   21.8921 H   0  0  0  0  0  0  0  0  0  0  0  0
   18.5446   20.0437   23.0188 C   0  0  0  0  0  0  0  0  0  0  0  0
   17.8317   19.3290   23.4510 H   0  0  0  0  0  0  0  0  0  0  0  0
   18.0134   20.5294   22.1886 H   0  0  0  0  0  0  0  0  0  0  0  0
   18.9164   21.1253   24.0649 C   0  0  0  0  0  0  0  0  0  0  0  0
   19.9161   21.5295   23.8543 H   0  0  0  0  0  0  0  0  0  0  0  0
   18.2265   21.9707   23.9353 H   0  0  0  0  0  0  0  0  0  0  0  0
   18.8253   20.6796   25.5497 C   0  0  0  0  0  0  0  0  0  0  0  0
   17.7952   20.3815   25.7896 H   0  0  0  0  0  0  0  0  0  0  0  0
   19.0281   21.5635   26.1703 H   0  0  0  0  0  0  0  0  0  0  0  0
   19.8096   19.5629   25.9774 C   0  0  0  0  0  0  0  0  0  0  0  0
   20.7827   19.7114   25.4916 H   0  0  0  0  0  0  0  0  0  0  0  0
   19.9881   19.6506   27.0574 H   0  0  0  0  0  0  0  0  0  0  0  0
   19.2733   18.1455   25.6974 C   0  0  0  0  0  0  0  0  0  0  0  0
   19.0763   18.0207   24.6310 H   0  0  0  0  0  0  0  0  0  0  0  0
   18.3348   17.9957   26.2378 H   0  0  0  0  0  0  0  0  0  0  0  0
   20.2348   17.0544   26.1213 N   0  3  0  0  0  0  0  0  0  0  0  0
   20.4373   17.0944   27.1257 H   0  0  0  0  0  0  0  0  0  0  0  0
   21.1317   17.1229   25.6295 H   0  0  0  0  0  0  0  0  0  0  0  0
   19.8583   16.1195   25.9296 H   0  0  0  0  0  0  0  0  0  0  0  0
  1  2  1  0  0  0  0
  1  3  1  0  0  0  0
  1  4  1  0  0  0  0
  1  5  1  0  0  0  0
  5  6  1  0  0  0  0
  5  7  1  0  0  0  0
  5  8  1  0  0  0  0
  8  9  1  0  0  0  0
  8 10  1  0  0  0  0
  8 11  1  0  0  0  0
 11 12  1  0  0  0  0
 11 13  1  0  0  0  0
 11 14  1  0  0  0  0
 14 15  1  0  0  0  0
 14 16  1  0  0  0  0
 14 17  1  0  0  0  0
 17 18  1  0  0  0  0
 17 19  1  0  0  0  0
 17 20  1  0  0  0  0
 20 21  1  0  0  0  0
 20 22  1  0  0  0  0
 20 23  1  0  0  0  0
 23 24  1  0  0  0  0
 23 25  1  0  0  0  0
 23 26  1  0  0  0  0
 26 27  1  0  0  0  0
 26 28  1  0  0  0  0
 26 29  1  0  0  0  0
M  END
> <VM2 Rank>
429

> <Conf_Id>
2261

> <Probability>
0.00

> <Sum Probability>
99.99

> <Delta G>
5.942

> <G>
64.088

> <E>
25.958

> <-TS>
38.131

> <U+W>
1.813

> <U>
54.581

> <W>
-52.768

> <W(PB)>
-55.197

> <W(SA)>
2.429

> <Valence>
7.466

> <Coulomb>
46.879

> <VdW>
0.236

> <VdW6>
-10.465

> <VdW12>
10.701

> <Bond>
0.266

> <Angle>
1.749

> <Pdih>
5.451

> <Idih>
0.000

> <Tether>
0.000

$$$$
VeraChem MOL file


 29 28  0  0  0  0  0  0  0  0999 V2000     
   21.4093   19.7270   20.9456 C   0  0  0  0  0  0  0  0  0  0  0  0
   22.1518   19.6557   21.7511 H   0  0  0  0  0  0  0  0  0  0  0  0
   21.4719   18.8129   20.3408 H   0  0  0  0  0  0  0  0  0  0  0  0
   21.6869   20.5744   20.3054 H   0  0  0  0  0  0  0  0  0  0  0  0
   19.9883   19.9180   21.5163 C   0  0  0  0  0  0  0  0  0  0  0  0
   19.2728   20.0211   20.6885 H   0  0  0  0  0  0  0  0  0  0  0  0
   19.9491   20.8555   22.0883 H   0  0  0  0  0  0  0  0  0  0  0  0
   19.5726   18.7374   22.4208 C   0  0  0  0  0  0  0  0  0  0  0  0
   19.6098   17.8039   21.8423 H   0  0  0  0  0  0  0  0  0  0  0  0
   20.3026   18.6263   23.2308 H   0  0  0  0  0  0  0  0  0  0  0  0
   18.1467   18.9260   22.9939 C   0  0  0  0  0  0  0  0  0  0  0  0
   17.4398   18.9184   22.1526 H   0  0  0  0  0  0  0  0  0  0  0  0
   18.0395   19.9126   23.4641 H   0  0  0  0  0  0  0  0  0  0  0  0
   17.7369   17.8124   23.9909 C   0  0  0  0  0  0  0  0  0  0  0  0
   16.6700   17.5987   23.8377 H   0  0  0  0  0  0  0  0  0  0  0  0
   18.2595   16.8763   23.7504 H   0  0  0  0  0  0  0  0  0  0  0  0
   17.9268   18.1562   25.4934 C   0  0  0  0  0  0  0  0  0  0  0  0
   17.5170   17.3191   26.0755 H   0  0  0  0  0  0  0  0  0  0  0  0
   17.3133   19.0281   25.7594 H   0  0  0  0  0  0  0  0  0  0  0  0
   19.3892   18.3821   25.9511 C   0  0  0  0  0  0  0  0  0  0  0  0
   19.4568   18.1587   27.0242 H   0  0  0  0  0  0  0  0  0  0  0  0
   20.0565   17.6716   25.4461 H   0  0  0  0  0  0  0  0  0  0  0  0
   19.8728   19.8292   25.7350 C   0  0  0  0  0  0  0  0  0  0  0  0
   19.2324   20.5167   26.2941 H   0  0  0  0  0  0  0  0  0  0  0  0
   19.8139   20.0926   24.6772 H   0  0  0  0  0  0  0  0  0  0  0  0
   21.3013   20.0498   26.1880 N   0  3  0  0  0  0  0  0  0  0  0  0
   21.9601   19.4497   25.6812 H   0  0  0  0  0  0  0  0  0  0  0  0
   21.4189   19.8513   27.1871 H   0  0  0  0  0  0  0  0  0  0  0  0
   21.6027   21.0191   26.0388 H   0  0  0  0  0  0  0  0  0  0  0  0
  1  2  1  0  0  0  0
  1  3  1  0  0  0  0
  1  4  1  0  0  0  0
  1  5  1  0  0  0  0
  5  6  1  0  0  0  0
  5  7  1  0  0  0  0
  5  8  1  0  0  0  0
  8  9  1  0  0  0  0
  8 10  1  0  0  0  0
  8 11  1  0  0  0  0
 11 12  1  0  0  0  0
 11 13  1  0  0  0  0
 11 14  1  0  0  0  0
 14 15  1  0  0  0  0
 14 16  1  0  0  0  0
 14 17  1  0  0  0  0
 17 18  1  0  0  0  0
 17 19  1  0  0  0  0
 17 20  1  0  0  0  0
 20 21  1  0  0  0  0
 20 22  1  0  0  0  0
 20 23  1  0  0  0  0
 23 24  1  0  0  0  0
 23 25  1  0  0  0  0
 23 26  1  0  0  0  0
 26 27  1  0  0  0  0
 26 28  1  0  0  0  0
 26 29  1  0  0  0  0
M  END
> <VM2 Rank>
430

> <Conf_Id>
1530

> <Probability>
0.00

> <Sum Probability>
100.00

> <Delta G>
5.955

> <G>
64.101

> <E>
25.970

> <-TS>
38.131

> <U+W>
1.826

> <U>
54.581

> <W>
-52.756

> <W(PB)>
-55.207

> <W(SA)>
2.452

> <Valence>
7.466

> <Coulomb>
46.879

> <VdW>
0.236

> <VdW6>
-10.465

> <VdW12>
10.701

> <Bond>
0.266

> <Angle>
1.749

> <Pdih>
5.451

> <Idih>
0.000

> <Tether>
0.000

$$$$
VeraChem MOL file


 29 28  0  0  0  0  0  0  0  0999 V2000     
   20.9677   17.8945   22.1969 C   0  0  0  0  0  0  0  0  0  0  0  0
   21.0320   18.3318   23.1999 H   0  0  0  0  0  0  0  0  0  0  0  0
   21.1870   16.8228   22.2862 H   0  0  0  0  0  0  0  0  0  0  0  0
   21.7525   18.3472   21.5772 H   0  0  0  0  0  0  0  0  0  0  0  0
   19.5730   18.1116   21.5666 C   0  0  0  0  0  0  0  0  0  0  0  0
   18.7978   17.6361   22.1799 H   0  0  0  0  0  0  0  0  0  0  0  0
   19.5427   17.5921   20.5987 H   0  0  0  0  0  0  0  0  0  0  0  0
   19.2296   19.6028   21.3316 C   0  0  0  0  0  0  0  0  0  0  0  0
   19.9582   20.0193   20.6226 H   0  0  0  0  0  0  0  0  0  0  0  0
   18.2559   19.6655   20.8266 H   0  0  0  0  0  0  0  0  0  0  0  0
   19.2009   20.5081   22.5931 C   0  0  0  0  0  0  0  0  0  0  0  0
   19.0233   21.5348   22.2448 H   0  0  0  0  0  0  0  0  0  0  0  0
   20.1885   20.5373   23.0670 H   0  0  0  0  0  0  0  0  0  0  0  0
   18.0872   20.1664   23.6217 C   0  0  0  0  0  0  0  0  0  0  0  0
   17.7496   21.0996   24.0932 H   0  0  0  0  0  0  0  0  0  0  0  0
   17.2097   19.7742   23.0898 H   0  0  0  0  0  0  0  0  0  0  0  0
   18.4899   19.1792   24.7486 C   0  0  0  0  0  0  0  0  0  0  0  0
   18.8547   18.2403   24.3206 H   0  0  0  0  0  0  0  0  0  0  0  0
   17.5853   18.9204   25.3161 H   0  0  0  0  0  0  0  0  0  0  0  0
   19.5383   19.7578   25.7321 C   0  0  0  0  0  0  0  0  0  0  0  0
   20.4838   19.9648   25.2167 H   0  0  0  0  0  0  0  0  0  0  0  0
   19.1778   20.7182   26.1236 H   0  0  0  0  0  0  0  0  0  0  0  0
   19.8115   18.8178   26.9217 C   0  0  0  0  0  0  0  0  0  0  0  0
   18.8747   18.6000   27.4416 H   0  0  0  0  0  0  0  0  0  0  0  0
   20.4865   19.3108   27.6267 H   0  0  0  0  0  0  0  0  0  0  0  0
   20.4459   17.4998   26.5227 N   0  3  0  0  0  0  0  0  0  0  0  0
   21.3472   17.6381   26.0543 H   0  0  0  0  0  0  0  0  0  0  0  0
   19.8469   16.9701   25.8818 H   0  0  0  0  0  0  0  0  0  0  0  0
   20.6198   16.9004   27.3370 H   0  0  0  0  0  0  0  0  0  0  0  0
  1  2  1  0  0  0  0
  1  3  1  0  0  0  0
  1  4  1  0  0  0  0
  1  5  1  0  0  0  0
  5  6  1  0  0  0  0
  5  7  1  0  0  0  0
  5  8  1  0  0  0  0
  8  9  1  0  0  0  0
  8 10  1  0  0  0  0
  8 11  1  0  0  0  0
 11 12  1  0  0  0  0
 11 13  1  0  0  0  0
 11 14  1  0  0  0  0
 14 15  1  0  0  0  0
 14 16  1  0  0  0  0
 14 17  1  0  0  0  0
 17 18  1  0  0  0  0
 17 19  1  0  0  0  0
 17 20  1  0  0  0  0
 20 21  1  0  0  0  0
 20 22  1  0  0  0  0
 20 23  1  0  0  0  0
 23 24  1  0  0  0  0
 23 25  1  0  0  0  0
 23 26  1  0  0  0  0
 26 27  1  0  0  0  0
 26 28  1  0  0  0  0
 26 29  1  0  0  0  0
M  END
> <VM2 Rank>
431

> <Conf_Id>
1692

> <Probability>
0.00

> <Sum Probability>
100.00

> <Delta G>
5.970

> <G>
64.116

> <E>
25.681

> <-TS>
38.435

> <U+W>
1.537

> <U>
54.197

> <W>
-52.660

> <W(PB)>
-54.997

> <W(SA)>
2.337

> <Valence>
6.971

> <Coulomb>
46.740

> <VdW>
0.487

> <VdW6>
-11.331

> <VdW12>
11.818

> <Bond>
0.365

> <Angle>
2.348

> <Pdih>
4.257

> <Idih>
0.000

> <Tether>
0.000

$$$$
VeraChem MOL file


 29 28  0  0  0  0  0  0  0  0999 V2000     
   20.5981   20.2365   20.4232 C   0  0  0  0  0  0  0  0  0  0  0  0
   21.6321   19.8748   20.4957 H   0  0  0  0  0  0  0  0  0  0  0  0
   20.1773   19.8816   19.4734 H   0  0  0  0  0  0  0  0  0  0  0  0
   20.6260   21.3334   20.3901 H   0  0  0  0  0  0  0  0  0  0  0  0
   19.7553   19.7490   21.6207 C   0  0  0  0  0  0  0  0  0  0  0  0
   18.7346   20.1468   21.5347 H   0  0  0  0  0  0  0  0  0  0  0  0
   20.1869   20.1563   22.5443 H   0  0  0  0  0  0  0  0  0  0  0  0
   19.7121   18.2059   21.6968 C   0  0  0  0  0  0  0  0  0  0  0  0
   19.4127   17.8090   20.7170 H   0  0  0  0  0  0  0  0  0  0  0  0
   20.7243   17.8221   21.8847 H   0  0  0  0  0  0  0  0  0  0  0  0
   18.7398   17.6421   22.7652 C   0  0  0  0  0  0  0  0  0  0  0  0
   18.7716   16.5462   22.6928 H   0  0  0  0  0  0  0  0  0  0  0  0
   17.7066   17.9229   22.5194 H   0  0  0  0  0  0  0  0  0  0  0  0
   19.0759   18.0380   24.2270 C   0  0  0  0  0  0  0  0  0  0  0  0
   18.8265   17.1904   24.8803 H   0  0  0  0  0  0  0  0  0  0  0  0
   20.1569   18.1968   24.3185 H   0  0  0  0  0  0  0  0  0  0  0  0
   18.2922   19.2801   24.7239 C   0  0  0  0  0  0  0  0  0  0  0  0
   17.2227   19.1245   24.5265 H   0  0  0  0  0  0  0  0  0  0  0  0
   18.5783   20.1698   24.1508 H   0  0  0  0  0  0  0  0  0  0  0  0
   18.4589   19.5772   26.2359 C   0  0  0  0  0  0  0  0  0  0  0  0
   17.7854   20.4060   26.4916 H   0  0  0  0  0  0  0  0  0  0  0  0
   18.1226   18.7203   26.8347 H   0  0  0  0  0  0  0  0  0  0  0  0
   19.8862   19.9879   26.6532 C   0  0  0  0  0  0  0  0  0  0  0  0
   19.8352   20.5492   27.5901 H   0  0  0  0  0  0  0  0  0  0  0  0
   20.3233   20.6387   25.8911 H   0  0  0  0  0  0  0  0  0  0  0  0
   20.8254   18.8213   26.8890 N   0  3  0  0  0  0  0  0  0  0  0  0
   20.9338   18.2452   26.0497 H   0  0  0  0  0  0  0  0  0  0  0  0
   20.4860   18.2071   27.6365 H   0  0  0  0  0  0  0  0  0  0  0  0
   21.7622   19.1371   27.1637 H   0  0  0  0  0  0  0  0  0  0  0  0
  1  2  1  0  0  0  0
  1  3  1  0  0  0  0
  1  4  1  0  0  0  0
  1  5  1  0  0  0  0
  5  6  1  0  0  0  0
  5  7  1  0  0  0  0
  5  8  1  0  0  0  0
  8  9  1  0  0  0  0
  8 10  1  0  0  0  0
  8 11  1  0  0  0  0
 11 12  1  0  0  0  0
 11 13  1  0  0  0  0
 11 14  1  0  0  0  0
 14 15  1  0  0  0  0
 14 16  1  0  0  0  0
 14 17  1  0  0  0  0
 17 18  1  0  0  0  0
 17 19  1  0  0  0  0
 17 20  1  0  0  0  0
 20 21  1  0  0  0  0
 20 22  1  0  0  0  0
 20 23  1  0  0  0  0
 23 24  1  0  0  0  0
 23 25  1  0  0  0  0
 23 26  1  0  0  0  0
 26 27  1  0  0  0  0
 26 28  1  0  0  0  0
 26 29  1  0  0  0  0
M  END
> <VM2 Rank>
432

> <Conf_Id>
2927

> <Probability>
0.00

> <Sum Probability>
100.00

> <Delta G>
6.042

> <G>
64.188

> <E>
26.608

> <-TS>
37.580

> <U+W>
2.464

> <U>
54.876

> <W>
-52.413

> <W(PB)>
-54.852

> <W(SA)>
2.439

> <Valence>
7.200

> <Coulomb>
46.941

> <VdW>
0.735

> <VdW6>
-10.145

> <VdW12>
10.880

> <Bond>
0.299

> <Angle>
1.749

> <Pdih>
5.152

> <Idih>
0.000

> <Tether>
0.000

$$$$
VeraChem MOL file


 29 28  0  0  0  0  0  0  0  0999 V2000     
   20.7790   18.2878   21.0570 C   0  0  0  0  0  0  0  0  0  0  0  0
   21.1071   19.2843   20.7342 H   0  0  0  0  0  0  0  0  0  0  0  0
   21.1249   18.1199   22.0842 H   0  0  0  0  0  0  0  0  0  0  0  0
   21.2773   17.5464   20.4192 H   0  0  0  0  0  0  0  0  0  0  0  0
   19.2451   18.1447   20.9527 C   0  0  0  0  0  0  0  0  0  0  0  0
   18.9417   17.1706   21.3610 H   0  0  0  0  0  0  0  0  0  0  0  0
   18.9648   18.1296   19.8902 H   0  0  0  0  0  0  0  0  0  0  0  0
   18.4477   19.2740   21.6538 C   0  0  0  0  0  0  0  0  0  0  0  0
   18.6620   20.2394   21.1754 H   0  0  0  0  0  0  0  0  0  0  0  0
   17.3807   19.0853   21.4712 H   0  0  0  0  0  0  0  0  0  0  0  0
   18.6639   19.3695   23.1870 C   0  0  0  0  0  0  0  0  0  0  0  0
   18.8941   18.3726   23.5830 H   0  0  0  0  0  0  0  0  0  0  0  0
   17.7181   19.6807   23.6514 H   0  0  0  0  0  0  0  0  0  0  0  0
   19.7615   20.3853   23.5939 C   0  0  0  0  0  0  0  0  0  0  0  0
   20.7411   20.0536   23.2305 H   0  0  0  0  0  0  0  0  0  0  0  0
   19.5624   21.3425   23.0929 H   0  0  0  0  0  0  0  0  0  0  0  0
   19.8526   20.6542   25.1183 C   0  0  0  0  0  0  0  0  0  0  0  0
   18.9140   21.0953   25.4817 H   0  0  0  0  0  0  0  0  0  0  0  0
   20.6218   21.4235   25.2731 H   0  0  0  0  0  0  0  0  0  0  0  0
   20.2269   19.4192   25.9759 C   0  0  0  0  0  0  0  0  0  0  0  0
   20.9346   18.7809   25.4303 H   0  0  0  0  0  0  0  0  0  0  0  0
   20.7515   19.7650   26.8766 H   0  0  0  0  0  0  0  0  0  0  0  0
   19.0000   18.6005   26.4224 C   0  0  0  0  0  0  0  0  0  0  0  0
   18.4503   18.2356   25.5530 H   0  0  0  0  0  0  0  0  0  0  0  0
   18.3297   19.2359   27.0075 H   0  0  0  0  0  0  0  0  0  0  0  0
   19.3673   17.4027   27.2740 N   0  3  0  0  0  0  0  0  0  0  0  0
   19.8606   17.6797   28.1292 H   0  0  0  0  0  0  0  0  0  0  0  0
   19.9775   16.7497   26.7715 H   0  0  0  0  0  0  0  0  0  0  0  0
   18.5380   16.8737   27.5655 H   0  0  0  0  0  0  0  0  0  0  0  0
  1  2  1  0  0  0  0
  1  3  1  0  0  0  0
  1  4  1  0  0  0  0
  1  5  1  0  0  0  0
  5  6  1  0  0  0  0
  5  7  1  0  0  0  0
  5  8  1  0  0  0  0
  8  9  1  0  0  0  0
  8 10  1  0  0  0  0
  8 11  1  0  0  0  0
 11 12  1  0  0  0  0
 11 13  1  0  0  0  0
 11 14  1  0  0  0  0
 14 15  1  0  0  0  0
 14 16  1  0  0  0  0
 14 17  1  0  0  0  0
 17 18  1  0  0  0  0
 17 19  1  0  0  0  0
 17 20  1  0  0  0  0
 20 21  1  0  0  0  0
 20 22  1  0  0  0  0
 20 23  1  0  0  0  0
 23 24  1  0  0  0  0
 23 25  1  0  0  0  0
 23 26  1  0  0  0  0
 26 27  1  0  0  0  0
 26 28  1  0  0  0  0
 26 29  1  0  0  0  0
M  END
> <VM2 Rank>
433

> <Conf_Id>
1210

> <Probability>
0.00

> <Sum Probability>
100.00

> <Delta G>
6.048

> <G>
64.194

> <E>
26.414

> <-TS>
37.780

> <U+W>
2.270

> <U>
54.783

> <W>
-52.513

> <W(PB)>
-54.938

> <W(SA)>
2.424

> <Valence>
7.954

> <Coulomb>
46.046

> <VdW>
0.783

> <VdW6>
-10.256

> <VdW12>
11.040

> <Bond>
0.306

> <Angle>
1.906

> <Pdih>
5.742

> <Idih>
0.000

> <Tether>
0.000

$$$$
VeraChem MOL file


 29 28  0  0  0  0  0  0  0  0999 V2000     
   19.4996   17.8056   20.1050 C   0  0  0  0  0  0  0  0  0  0  0  0
   20.2004   18.1999   19.3576 H   0  0  0  0  0  0  0  0  0  0  0  0
   19.9725   16.9458   20.5972 H   0  0  0  0  0  0  0  0  0  0  0  0
   18.6098   17.4428   19.5742 H   0  0  0  0  0  0  0  0  0  0  0  0
   19.1162   18.8907   21.1332 C   0  0  0  0  0  0  0  0  0  0  0  0
   18.3836   18.4751   21.8351 H   0  0  0  0  0  0  0  0  0  0  0  0
   18.6165   19.7205   20.6142 H   0  0  0  0  0  0  0  0  0  0  0  0
   20.3577   19.4240   21.8880 C   0  0  0  0  0  0  0  0  0  0  0  0
   20.8941   18.5978   22.3744 H   0  0  0  0  0  0  0  0  0  0  0  0
   21.0530   19.8414   21.1465 H   0  0  0  0  0  0  0  0  0  0  0  0
   20.0281   20.5299   22.9246 C   0  0  0  0  0  0  0  0  0  0  0  0
   19.1529   21.1095   22.6001 H   0  0  0  0  0  0  0  0  0  0  0  0
   20.8646   21.2422   22.9393 H   0  0  0  0  0  0  0  0  0  0  0  0
   19.8260   20.0209   24.3751 C   0  0  0  0  0  0  0  0  0  0  0  0
   20.7448   19.5175   24.7007 H   0  0  0  0  0  0  0  0  0  0  0  0
   19.6933   20.8934   25.0296 H   0  0  0  0  0  0  0  0  0  0  0  0
   18.6185   19.0691   24.5508 C   0  0  0  0  0  0  0  0  0  0  0  0
   18.8331   18.1078   24.0656 H   0  0  0  0  0  0  0  0  0  0  0  0
   17.7500   19.4970   24.0316 H   0  0  0  0  0  0  0  0  0  0  0  0
   18.2190   18.8098   26.0258 C   0  0  0  0  0  0  0  0  0  0  0  0
   17.9553   19.7529   26.5227 H   0  0  0  0  0  0  0  0  0  0  0  0
   17.3034   18.2035   26.0248 H   0  0  0  0  0  0  0  0  0  0  0  0
   19.2807   18.0550   26.8523 C   0  0  0  0  0  0  0  0  0  0  0  0
   19.7212   17.2563   26.2496 H   0  0  0  0  0  0  0  0  0  0  0  0
   18.7975   17.5980   27.7202 H   0  0  0  0  0  0  0  0  0  0  0  0
   20.3983   18.9329   27.3802 N   0  3  0  0  0  0  0  0  0  0  0  0
   20.0417   19.6696   27.9978 H   0  0  0  0  0  0  0  0  0  0  0  0
   20.9083   19.3940   26.6215 H   0  0  0  0  0  0  0  0  0  0  0  0
   21.0822   18.3931   27.9220 H   0  0  0  0  0  0  0  0  0  0  0  0
  1  2  1  0  0  0  0
  1  3  1  0  0  0  0
  1  4  1  0  0  0  0
  1  5  1  0  0  0  0
  5  6  1  0  0  0  0
  5  7  1  0  0  0  0
  5  8  1  0  0  0  0
  8  9  1  0  0  0  0
  8 10  1  0  0  0  0
  8 11  1  0  0  0  0
 11 12  1  0  0  0  0
 11 13  1  0  0  0  0
 11 14  1  0  0  0  0
 14 15  1  0  0  0  0
 14 16  1  0  0  0  0
 14 17  1  0  0  0  0
 17 18  1  0  0  0  0
 17 19  1  0  0  0  0
 17 20  1  0  0  0  0
 20 21  1  0  0  0  0
 20 22  1  0  0  0  0
 20 23  1  0  0  0  0
 23 24  1  0  0  0  0
 23 25  1  0  0  0  0
 23 26  1  0  0  0  0
 26 27  1  0  0  0  0
 26 28  1  0  0  0  0
 26 29  1  0  0  0  0
M  END
> <VM2 Rank>
434

> <Conf_Id>
2944

> <Probability>
0.00

> <Sum Probability>
100.00

> <Delta G>
6.055

> <G>
64.201

> <E>
26.463

> <-TS>
37.739

> <U+W>
2.318

> <U>
54.428

> <W>
-52.111

> <W(PB)>
-54.561

> <W(SA)>
2.450

> <Valence>
7.095

> <Coulomb>
46.605

> <VdW>
0.729

> <VdW6>
-10.130

> <VdW12>
10.859

> <Bond>
0.288

> <Angle>
1.696

> <Pdih>
5.111

> <Idih>
0.000

> <Tether>
0.000

$$$$
VeraChem MOL file


 29 28  0  0  0  0  0  0  0  0999 V2000     
   20.4737   18.9282   20.2933 C   0  0  0  0  0  0  0  0  0  0  0  0
   21.1254   18.2588   19.7170 H   0  0  0  0  0  0  0  0  0  0  0  0
   20.0431   19.6566   19.5940 H   0  0  0  0  0  0  0  0  0  0  0  0
   21.1053   19.4733   21.0030 H   0  0  0  0  0  0  0  0  0  0  0  0
   19.3624   18.1201   21.0029 C   0  0  0  0  0  0  0  0  0  0  0  0
   19.8049   17.3612   21.6631 H   0  0  0  0  0  0  0  0  0  0  0  0
   18.8065   17.5651   20.2343 H   0  0  0  0  0  0  0  0  0  0  0  0
   18.3610   19.0026   21.7919 C   0  0  0  0  0  0  0  0  0  0  0  0
   18.2453   19.9790   21.3015 H   0  0  0  0  0  0  0  0  0  0  0  0
   17.3724   18.5260   21.7377 H   0  0  0  0  0  0  0  0  0  0  0  0
   18.7020   19.1938   23.2923 C   0  0  0  0  0  0  0  0  0  0  0  0
   18.7339   18.2085   23.7748 H   0  0  0  0  0  0  0  0  0  0  0  0
   17.8799   19.7495   23.7636 H   0  0  0  0  0  0  0  0  0  0  0  0
   20.0309   19.9419   23.5517 C   0  0  0  0  0  0  0  0  0  0  0  0
   20.8749   19.2947   23.2798 H   0  0  0  0  0  0  0  0  0  0  0  0
   20.0818   20.8177   22.8904 H   0  0  0  0  0  0  0  0  0  0  0  0
   20.2199   20.4276   25.0122 C   0  0  0  0  0  0  0  0  0  0  0  0
   19.4292   21.1427   25.2787 H   0  0  0  0  0  0  0  0  0  0  0  0
   21.1600   20.9950   25.0530 H   0  0  0  0  0  0  0  0  0  0  0  0
   20.2940   19.2986   26.0709 C   0  0  0  0  0  0  0  0  0  0  0  0
   20.8475   18.4398   25.6683 H   0  0  0  0  0  0  0  0  0  0  0  0
   20.8711   19.6644   26.9306 H   0  0  0  0  0  0  0  0  0  0  0  0
   18.9098   18.8519   26.5797 C   0  0  0  0  0  0  0  0  0  0  0  0
   18.3099   18.4634   25.7548 H   0  0  0  0  0  0  0  0  0  0  0  0
   18.3844   19.7084   27.0107 H   0  0  0  0  0  0  0  0  0  0  0  0
   18.9903   17.7732   27.6402 N   0  3  0  0  0  0  0  0  0  0  0  0
   19.5163   18.0857   28.4631 H   0  0  0  0  0  0  0  0  0  0  0  0
   19.4521   16.9273   27.2901 H   0  0  0  0  0  0  0  0  0  0  0  0
   18.0601   17.4921   27.9693 H   0  0  0  0  0  0  0  0  0  0  0  0
  1  2  1  0  0  0  0
  1  3  1  0  0  0  0
  1  4  1  0  0  0  0
  1  5  1  0  0  0  0
  5  6  1  0  0  0  0
  5  7  1  0  0  0  0
  5  8  1  0  0  0  0
  8  9  1  0  0  0  0
  8 10  1  0  0  0  0
  8 11  1  0  0  0  0
 11 12  1  0  0  0  0
 11 13  1  0  0  0  0
 11 14  1  0  0  0  0
 14 15  1  0  0  0  0
 14 16  1  0  0  0  0
 14 17  1  0  0  0  0
 17 18  1  0  0  0  0
 17 19  1  0  0  0  0
 17 20  1  0  0  0  0
 20 21  1  0  0  0  0
 20 22  1  0  0  0  0
 20 23  1  0  0  0  0
 23 24  1  0  0  0  0
 23 25  1  0  0  0  0
 23 26  1  0  0  0  0
 26 27  1  0  0  0  0
 26 28  1  0  0  0  0
 26 29  1  0  0  0  0
M  END
> <VM2 Rank>
435

> <Conf_Id>
309

> <Probability>
0.00

> <Sum Probability>
100.00

> <Delta G>
6.066

> <G>
64.212

> <E>
26.364

> <-TS>
37.849

> <U+W>
2.219

> <U>
54.483

> <W>
-52.264

> <W(PB)>
-54.710

> <W(SA)>
2.446

> <Valence>
7.846

> <Coulomb>
45.850

> <VdW>
0.787

> <VdW6>
-10.198

> <VdW12>
10.985

> <Bond>
0.296

> <Angle>
1.942

> <Pdih>
5.608

> <Idih>
0.000

> <Tether>
0.000

$$$$
VeraChem MOL file


 29 28  0  0  0  0  0  0  0  0999 V2000     
   20.7773   18.5605   20.3126 C   0  0  0  0  0  0  0  0  0  0  0  0
   21.4990   17.9176   20.8332 H   0  0  0  0  0  0  0  0  0  0  0  0
   20.4204   18.0185   19.4272 H   0  0  0  0  0  0  0  0  0  0  0  0
   21.3059   19.4585   19.9671 H   0  0  0  0  0  0  0  0  0  0  0  0
   19.5978   18.9313   21.2363 C   0  0  0  0  0  0  0  0  0  0  0  0
   19.0722   18.0123   21.5281 H   0  0  0  0  0  0  0  0  0  0  0  0
   18.8787   19.5485   20.6799 H   0  0  0  0  0  0  0  0  0  0  0  0
   20.0767   19.6927   22.4943 C   0  0  0  0  0  0  0  0  0  0  0  0
   20.7600   19.0562   23.0689 H   0  0  0  0  0  0  0  0  0  0  0  0
   20.6709   20.5612   22.1782 H   0  0  0  0  0  0  0  0  0  0  0  0
   18.9189   20.1997   23.3943 C   0  0  0  0  0  0  0  0  0  0  0  0
   18.3306   20.9285   22.8199 H   0  0  0  0  0  0  0  0  0  0  0  0
   19.3403   20.7689   24.2300 H   0  0  0  0  0  0  0  0  0  0  0  0
   17.9480   19.1080   23.9243 C   0  0  0  0  0  0  0  0  0  0  0  0
   17.1451   19.5894   24.4991 H   0  0  0  0  0  0  0  0  0  0  0  0
   17.4436   18.6470   23.0649 H   0  0  0  0  0  0  0  0  0  0  0  0
   18.5840   17.9802   24.7828 C   0  0  0  0  0  0  0  0  0  0  0  0
   19.5480   17.6620   24.3690 H   0  0  0  0  0  0  0  0  0  0  0  0
   17.9354   17.0973   24.6995 H   0  0  0  0  0  0  0  0  0  0  0  0
   18.7163   18.3029   26.2953 C   0  0  0  0  0  0  0  0  0  0  0  0
   17.7209   18.5162   26.7068 H   0  0  0  0  0  0  0  0  0  0  0  0
   19.0725   17.4058   26.8189 H   0  0  0  0  0  0  0  0  0  0  0  0
   19.6517   19.4767   26.6418 C   0  0  0  0  0  0  0  0  0  0  0  0
   19.6879   19.6007   27.7274 H   0  0  0  0  0  0  0  0  0  0  0  0
   19.2608   20.4014   26.2122 H   0  0  0  0  0  0  0  0  0  0  0  0
   21.0732   19.2860   26.1535 N   0  3  0  0  0  0  0  0  0  0  0  0
   21.5011   18.4443   26.5534 H   0  0  0  0  0  0  0  0  0  0  0  0
   21.6729   20.0786   26.4077 H   0  0  0  0  0  0  0  0  0  0  0  0
   21.1055   19.1919   25.1341 H   0  0  0  0  0  0  0  0  0  0  0  0
  1  2  1  0  0  0  0
  1  3  1  0  0  0  0
  1  4  1  0  0  0  0
  1  5  1  0  0  0  0
  5  6  1  0  0  0  0
  5  7  1  0  0  0  0
  5  8  1  0  0  0  0
  8  9  1  0  0  0  0
  8 10  1  0  0  0  0
  8 11  1  0  0  0  0
 11 12  1  0  0  0  0
 11 13  1  0  0  0  0
 11 14  1  0  0  0  0
 14 15  1  0  0  0  0
 14 16  1  0  0  0  0
 14 17  1  0  0  0  0
 17 18  1  0  0  0  0
 17 19  1  0  0  0  0
 17 20  1  0  0  0  0
 20 21  1  0  0  0  0
 20 22  1  0  0  0  0
 20 23  1  0  0  0  0
 23 24  1  0  0  0  0
 23 25  1  0  0  0  0
 23 26  1  0  0  0  0
 26 27  1  0  0  0  0
 26 28  1  0  0  0  0
 26 29  1  0  0  0  0
M  END
> <VM2 Rank>
436

> <Conf_Id>
253

> <Probability>
0.00

> <Sum Probability>
100.00

> <Delta G>
6.120

> <G>
64.266

> <E>
25.939

> <-TS>
38.327

> <U+W>
1.795

> <U>
54.140

> <W>
-52.345

> <W(PB)>
-54.755

> <W(SA)>
2.410

> <Valence>
6.493

> <Coulomb>
47.259

> <VdW>
0.387

> <VdW6>
-11.455

> <VdW12>
11.842

> <Bond>
0.371

> <Angle>
2.520

> <Pdih>
3.602

> <Idih>
0.000

> <Tether>
0.000

$$$$
VeraChem MOL file


 29 28  0  0  0  0  0  0  0  0999 V2000     
   21.0162   18.9520   21.0735 C   0  0  0  0  0  0  0  0  0  0  0  0
   21.3750   18.8230   22.1018 H   0  0  0  0  0  0  0  0  0  0  0  0
   20.6463   17.9859   20.7066 H   0  0  0  0  0  0  0  0  0  0  0  0
   21.8802   19.2367   20.4593 H   0  0  0  0  0  0  0  0  0  0  0  0
   19.9189   20.0356   20.9954 C   0  0  0  0  0  0  0  0  0  0  0  0
   19.7268   20.2661   19.9382 H   0  0  0  0  0  0  0  0  0  0  0  0
   20.2927   20.9655   21.4462 H   0  0  0  0  0  0  0  0  0  0  0  0
   18.5772   19.6370   21.6615 C   0  0  0  0  0  0  0  0  0  0  0  0
   17.8719   20.4641   21.5011 H   0  0  0  0  0  0  0  0  0  0  0  0
   18.1409   18.7729   21.1422 H   0  0  0  0  0  0  0  0  0  0  0  0
   18.6620   19.3660   23.1866 C   0  0  0  0  0  0  0  0  0  0  0  0
   17.7256   19.7044   23.6511 H   0  0  0  0  0  0  0  0  0  0  0  0
   19.4644   19.9766   23.6188 H   0  0  0  0  0  0  0  0  0  0  0  0
   18.8649   17.8701   23.5378 C   0  0  0  0  0  0  0  0  0  0  0  0
   18.1127   17.2748   23.0023 H   0  0  0  0  0  0  0  0  0  0  0  0
   19.8386   17.5221   23.1739 H   0  0  0  0  0  0  0  0  0  0  0  0
   18.7442   17.5443   25.0489 C   0  0  0  0  0  0  0  0  0  0  0  0
   18.8516   16.4567   25.1625 H   0  0  0  0  0  0  0  0  0  0  0  0
   17.7332   17.7821   25.4080 H   0  0  0  0  0  0  0  0  0  0  0  0
   19.8030   18.2296   25.9490 C   0  0  0  0  0  0  0  0  0  0  0  0
   19.9785   17.5948   26.8278 H   0  0  0  0  0  0  0  0  0  0  0  0
   20.7622   18.2978   25.4189 H   0  0  0  0  0  0  0  0  0  0  0  0
   19.3638   19.6210   26.4450 C   0  0  0  0  0  0  0  0  0  0  0  0
   18.4350   19.5298   27.0145 H   0  0  0  0  0  0  0  0  0  0  0  0
   19.1801   20.2852   25.5986 H   0  0  0  0  0  0  0  0  0  0  0  0
   20.3939   20.2824   27.3373 N   0  3  0  0  0  0  0  0  0  0  0  0
   21.2863   20.4219   26.8519 H   0  0  0  0  0  0  0  0  0  0  0  0
   20.5896   19.7226   28.1738 H   0  0  0  0  0  0  0  0  0  0  0  0
   20.0818   21.2044   27.6612 H   0  0  0  0  0  0  0  0  0  0  0  0
  1  2  1  0  0  0  0
  1  3  1  0  0  0  0
  1  4  1  0  0  0  0
  1  5  1  0  0  0  0
  5  6  1  0  0  0  0
  5  7  1  0  0  0  0
  5  8  1  0  0  0  0
  8  9  1  0  0  0  0
  8 10  1  0  0  0  0
  8 11  1  0  0  0  0
 11 12  1  0  0  0  0
 11 13  1  0  0  0  0
 11 14  1  0  0  0  0
 14 15  1  0  0  0  0
 14 16  1  0  0  0  0
 14 17  1  0  0  0  0
 17 18  1  0  0  0  0
 17 19  1  0  0  0  0
 17 20  1  0  0  0  0
 20 21  1  0  0  0  0
 20 22  1  0  0  0  0
 20 23  1  0  0  0  0
 23 24  1  0  0  0  0
 23 25  1  0  0  0  0
 23 26  1  0  0  0  0
 26 27  1  0  0  0  0
 26 28  1  0  0  0  0
 26 29  1  0  0  0  0
M  END
> <VM2 Rank>
437

> <Conf_Id>
2163

> <Probability>
0.00

> <Sum Probability>
100.00

> <Delta G>
6.139

> <G>
64.285

> <E>
26.505

> <-TS>
37.781

> <U+W>
2.360

> <U>
54.784

> <W>
-52.424

> <W(PB)>
-54.866

> <W(SA)>
2.442

> <Valence>
7.954

> <Coulomb>
46.046

> <VdW>
0.783

> <VdW6>
-10.257

> <VdW12>
11.040

> <Bond>
0.306

> <Angle>
1.904

> <Pdih>
5.744

> <Idih>
0.000

> <Tether>
0.000

$$$$
VeraChem MOL file


 29 28  0  0  0  0  0  0  0  0999 V2000     
   19.8813   17.3798   20.6898 C   0  0  0  0  0  0  0  0  0  0  0  0
   20.9621   17.2067   20.7745 H   0  0  0  0  0  0  0  0  0  0  0  0
   19.3778   16.4065   20.7542 H   0  0  0  0  0  0  0  0  0  0  0  0
   19.6787   17.7985   19.6954 H   0  0  0  0  0  0  0  0  0  0  0  0
   19.3826   18.3256   21.8027 C   0  0  0  0  0  0  0  0  0  0  0  0
   19.5686   17.8539   22.7762 H   0  0  0  0  0  0  0  0  0  0  0  0
   18.2959   18.4586   21.7082 H   0  0  0  0  0  0  0  0  0  0  0  0
   20.0856   19.7007   21.7393 C   0  0  0  0  0  0  0  0  0  0  0  0
   21.1621   19.5685   21.9151 H   0  0  0  0  0  0  0  0  0  0  0  0
   19.9903   20.1029   20.7213 H   0  0  0  0  0  0  0  0  0  0  0  0
   19.5271   20.7537   22.7313 C   0  0  0  0  0  0  0  0  0  0  0  0
   18.4775   20.9760   22.4946 H   0  0  0  0  0  0  0  0  0  0  0  0
   20.0735   21.6914   22.5594 H   0  0  0  0  0  0  0  0  0  0  0  0
   19.6754   20.3759   24.2280 C   0  0  0  0  0  0  0  0  0  0  0  0
   20.5564   19.7386   24.3566 H   0  0  0  0  0  0  0  0  0  0  0  0
   19.8813   21.2928   24.7973 H   0  0  0  0  0  0  0  0  0  0  0  0
   18.4021   19.7189   24.8222 C   0  0  0  0  0  0  0  0  0  0  0  0
   18.1105   18.8285   24.2526 H   0  0  0  0  0  0  0  0  0  0  0  0
   17.5716   20.4295   24.7105 H   0  0  0  0  0  0  0  0  0  0  0  0
   18.5235   19.3552   26.3242 C   0  0  0  0  0  0  0  0  0  0  0  0
   19.0425   20.1510   26.8749 H   0  0  0  0  0  0  0  0  0  0  0  0
   17.5102   19.3099   26.7449 H   0  0  0  0  0  0  0  0  0  0  0  0
   19.1909   17.9904   26.5963 C   0  0  0  0  0  0  0  0  0  0  0  0
   18.6991   17.2159   26.0017 H   0  0  0  0  0  0  0  0  0  0  0  0
   19.0629   17.7370   27.6522 H   0  0  0  0  0  0  0  0  0  0  0  0
   20.6755   17.9377   26.3012 N   0  3  0  0  0  0  0  0  0  0  0  0
   20.8677   18.1097   25.3101 H   0  0  0  0  0  0  0  0  0  0  0  0
   21.0761   17.0219   26.5321 H   0  0  0  0  0  0  0  0  0  0  0  0
   21.1947   18.6377   26.8413 H   0  0  0  0  0  0  0  0  0  0  0  0
  1  2  1  0  0  0  0
  1  3  1  0  0  0  0
  1  4  1  0  0  0  0
  1  5  1  0  0  0  0
  5  6  1  0  0  0  0
  5  7  1  0  0  0  0
  5  8  1  0  0  0  0
  8  9  1  0  0  0  0
  8 10  1  0  0  0  0
  8 11  1  0  0  0  0
 11 12  1  0  0  0  0
 11 13  1  0  0  0  0
 11 14  1  0  0  0  0
 14 15  1  0  0  0  0
 14 16  1  0  0  0  0
 14 17  1  0  0  0  0
 17 18  1  0  0  0  0
 17 19  1  0  0  0  0
 17 20  1  0  0  0  0
 20 21  1  0  0  0  0
 20 22  1  0  0  0  0
 20 23  1  0  0  0  0
 23 24  1  0  0  0  0
 23 25  1  0  0  0  0
 23 26  1  0  0  0  0
 26 27  1  0  0  0  0
 26 28  1  0  0  0  0
 26 29  1  0  0  0  0
M  END
> <VM2 Rank>
438

> <Conf_Id>
72

> <Probability>
0.00

> <Sum Probability>
100.00

> <Delta G>
6.167

> <G>
64.313

> <E>
27.100

> <-TS>
37.213

> <U+W>
2.956

> <U>
55.353

> <W>
-52.397

> <W(PB)>
-54.793

> <W(SA)>
2.396

> <Valence>
7.419

> <Coulomb>
47.280

> <VdW>
0.654

> <VdW6>
-10.189

> <VdW12>
10.843

> <Bond>
0.301

> <Angle>
1.787

> <Pdih>
5.331

> <Idih>
0.000

> <Tether>
0.000

$$$$
VeraChem MOL file


 29 28  0  0  0  0  0  0  0  0999 V2000     
   20.8973   20.2368   20.7526 C   0  0  0  0  0  0  0  0  0  0  0  0
   21.8435   19.6852   20.8286 H   0  0  0  0  0  0  0  0  0  0  0  0
   20.4896   20.0795   19.7455 H   0  0  0  0  0  0  0  0  0  0  0  0
   21.1205   21.3060   20.8623 H   0  0  0  0  0  0  0  0  0  0  0  0
   19.8983   19.7751   21.8345 C   0  0  0  0  0  0  0  0  0  0  0  0
   18.9730   20.3618   21.7503 H   0  0  0  0  0  0  0  0  0  0  0  0
   20.3269   19.9847   22.8230 H   0  0  0  0  0  0  0  0  0  0  0  0
   19.5763   18.2686   21.7073 C   0  0  0  0  0  0  0  0  0  0  0  0
   19.2628   18.0574   20.6756 H   0  0  0  0  0  0  0  0  0  0  0  0
   20.4921   17.6847   21.8729 H   0  0  0  0  0  0  0  0  0  0  0  0
   18.4647   17.7665   22.6648 C   0  0  0  0  0  0  0  0  0  0  0  0
   18.2991   16.7020   22.4485 H   0  0  0  0  0  0  0  0  0  0  0  0
   17.5137   18.2661   22.4342 H   0  0  0  0  0  0  0  0  0  0  0  0
   18.7972   17.9068   24.1729 C   0  0  0  0  0  0  0  0  0  0  0  0
   18.3700   17.0442   24.7029 H   0  0  0  0  0  0  0  0  0  0  0  0
   19.8808   17.8393   24.3143 H   0  0  0  0  0  0  0  0  0  0  0  0
   18.2162   19.1962   24.8102 C   0  0  0  0  0  0  0  0  0  0  0  0
   17.1252   19.1746   24.6818 H   0  0  0  0  0  0  0  0  0  0  0  0
   18.5605   20.0922   24.2804 H   0  0  0  0  0  0  0  0  0  0  0  0
   18.5182   19.3420   26.3236 C   0  0  0  0  0  0  0  0  0  0  0  0
   17.7555   20.0009   26.7595 H   0  0  0  0  0  0  0  0  0  0  0  0
   18.4096   18.3765   26.8353 H   0  0  0  0  0  0  0  0  0  0  0  0
   19.8939   19.9661   26.6405 C   0  0  0  0  0  0  0  0  0  0  0  0
   19.9392   20.2023   27.7071 H   0  0  0  0  0  0  0  0  0  0  0  0
   20.0110   20.8994   26.0833 H   0  0  0  0  0  0  0  0  0  0  0  0
   21.0819   19.0799   26.3285 N   0  3  0  0  0  0  0  0  0  0  0  0
   21.0338   18.1891   26.8338 H   0  0  0  0  0  0  0  0  0  0  0  0
   21.9676   19.5267   26.5901 H   0  0  0  0  0  0  0  0  0  0  0  0
   21.1369   18.8638   25.3290 H   0  0  0  0  0  0  0  0  0  0  0  0
  1  2  1  0  0  0  0
  1  3  1  0  0  0  0
  1  4  1  0  0  0  0
  1  5  1  0  0  0  0
  5  6  1  0  0  0  0
  5  7  1  0  0  0  0
  5  8  1  0  0  0  0
  8  9  1  0  0  0  0
  8 10  1  0  0  0  0
  8 11  1  0  0  0  0
 11 12  1  0  0  0  0
 11 13  1  0  0  0  0
 11 14  1  0  0  0  0
 14 15  1  0  0  0  0
 14 16  1  0  0  0  0
 14 17  1  0  0  0  0
 17 18  1  0  0  0  0
 17 19  1  0  0  0  0
 17 20  1  0  0  0  0
 20 21  1  0  0  0  0
 20 22  1  0  0  0  0
 20 23  1  0  0  0  0
 23 24  1  0  0  0  0
 23 25  1  0  0  0  0
 23 26  1  0  0  0  0
 26 27  1  0  0  0  0
 26 28  1  0  0  0  0
 26 29  1  0  0  0  0
M  END
> <VM2 Rank>
439

> <Conf_Id>
873

> <Probability>
0.00

> <Sum Probability>
100.00

> <Delta G>
6.184

> <G>
64.330

> <E>
27.127

> <-TS>
37.203

> <U+W>
2.983

> <U>
55.351

> <W>
-52.369

> <W(PB)>
-54.772

> <W(SA)>
2.403

> <Valence>
7.418

> <Coulomb>
47.279

> <VdW>
0.655

> <VdW6>
-10.188

> <VdW12>
10.843

> <Bond>
0.301

> <Angle>
1.788

> <Pdih>
5.329

> <Idih>
0.000

> <Tether>
0.000

$$$$
VeraChem MOL file


 29 28  0  0  0  0  0  0  0  0999 V2000     
   21.0351   20.0631   21.8186 C   0  0  0  0  0  0  0  0  0  0  0  0
   21.7453   19.5525   21.1554 H   0  0  0  0  0  0  0  0  0  0  0  0
   21.3639   21.1055   21.9192 H   0  0  0  0  0  0  0  0  0  0  0  0
   21.1038   19.5962   22.8068 H   0  0  0  0  0  0  0  0  0  0  0  0
   19.6015   20.0014   21.2415 C   0  0  0  0  0  0  0  0  0  0  0  0
   19.6146   20.4955   20.2599 H   0  0  0  0  0  0  0  0  0  0  0  0
   18.9075   20.5862   21.8600 H   0  0  0  0  0  0  0  0  0  0  0  0
   19.0730   18.5566   21.0552 C   0  0  0  0  0  0  0  0  0  0  0  0
   18.4314   18.5479   20.1632 H   0  0  0  0  0  0  0  0  0  0  0  0
   19.9041   17.8763   20.8235 H   0  0  0  0  0  0  0  0  0  0  0  0
   18.2314   17.9887   22.2303 C   0  0  0  0  0  0  0  0  0  0  0  0
   17.8329   17.0180   21.9044 H   0  0  0  0  0  0  0  0  0  0  0  0
   17.3507   18.6222   22.4039 H   0  0  0  0  0  0  0  0  0  0  0  0
   19.0005   17.7621   23.5566 C   0  0  0  0  0  0  0  0  0  0  0  0
   18.6020   16.8585   24.0383 H   0  0  0  0  0  0  0  0  0  0  0  0
   20.0573   17.5486   23.3479 H   0  0  0  0  0  0  0  0  0  0  0  0
   18.8613   18.9369   24.5554 C   0  0  0  0  0  0  0  0  0  0  0  0
   17.8022   19.0672   24.8179 H   0  0  0  0  0  0  0  0  0  0  0  0
   19.1834   19.8762   24.0910 H   0  0  0  0  0  0  0  0  0  0  0  0
   19.6817   18.6963   25.8413 C   0  0  0  0  0  0  0  0  0  0  0  0
   19.3511   17.7663   26.3228 H   0  0  0  0  0  0  0  0  0  0  0  0
   20.7417   18.5676   25.5845 H   0  0  0  0  0  0  0  0  0  0  0  0
   19.5336   19.8658   26.8300 C   0  0  0  0  0  0  0  0  0  0  0  0
   18.4815   19.9875   27.1015 H   0  0  0  0  0  0  0  0  0  0  0  0
   19.8773   20.7912   26.3600 H   0  0  0  0  0  0  0  0  0  0  0  0
   20.3259   19.6673   28.1060 N   0  3  0  0  0  0  0  0  0  0  0  0
   20.2133   20.4572   28.7510 H   0  0  0  0  0  0  0  0  0  0  0  0
   21.3301   19.5730   27.9212 H   0  0  0  0  0  0  0  0  0  0  0  0
   20.0312   18.8249   28.6110 H   0  0  0  0  0  0  0  0  0  0  0  0
  1  2  1  0  0  0  0
  1  3  1  0  0  0  0
  1  4  1  0  0  0  0
  1  5  1  0  0  0  0
  5  6  1  0  0  0  0
  5  7  1  0  0  0  0
  5  8  1  0  0  0  0
  8  9  1  0  0  0  0
  8 10  1  0  0  0  0
  8 11  1  0  0  0  0
 11 12  1  0  0  0  0
 11 13  1  0  0  0  0
 11 14  1  0  0  0  0
 14 15  1  0  0  0  0
 14 16  1  0  0  0  0
 14 17  1  0  0  0  0
 17 18  1  0  0  0  0
 17 19  1  0  0  0  0
 17 20  1  0  0  0  0
 20 21  1  0  0  0  0
 20 22  1  0  0  0  0
 20 23  1  0  0  0  0
 23 24  1  0  0  0  0
 23 25  1  0  0  0  0
 23 26  1  0  0  0  0
 26 27  1  0  0  0  0
 26 28  1  0  0  0  0
 26 29  1  0  0  0  0
M  END
> <VM2 Rank>
440

> <Conf_Id>
1932

> <Probability>
0.00

> <Sum Probability>
100.00

> <Delta G>
6.211

> <G>
64.357

> <E>
26.283

> <-TS>
38.074

> <U+W>
2.139

> <U>
54.030

> <W>
-51.892

> <W(PB)>
-54.326

> <W(SA)>
2.434

> <Valence>
8.166

> <Coulomb>
45.306

> <VdW>
0.558

> <VdW6>
-9.882

> <VdW12>
10.440

> <Bond>
0.281

> <Angle>
1.930

> <Pdih>
5.955

> <Idih>
0.000

> <Tether>
0.000

$$$$
VeraChem MOL file


 29 28  0  0  0  0  0  0  0  0999 V2000     
   20.0814   17.3854   21.7578 C   0  0  0  0  0  0  0  0  0  0  0  0
   20.9635   17.3583   21.1051 H   0  0  0  0  0  0  0  0  0  0  0  0
   20.4162   17.6640   22.7626 H   0  0  0  0  0  0  0  0  0  0  0  0
   19.6762   16.3667   21.8123 H   0  0  0  0  0  0  0  0  0  0  0  0
   19.0174   18.3620   21.2046 C   0  0  0  0  0  0  0  0  0  0  0  0
   18.1016   18.3232   21.8095 H   0  0  0  0  0  0  0  0  0  0  0  0
   18.7288   18.0105   20.2041 H   0  0  0  0  0  0  0  0  0  0  0  0
   19.5234   19.8217   21.0835 C   0  0  0  0  0  0  0  0  0  0  0  0
   20.6005   19.8324   20.8671 H   0  0  0  0  0  0  0  0  0  0  0  0
   19.0442   20.2694   20.2018 H   0  0  0  0  0  0  0  0  0  0  0  0
   19.2135   20.7462   22.2921 C   0  0  0  0  0  0  0  0  0  0  0  0
   18.1283   20.8054   22.4530 H   0  0  0  0  0  0  0  0  0  0  0  0
   19.5226   21.7624   22.0108 H   0  0  0  0  0  0  0  0  0  0  0  0
   19.9341   20.3828   23.6153 C   0  0  0  0  0  0  0  0  0  0  0  0
   20.8909   19.8888   23.4001 H   0  0  0  0  0  0  0  0  0  0  0  0
   20.1893   21.3149   24.1382 H   0  0  0  0  0  0  0  0  0  0  0  0
   19.0700   19.5215   24.5684 C   0  0  0  0  0  0  0  0  0  0  0  0
   18.7333   18.6090   24.0626 H   0  0  0  0  0  0  0  0  0  0  0  0
   18.1628   20.0790   24.8401 H   0  0  0  0  0  0  0  0  0  0  0  0
   19.8395   19.1390   25.8514 C   0  0  0  0  0  0  0  0  0  0  0  0
   20.7462   18.5795   25.5854 H   0  0  0  0  0  0  0  0  0  0  0  0
   20.1634   20.0490   26.3740 H   0  0  0  0  0  0  0  0  0  0  0  0
   18.9719   18.2878   26.7949 C   0  0  0  0  0  0  0  0  0  0  0  0
   18.6611   17.3725   26.2839 H   0  0  0  0  0  0  0  0  0  0  0  0
   18.0752   18.8471   27.0754 H   0  0  0  0  0  0  0  0  0  0  0  0
   19.6928   17.8915   28.0670 N   0  3  0  0  0  0  0  0  0  0  0  0
   20.5337   17.3378   27.8727 H   0  0  0  0  0  0  0  0  0  0  0  0
   19.0974   17.3254   28.6816 H   0  0  0  0  0  0  0  0  0  0  0  0
   19.9887   18.7102   28.6089 H   0  0  0  0  0  0  0  0  0  0  0  0
  1  2  1  0  0  0  0
  1  3  1  0  0  0  0
  1  4  1  0  0  0  0
  1  5  1  0  0  0  0
  5  6  1  0  0  0  0
  5  7  1  0  0  0  0
  5  8  1  0  0  0  0
  8  9  1  0  0  0  0
  8 10  1  0  0  0  0
  8 11  1  0  0  0  0
 11 12  1  0  0  0  0
 11 13  1  0  0  0  0
 11 14  1  0  0  0  0
 14 15  1  0  0  0  0
 14 16  1  0  0  0  0
 14 17  1  0  0  0  0
 17 18  1  0  0  0  0
 17 19  1  0  0  0  0
 17 20  1  0  0  0  0
 20 21  1  0  0  0  0
 20 22  1  0  0  0  0
 20 23  1  0  0  0  0
 23 24  1  0  0  0  0
 23 25  1  0  0  0  0
 23 26  1  0  0  0  0
 26 27  1  0  0  0  0
 26 28  1  0  0  0  0
 26 29  1  0  0  0  0
M  END
> <VM2 Rank>
441

> <Conf_Id>
2728

> <Probability>
0.00

> <Sum Probability>
100.00

> <Delta G>
6.226

> <G>
64.372

> <E>
26.299

> <-TS>
38.074

> <U+W>
2.154

> <U>
54.030

> <W>
-51.876

> <W(PB)>
-54.310

> <W(SA)>
2.434

> <Valence>
8.166

> <Coulomb>
45.305

> <VdW>
0.558

> <VdW6>
-9.881

> <VdW12>
10.439

> <Bond>
0.281

> <Angle>
1.931

> <Pdih>
5.955

> <Idih>
0.000

> <Tether>
0.000

$$$$
VeraChem MOL file


 29 28  0  0  0  0  0  0  0  0999 V2000     
   19.5562   18.3422   20.2375 C   0  0  0  0  0  0  0  0  0  0  0  0
   19.2733   18.1316   19.1980 H   0  0  0  0  0  0  0  0  0  0  0  0
   20.6095   18.0599   20.3629 H   0  0  0  0  0  0  0  0  0  0  0  0
   18.9425   17.6995   20.8806 H   0  0  0  0  0  0  0  0  0  0  0  0
   19.3371   19.8354   20.5642 C   0  0  0  0  0  0  0  0  0  0  0  0
   18.2667   20.0721   20.4867 H   0  0  0  0  0  0  0  0  0  0  0  0
   19.8389   20.4411   19.7967 H   0  0  0  0  0  0  0  0  0  0  0  0
   19.8653   20.2686   21.9556 C   0  0  0  0  0  0  0  0  0  0  0  0
   20.9539   20.1289   22.0064 H   0  0  0  0  0  0  0  0  0  0  0  0
   19.7017   21.3512   22.0482 H   0  0  0  0  0  0  0  0  0  0  0  0
   19.1754   19.5708   23.1569 C   0  0  0  0  0  0  0  0  0  0  0  0
   18.1541   19.2750   22.8804 H   0  0  0  0  0  0  0  0  0  0  0  0
   19.0669   20.3085   23.9596 H   0  0  0  0  0  0  0  0  0  0  0  0
   19.9656   18.3464   23.6895 C   0  0  0  0  0  0  0  0  0  0  0  0
   20.1213   17.6385   22.8669 H   0  0  0  0  0  0  0  0  0  0  0  0
   20.9699   18.6541   24.0113 H   0  0  0  0  0  0  0  0  0  0  0  0
   19.2492   17.5920   24.8400 C   0  0  0  0  0  0  0  0  0  0  0  0
   19.5325   16.5320   24.7797 H   0  0  0  0  0  0  0  0  0  0  0  0
   18.1607   17.6165   24.6921 H   0  0  0  0  0  0  0  0  0  0  0  0
   19.6065   18.0877   26.2639 C   0  0  0  0  0  0  0  0  0  0  0  0
   19.1241   17.4250   26.9947 H   0  0  0  0  0  0  0  0  0  0  0  0
   20.6885   17.9925   26.4256 H   0  0  0  0  0  0  0  0  0  0  0  0
   19.1727   19.5365   26.5465 C   0  0  0  0  0  0  0  0  0  0  0  0
   18.1057   19.6501   26.3370 H   0  0  0  0  0  0  0  0  0  0  0  0
   19.7297   20.2195   25.9008 H   0  0  0  0  0  0  0  0  0  0  0  0
   19.4160   19.9584   27.9810 N   0  3  0  0  0  0  0  0  0  0  0  0
   18.8990   19.3718   28.6444 H   0  0  0  0  0  0  0  0  0  0  0  0
   19.1236   20.9275   28.1481 H   0  0  0  0  0  0  0  0  0  0  0  0
   20.4080   19.8976   28.2337 H   0  0  0  0  0  0  0  0  0  0  0  0
  1  2  1  0  0  0  0
  1  3  1  0  0  0  0
  1  4  1  0  0  0  0
  1  5  1  0  0  0  0
  5  6  1  0  0  0  0
  5  7  1  0  0  0  0
  5  8  1  0  0  0  0
  8  9  1  0  0  0  0
  8 10  1  0  0  0  0
  8 11  1  0  0  0  0
 11 12  1  0  0  0  0
 11 13  1  0  0  0  0
 11 14  1  0  0  0  0
 14 15  1  0  0  0  0
 14 16  1  0  0  0  0
 14 17  1  0  0  0  0
 17 18  1  0  0  0  0
 17 19  1  0  0  0  0
 17 20  1  0  0  0  0
 20 21  1  0  0  0  0
 20 22  1  0  0  0  0
 20 23  1  0  0  0  0
 23 24  1  0  0  0  0
 23 25  1  0  0  0  0
 23 26  1  0  0  0  0
 26 27  1  0  0  0  0
 26 28  1  0  0  0  0
 26 29  1  0  0  0  0
M  END
> <VM2 Rank>
442

> <Conf_Id>
1609

> <Probability>
0.00

> <Sum Probability>
100.00

> <Delta G>
6.240

> <G>
64.386

> <E>
26.826

> <-TS>
37.560

> <U+W>
2.681

> <U>
54.669

> <W>
-51.988

> <W(PB)>
-54.452

> <W(SA)>
2.464

> <Valence>
8.185

> <Coulomb>
45.540

> <VdW>
0.944

> <VdW6>
-9.928

> <VdW12>
10.872

> <Bond>
0.320

> <Angle>
1.813

> <Pdih>
6.052

> <Idih>
0.000

> <Tether>
0.000

$$$$
VeraChem MOL file


 29 28  0  0  0  0  0  0  0  0999 V2000     
   21.4785   20.0185   21.6316 C   0  0  0  0  0  0  0  0  0  0  0  0
   21.6776   19.6621   20.6125 H   0  0  0  0  0  0  0  0  0  0  0  0
   21.8089   21.0635   21.6938 H   0  0  0  0  0  0  0  0  0  0  0  0
   22.0915   19.4293   22.3259 H   0  0  0  0  0  0  0  0  0  0  0  0
   19.9795   19.8995   21.9778 C   0  0  0  0  0  0  0  0  0  0  0  0
   19.3973   20.5268   21.2886 H   0  0  0  0  0  0  0  0  0  0  0  0
   19.8095   20.3043   22.9822 H   0  0  0  0  0  0  0  0  0  0  0  0
   19.4870   18.4352   21.8837 C   0  0  0  0  0  0  0  0  0  0  0  0
   19.6149   18.1030   20.8441 H   0  0  0  0  0  0  0  0  0  0  0  0
   20.1174   17.7701   22.4884 H   0  0  0  0  0  0  0  0  0  0  0  0
   17.9970   18.2582   22.2726 C   0  0  0  0  0  0  0  0  0  0  0  0
   17.5765   17.4693   21.6337 H   0  0  0  0  0  0  0  0  0  0  0  0
   17.4293   19.1661   22.0266 H   0  0  0  0  0  0  0  0  0  0  0  0
   17.7304   17.8450   23.7458 C   0  0  0  0  0  0  0  0  0  0  0  0
   16.6547   17.6393   23.8349 H   0  0  0  0  0  0  0  0  0  0  0  0
   18.2289   16.8910   23.9661 H   0  0  0  0  0  0  0  0  0  0  0  0
   18.0983   18.9028   24.8174 C   0  0  0  0  0  0  0  0  0  0  0  0
   17.3736   18.8283   25.6402 H   0  0  0  0  0  0  0  0  0  0  0  0
   17.9801   19.9144   24.4064 H   0  0  0  0  0  0  0  0  0  0  0  0
   19.5139   18.7122   25.4130 C   0  0  0  0  0  0  0  0  0  0  0  0
   19.5772   17.7293   25.8985 H   0  0  0  0  0  0  0  0  0  0  0  0
   20.2720   18.7222   24.6225 H   0  0  0  0  0  0  0  0  0  0  0  0
   19.8409   19.8093   26.4407 C   0  0  0  0  0  0  0  0  0  0  0  0
   19.1071   19.7856   27.2509 H   0  0  0  0  0  0  0  0  0  0  0  0
   19.7918   20.7901   25.9601 H   0  0  0  0  0  0  0  0  0  0  0  0
   21.2185   19.6573   27.0524 N   0  3  0  0  0  0  0  0  0  0  0  0
   21.3210   18.7633   27.5440 H   0  0  0  0  0  0  0  0  0  0  0  0
   21.4156   20.3977   27.7347 H   0  0  0  0  0  0  0  0  0  0  0  0
   21.9580   19.6994   26.3434 H   0  0  0  0  0  0  0  0  0  0  0  0
  1  2  1  0  0  0  0
  1  3  1  0  0  0  0
  1  4  1  0  0  0  0
  1  5  1  0  0  0  0
  5  6  1  0  0  0  0
  5  7  1  0  0  0  0
  5  8  1  0  0  0  0
  8  9  1  0  0  0  0
  8 10  1  0  0  0  0
  8 11  1  0  0  0  0
 11 12  1  0  0  0  0
 11 13  1  0  0  0  0
 11 14  1  0  0  0  0
 14 15  1  0  0  0  0
 14 16  1  0  0  0  0
 14 17  1  0  0  0  0
 17 18  1  0  0  0  0
 17 19  1  0  0  0  0
 17 20  1  0  0  0  0
 20 21  1  0  0  0  0
 20 22  1  0  0  0  0
 20 23  1  0  0  0  0
 23 24  1  0  0  0  0
 23 25  1  0  0  0  0
 23 26  1  0  0  0  0
 26 27  1  0  0  0  0
 26 28  1  0  0  0  0
 26 29  1  0  0  0  0
M  END
> <VM2 Rank>
443

> <Conf_Id>
279

> <Probability>
0.00

> <Sum Probability>
100.00

> <Delta G>
6.261

> <G>
64.407

> <E>
26.295

> <-TS>
38.113

> <U+W>
2.150

> <U>
54.732

> <W>
-52.582

> <W(PB)>
-54.991

> <W(SA)>
2.409

> <Valence>
8.179

> <Coulomb>
46.176

> <VdW>
0.378

> <VdW6>
-10.197

> <VdW12>
10.575

> <Bond>
0.286

> <Angle>
1.947

> <Pdih>
5.946

> <Idih>
0.000

> <Tether>
0.000

$$$$
VeraChem MOL file


 29 28  0  0  0  0  0  0  0  0999 V2000     
   20.7680   19.3898   20.6570 C   0  0  0  0  0  0  0  0  0  0  0  0
   20.2241   20.3392   20.7379 H   0  0  0  0  0  0  0  0  0  0  0  0
   21.5721   19.3842   21.4041 H   0  0  0  0  0  0  0  0  0  0  0  0
   21.2329   19.3597   19.6632 H   0  0  0  0  0  0  0  0  0  0  0  0
   19.8232   18.1831   20.8483 C   0  0  0  0  0  0  0  0  0  0  0  0
   20.3818   17.2607   20.6363 H   0  0  0  0  0  0  0  0  0  0  0  0
   19.0168   18.2287   20.1031 H   0  0  0  0  0  0  0  0  0  0  0  0
   19.2130   18.0763   22.2689 C   0  0  0  0  0  0  0  0  0  0  0  0
   18.6190   17.1529   22.3080 H   0  0  0  0  0  0  0  0  0  0  0  0
   20.0157   17.9466   23.0054 H   0  0  0  0  0  0  0  0  0  0  0  0
   18.2908   19.2631   22.6595 C   0  0  0  0  0  0  0  0  0  0  0  0
   17.4525   18.8897   23.2636 H   0  0  0  0  0  0  0  0  0  0  0  0
   17.8310   19.6717   21.7492 H   0  0  0  0  0  0  0  0  0  0  0  0
   19.0022   20.4061   23.4332 C   0  0  0  0  0  0  0  0  0  0  0  0
   20.0557   20.4807   23.1359 H   0  0  0  0  0  0  0  0  0  0  0  0
   18.5408   21.3585   23.1379 H   0  0  0  0  0  0  0  0  0  0  0  0
   18.9018   20.2933   24.9762 C   0  0  0  0  0  0  0  0  0  0  0  0
   17.8446   20.3070   25.2756 H   0  0  0  0  0  0  0  0  0  0  0  0
   19.3567   21.1899   25.4198 H   0  0  0  0  0  0  0  0  0  0  0  0
   19.5879   19.0399   25.5657 C   0  0  0  0  0  0  0  0  0  0  0  0
   19.0877   18.1336   25.2015 H   0  0  0  0  0  0  0  0  0  0  0  0
   20.6321   18.9970   25.2288 H   0  0  0  0  0  0  0  0  0  0  0  0
   19.5473   19.0501   27.1037 C   0  0  0  0  0  0  0  0  0  0  0  0
   18.5087   19.0782   27.4444 H   0  0  0  0  0  0  0  0  0  0  0  0
   20.0572   19.9412   27.4797 H   0  0  0  0  0  0  0  0  0  0  0  0
   20.2098   17.8363   27.7225 N   0  3  0  0  0  0  0  0  0  0  0  0
   19.7580   16.9637   27.4296 H   0  0  0  0  0  0  0  0  0  0  0  0
   20.1719   17.8632   28.7474 H   0  0  0  0  0  0  0  0  0  0  0  0
   21.1992   17.7670   27.4620 H   0  0  0  0  0  0  0  0  0  0  0  0
  1  2  1  0  0  0  0
  1  3  1  0  0  0  0
  1  4  1  0  0  0  0
  1  5  1  0  0  0  0
  5  6  1  0  0  0  0
  5  7  1  0  0  0  0
  5  8  1  0  0  0  0
  8  9  1  0  0  0  0
  8 10  1  0  0  0  0
  8 11  1  0  0  0  0
 11 12  1  0  0  0  0
 11 13  1  0  0  0  0
 11 14  1  0  0  0  0
 14 15  1  0  0  0  0
 14 16  1  0  0  0  0
 14 17  1  0  0  0  0
 17 18  1  0  0  0  0
 17 19  1  0  0  0  0
 17 20  1  0  0  0  0
 20 21  1  0  0  0  0
 20 22  1  0  0  0  0
 20 23  1  0  0  0  0
 23 24  1  0  0  0  0
 23 25  1  0  0  0  0
 23 26  1  0  0  0  0
 26 27  1  0  0  0  0
 26 28  1  0  0  0  0
 26 29  1  0  0  0  0
M  END
> <VM2 Rank>
444

> <Conf_Id>
2867

> <Probability>
0.00

> <Sum Probability>
100.00

> <Delta G>
6.345

> <G>
64.491

> <E>
26.452

> <-TS>
38.040

> <U+W>
2.307

> <U>
54.449

> <W>
-52.142

> <W(PB)>
-54.574

> <W(SA)>
2.432

> <Valence>
8.133

> <Coulomb>
45.482

> <VdW>
0.833

> <VdW6>
-10.226

> <VdW12>
11.059

> <Bond>
0.317

> <Angle>
1.634

> <Pdih>
6.182

> <Idih>
0.000

> <Tether>
0.000

$$$$
VeraChem MOL file


 29 28  0  0  0  0  0  0  0  0999 V2000     
   20.7591   19.0684   20.4461 C   0  0  0  0  0  0  0  0  0  0  0  0
   21.2965   18.1122   20.4006 H   0  0  0  0  0  0  0  0  0  0  0  0
   20.9471   19.6008   19.5048 H   0  0  0  0  0  0  0  0  0  0  0  0
   21.1961   19.6627   21.2558 H   0  0  0  0  0  0  0  0  0  0  0  0
   19.2424   18.8398   20.6437 C   0  0  0  0  0  0  0  0  0  0  0  0
   18.8719   18.2687   19.7810 H   0  0  0  0  0  0  0  0  0  0  0  0
   18.7057   19.7985   20.6243 H   0  0  0  0  0  0  0  0  0  0  0  0
   18.8996   18.0563   21.9370 C   0  0  0  0  0  0  0  0  0  0  0  0
   18.0293   17.4188   21.7283 H   0  0  0  0  0  0  0  0  0  0  0  0
   19.7163   17.3670   22.1918 H   0  0  0  0  0  0  0  0  0  0  0  0
   18.5458   18.9393   23.1615 C   0  0  0  0  0  0  0  0  0  0  0  0
   18.2337   18.2764   23.9765 H   0  0  0  0  0  0  0  0  0  0  0  0
   17.6672   19.5543   22.9229 H   0  0  0  0  0  0  0  0  0  0  0  0
   19.6978   19.8592   23.6372 C   0  0  0  0  0  0  0  0  0  0  0  0
   20.6322   19.2888   23.7285 H   0  0  0  0  0  0  0  0  0  0  0  0
   19.8711   20.6185   22.8636 H   0  0  0  0  0  0  0  0  0  0  0  0
   19.3932   20.5970   24.9669 C   0  0  0  0  0  0  0  0  0  0  0  0
   18.3176   20.8064   25.0485 H   0  0  0  0  0  0  0  0  0  0  0  0
   19.8861   21.5786   24.9353 H   0  0  0  0  0  0  0  0  0  0  0  0
   19.8940   19.8634   26.2364 C   0  0  0  0  0  0  0  0  0  0  0  0
   20.9837   19.7390   26.1809 H   0  0  0  0  0  0  0  0  0  0  0  0
   19.6979   20.4991   27.1101 H   0  0  0  0  0  0  0  0  0  0  0  0
   19.2350   18.4911   26.4601 C   0  0  0  0  0  0  0  0  0  0  0  0
   19.4880   17.8231   25.6328 H   0  0  0  0  0  0  0  0  0  0  0  0
   18.1482   18.6053   26.4947 H   0  0  0  0  0  0  0  0  0  0  0  0
   19.6771   17.8235   27.7461 N   0  3  0  0  0  0  0  0  0  0  0  0
   19.2284   16.9099   27.8751 H   0  0  0  0  0  0  0  0  0  0  0  0
   19.4449   18.3892   28.5692 H   0  0  0  0  0  0  0  0  0  0  0  0
   20.6899   17.6645   27.7650 H   0  0  0  0  0  0  0  0  0  0  0  0
  1  2  1  0  0  0  0
  1  3  1  0  0  0  0
  1  4  1  0  0  0  0
  1  5  1  0  0  0  0
  5  6  1  0  0  0  0
  5  7  1  0  0  0  0
  5  8  1  0  0  0  0
  8  9  1  0  0  0  0
  8 10  1  0  0  0  0
  8 11  1  0  0  0  0
 11 12  1  0  0  0  0
 11 13  1  0  0  0  0
 11 14  1  0  0  0  0
 14 15  1  0  0  0  0
 14 16  1  0  0  0  0
 14 17  1  0  0  0  0
 17 18  1  0  0  0  0
 17 19  1  0  0  0  0
 17 20  1  0  0  0  0
 20 21  1  0  0  0  0
 20 22  1  0  0  0  0
 20 23  1  0  0  0  0
 23 24  1  0  0  0  0
 23 25  1  0  0  0  0
 23 26  1  0  0  0  0
 26 27  1  0  0  0  0
 26 28  1  0  0  0  0
 26 29  1  0  0  0  0
M  END
> <VM2 Rank>
445

> <Conf_Id>
265

> <Probability>
0.00

> <Sum Probability>
100.00

> <Delta G>
6.358

> <G>
64.505

> <E>
26.733

> <-TS>
37.771

> <U+W>
2.589

> <U>
54.695

> <W>
-52.106

> <W(PB)>
-54.546

> <W(SA)>
2.440

> <Valence>
8.194

> <Coulomb>
45.590

> <VdW>
0.910

> <VdW6>
-10.005

> <VdW12>
10.915

> <Bond>
0.309

> <Angle>
1.847

> <Pdih>
6.039

> <Idih>
0.000

> <Tether>
0.000

$$$$
VeraChem MOL file


 29 28  0  0  0  0  0  0  0  0999 V2000     
   20.3165   18.1213   20.6289 C   0  0  0  0  0  0  0  0  0  0  0  0
   19.2942   17.7265   20.6797 H   0  0  0  0  0  0  0  0  0  0  0  0
   20.7101   17.8902   19.6307 H   0  0  0  0  0  0  0  0  0  0  0  0
   20.9327   17.5883   21.3644 H   0  0  0  0  0  0  0  0  0  0  0  0
   20.3437   19.6448   20.8809 C   0  0  0  0  0  0  0  0  0  0  0  0
   19.7002   20.1482   20.1459 H   0  0  0  0  0  0  0  0  0  0  0  0
   21.3622   20.0146   20.6978 H   0  0  0  0  0  0  0  0  0  0  0  0
   19.9181   20.0568   22.3131 C   0  0  0  0  0  0  0  0  0  0  0  0
   20.6117   19.6211   23.0428 H   0  0  0  0  0  0  0  0  0  0  0  0
   20.0404   21.1454   22.3969 H   0  0  0  0  0  0  0  0  0  0  0  0
   18.4481   19.7052   22.6694 C   0  0  0  0  0  0  0  0  0  0  0  0
   17.8464   19.7153   21.7502 H   0  0  0  0  0  0  0  0  0  0  0  0
   18.0257   20.4998   23.2995 H   0  0  0  0  0  0  0  0  0  0  0  0
   18.2665   18.3402   23.3870 C   0  0  0  0  0  0  0  0  0  0  0  0
   17.3114   17.9060   23.0608 H   0  0  0  0  0  0  0  0  0  0  0  0
   19.0401   17.6287   23.0722 H   0  0  0  0  0  0  0  0  0  0  0  0
   18.2383   18.4298   24.9346 C   0  0  0  0  0  0  0  0  0  0  0  0
   18.0182   17.4307   25.3358 H   0  0  0  0  0  0  0  0  0  0  0  0
   17.4059   19.0751   25.2481 H   0  0  0  0  0  0  0  0  0  0  0  0
   19.5535   18.9433   25.5635 C   0  0  0  0  0  0  0  0  0  0  0  0
   20.3946   18.3302   25.2138 H   0  0  0  0  0  0  0  0  0  0  0  0
   19.7434   19.9754   25.2426 H   0  0  0  0  0  0  0  0  0  0  0  0
   19.4939   18.9000   27.1003 C   0  0  0  0  0  0  0  0  0  0  0  0
   19.3210   17.8731   27.4334 H   0  0  0  0  0  0  0  0  0  0  0  0
   18.6665   19.5208   27.4543 H   0  0  0  0  0  0  0  0  0  0  0  0
   20.7655   19.3966   27.7573 N   0  3  0  0  0  0  0  0  0  0  0  0
   21.5798   18.8357   27.4857 H   0  0  0  0  0  0  0  0  0  0  0  0
   20.7047   19.3591   28.7808 H   0  0  0  0  0  0  0  0  0  0  0  0
   20.9707   20.3693   27.5057 H   0  0  0  0  0  0  0  0  0  0  0  0
  1  2  1  0  0  0  0
  1  3  1  0  0  0  0
  1  4  1  0  0  0  0
  1  5  1  0  0  0  0
  5  6  1  0  0  0  0
  5  7  1  0  0  0  0
  5  8  1  0  0  0  0
  8  9  1  0  0  0  0
  8 10  1  0  0  0  0
  8 11  1  0  0  0  0
 11 12  1  0  0  0  0
 11 13  1  0  0  0  0
 11 14  1  0  0  0  0
 14 15  1  0  0  0  0
 14 16  1  0  0  0  0
 14 17  1  0  0  0  0
 17 18  1  0  0  0  0
 17 19  1  0  0  0  0
 17 20  1  0  0  0  0
 20 21  1  0  0  0  0
 20 22  1  0  0  0  0
 20 23  1  0  0  0  0
 23 24  1  0  0  0  0
 23 25  1  0  0  0  0
 23 26  1  0  0  0  0
 26 27  1  0  0  0  0
 26 28  1  0  0  0  0
 26 29  1  0  0  0  0
M  END
> <VM2 Rank>
446

> <Conf_Id>
815

> <Probability>
0.00

> <Sum Probability>
100.00

> <Delta G>
6.363

> <G>
64.509

> <E>
26.470

> <-TS>
38.040

> <U+W>
2.325

> <U>
54.449

> <W>
-52.123

> <W(PB)>
-54.569

> <W(SA)>
2.445

> <Valence>
8.134

> <Coulomb>
45.482

> <VdW>
0.833

> <VdW6>
-10.226

> <VdW12>
11.059

> <Bond>
0.317

> <Angle>
1.635

> <Pdih>
6.182

> <Idih>
0.000

> <Tether>
0.000

$$$$
VeraChem MOL file


 29 28  0  0  0  0  0  0  0  0999 V2000     
   20.5159   18.3843   20.4311 C   0  0  0  0  0  0  0  0  0  0  0  0
   20.4676   17.6160   21.2104 H   0  0  0  0  0  0  0  0  0  0  0  0
   20.3388   17.8906   19.4669 H   0  0  0  0  0  0  0  0  0  0  0  0
   21.5370   18.7870   20.4162 H   0  0  0  0  0  0  0  0  0  0  0  0
   19.4817   19.5114   20.6588 C   0  0  0  0  0  0  0  0  0  0  0  0
   18.4604   19.1089   20.6088 H   0  0  0  0  0  0  0  0  0  0  0  0
   19.5675   20.2218   19.8246 H   0  0  0  0  0  0  0  0  0  0  0  0
   19.6923   20.2834   21.9868 C   0  0  0  0  0  0  0  0  0  0  0  0
   20.7572   20.2912   22.2573 H   0  0  0  0  0  0  0  0  0  0  0  0
   19.4233   21.3349   21.8157 H   0  0  0  0  0  0  0  0  0  0  0  0
   18.8430   19.7747   23.1801 C   0  0  0  0  0  0  0  0  0  0  0  0
   17.7769   19.8628   22.9296 H   0  0  0  0  0  0  0  0  0  0  0  0
   19.0081   20.4528   24.0251 H   0  0  0  0  0  0  0  0  0  0  0  0
   19.1481   18.3159   23.6028 C   0  0  0  0  0  0  0  0  0  0  0  0
   18.8138   17.6492   22.7973 H   0  0  0  0  0  0  0  0  0  0  0  0
   20.2314   18.1638   23.7034 H   0  0  0  0  0  0  0  0  0  0  0  0
   18.4272   17.8845   24.9064 C   0  0  0  0  0  0  0  0  0  0  0  0
   18.1896   16.8144   24.8290 H   0  0  0  0  0  0  0  0  0  0  0  0
   17.4601   18.3987   24.9949 H   0  0  0  0  0  0  0  0  0  0  0  0
   19.2610   18.0858   26.1967 C   0  0  0  0  0  0  0  0  0  0  0  0
   18.6951   17.6831   27.0473 H   0  0  0  0  0  0  0  0  0  0  0  0
   20.1849   17.4959   26.1308 H   0  0  0  0  0  0  0  0  0  0  0  0
   19.6142   19.5557   26.4837 C   0  0  0  0  0  0  0  0  0  0  0  0
   18.6993   20.1525   26.5292 H   0  0  0  0  0  0  0  0  0  0  0  0
   20.2438   19.9456   25.6799 H   0  0  0  0  0  0  0  0  0  0  0  0
   20.3607   19.7423   27.7886 N   0  3  0  0  0  0  0  0  0  0  0  0
   21.2458   19.2248   27.7994 H   0  0  0  0  0  0  0  0  0  0  0  0
   19.8118   19.4185   28.5920 H   0  0  0  0  0  0  0  0  0  0  0  0
   20.5883   20.7279   27.9599 H   0  0  0  0  0  0  0  0  0  0  0  0
  1  2  1  0  0  0  0
  1  3  1  0  0  0  0
  1  4  1  0  0  0  0
  1  5  1  0  0  0  0
  5  6  1  0  0  0  0
  5  7  1  0  0  0  0
  5  8  1  0  0  0  0
  8  9  1  0  0  0  0
  8 10  1  0  0  0  0
  8 11  1  0  0  0  0
 11 12  1  0  0  0  0
 11 13  1  0  0  0  0
 11 14  1  0  0  0  0
 14 15  1  0  0  0  0
 14 16  1  0  0  0  0
 14 17  1  0  0  0  0
 17 18  1  0  0  0  0
 17 19  1  0  0  0  0
 17 20  1  0  0  0  0
 20 21  1  0  0  0  0
 20 22  1  0  0  0  0
 20 23  1  0  0  0  0
 23 24  1  0  0  0  0
 23 25  1  0  0  0  0
 23 26  1  0  0  0  0
 26 27  1  0  0  0  0
 26 28  1  0  0  0  0
 26 29  1  0  0  0  0
M  END
> <VM2 Rank>
447

> <Conf_Id>
269

> <Probability>
0.00

> <Sum Probability>
100.00

> <Delta G>
6.384

> <G>
64.531

> <E>
26.759

> <-TS>
37.771

> <U+W>
2.615

> <U>
54.695

> <W>
-52.080

> <W(PB)>
-54.532

> <W(SA)>
2.452

> <Valence>
8.195

> <Coulomb>
45.591

> <VdW>
0.910

> <VdW6>
-10.005

> <VdW12>
10.915

> <Bond>
0.309

> <Angle>
1.846

> <Pdih>
6.039

> <Idih>
0.000

> <Tether>
0.000

$$$$
VeraChem MOL file


 29 28  0  0  0  0  0  0  0  0999 V2000     
   20.7442   17.8215   21.8185 C   0  0  0  0  0  0  0  0  0  0  0  0
   21.4610   18.6087   21.5515 H   0  0  0  0  0  0  0  0  0  0  0  0
   20.6732   17.7691   22.9115 H   0  0  0  0  0  0  0  0  0  0  0  0
   21.1520   16.8638   21.4704 H   0  0  0  0  0  0  0  0  0  0  0  0
   19.3641   18.0847   21.1776 C   0  0  0  0  0  0  0  0  0  0  0  0
   18.6552   17.3135   21.5099 H   0  0  0  0  0  0  0  0  0  0  0  0
   19.4536   17.9664   20.0887 H   0  0  0  0  0  0  0  0  0  0  0  0
   18.7792   19.4897   21.4726 C   0  0  0  0  0  0  0  0  0  0  0  0
   19.4349   20.2672   21.0570 H   0  0  0  0  0  0  0  0  0  0  0  0
   17.8321   19.5754   20.9221 H   0  0  0  0  0  0  0  0  0  0  0  0
   18.4937   19.7689   22.9708 C   0  0  0  0  0  0  0  0  0  0  0  0
   18.2394   18.8310   23.4773 H   0  0  0  0  0  0  0  0  0  0  0  0
   17.5955   20.3978   23.0404 H   0  0  0  0  0  0  0  0  0  0  0  0
   19.6520   20.5106   23.6883 C   0  0  0  0  0  0  0  0  0  0  0  0
   20.6056   19.9864   23.5547 H   0  0  0  0  0  0  0  0  0  0  0  0
   19.7795   21.4868   23.2004 H   0  0  0  0  0  0  0  0  0  0  0  0
   19.3940   20.7527   25.1980 C   0  0  0  0  0  0  0  0  0  0  0  0
   18.3231   20.9182   25.3802 H   0  0  0  0  0  0  0  0  0  0  0  0
   19.8933   21.6886   25.4848 H   0  0  0  0  0  0  0  0  0  0  0  0
   19.9288   19.6340   26.1272 C   0  0  0  0  0  0  0  0  0  0  0  0
   21.0138   19.5327   25.9913 H   0  0  0  0  0  0  0  0  0  0  0  0
   19.7736   19.9403   27.1702 H   0  0  0  0  0  0  0  0  0  0  0  0
   19.2569   18.2678   25.9044 C   0  0  0  0  0  0  0  0  0  0  0  0
   19.4728   17.9126   24.8940 H   0  0  0  0  0  0  0  0  0  0  0  0
   18.1737   18.3674   26.0141 H   0  0  0  0  0  0  0  0  0  0  0  0
   19.7311   17.2082   26.8776 N   0  3  0  0  0  0  0  0  0  0  0  0
   20.7416   17.0493   26.8066 H   0  0  0  0  0  0  0  0  0  0  0  0
   19.2735   16.3052   26.7108 H   0  0  0  0  0  0  0  0  0  0  0  0
   19.5339   17.4677   27.8498 H   0  0  0  0  0  0  0  0  0  0  0  0
  1  2  1  0  0  0  0
  1  3  1  0  0  0  0
  1  4  1  0  0  0  0
  1  5  1  0  0  0  0
  5  6  1  0  0  0  0
  5  7  1  0  0  0  0
  5  8  1  0  0  0  0
  8  9  1  0  0  0  0
  8 10  1  0  0  0  0
  8 11  1  0  0  0  0
 11 12  1  0  0  0  0
 11 13  1  0  0  0  0
 11 14  1  0  0  0  0
 14 15  1  0  0  0  0
 14 16  1  0  0  0  0
 14 17  1  0  0  0  0
 17 18  1  0  0  0  0
 17 19  1  0  0  0  0
 17 20  1  0  0  0  0
 20 21  1  0  0  0  0
 20 22  1  0  0  0  0
 20 23  1  0  0  0  0
 23 24  1  0  0  0  0
 23 25  1  0  0  0  0
 23 26  1  0  0  0  0
 26 27  1  0  0  0  0
 26 28  1  0  0  0  0
 26 29  1  0  0  0  0
M  END
> <VM2 Rank>
448

> <Conf_Id>
1317

> <Probability>
0.00

> <Sum Probability>
100.00

> <Delta G>
6.408

> <G>
64.554

> <E>
26.451

> <-TS>
38.103

> <U+W>
2.306

> <U>
54.948

> <W>
-52.642

> <W(PB)>
-55.027

> <W(SA)>
2.384

> <Valence>
8.055

> <Coulomb>
46.364

> <VdW>
0.529

> <VdW6>
-10.581

> <VdW12>
11.110

> <Bond>
0.311

> <Angle>
1.872

> <Pdih>
5.872

> <Idih>
0.000

> <Tether>
0.000

$$$$
VeraChem MOL file


 29 28  0  0  0  0  0  0  0  0999 V2000     
   19.9305   17.1795   21.1515 C   0  0  0  0  0  0  0  0  0  0  0  0
   20.1882   17.4309   20.1143 H   0  0  0  0  0  0  0  0  0  0  0  0
   20.8632   16.9985   21.7015 H   0  0  0  0  0  0  0  0  0  0  0  0
   19.3591   16.2423   21.1392 H   0  0  0  0  0  0  0  0  0  0  0  0
   19.1101   18.3092   21.8086 C   0  0  0  0  0  0  0  0  0  0  0  0
   18.8332   18.0069   22.8251 H   0  0  0  0  0  0  0  0  0  0  0  0
   18.1687   18.4414   21.2572 H   0  0  0  0  0  0  0  0  0  0  0  0
   19.8909   19.6455   21.8249 C   0  0  0  0  0  0  0  0  0  0  0  0
   20.8765   19.5173   22.2915 H   0  0  0  0  0  0  0  0  0  0  0  0
   20.0895   19.9320   20.7828 H   0  0  0  0  0  0  0  0  0  0  0  0
   19.1220   20.8039   22.5103 C   0  0  0  0  0  0  0  0  0  0  0  0
   18.0398   20.6777   22.3694 H   0  0  0  0  0  0  0  0  0  0  0  0
   19.3784   21.7327   21.9820 H   0  0  0  0  0  0  0  0  0  0  0  0
   19.4422   21.0291   24.0132 C   0  0  0  0  0  0  0  0  0  0  0  0
   20.5135   21.2346   24.1445 H   0  0  0  0  0  0  0  0  0  0  0  0
   18.9290   21.9515   24.3187 H   0  0  0  0  0  0  0  0  0  0  0  0
   18.9907   19.8988   24.9729 C   0  0  0  0  0  0  0  0  0  0  0  0
   18.1023   19.3941   24.5704 H   0  0  0  0  0  0  0  0  0  0  0  0
   18.6716   20.3609   25.9167 H   0  0  0  0  0  0  0  0  0  0  0  0
   20.1113   18.8751   25.2875 C   0  0  0  0  0  0  0  0  0  0  0  0
   20.5315   18.4723   24.3596 H   0  0  0  0  0  0  0  0  0  0  0  0
   20.9390   19.3775   25.8055 H   0  0  0  0  0  0  0  0  0  0  0  0
   19.6129   17.6951   26.1434 C   0  0  0  0  0  0  0  0  0  0  0  0
   20.4237   16.9732   26.2736 H   0  0  0  0  0  0  0  0  0  0  0  0
   18.7874   17.1927   25.6319 H   0  0  0  0  0  0  0  0  0  0  0  0
   19.1334   18.1018   27.5227 N   0  3  0  0  0  0  0  0  0  0  0  0
   19.8743   18.5606   28.0629 H   0  0  0  0  0  0  0  0  0  0  0  0
   18.8193   17.2933   28.0706 H   0  0  0  0  0  0  0  0  0  0  0  0
   18.3457   18.7554   27.4725 H   0  0  0  0  0  0  0  0  0  0  0  0
  1  2  1  0  0  0  0
  1  3  1  0  0  0  0
  1  4  1  0  0  0  0
  1  5  1  0  0  0  0
  5  6  1  0  0  0  0
  5  7  1  0  0  0  0
  5  8  1  0  0  0  0
  8  9  1  0  0  0  0
  8 10  1  0  0  0  0
  8 11  1  0  0  0  0
 11 12  1  0  0  0  0
 11 13  1  0  0  0  0
 11 14  1  0  0  0  0
 14 15  1  0  0  0  0
 14 16  1  0  0  0  0
 14 17  1  0  0  0  0
 17 18  1  0  0  0  0
 17 19  1  0  0  0  0
 17 20  1  0  0  0  0
 20 21  1  0  0  0  0
 20 22  1  0  0  0  0
 20 23  1  0  0  0  0
 23 24  1  0  0  0  0
 23 25  1  0  0  0  0
 23 26  1  0  0  0  0
 26 27  1  0  0  0  0
 26 28  1  0  0  0  0
 26 29  1  0  0  0  0
M  END
> <VM2 Rank>
449

> <Conf_Id>
2553

> <Probability>
0.00

> <Sum Probability>
100.00

> <Delta G>
6.458

> <G>
64.605

> <E>
26.379

> <-TS>
38.226

> <U+W>
2.234

> <U>
54.669

> <W>
-52.435

> <W(PB)>
-54.812

> <W(SA)>
2.377

> <Valence>
8.314

> <Coulomb>
45.816

> <VdW>
0.539

> <VdW6>
-10.654

> <VdW12>
11.193

> <Bond>
0.310

> <Angle>
1.974

> <Pdih>
6.030

> <Idih>
0.000

> <Tether>
0.000

$$$$
VeraChem MOL file


 29 28  0  0  0  0  0  0  0  0999 V2000     
   19.2865   18.1021   20.3527 C   0  0  0  0  0  0  0  0  0  0  0  0
   18.3503   18.6716   20.4063 H   0  0  0  0  0  0  0  0  0  0  0  0
   20.0210   18.6985   19.7960 H   0  0  0  0  0  0  0  0  0  0  0  0
   19.0862   17.1908   19.7746 H   0  0  0  0  0  0  0  0  0  0  0  0
   19.8138   17.7449   21.7607 C   0  0  0  0  0  0  0  0  0  0  0  0
   20.6826   17.0801   21.6563 H   0  0  0  0  0  0  0  0  0  0  0  0
   19.0510   17.1713   22.3054 H   0  0  0  0  0  0  0  0  0  0  0  0
   20.2306   18.9817   22.5919 C   0  0  0  0  0  0  0  0  0  0  0  0
   20.6883   18.6346   23.5256 H   0  0  0  0  0  0  0  0  0  0  0  0
   21.0180   19.5316   22.0585 H   0  0  0  0  0  0  0  0  0  0  0  0
   19.0521   19.9407   22.8999 C   0  0  0  0  0  0  0  0  0  0  0  0
   18.1761   19.3838   23.2579 H   0  0  0  0  0  0  0  0  0  0  0  0
   18.7412   20.4169   21.9604 H   0  0  0  0  0  0  0  0  0  0  0  0
   19.4238   21.0580   23.9078 C   0  0  0  0  0  0  0  0  0  0  0  0
   20.4972   21.2841   23.8455 H   0  0  0  0  0  0  0  0  0  0  0  0
   18.9131   21.9787   23.5933 H   0  0  0  0  0  0  0  0  0  0  0  0
   19.0210   20.7891   25.3833 C   0  0  0  0  0  0  0  0  0  0  0  0
   17.9316   20.6667   25.4586 H   0  0  0  0  0  0  0  0  0  0  0  0
   19.2559   21.6959   25.9577 H   0  0  0  0  0  0  0  0  0  0  0  0
   19.7334   19.5962   26.0676 C   0  0  0  0  0  0  0  0  0  0  0  0
   20.7875   19.5614   25.7632 H   0  0  0  0  0  0  0  0  0  0  0  0
   19.7316   19.7656   27.1526 H   0  0  0  0  0  0  0  0  0  0  0  0
   19.0454   18.2444   25.7958 C   0  0  0  0  0  0  0  0  0  0  0  0
   19.0254   18.0406   24.7236 H   0  0  0  0  0  0  0  0  0  0  0  0
   18.0137   18.2796   26.1560 H   0  0  0  0  0  0  0  0  0  0  0  0
   19.7374   17.0808   26.4753 N   0  3  0  0  0  0  0  0  0  0  0  0
   20.7074   16.9761   26.1606 H   0  0  0  0  0  0  0  0  0  0  0  0
   19.2627   16.1915   26.2852 H   0  0  0  0  0  0  0  0  0  0  0  0
   19.7612   17.1944   27.4941 H   0  0  0  0  0  0  0  0  0  0  0  0
  1  2  1  0  0  0  0
  1  3  1  0  0  0  0
  1  4  1  0  0  0  0
  1  5  1  0  0  0  0
  5  6  1  0  0  0  0
  5  7  1  0  0  0  0
  5  8  1  0  0  0  0
  8  9  1  0  0  0  0
  8 10  1  0  0  0  0
  8 11  1  0  0  0  0
 11 12  1  0  0  0  0
 11 13  1  0  0  0  0
 11 14  1  0  0  0  0
 14 15  1  0  0  0  0
 14 16  1  0  0  0  0
 14 17  1  0  0  0  0
 17 18  1  0  0  0  0
 17 19  1  0  0  0  0
 17 20  1  0  0  0  0
 20 21  1  0  0  0  0
 20 22  1  0  0  0  0
 20 23  1  0  0  0  0
 23 24  1  0  0  0  0
 23 25  1  0  0  0  0
 23 26  1  0  0  0  0
 26 27  1  0  0  0  0
 26 28  1  0  0  0  0
 26 29  1  0  0  0  0
M  END
> <VM2 Rank>
450

> <Conf_Id>
1664

> <Probability>
0.00

> <Sum Probability>
100.00

> <Delta G>
6.467

> <G>
64.613

> <E>
26.326

> <-TS>
38.288

> <U+W>
2.181

> <U>
55.153

> <W>
-52.972

> <W(PB)>
-55.365

> <W(SA)>
2.393

> <Valence>
7.994

> <Coulomb>
46.762

> <VdW>
0.397

> <VdW6>
-11.059

> <VdW12>
11.456

> <Bond>
0.302

> <Angle>
1.955

> <Pdih>
5.737

> <Idih>
0.000

> <Tether>
0.000

$$$$
VeraChem MOL file


 29 28  0  0  0  0  0  0  0  0999 V2000     
   21.0566   20.3421   21.2222 C   0  0  0  0  0  0  0  0  0  0  0  0
   21.8860   19.8711   21.7657 H   0  0  0  0  0  0  0  0  0  0  0  0
   21.1121   20.0260   20.1724 H   0  0  0  0  0  0  0  0  0  0  0  0
   21.2060   21.4291   21.2553 H   0  0  0  0  0  0  0  0  0  0  0  0
   19.6977   19.9597   21.8455 C   0  0  0  0  0  0  0  0  0  0  0  0
   18.8924   20.4739   21.3027 H   0  0  0  0  0  0  0  0  0  0  0  0
   19.6598   20.3283   22.8770 H   0  0  0  0  0  0  0  0  0  0  0  0
   19.4585   18.4313   21.7977 C   0  0  0  0  0  0  0  0  0  0  0  0
   19.4461   18.1254   20.7424 H   0  0  0  0  0  0  0  0  0  0  0  0
   20.2969   17.8894   22.2550 H   0  0  0  0  0  0  0  0  0  0  0  0
   18.1212   17.9930   22.4475 C   0  0  0  0  0  0  0  0  0  0  0  0
   17.7406   17.1329   21.8793 H   0  0  0  0  0  0  0  0  0  0  0  0
   17.3640   18.7799   22.3271 H   0  0  0  0  0  0  0  0  0  0  0  0
   18.2059   17.5568   23.9357 C   0  0  0  0  0  0  0  0  0  0  0  0
   17.2212   17.1547   24.2115 H   0  0  0  0  0  0  0  0  0  0  0  0
   18.9046   16.7157   24.0435 H   0  0  0  0  0  0  0  0  0  0  0  0
   18.5565   18.6790   24.9457 C   0  0  0  0  0  0  0  0  0  0  0  0
   18.0039   18.4854   25.8748 H   0  0  0  0  0  0  0  0  0  0  0  0
   18.1924   19.6469   24.5761 H   0  0  0  0  0  0  0  0  0  0  0  0
   20.0673   18.7512   25.2847 C   0  0  0  0  0  0  0  0  0  0  0  0
   20.3841   17.8189   25.7707 H   0  0  0  0  0  0  0  0  0  0  0  0
   20.6605   18.8343   24.3677 H   0  0  0  0  0  0  0  0  0  0  0  0
   20.4142   19.9457   26.1936 C   0  0  0  0  0  0  0  0  0  0  0  0
   20.0992   20.8764   25.7141 H   0  0  0  0  0  0  0  0  0  0  0  0
   21.4969   19.9872   26.3410 H   0  0  0  0  0  0  0  0  0  0  0  0
   19.7661   19.8792   27.5624 N   0  3  0  0  0  0  0  0  0  0  0  0
   18.7434   19.8728   27.4973 H   0  0  0  0  0  0  0  0  0  0  0  0
   20.0256   20.6819   28.1461 H   0  0  0  0  0  0  0  0  0  0  0  0
   20.0429   19.0346   28.0735 H   0  0  0  0  0  0  0  0  0  0  0  0
  1  2  1  0  0  0  0
  1  3  1  0  0  0  0
  1  4  1  0  0  0  0
  1  5  1  0  0  0  0
  5  6  1  0  0  0  0
  5  7  1  0  0  0  0
  5  8  1  0  0  0  0
  8  9  1  0  0  0  0
  8 10  1  0  0  0  0
  8 11  1  0  0  0  0
 11 12  1  0  0  0  0
 11 13  1  0  0  0  0
 11 14  1  0  0  0  0
 14 15  1  0  0  0  0
 14 16  1  0  0  0  0
 14 17  1  0  0  0  0
 17 18  1  0  0  0  0
 17 19  1  0  0  0  0
 17 20  1  0  0  0  0
 20 21  1  0  0  0  0
 20 22  1  0  0  0  0
 20 23  1  0  0  0  0
 23 24  1  0  0  0  0
 23 25  1  0  0  0  0
 23 26  1  0  0  0  0
 26 27  1  0  0  0  0
 26 28  1  0  0  0  0
 26 29  1  0  0  0  0
M  END
> <VM2 Rank>
451

> <Conf_Id>
2881

> <Probability>
0.00

> <Sum Probability>
100.00

> <Delta G>
6.501

> <G>
64.648

> <E>
26.422

> <-TS>
38.226

> <U+W>
2.277

> <U>
54.669

> <W>
-52.392

> <W(PB)>
-54.784

> <W(SA)>
2.392

> <Valence>
8.314

> <Coulomb>
45.816

> <VdW>
0.539

> <VdW6>
-10.655

> <VdW12>
11.194

> <Bond>
0.310

> <Angle>
1.974

> <Pdih>
6.030

> <Idih>
0.000

> <Tether>
0.000

$$$$
VeraChem MOL file


 29 28  0  0  0  0  0  0  0  0999 V2000     
   20.0782   17.4210   21.5134 C   0  0  0  0  0  0  0  0  0  0  0  0
   19.2724   17.2430   22.2360 H   0  0  0  0  0  0  0  0  0  0  0  0
   20.1281   16.5431   20.8565 H   0  0  0  0  0  0  0  0  0  0  0  0
   21.0296   17.4883   22.0566 H   0  0  0  0  0  0  0  0  0  0  0  0
   19.8171   18.6986   20.6861 C   0  0  0  0  0  0  0  0  0  0  0  0
   18.8301   18.6274   20.2081 H   0  0  0  0  0  0  0  0  0  0  0  0
   20.5489   18.7432   19.8674 H   0  0  0  0  0  0  0  0  0  0  0  0
   19.9074   20.0164   21.4974 C   0  0  0  0  0  0  0  0  0  0  0  0
   20.9232   20.1464   21.8951 H   0  0  0  0  0  0  0  0  0  0  0  0
   19.7566   20.8473   20.7944 H   0  0  0  0  0  0  0  0  0  0  0  0
   18.8617   20.1514   22.6348 C   0  0  0  0  0  0  0  0  0  0  0  0
   17.9529   19.5893   22.3793 H   0  0  0  0  0  0  0  0  0  0  0  0
   18.5582   21.2052   22.7038 H   0  0  0  0  0  0  0  0  0  0  0  0
   19.3980   19.7115   24.0188 C   0  0  0  0  0  0  0  0  0  0  0  0
   19.7466   18.6759   23.9643 H   0  0  0  0  0  0  0  0  0  0  0  0
   20.2646   20.3320   24.2856 H   0  0  0  0  0  0  0  0  0  0  0  0
   18.3152   19.8356   25.1165 C   0  0  0  0  0  0  0  0  0  0  0  0
   17.4964   19.1345   24.9033 H   0  0  0  0  0  0  0  0  0  0  0  0
   17.8762   20.8419   25.0719 H   0  0  0  0  0  0  0  0  0  0  0  0
   18.8337   19.5991   26.5580 C   0  0  0  0  0  0  0  0  0  0  0  0
   19.6097   20.3338   26.8107 H   0  0  0  0  0  0  0  0  0  0  0  0
   18.0022   19.7890   27.2497 H   0  0  0  0  0  0  0  0  0  0  0  0
   19.3508   18.1705   26.8262 C   0  0  0  0  0  0  0  0  0  0  0  0
   18.7065   17.4423   26.3263 H   0  0  0  0  0  0  0  0  0  0  0  0
   19.3139   17.9745   27.9013 H   0  0  0  0  0  0  0  0  0  0  0  0
   20.7817   17.9340   26.3837 N   0  3  0  0  0  0  0  0  0  0  0  0
   20.9000   18.0952   25.3795 H   0  0  0  0  0  0  0  0  0  0  0  0
   21.0848   16.9728   26.5757 H   0  0  0  0  0  0  0  0  0  0  0  0
   21.4358   18.5563   26.8700 H   0  0  0  0  0  0  0  0  0  0  0  0
  1  2  1  0  0  0  0
  1  3  1  0  0  0  0
  1  4  1  0  0  0  0
  1  5  1  0  0  0  0
  5  6  1  0  0  0  0
  5  7  1  0  0  0  0
  5  8  1  0  0  0  0
  8  9  1  0  0  0  0
  8 10  1  0  0  0  0
  8 11  1  0  0  0  0
 11 12  1  0  0  0  0
 11 13  1  0  0  0  0
 11 14  1  0  0  0  0
 14 15  1  0  0  0  0
 14 16  1  0  0  0  0
 14 17  1  0  0  0  0
 17 18  1  0  0  0  0
 17 19  1  0  0  0  0
 17 20  1  0  0  0  0
 20 21  1  0  0  0  0
 20 22  1  0  0  0  0
 20 23  1  0  0  0  0
 23 24  1  0  0  0  0
 23 25  1  0  0  0  0
 23 26  1  0  0  0  0
 26 27  1  0  0  0  0
 26 28  1  0  0  0  0
 26 29  1  0  0  0  0
M  END
> <VM2 Rank>
452

> <Conf_Id>
2254

> <Probability>
0.00

> <Sum Probability>
100.00

> <Delta G>
6.533

> <G>
64.679

> <E>
26.977

> <-TS>
37.702

> <U+W>
2.832

> <U>
55.032

> <W>
-52.200

> <W(PB)>
-54.591

> <W(SA)>
2.391

> <Valence>
7.133

> <Coulomb>
47.193

> <VdW>
0.706

> <VdW6>
-10.154

> <VdW12>
10.860

> <Bond>
0.291

> <Angle>
1.686

> <Pdih>
5.156

> <Idih>
0.000

> <Tether>
0.000

$$$$
VeraChem MOL file


 29 28  0  0  0  0  0  0  0  0999 V2000     
   21.1682   20.1873   21.8412 C   0  0  0  0  0  0  0  0  0  0  0  0
   21.7859   19.9466   22.7159 H   0  0  0  0  0  0  0  0  0  0  0  0
   21.8329   20.5814   21.0616 H   0  0  0  0  0  0  0  0  0  0  0  0
   20.4744   20.9901   22.1187 H   0  0  0  0  0  0  0  0  0  0  0  0
   20.4190   18.9363   21.3288 C   0  0  0  0  0  0  0  0  0  0  0  0
   21.1581   18.2039   20.9753 H   0  0  0  0  0  0  0  0  0  0  0  0
   19.8069   19.2014   20.4554 H   0  0  0  0  0  0  0  0  0  0  0  0
   19.5332   18.2670   22.4065 C   0  0  0  0  0  0  0  0  0  0  0  0
   19.1766   17.3049   22.0137 H   0  0  0  0  0  0  0  0  0  0  0  0
   20.1468   18.0243   23.2817 H   0  0  0  0  0  0  0  0  0  0  0  0
   18.3043   19.1220   22.8112 C   0  0  0  0  0  0  0  0  0  0  0  0
   17.6872   19.2712   21.9144 H   0  0  0  0  0  0  0  0  0  0  0  0
   18.6018   20.1259   23.1375 H   0  0  0  0  0  0  0  0  0  0  0  0
   17.4299   18.4526   23.9022 C   0  0  0  0  0  0  0  0  0  0  0  0
   16.3783   18.6771   23.6760 H   0  0  0  0  0  0  0  0  0  0  0  0
   17.5146   17.3590   23.8393 H   0  0  0  0  0  0  0  0  0  0  0  0
   17.6985   18.9225   25.3577 C   0  0  0  0  0  0  0  0  0  0  0  0
   16.9594   18.4285   26.0035 H   0  0  0  0  0  0  0  0  0  0  0  0
   17.4959   19.9988   25.4479 H   0  0  0  0  0  0  0  0  0  0  0  0
   19.1073   18.6037   25.9165 C   0  0  0  0  0  0  0  0  0  0  0  0
   19.0426   18.5409   27.0109 H   0  0  0  0  0  0  0  0  0  0  0  0
   19.4357   17.6152   25.5700 H   0  0  0  0  0  0  0  0  0  0  0  0
   20.1528   19.6785   25.5620 C   0  0  0  0  0  0  0  0  0  0  0  0
   19.8386   20.6434   25.9689 H   0  0  0  0  0  0  0  0  0  0  0  0
   20.2377   19.7771   24.4783 H   0  0  0  0  0  0  0  0  0  0  0  0
   21.5309   19.3680   26.1089 N   0  3  0  0  0  0  0  0  0  0  0  0
   21.8969   18.4829   25.7432 H   0  0  0  0  0  0  0  0  0  0  0  0
   21.5259   19.2928   27.1315 H   0  0  0  0  0  0  0  0  0  0  0  0
   22.2103   20.0975   25.8669 H   0  0  0  0  0  0  0  0  0  0  0  0
  1  2  1  0  0  0  0
  1  3  1  0  0  0  0
  1  4  1  0  0  0  0
  1  5  1  0  0  0  0
  5  6  1  0  0  0  0
  5  7  1  0  0  0  0
  5  8  1  0  0  0  0
  8  9  1  0  0  0  0
  8 10  1  0  0  0  0
  8 11  1  0  0  0  0
 11 12  1  0  0  0  0
 11 13  1  0  0  0  0
 11 14  1  0  0  0  0
 14 15  1  0  0  0  0
 14 16  1  0  0  0  0
 14 17  1  0  0  0  0
 17 18  1  0  0  0  0
 17 19  1  0  0  0  0
 17 20  1  0  0  0  0
 20 21  1  0  0  0  0
 20 22  1  0  0  0  0
 20 23  1  0  0  0  0
 23 24  1  0  0  0  0
 23 25  1  0  0  0  0
 23 26  1  0  0  0  0
 26 27  1  0  0  0  0
 26 28  1  0  0  0  0
 26 29  1  0  0  0  0
M  END
> <VM2 Rank>
453

> <Conf_Id>
1628

> <Probability>
0.00

> <Sum Probability>
100.00

> <Delta G>
6.635

> <G>
64.781

> <E>
26.297

> <-TS>
38.485

> <U+W>
2.152

> <U>
55.257

> <W>
-53.105

> <W(PB)>
-55.450

> <W(SA)>
2.345

> <Valence>
8.021

> <Coulomb>
47.172

> <VdW>
0.064

> <VdW6>
-11.633

> <VdW12>
11.697

> <Bond>
0.307

> <Angle>
2.028

> <Pdih>
5.686

> <Idih>
0.000

> <Tether>
0.000

$$$$
VeraChem MOL file


 29 28  0  0  0  0  0  0  0  0999 V2000     
   20.8605   18.8033   20.6930 C   0  0  0  0  0  0  0  0  0  0  0  0
   21.4186   18.1941   21.4156 H   0  0  0  0  0  0  0  0  0  0  0  0
   21.3036   18.6389   19.7023 H   0  0  0  0  0  0  0  0  0  0  0  0
   21.0027   19.8613   20.9463 H   0  0  0  0  0  0  0  0  0  0  0  0
   19.3634   18.4237   20.6849 C   0  0  0  0  0  0  0  0  0  0  0  0
   19.2619   17.3965   20.3077 H   0  0  0  0  0  0  0  0  0  0  0  0
   18.8278   19.0646   19.9708 H   0  0  0  0  0  0  0  0  0  0  0  0
   18.6814   18.5101   22.0739 C   0  0  0  0  0  0  0  0  0  0  0  0
   17.6477   18.1556   21.9604 H   0  0  0  0  0  0  0  0  0  0  0  0
   19.1639   17.8082   22.7654 H   0  0  0  0  0  0  0  0  0  0  0  0
   18.6400   19.9401   22.6781 C   0  0  0  0  0  0  0  0  0  0  0  0
   17.6952   20.0794   23.2212 H   0  0  0  0  0  0  0  0  0  0  0  0
   18.6129   20.6723   21.8595 H   0  0  0  0  0  0  0  0  0  0  0  0
   19.8233   20.2735   23.6267 C   0  0  0  0  0  0  0  0  0  0  0  0
   20.7234   19.7172   23.3366 H   0  0  0  0  0  0  0  0  0  0  0  0
   20.0753   21.3354   23.4996 H   0  0  0  0  0  0  0  0  0  0  0  0
   19.5262   20.0371   25.1299 C   0  0  0  0  0  0  0  0  0  0  0  0
   18.6773   20.6637   25.4369 H   0  0  0  0  0  0  0  0  0  0  0  0
   20.3913   20.3899   25.7066 H   0  0  0  0  0  0  0  0  0  0  0  0
   19.2339   18.5605   25.4924 C   0  0  0  0  0  0  0  0  0  0  0  0
   18.3356   18.2226   24.9606 H   0  0  0  0  0  0  0  0  0  0  0  0
   20.0613   17.9197   25.1602 H   0  0  0  0  0  0  0  0  0  0  0  0
   18.9974   18.3543   27.0009 C   0  0  0  0  0  0  0  0  0  0  0  0
   18.6986   17.3183   27.1824 H   0  0  0  0  0  0  0  0  0  0  0  0
   18.1882   19.0070   27.3393 H   0  0  0  0  0  0  0  0  0  0  0  0
   20.2179   18.6353   27.8552 N   0  3  0  0  0  0  0  0  0  0  0  0
   21.0083   18.0347   27.5987 H   0  0  0  0  0  0  0  0  0  0  0  0
   20.0304   18.4756   28.8511 H   0  0  0  0  0  0  0  0  0  0  0  0
   20.5317   19.6063   27.7607 H   0  0  0  0  0  0  0  0  0  0  0  0
  1  2  1  0  0  0  0
  1  3  1  0  0  0  0
  1  4  1  0  0  0  0
  1  5  1  0  0  0  0
  5  6  1  0  0  0  0
  5  7  1  0  0  0  0
  5  8  1  0  0  0  0
  8  9  1  0  0  0  0
  8 10  1  0  0  0  0
  8 11  1  0  0  0  0
 11 12  1  0  0  0  0
 11 13  1  0  0  0  0
 11 14  1  0  0  0  0
 14 15  1  0  0  0  0
 14 16  1  0  0  0  0
 14 17  1  0  0  0  0
 17 18  1  0  0  0  0
 17 19  1  0  0  0  0
 17 20  1  0  0  0  0
 20 21  1  0  0  0  0
 20 22  1  0  0  0  0
 20 23  1  0  0  0  0
 23 24  1  0  0  0  0
 23 25  1  0  0  0  0
 23 26  1  0  0  0  0
 26 27  1  0  0  0  0
 26 28  1  0  0  0  0
 26 29  1  0  0  0  0
M  END
> <VM2 Rank>
454

> <Conf_Id>
2259

> <Probability>
0.00

> <Sum Probability>
100.00

> <Delta G>
6.649

> <G>
64.796

> <E>
26.659

> <-TS>
38.137

> <U+W>
2.514

> <U>
54.607

> <W>
-52.093

> <W(PB)>
-54.496

> <W(SA)>
2.403

> <Valence>
8.265

> <Coulomb>
45.348

> <VdW>
0.995

> <VdW6>
-10.708

> <VdW12>
11.703

> <Bond>
0.341

> <Angle>
1.684

> <Pdih>
6.240

> <Idih>
0.000

> <Tether>
0.000

$$$$
VeraChem MOL file


 29 28  0  0  0  0  0  0  0  0999 V2000     
   20.6573   19.7213   20.7755 C   0  0  0  0  0  0  0  0  0  0  0  0
   21.1220   19.9706   21.7376 H   0  0  0  0  0  0  0  0  0  0  0  0
   20.9477   18.6990   20.5012 H   0  0  0  0  0  0  0  0  0  0  0  0
   21.0746   20.4024   20.0226 H   0  0  0  0  0  0  0  0  0  0  0  0
   19.1210   19.8647   20.8406 C   0  0  0  0  0  0  0  0  0  0  0  0
   18.7127   19.7477   19.8271 H   0  0  0  0  0  0  0  0  0  0  0  0
   18.8639   20.8855   21.1563 H   0  0  0  0  0  0  0  0  0  0  0  0
   18.4238   18.8425   21.7743 C   0  0  0  0  0  0  0  0  0  0  0  0
   17.3405   19.0089   21.6962 H   0  0  0  0  0  0  0  0  0  0  0  0
   18.5935   17.8198   21.4103 H   0  0  0  0  0  0  0  0  0  0  0  0
   18.8245   18.9562   23.2681 C   0  0  0  0  0  0  0  0  0  0  0  0
   17.9345   18.7395   23.8722 H   0  0  0  0  0  0  0  0  0  0  0  0
   19.1179   19.9890   23.5003 H   0  0  0  0  0  0  0  0  0  0  0  0
   19.9429   17.9663   23.6789 C   0  0  0  0  0  0  0  0  0  0  0  0
   19.5495   16.9412   23.6406 H   0  0  0  0  0  0  0  0  0  0  0  0
   20.7553   17.9997   22.9432 H   0  0  0  0  0  0  0  0  0  0  0  0
   20.5554   18.2309   25.0785 C   0  0  0  0  0  0  0  0  0  0  0  0
   21.0375   19.2168   25.0959 H   0  0  0  0  0  0  0  0  0  0  0  0
   21.3679   17.5055   25.2230 H   0  0  0  0  0  0  0  0  0  0  0  0
   19.5688   18.0819   26.2677 C   0  0  0  0  0  0  0  0  0  0  0  0
   18.9061   17.2243   26.0916 H   0  0  0  0  0  0  0  0  0  0  0  0
   20.1399   17.8392   27.1737 H   0  0  0  0  0  0  0  0  0  0  0  0
   18.7174   19.3352   26.5610 C   0  0  0  0  0  0  0  0  0  0  0  0
   18.0142   19.1107   27.3676 H   0  0  0  0  0  0  0  0  0  0  0  0
   18.1395   19.6179   25.6797 H   0  0  0  0  0  0  0  0  0  0  0  0
   19.5329   20.5390   26.9903 N   0  3  0  0  0  0  0  0  0  0  0  0
   20.0783   20.3459   27.8367 H   0  0  0  0  0  0  0  0  0  0  0  0
   18.9375   21.3488   27.1955 H   0  0  0  0  0  0  0  0  0  0  0  0
   20.1941   20.8276   26.2628 H   0  0  0  0  0  0  0  0  0  0  0  0
  1  2  1  0  0  0  0
  1  3  1  0  0  0  0
  1  4  1  0  0  0  0
  1  5  1  0  0  0  0
  5  6  1  0  0  0  0
  5  7  1  0  0  0  0
  5  8  1  0  0  0  0
  8  9  1  0  0  0  0
  8 10  1  0  0  0  0
  8 11  1  0  0  0  0
 11 12  1  0  0  0  0
 11 13  1  0  0  0  0
 11 14  1  0  0  0  0
 14 15  1  0  0  0  0
 14 16  1  0  0  0  0
 14 17  1  0  0  0  0
 17 18  1  0  0  0  0
 17 19  1  0  0  0  0
 17 20  1  0  0  0  0
 20 21  1  0  0  0  0
 20 22  1  0  0  0  0
 20 23  1  0  0  0  0
 23 24  1  0  0  0  0
 23 25  1  0  0  0  0
 23 26  1  0  0  0  0
 26 27  1  0  0  0  0
 26 28  1  0  0  0  0
 26 29  1  0  0  0  0
M  END
> <VM2 Rank>
455

> <Conf_Id>
2303

> <Probability>
0.00

> <Sum Probability>
100.00

> <Delta G>
6.697

> <G>
64.843

> <E>
26.835

> <-TS>
38.008

> <U+W>
2.691

> <U>
55.224

> <W>
-52.534

> <W(PB)>
-54.938

> <W(SA)>
2.404

> <Valence>
8.119

> <Coulomb>
46.279

> <VdW>
0.827

> <VdW6>
-10.855

> <VdW12>
11.682

> <Bond>
0.330

> <Angle>
2.068

> <Pdih>
5.721

> <Idih>
0.000

> <Tether>
0.000

$$$$
VeraChem MOL file


 29 28  0  0  0  0  0  0  0  0999 V2000     
   20.6076   19.7637   19.8552 C   0  0  0  0  0  0  0  0  0  0  0  0
   21.6564   19.7400   20.1789 H   0  0  0  0  0  0  0  0  0  0  0  0
   20.3972   18.8348   19.3091 H   0  0  0  0  0  0  0  0  0  0  0  0
   20.4898   20.6006   19.1547 H   0  0  0  0  0  0  0  0  0  0  0  0
   19.6583   19.9249   21.0612 C   0  0  0  0  0  0  0  0  0  0  0  0
   18.6205   19.9797   20.7035 H   0  0  0  0  0  0  0  0  0  0  0  0
   19.8700   20.8776   21.5666 H   0  0  0  0  0  0  0  0  0  0  0  0
   19.8036   18.7583   22.0629 C   0  0  0  0  0  0  0  0  0  0  0  0
   19.5910   17.8087   21.5524 H   0  0  0  0  0  0  0  0  0  0  0  0
   20.8439   18.7040   22.4119 H   0  0  0  0  0  0  0  0  0  0  0  0
   18.8550   18.9170   23.2722 C   0  0  0  0  0  0  0  0  0  0  0  0
   17.8162   18.9576   22.9159 H   0  0  0  0  0  0  0  0  0  0  0  0
   19.0440   19.8782   23.7641 H   0  0  0  0  0  0  0  0  0  0  0  0
   18.9994   17.7457   24.2749 C   0  0  0  0  0  0  0  0  0  0  0  0
   18.6567   16.8290   23.7749 H   0  0  0  0  0  0  0  0  0  0  0  0
   20.0529   17.5683   24.5286 H   0  0  0  0  0  0  0  0  0  0  0  0
   18.1649   17.9431   25.5661 C   0  0  0  0  0  0  0  0  0  0  0  0
   17.7776   16.9620   25.8740 H   0  0  0  0  0  0  0  0  0  0  0  0
   17.2777   18.5555   25.3536 H   0  0  0  0  0  0  0  0  0  0  0  0
   18.9404   18.5353   26.7734 C   0  0  0  0  0  0  0  0  0  0  0  0
   18.2524   18.5713   27.6285 H   0  0  0  0  0  0  0  0  0  0  0  0
   19.7514   17.8573   27.0710 H   0  0  0  0  0  0  0  0  0  0  0  0
   19.5004   19.9565   26.5623 C   0  0  0  0  0  0  0  0  0  0  0  0
   19.6794   20.4185   27.5370 H   0  0  0  0  0  0  0  0  0  0  0  0
   18.7703   20.5676   26.0252 H   0  0  0  0  0  0  0  0  0  0  0  0
   20.8143   19.9936   25.8067 N   0  3  0  0  0  0  0  0  0  0  0  0
   20.7198   19.5703   24.8777 H   0  0  0  0  0  0  0  0  0  0  0  0
   21.5510   19.4816   26.3035 H   0  0  0  0  0  0  0  0  0  0  0  0
   21.1516   20.9538   25.6760 H   0  0  0  0  0  0  0  0  0  0  0  0
  1  2  1  0  0  0  0
  1  3  1  0  0  0  0
  1  4  1  0  0  0  0
  1  5  1  0  0  0  0
  5  6  1  0  0  0  0
  5  7  1  0  0  0  0
  5  8  1  0  0  0  0
  8  9  1  0  0  0  0
  8 10  1  0  0  0  0
  8 11  1  0  0  0  0
 11 12  1  0  0  0  0
 11 13  1  0  0  0  0
 11 14  1  0  0  0  0
 14 15  1  0  0  0  0
 14 16  1  0  0  0  0
 14 17  1  0  0  0  0
 17 18  1  0  0  0  0
 17 19  1  0  0  0  0
 17 20  1  0  0  0  0
 20 21  1  0  0  0  0
 20 22  1  0  0  0  0
 20 23  1  0  0  0  0
 23 24  1  0  0  0  0
 23 25  1  0  0  0  0
 23 26  1  0  0  0  0
 26 27  1  0  0  0  0
 26 28  1  0  0  0  0
 26 29  1  0  0  0  0
M  END
> <VM2 Rank>
456

> <Conf_Id>
1655

> <Probability>
0.00

> <Sum Probability>
100.00

> <Delta G>
6.710

> <G>
64.857

> <E>
26.881

> <-TS>
37.976

> <U+W>
2.736

> <U>
54.340

> <W>
-51.604

> <W(PB)>
-54.030

> <W(SA)>
2.426

> <Valence>
6.615

> <Coulomb>
47.220

> <VdW>
0.504

> <VdW6>
-10.122

> <VdW12>
10.626

> <Bond>
0.248

> <Angle>
1.458

> <Pdih>
4.909

> <Idih>
0.000

> <Tether>
0.000

$$$$
VeraChem MOL file


 29 28  0  0  0  0  0  0  0  0999 V2000     
   18.3724   19.5588   20.8938 C   0  0  0  0  0  0  0  0  0  0  0  0
   18.8802   19.7915   19.9488 H   0  0  0  0  0  0  0  0  0  0  0  0
   17.2990   19.4662   20.6842 H   0  0  0  0  0  0  0  0  0  0  0  0
   18.5058   20.4107   21.5711 H   0  0  0  0  0  0  0  0  0  0  0  0
   18.9194   18.2498   21.5072 C   0  0  0  0  0  0  0  0  0  0  0  0
   18.6876   17.4205   20.8245 H   0  0  0  0  0  0  0  0  0  0  0  0
   18.3942   18.0180   22.4422 H   0  0  0  0  0  0  0  0  0  0  0  0
   20.4490   18.2752   21.7444 C   0  0  0  0  0  0  0  0  0  0  0  0
   20.7653   17.2893   22.1119 H   0  0  0  0  0  0  0  0  0  0  0  0
   20.9499   18.4047   20.7751 H   0  0  0  0  0  0  0  0  0  0  0  0
   20.9727   19.3656   22.7179 C   0  0  0  0  0  0  0  0  0  0  0  0
   20.7538   20.3693   22.3306 H   0  0  0  0  0  0  0  0  0  0  0  0
   22.0691   19.2927   22.7232 H   0  0  0  0  0  0  0  0  0  0  0  0
   20.4838   19.2242   24.1838 C   0  0  0  0  0  0  0  0  0  0  0  0
   20.3148   18.1641   24.4076 H   0  0  0  0  0  0  0  0  0  0  0  0
   21.2923   19.5604   24.8476 H   0  0  0  0  0  0  0  0  0  0  0  0
   19.2179   20.0597   24.5034 C   0  0  0  0  0  0  0  0  0  0  0  0
   18.3537   19.6722   23.9521 H   0  0  0  0  0  0  0  0  0  0  0  0
   19.3719   21.0869   24.1456 H   0  0  0  0  0  0  0  0  0  0  0  0
   18.8627   20.1279   26.0106 C   0  0  0  0  0  0  0  0  0  0  0  0
   19.6920   20.5674   26.5807 H   0  0  0  0  0  0  0  0  0  0  0  0
   18.0180   20.8200   26.1258 H   0  0  0  0  0  0  0  0  0  0  0  0
   18.4501   18.7773   26.6315 C   0  0  0  0  0  0  0  0  0  0  0  0
   17.8259   18.2203   25.9277 H   0  0  0  0  0  0  0  0  0  0  0  0
   17.8604   18.9654   27.5328 H   0  0  0  0  0  0  0  0  0  0  0  0
   19.6159   17.8995   27.0423 N   0  3  0  0  0  0  0  0  0  0  0  0
   20.2050   18.3571   27.7458 H   0  0  0  0  0  0  0  0  0  0  0  0
   20.2174   17.6708   26.2460 H   0  0  0  0  0  0  0  0  0  0  0  0
   19.2991   17.0123   27.4486 H   0  0  0  0  0  0  0  0  0  0  0  0
  1  2  1  0  0  0  0
  1  3  1  0  0  0  0
  1  4  1  0  0  0  0
  1  5  1  0  0  0  0
  5  6  1  0  0  0  0
  5  7  1  0  0  0  0
  5  8  1  0  0  0  0
  8  9  1  0  0  0  0
  8 10  1  0  0  0  0
  8 11  1  0  0  0  0
 11 12  1  0  0  0  0
 11 13  1  0  0  0  0
 11 14  1  0  0  0  0
 14 15  1  0  0  0  0
 14 16  1  0  0  0  0
 14 17  1  0  0  0  0
 17 18  1  0  0  0  0
 17 19  1  0  0  0  0
 17 20  1  0  0  0  0
 20 21  1  0  0  0  0
 20 22  1  0  0  0  0
 20 23  1  0  0  0  0
 23 24  1  0  0  0  0
 23 25  1  0  0  0  0
 23 26  1  0  0  0  0
 26 27  1  0  0  0  0
 26 28  1  0  0  0  0
 26 29  1  0  0  0  0
M  END
> <VM2 Rank>
457

> <Conf_Id>
988

> <Probability>
0.00

> <Sum Probability>
100.00

> <Delta G>
6.711

> <G>
64.858

> <E>
26.760

> <-TS>
38.097

> <U+W>
2.616

> <U>
55.196

> <W>
-52.579

> <W(PB)>
-54.932

> <W(SA)>
2.352

> <Valence>
7.745

> <Coulomb>
46.905

> <VdW>
0.547

> <VdW6>
-11.226

> <VdW12>
11.772

> <Bond>
0.340

> <Angle>
2.322

> <Pdih>
5.083

> <Idih>
0.000

> <Tether>
0.000

$$$$
VeraChem MOL file


 29 28  0  0  0  0  0  0  0  0999 V2000     
   19.5620   18.9479   20.2212 C   0  0  0  0  0  0  0  0  0  0  0  0
   18.6131   18.4787   20.5095 H   0  0  0  0  0  0  0  0  0  0  0  0
   19.3609   19.6004   19.3618 H   0  0  0  0  0  0  0  0  0  0  0  0
   20.2493   18.1584   19.8905 H   0  0  0  0  0  0  0  0  0  0  0  0
   20.1697   19.7598   21.3871 C   0  0  0  0  0  0  0  0  0  0  0  0
   19.4618   20.5353   21.7089 H   0  0  0  0  0  0  0  0  0  0  0  0
   21.0561   20.2956   21.0199 H   0  0  0  0  0  0  0  0  0  0  0  0
   20.5880   18.8829   22.5943 C   0  0  0  0  0  0  0  0  0  0  0  0
   21.3692   18.1832   22.2667 H   0  0  0  0  0  0  0  0  0  0  0  0
   21.0661   19.5233   23.3451 H   0  0  0  0  0  0  0  0  0  0  0  0
   19.4401   18.0670   23.2500 C   0  0  0  0  0  0  0  0  0  0  0  0
   19.8478   17.4945   24.0901 H   0  0  0  0  0  0  0  0  0  0  0  0
   19.0952   17.3083   22.5350 H   0  0  0  0  0  0  0  0  0  0  0  0
   18.2085   18.8937   23.7133 C   0  0  0  0  0  0  0  0  0  0  0  0
   17.7552   19.3625   22.8301 H   0  0  0  0  0  0  0  0  0  0  0  0
   17.4398   18.2100   24.0985 H   0  0  0  0  0  0  0  0  0  0  0  0
   18.4838   20.0000   24.7686 C   0  0  0  0  0  0  0  0  0  0  0  0
   17.7023   20.7642   24.6570 H   0  0  0  0  0  0  0  0  0  0  0  0
   19.4236   20.5236   24.5580 H   0  0  0  0  0  0  0  0  0  0  0  0
   18.4419   19.5216   26.2445 C   0  0  0  0  0  0  0  0  0  0  0  0
   18.5410   20.3946   26.9031 H   0  0  0  0  0  0  0  0  0  0  0  0
   17.4529   19.0947   26.4572 H   0  0  0  0  0  0  0  0  0  0  0  0
   19.5158   18.4883   26.6342 C   0  0  0  0  0  0  0  0  0  0  0  0
   19.3762   17.5727   26.0557 H   0  0  0  0  0  0  0  0  0  0  0  0
   19.4069   18.2363   27.6925 H   0  0  0  0  0  0  0  0  0  0  0  0
   20.9342   18.9768   26.4218 N   0  3  0  0  0  0  0  0  0  0  0  0
   21.1300   19.8208   26.9701 H   0  0  0  0  0  0  0  0  0  0  0  0
   21.1045   19.2041   25.4377 H   0  0  0  0  0  0  0  0  0  0  0  0
   21.6257   18.2710   26.6979 H   0  0  0  0  0  0  0  0  0  0  0  0
  1  2  1  0  0  0  0
  1  3  1  0  0  0  0
  1  4  1  0  0  0  0
  1  5  1  0  0  0  0
  5  6  1  0  0  0  0
  5  7  1  0  0  0  0
  5  8  1  0  0  0  0
  8  9  1  0  0  0  0
  8 10  1  0  0  0  0
  8 11  1  0  0  0  0
 11 12  1  0  0  0  0
 11 13  1  0  0  0  0
 11 14  1  0  0  0  0
 14 15  1  0  0  0  0
 14 16  1  0  0  0  0
 14 17  1  0  0  0  0
 17 18  1  0  0  0  0
 17 19  1  0  0  0  0
 17 20  1  0  0  0  0
 20 21  1  0  0  0  0
 20 22  1  0  0  0  0
 20 23  1  0  0  0  0
 23 24  1  0  0  0  0
 23 25  1  0  0  0  0
 23 26  1  0  0  0  0
 26 27  1  0  0  0  0
 26 28  1  0  0  0  0
 26 29  1  0  0  0  0
M  END
> <VM2 Rank>
458

> <Conf_Id>
276

> <Probability>
0.00

> <Sum Probability>
100.00

> <Delta G>
6.733

> <G>
64.879

> <E>
26.184

> <-TS>
38.695

> <U+W>
2.040

> <U>
54.528

> <W>
-52.488

> <W(PB)>
-54.836

> <W(SA)>
2.348

> <Valence>
6.910

> <Coulomb>
47.234

> <VdW>
0.383

> <VdW6>
-12.316

> <VdW12>
12.700

> <Bond>
0.411

> <Angle>
2.774

> <Pdih>
3.724

> <Idih>
0.000

> <Tether>
0.000

$$$$
VeraChem MOL file


 29 28  0  0  0  0  0  0  0  0999 V2000     
   19.9676   17.9650   19.8152 C   0  0  0  0  0  0  0  0  0  0  0  0
   20.3989   18.8386   19.3093 H   0  0  0  0  0  0  0  0  0  0  0  0
   20.7909   17.3081   20.1249 H   0  0  0  0  0  0  0  0  0  0  0  0
   19.3576   17.4190   19.0838 H   0  0  0  0  0  0  0  0  0  0  0  0
   19.1127   18.3920   21.0270 C   0  0  0  0  0  0  0  0  0  0  0  0
   18.6680   17.5007   21.4913 H   0  0  0  0  0  0  0  0  0  0  0  0
   18.2788   19.0192   20.6820 H   0  0  0  0  0  0  0  0  0  0  0  0
   19.9480   19.1640   22.0720 C   0  0  0  0  0  0  0  0  0  0  0  0
   20.7837   18.5352   22.4083 H   0  0  0  0  0  0  0  0  0  0  0  0
   20.3901   20.0538   21.6025 H   0  0  0  0  0  0  0  0  0  0  0  0
   19.0953   19.5923   23.2872 C   0  0  0  0  0  0  0  0  0  0  0  0
   18.6278   18.7092   23.7380 H   0  0  0  0  0  0  0  0  0  0  0  0
   18.2694   20.2309   22.9442 H   0  0  0  0  0  0  0  0  0  0  0  0
   19.9327   20.3684   24.3335 C   0  0  0  0  0  0  0  0  0  0  0  0
   20.8579   19.8304   24.5791 H   0  0  0  0  0  0  0  0  0  0  0  0
   20.2530   21.3145   23.8751 H   0  0  0  0  0  0  0  0  0  0  0  0
   19.1429   20.6912   25.6275 C   0  0  0  0  0  0  0  0  0  0  0  0
   18.0713   20.7857   25.4035 H   0  0  0  0  0  0  0  0  0  0  0  0
   19.4579   21.6833   25.9795 H   0  0  0  0  0  0  0  0  0  0  0  0
   19.3532   19.6951   26.7993 C   0  0  0  0  0  0  0  0  0  0  0  0
   20.4059   19.6961   27.1120 H   0  0  0  0  0  0  0  0  0  0  0  0
   18.7850   20.0677   27.6619 H   0  0  0  0  0  0  0  0  0  0  0  0
   18.8929   18.2492   26.5241 C   0  0  0  0  0  0  0  0  0  0  0  0
   17.9485   18.2583   25.9736 H   0  0  0  0  0  0  0  0  0  0  0  0
   18.7262   17.7398   27.4771 H   0  0  0  0  0  0  0  0  0  0  0  0
   19.8987   17.4208   25.7491 N   0  3  0  0  0  0  0  0  0  0  0  0
   20.1057   17.8452   24.8390 H   0  0  0  0  0  0  0  0  0  0  0  0
   19.5557   16.4694   25.5757 H   0  0  0  0  0  0  0  0  0  0  0  0
   20.7862   17.3324   26.2552 H   0  0  0  0  0  0  0  0  0  0  0  0
  1  2  1  0  0  0  0
  1  3  1  0  0  0  0
  1  4  1  0  0  0  0
  1  5  1  0  0  0  0
  5  6  1  0  0  0  0
  5  7  1  0  0  0  0
  5  8  1  0  0  0  0
  8  9  1  0  0  0  0
  8 10  1  0  0  0  0
  8 11  1  0  0  0  0
 11 12  1  0  0  0  0
 11 13  1  0  0  0  0
 11 14  1  0  0  0  0
 14 15  1  0  0  0  0
 14 16  1  0  0  0  0
 14 17  1  0  0  0  0
 17 18  1  0  0  0  0
 17 19  1  0  0  0  0
 17 20  1  0  0  0  0
 20 21  1  0  0  0  0
 20 22  1  0  0  0  0
 20 23  1  0  0  0  0
 23 24  1  0  0  0  0
 23 25  1  0  0  0  0
 23 26  1  0  0  0  0
 26 27  1  0  0  0  0
 26 28  1  0  0  0  0
 26 29  1  0  0  0  0
M  END
> <VM2 Rank>
459

> <Conf_Id>
1663

> <Probability>
0.00

> <Sum Probability>
100.00

> <Delta G>
6.757

> <G>
64.903

> <E>
26.926

> <-TS>
37.977

> <U+W>
2.781

> <U>
54.340

> <W>
-51.559

> <W(PB)>
-54.003

> <W(SA)>
2.445

> <Valence>
6.616

> <Coulomb>
47.220

> <VdW>
0.504

> <VdW6>
-10.122

> <VdW12>
10.626

> <Bond>
0.249

> <Angle>
1.458

> <Pdih>
4.909

> <Idih>
0.000

> <Tether>
0.000

$$$$
VeraChem MOL file


 29 28  0  0  0  0  0  0  0  0999 V2000     
   21.2192   18.2830   21.4528 C   0  0  0  0  0  0  0  0  0  0  0  0
   21.2129   18.1573   22.5405 H   0  0  0  0  0  0  0  0  0  0  0  0
   21.5813   17.3448   21.0127 H   0  0  0  0  0  0  0  0  0  0  0  0
   21.9462   19.0679   21.2069 H   0  0  0  0  0  0  0  0  0  0  0  0
   19.8191   18.6344   20.8980 C   0  0  0  0  0  0  0  0  0  0  0  0
   19.1132   17.8156   21.0950 H   0  0  0  0  0  0  0  0  0  0  0  0
   19.8982   18.7084   19.8043 H   0  0  0  0  0  0  0  0  0  0  0  0
   19.2574   19.9731   21.4426 C   0  0  0  0  0  0  0  0  0  0  0  0
   20.0793   20.6661   21.6691 H   0  0  0  0  0  0  0  0  0  0  0  0
   18.6798   20.4523   20.6401 H   0  0  0  0  0  0  0  0  0  0  0  0
   18.3211   19.8360   22.6709 C   0  0  0  0  0  0  0  0  0  0  0  0
   17.4487   19.2263   22.3978 H   0  0  0  0  0  0  0  0  0  0  0  0
   17.9318   20.8331   22.9190 H   0  0  0  0  0  0  0  0  0  0  0  0
   18.9975   19.2346   23.9241 C   0  0  0  0  0  0  0  0  0  0  0  0
   19.2650   18.1880   23.7293 H   0  0  0  0  0  0  0  0  0  0  0  0
   19.9229   19.7879   24.1247 H   0  0  0  0  0  0  0  0  0  0  0  0
   18.0696   19.2974   25.1602 C   0  0  0  0  0  0  0  0  0  0  0  0
   17.0902   18.8784   24.8905 H   0  0  0  0  0  0  0  0  0  0  0  0
   17.8897   20.3469   25.4313 H   0  0  0  0  0  0  0  0  0  0  0  0
   18.5985   18.5285   26.3979 C   0  0  0  0  0  0  0  0  0  0  0  0
   17.8245   18.5703   27.1757 H   0  0  0  0  0  0  0  0  0  0  0  0
   18.7293   17.4645   26.1599 H   0  0  0  0  0  0  0  0  0  0  0  0
   19.8994   19.0994   26.9993 C   0  0  0  0  0  0  0  0  0  0  0  0
   19.9851   18.7707   28.0385 H   0  0  0  0  0  0  0  0  0  0  0  0
   19.8641   20.1921   26.9910 H   0  0  0  0  0  0  0  0  0  0  0  0
   21.1622   18.6517   26.2894 N   0  3  0  0  0  0  0  0  0  0  0  0
   21.2699   17.6323   26.3155 H   0  0  0  0  0  0  0  0  0  0  0  0
   22.0025   19.0524   26.7208 H   0  0  0  0  0  0  0  0  0  0  0  0
   21.1629   18.9326   25.3049 H   0  0  0  0  0  0  0  0  0  0  0  0
  1  2  1  0  0  0  0
  1  3  1  0  0  0  0
  1  4  1  0  0  0  0
  1  5  1  0  0  0  0
  5  6  1  0  0  0  0
  5  7  1  0  0  0  0
  5  8  1  0  0  0  0
  8  9  1  0  0  0  0
  8 10  1  0  0  0  0
  8 11  1  0  0  0  0
 11 12  1  0  0  0  0
 11 13  1  0  0  0  0
 11 14  1  0  0  0  0
 14 15  1  0  0  0  0
 14 16  1  0  0  0  0
 14 17  1  0  0  0  0
 17 18  1  0  0  0  0
 17 19  1  0  0  0  0
 17 20  1  0  0  0  0
 20 21  1  0  0  0  0
 20 22  1  0  0  0  0
 20 23  1  0  0  0  0
 23 24  1  0  0  0  0
 23 25  1  0  0  0  0
 23 26  1  0  0  0  0
 26 27  1  0  0  0  0
 26 28  1  0  0  0  0
 26 29  1  0  0  0  0
M  END
> <VM2 Rank>
460

> <Conf_Id>
259

> <Probability>
0.00

> <Sum Probability>
100.00

> <Delta G>
6.782

> <G>
64.928

> <E>
27.252

> <-TS>
37.676

> <U+W>
3.108

> <U>
55.183

> <W>
-52.076

> <W(PB)>
-54.499

> <W(SA)>
2.423

> <Valence>
7.141

> <Coulomb>
47.365

> <VdW>
0.677

> <VdW6>
-10.168

> <VdW12>
10.845

> <Bond>
0.287

> <Angle>
1.759

> <Pdih>
5.095

> <Idih>
0.000

> <Tether>
0.000

$$$$
VeraChem MOL file


 29 28  0  0  0  0  0  0  0  0999 V2000     
   18.7873   19.2076   19.7291 C   0  0  0  0  0  0  0  0  0  0  0  0
   19.6910   18.8074   19.2511 H   0  0  0  0  0  0  0  0  0  0  0  0
   18.0816   18.3793   19.8739 H   0  0  0  0  0  0  0  0  0  0  0  0
   18.3284   19.9242   19.0357 H   0  0  0  0  0  0  0  0  0  0  0  0
   19.1258   19.8891   21.0719 C   0  0  0  0  0  0  0  0  0  0  0  0
   18.2087   20.3080   21.5092 H   0  0  0  0  0  0  0  0  0  0  0  0
   19.8053   20.7336   20.8907 H   0  0  0  0  0  0  0  0  0  0  0  0
   19.7741   18.9015   22.0671 C   0  0  0  0  0  0  0  0  0  0  0  0
   19.0918   18.0579   22.2331 H   0  0  0  0  0  0  0  0  0  0  0  0
   20.6892   18.4855   21.6235 H   0  0  0  0  0  0  0  0  0  0  0  0
   20.1163   19.5849   23.4130 C   0  0  0  0  0  0  0  0  0  0  0  0
   19.2013   20.0050   23.8473 H   0  0  0  0  0  0  0  0  0  0  0  0
   20.7868   20.4327   23.2151 H   0  0  0  0  0  0  0  0  0  0  0  0
   20.8108   18.6294   24.4185 C   0  0  0  0  0  0  0  0  0  0  0  0
   21.6145   18.0985   23.8897 H   0  0  0  0  0  0  0  0  0  0  0  0
   21.3177   19.2078   25.2022 H   0  0  0  0  0  0  0  0  0  0  0  0
   19.8651   17.5851   25.0700 C   0  0  0  0  0  0  0  0  0  0  0  0
   20.4287   16.6503   25.1957 H   0  0  0  0  0  0  0  0  0  0  0  0
   19.0357   17.3375   24.3954 H   0  0  0  0  0  0  0  0  0  0  0  0
   19.3029   17.9777   26.4621 C   0  0  0  0  0  0  0  0  0  0  0  0
   18.7080   17.1326   26.8334 H   0  0  0  0  0  0  0  0  0  0  0  0
   20.1233   18.1043   27.1810 H   0  0  0  0  0  0  0  0  0  0  0  0
   18.3994   19.2270   26.4734 C   0  0  0  0  0  0  0  0  0  0  0  0
   17.7552   19.1946   27.3563 H   0  0  0  0  0  0  0  0  0  0  0  0
   17.7608   19.2318   25.5861 H   0  0  0  0  0  0  0  0  0  0  0  0
   19.1622   20.5357   26.5299 N   0  3  0  0  0  0  0  0  0  0  0  0
   19.7299   20.6064   27.3809 H   0  0  0  0  0  0  0  0  0  0  0  0
   18.5318   21.3452   26.5217 H   0  0  0  0  0  0  0  0  0  0  0  0
   19.7970   20.6314   25.7310 H   0  0  0  0  0  0  0  0  0  0  0  0
  1  2  1  0  0  0  0
  1  3  1  0  0  0  0
  1  4  1  0  0  0  0
  1  5  1  0  0  0  0
  5  6  1  0  0  0  0
  5  7  1  0  0  0  0
  5  8  1  0  0  0  0
  8  9  1  0  0  0  0
  8 10  1  0  0  0  0
  8 11  1  0  0  0  0
 11 12  1  0  0  0  0
 11 13  1  0  0  0  0
 11 14  1  0  0  0  0
 14 15  1  0  0  0  0
 14 16  1  0  0  0  0
 14 17  1  0  0  0  0
 17 18  1  0  0  0  0
 17 19  1  0  0  0  0
 17 20  1  0  0  0  0
 20 21  1  0  0  0  0
 20 22  1  0  0  0  0
 20 23  1  0  0  0  0
 23 24  1  0  0  0  0
 23 25  1  0  0  0  0
 23 26  1  0  0  0  0
 26 27  1  0  0  0  0
 26 28  1  0  0  0  0
 26 29  1  0  0  0  0
M  END
> <VM2 Rank>
461

> <Conf_Id>
1222

> <Probability>
0.00

> <Sum Probability>
100.00

> <Delta G>
6.807

> <G>
64.953

> <E>
26.955

> <-TS>
37.998

> <U+W>
2.811

> <U>
55.101

> <W>
-52.290

> <W(PB)>
-54.742

> <W(SA)>
2.452

> <Valence>
7.379

> <Coulomb>
47.020

> <VdW>
0.701

> <VdW6>
-10.390

> <VdW12>
11.091

> <Bond>
0.297

> <Angle>
1.606

> <Pdih>
5.476

> <Idih>
0.000

> <Tether>
0.000

$$$$
VeraChem MOL file


 29 28  0  0  0  0  0  0  0  0999 V2000     
   21.1724   18.1059   21.5972 C   0  0  0  0  0  0  0  0  0  0  0  0
   21.5016   17.0965   21.3184 H   0  0  0  0  0  0  0  0  0  0  0  0
   21.7745   18.8237   21.0250 H   0  0  0  0  0  0  0  0  0  0  0  0
   21.3966   18.2466   22.6597 H   0  0  0  0  0  0  0  0  0  0  0  0
   19.6672   18.2865   21.2976 C   0  0  0  0  0  0  0  0  0  0  0  0
   19.0811   17.5412   21.8508 H   0  0  0  0  0  0  0  0  0  0  0  0
   19.4965   18.0714   20.2335 H   0  0  0  0  0  0  0  0  0  0  0  0
   19.1510   19.7163   21.5978 C   0  0  0  0  0  0  0  0  0  0  0  0
   19.7550   20.4380   21.0309 H   0  0  0  0  0  0  0  0  0  0  0  0
   18.1276   19.8135   21.2099 H   0  0  0  0  0  0  0  0  0  0  0  0
   19.1600   20.1195   23.0947 C   0  0  0  0  0  0  0  0  0  0  0  0
   18.8749   21.1782   23.1654 H   0  0  0  0  0  0  0  0  0  0  0  0
   20.1796   20.0558   23.4926 H   0  0  0  0  0  0  0  0  0  0  0  0
   18.1810   19.2845   23.9587 C   0  0  0  0  0  0  0  0  0  0  0  0
   17.1909   19.3017   23.4826 H   0  0  0  0  0  0  0  0  0  0  0  0
   18.4792   18.2305   23.9797 H   0  0  0  0  0  0  0  0  0  0  0  0
   18.0247   19.8187   25.4053 C   0  0  0  0  0  0  0  0  0  0  0  0
   17.2691   19.2131   25.9244 H   0  0  0  0  0  0  0  0  0  0  0  0
   17.6103   20.8353   25.3598 H   0  0  0  0  0  0  0  0  0  0  0  0
   19.3155   19.8514   26.2662 C   0  0  0  0  0  0  0  0  0  0  0  0
   20.0747   20.5017   25.8134 H   0  0  0  0  0  0  0  0  0  0  0  0
   19.0622   20.3180   27.2274 H   0  0  0  0  0  0  0  0  0  0  0  0
   19.9115   18.4613   26.5682 C   0  0  0  0  0  0  0  0  0  0  0  0
   19.1067   17.7540   26.7856 H   0  0  0  0  0  0  0  0  0  0  0  0
   20.5512   18.5297   27.4522 H   0  0  0  0  0  0  0  0  0  0  0  0
   20.7607   17.8938   25.4493 N   0  3  0  0  0  0  0  0  0  0  0  0
   21.5841   18.4777   25.2697 H   0  0  0  0  0  0  0  0  0  0  0  0
   20.2317   17.8308   24.5740 H   0  0  0  0  0  0  0  0  0  0  0  0
   21.1027   16.9525   25.6728 H   0  0  0  0  0  0  0  0  0  0  0  0
  1  2  1  0  0  0  0
  1  3  1  0  0  0  0
  1  4  1  0  0  0  0
  1  5  1  0  0  0  0
  5  6  1  0  0  0  0
  5  7  1  0  0  0  0
  5  8  1  0  0  0  0
  8  9  1  0  0  0  0
  8 10  1  0  0  0  0
  8 11  1  0  0  0  0
 11 12  1  0  0  0  0
 11 13  1  0  0  0  0
 11 14  1  0  0  0  0
 14 15  1  0  0  0  0
 14 16  1  0  0  0  0
 14 17  1  0  0  0  0
 17 18  1  0  0  0  0
 17 19  1  0  0  0  0
 17 20  1  0  0  0  0
 20 21  1  0  0  0  0
 20 22  1  0  0  0  0
 20 23  1  0  0  0  0
 23 24  1  0  0  0  0
 23 25  1  0  0  0  0
 23 26  1  0  0  0  0
 26 27  1  0  0  0  0
 26 28  1  0  0  0  0
 26 29  1  0  0  0  0
M  END
> <VM2 Rank>
462

> <Conf_Id>
1696

> <Probability>
0.00

> <Sum Probability>
100.00

> <Delta G>
6.820

> <G>
64.966

> <E>
26.611

> <-TS>
38.356

> <U+W>
2.466

> <U>
54.078

> <W>
-51.612

> <W(PB)>
-53.953

> <W(SA)>
2.341

> <Valence>
5.808

> <Coulomb>
48.135

> <VdW>
0.136

> <VdW6>
-11.658

> <VdW12>
11.793

> <Bond>
0.321

> <Angle>
2.065

> <Pdih>
3.422

> <Idih>
0.000

> <Tether>
0.000

$$$$
VeraChem MOL file


 29 28  0  0  0  0  0  0  0  0999 V2000     
   18.9088   19.5497   19.7368 C   0  0  0  0  0  0  0  0  0  0  0  0
   18.8818   20.6310   19.9243 H   0  0  0  0  0  0  0  0  0  0  0  0
   19.8691   19.3088   19.2623 H   0  0  0  0  0  0  0  0  0  0  0  0
   18.1105   19.3114   19.0220 H   0  0  0  0  0  0  0  0  0  0  0  0
   18.7227   18.7548   21.0466 C   0  0  0  0  0  0  0  0  0  0  0  0
   18.7197   17.6789   20.8225 H   0  0  0  0  0  0  0  0  0  0  0  0
   17.7408   18.9914   21.4799 H   0  0  0  0  0  0  0  0  0  0  0  0
   19.8347   19.0717   22.0709 C   0  0  0  0  0  0  0  0  0  0  0  0
   20.8132   18.8344   21.6312 H   0  0  0  0  0  0  0  0  0  0  0  0
   19.8351   20.1493   22.2797 H   0  0  0  0  0  0  0  0  0  0  0  0
   19.6500   18.2729   23.3838 C   0  0  0  0  0  0  0  0  0  0  0  0
   19.6381   17.2009   23.1430 H   0  0  0  0  0  0  0  0  0  0  0  0
   18.6690   18.5075   23.8139 H   0  0  0  0  0  0  0  0  0  0  0  0
   20.7774   18.5354   24.4164 C   0  0  0  0  0  0  0  0  0  0  0  0
   20.7948   17.7365   25.1694 H   0  0  0  0  0  0  0  0  0  0  0  0
   21.7433   18.4608   23.8978 H   0  0  0  0  0  0  0  0  0  0  0  0
   20.6934   19.9156   25.1220 C   0  0  0  0  0  0  0  0  0  0  0  0
   20.2157   20.6573   24.4695 H   0  0  0  0  0  0  0  0  0  0  0  0
   21.7186   20.2794   25.2767 H   0  0  0  0  0  0  0  0  0  0  0  0
   19.9900   19.9109   26.5052 C   0  0  0  0  0  0  0  0  0  0  0  0
   20.5365   19.2668   27.2069 H   0  0  0  0  0  0  0  0  0  0  0  0
   20.0564   20.9263   26.9180 H   0  0  0  0  0  0  0  0  0  0  0  0
   18.5008   19.5123   26.4797 C   0  0  0  0  0  0  0  0  0  0  0  0
   18.0149   19.9466   25.6020 H   0  0  0  0  0  0  0  0  0  0  0  0
   18.0090   19.9089   27.3721 H   0  0  0  0  0  0  0  0  0  0  0  0
   18.2662   18.0147   26.4737 N   0  3  0  0  0  0  0  0  0  0  0  0
   17.2666   17.7855   26.4423 H   0  0  0  0  0  0  0  0  0  0  0  0
   18.6499   17.5682   27.3132 H   0  0  0  0  0  0  0  0  0  0  0  0
   18.7095   17.5717   25.6629 H   0  0  0  0  0  0  0  0  0  0  0  0
  1  2  1  0  0  0  0
  1  3  1  0  0  0  0
  1  4  1  0  0  0  0
  1  5  1  0  0  0  0
  5  6  1  0  0  0  0
  5  7  1  0  0  0  0
  5  8  1  0  0  0  0
  8  9  1  0  0  0  0
  8 10  1  0  0  0  0
  8 11  1  0  0  0  0
 11 12  1  0  0  0  0
 11 13  1  0  0  0  0
 11 14  1  0  0  0  0
 14 15  1  0  0  0  0
 14 16  1  0  0  0  0
 14 17  1  0  0  0  0
 17 18  1  0  0  0  0
 17 19  1  0  0  0  0
 17 20  1  0  0  0  0
 20 21  1  0  0  0  0
 20 22  1  0  0  0  0
 20 23  1  0  0  0  0
 23 24  1  0  0  0  0
 23 25  1  0  0  0  0
 23 26  1  0  0  0  0
 26 27  1  0  0  0  0
 26 28  1  0  0  0  0
 26 29  1  0  0  0  0
M  END
> <VM2 Rank>
463

> <Conf_Id>
637

> <Probability>
0.00

> <Sum Probability>
100.00

> <Delta G>
6.848

> <G>
64.995

> <E>
26.997

> <-TS>
37.998

> <U+W>
2.852

> <U>
55.101

> <W>
-52.249

> <W(PB)>
-54.683

> <W(SA)>
2.434

> <Valence>
7.379

> <Coulomb>
47.020

> <VdW>
0.701

> <VdW6>
-10.389

> <VdW12>
11.091

> <Bond>
0.297

> <Angle>
1.606

> <Pdih>
5.476

> <Idih>
0.000

> <Tether>
0.000

$$$$
VeraChem MOL file


 29 28  0  0  0  0  0  0  0  0999 V2000     
   18.6190   19.5516   20.3509 C   0  0  0  0  0  0  0  0  0  0  0  0
   19.4357   19.1821   19.7173 H   0  0  0  0  0  0  0  0  0  0  0  0
   17.7133   19.6073   19.7332 H   0  0  0  0  0  0  0  0  0  0  0  0
   18.8651   20.5724   20.6690 H   0  0  0  0  0  0  0  0  0  0  0  0
   18.3913   18.6201   21.5626 C   0  0  0  0  0  0  0  0  0  0  0  0
   18.0358   17.6456   21.1996 H   0  0  0  0  0  0  0  0  0  0  0  0
   17.5877   19.0254   22.1932 H   0  0  0  0  0  0  0  0  0  0  0  0
   19.6639   18.3997   22.4148 C   0  0  0  0  0  0  0  0  0  0  0  0
   19.4432   17.6497   23.1837 H   0  0  0  0  0  0  0  0  0  0  0  0
   20.4523   17.9621   21.7871 H   0  0  0  0  0  0  0  0  0  0  0  0
   20.1938   19.6984   23.0747 C   0  0  0  0  0  0  0  0  0  0  0  0
   19.3774   20.2591   23.5484 H   0  0  0  0  0  0  0  0  0  0  0  0
   20.5866   20.3515   22.2840 H   0  0  0  0  0  0  0  0  0  0  0  0
   21.3294   19.4393   24.0970 C   0  0  0  0  0  0  0  0  0  0  0  0
   21.8670   18.5155   23.8422 H   0  0  0  0  0  0  0  0  0  0  0  0
   22.0688   20.2453   23.9909 H   0  0  0  0  0  0  0  0  0  0  0  0
   20.8932   19.4072   25.5867 C   0  0  0  0  0  0  0  0  0  0  0  0
   20.4604   20.3754   25.8696 H   0  0  0  0  0  0  0  0  0  0  0  0
   21.8060   19.3101   26.1907 H   0  0  0  0  0  0  0  0  0  0  0  0
   19.9409   18.2486   25.9850 C   0  0  0  0  0  0  0  0  0  0  0  0
   20.2589   17.3228   25.4881 H   0  0  0  0  0  0  0  0  0  0  0  0
   20.0434   18.0603   27.0620 H   0  0  0  0  0  0  0  0  0  0  0  0
   18.4498   18.5105   25.6861 C   0  0  0  0  0  0  0  0  0  0  0  0
   17.8711   17.6155   25.9300 H   0  0  0  0  0  0  0  0  0  0  0  0
   18.3093   18.7251   24.6252 H   0  0  0  0  0  0  0  0  0  0  0  0
   17.8626   19.6626   26.4772 N   0  3  0  0  0  0  0  0  0  0  0  0
   16.8680   19.8009   26.2679 H   0  0  0  0  0  0  0  0  0  0  0  0
   18.3399   20.5456   26.2716 H   0  0  0  0  0  0  0  0  0  0  0  0
   17.9372   19.5060   27.4877 H   0  0  0  0  0  0  0  0  0  0  0  0
  1  2  1  0  0  0  0
  1  3  1  0  0  0  0
  1  4  1  0  0  0  0
  1  5  1  0  0  0  0
  5  6  1  0  0  0  0
  5  7  1  0  0  0  0
  5  8  1  0  0  0  0
  8  9  1  0  0  0  0
  8 10  1  0  0  0  0
  8 11  1  0  0  0  0
 11 12  1  0  0  0  0
 11 13  1  0  0  0  0
 11 14  1  0  0  0  0
 14 15  1  0  0  0  0
 14 16  1  0  0  0  0
 14 17  1  0  0  0  0
 17 18  1  0  0  0  0
 17 19  1  0  0  0  0
 17 20  1  0  0  0  0
 20 21  1  0  0  0  0
 20 22  1  0  0  0  0
 20 23  1  0  0  0  0
 23 24  1  0  0  0  0
 23 25  1  0  0  0  0
 23 26  1  0  0  0  0
 26 27  1  0  0  0  0
 26 28  1  0  0  0  0
 26 29  1  0  0  0  0
M  END
> <VM2 Rank>
464

> <Conf_Id>
1030

> <Probability>
0.00

> <Sum Probability>
100.00

> <Delta G>
6.872

> <G>
65.018

> <E>
26.643

> <-TS>
38.375

> <U+W>
2.499

> <U>
55.291

> <W>
-52.792

> <W(PB)>
-55.169

> <W(SA)>
2.377

> <Valence>
8.172

> <Coulomb>
46.622

> <VdW>
0.496

> <VdW6>
-11.565

> <VdW12>
12.061

> <Bond>
0.330

> <Angle>
2.093

> <Pdih>
5.750

> <Idih>
0.000

> <Tether>
0.000

$$$$
VeraChem MOL file


 29 28  0  0  0  0  0  0  0  0999 V2000     
   20.6163   17.6117   22.0575 C   0  0  0  0  0  0  0  0  0  0  0  0
   20.5973   16.5306   22.2464 H   0  0  0  0  0  0  0  0  0  0  0  0
   21.4209   17.8095   21.3375 H   0  0  0  0  0  0  0  0  0  0  0  0
   20.8783   18.1093   22.9971 H   0  0  0  0  0  0  0  0  0  0  0  0
   19.2534   18.0884   21.5031 C   0  0  0  0  0  0  0  0  0  0  0  0
   18.4368   17.8072   22.1814 H   0  0  0  0  0  0  0  0  0  0  0  0
   19.0641   17.5435   20.5676 H   0  0  0  0  0  0  0  0  0  0  0  0
   19.2067   19.6079   21.2023 C   0  0  0  0  0  0  0  0  0  0  0  0
   20.1999   19.9639   20.8960 H   0  0  0  0  0  0  0  0  0  0  0  0
   18.5608   19.7552   20.3257 H   0  0  0  0  0  0  0  0  0  0  0  0
   18.6466   20.5051   22.3396 C   0  0  0  0  0  0  0  0  0  0  0  0
   17.6191   20.2041   22.5861 H   0  0  0  0  0  0  0  0  0  0  0  0
   18.5636   21.5244   21.9376 H   0  0  0  0  0  0  0  0  0  0  0  0
   19.5097   20.5736   23.6250 C   0  0  0  0  0  0  0  0  0  0  0  0
   20.5684   20.4218   23.3761 H   0  0  0  0  0  0  0  0  0  0  0  0
   19.4413   21.5906   24.0353 H   0  0  0  0  0  0  0  0  0  0  0  0
   19.0537   19.5829   24.7237 C   0  0  0  0  0  0  0  0  0  0  0  0
   19.0289   18.5630   24.3254 H   0  0  0  0  0  0  0  0  0  0  0  0
   18.0253   19.8243   25.0261 H   0  0  0  0  0  0  0  0  0  0  0  0
   19.9786   19.6372   25.9622 C   0  0  0  0  0  0  0  0  0  0  0  0
   21.0072   19.3811   25.6752 H   0  0  0  0  0  0  0  0  0  0  0  0
   20.0077   20.6644   26.3495 H   0  0  0  0  0  0  0  0  0  0  0  0
   19.5130   18.7009   27.0936 C   0  0  0  0  0  0  0  0  0  0  0  0
   18.4845   18.9445   27.3735 H   0  0  0  0  0  0  0  0  0  0  0  0
   20.1492   18.8473   27.9706 H   0  0  0  0  0  0  0  0  0  0  0  0
   19.5659   17.2304   26.7281 N   0  3  0  0  0  0  0  0  0  0  0  0
   18.9603   17.0161   25.9297 H   0  0  0  0  0  0  0  0  0  0  0  0
   19.2612   16.6343   27.5056 H   0  0  0  0  0  0  0  0  0  0  0  0
   20.5153   16.9348   26.4780 H   0  0  0  0  0  0  0  0  0  0  0  0
  1  2  1  0  0  0  0
  1  3  1  0  0  0  0
  1  4  1  0  0  0  0
  1  5  1  0  0  0  0
  5  6  1  0  0  0  0
  5  7  1  0  0  0  0
  5  8  1  0  0  0  0
  8  9  1  0  0  0  0
  8 10  1  0  0  0  0
  8 11  1  0  0  0  0
 11 12  1  0  0  0  0
 11 13  1  0  0  0  0
 11 14  1  0  0  0  0
 14 15  1  0  0  0  0
 14 16  1  0  0  0  0
 14 17  1  0  0  0  0
 17 18  1  0  0  0  0
 17 19  1  0  0  0  0
 17 20  1  0  0  0  0
 20 21  1  0  0  0  0
 20 22  1  0  0  0  0
 20 23  1  0  0  0  0
 23 24  1  0  0  0  0
 23 25  1  0  0  0  0
 23 26  1  0  0  0  0
 26 27  1  0  0  0  0
 26 28  1  0  0  0  0
 26 29  1  0  0  0  0
M  END
> <VM2 Rank>
465

> <Conf_Id>
1327

> <Probability>
0.00

> <Sum Probability>
100.00

> <Delta G>
6.919

> <G>
65.066

> <E>
26.868

> <-TS>
38.197

> <U+W>
2.724

> <U>
55.157

> <W>
-52.433

> <W(PB)>
-54.804

> <W(SA)>
2.371

> <Valence>
8.243

> <Coulomb>
46.333

> <VdW>
0.581

> <VdW6>
-10.567

> <VdW12>
11.148

> <Bond>
0.304

> <Angle>
1.956

> <Pdih>
5.982

> <Idih>
0.000

> <Tether>
0.000

$$$$
VeraChem MOL file


 29 28  0  0  0  0  0  0  0  0999 V2000     
   21.4071   19.3717   21.5491 C   0  0  0  0  0  0  0  0  0  0  0  0
   21.7661   18.4904   21.0018 H   0  0  0  0  0  0  0  0  0  0  0  0
   22.1131   20.1908   21.3603 H   0  0  0  0  0  0  0  0  0  0  0  0
   21.4434   19.1405   22.6188 H   0  0  0  0  0  0  0  0  0  0  0  0
   19.9852   19.7654   21.0857 C   0  0  0  0  0  0  0  0  0  0  0  0
   20.0297   19.9904   20.0108 H   0  0  0  0  0  0  0  0  0  0  0  0
   19.6667   20.6959   21.5758 H   0  0  0  0  0  0  0  0  0  0  0  0
   18.9340   18.6487   21.3138 C   0  0  0  0  0  0  0  0  0  0  0  0
   18.2240   18.6707   20.4755 H   0  0  0  0  0  0  0  0  0  0  0  0
   19.4132   17.6610   21.2693 H   0  0  0  0  0  0  0  0  0  0  0  0
   18.1138   18.7842   22.6227 C   0  0  0  0  0  0  0  0  0  0  0  0
   17.3666   17.9790   22.6436 H   0  0  0  0  0  0  0  0  0  0  0  0
   17.5482   19.7260   22.6025 H   0  0  0  0  0  0  0  0  0  0  0  0
   18.9609   18.7220   23.9146 C   0  0  0  0  0  0  0  0  0  0  0  0
   19.5929   17.8235   23.8958 H   0  0  0  0  0  0  0  0  0  0  0  0
   19.6201   19.5965   23.9452 H   0  0  0  0  0  0  0  0  0  0  0  0
   18.0734   18.7085   25.1816 C   0  0  0  0  0  0  0  0  0  0  0  0
   17.3183   17.9169   25.0793 H   0  0  0  0  0  0  0  0  0  0  0  0
   17.5181   19.6542   25.2504 H   0  0  0  0  0  0  0  0  0  0  0  0
   18.8466   18.4666   26.5032 C   0  0  0  0  0  0  0  0  0  0  0  0
   18.1100   18.3876   27.3137 H   0  0  0  0  0  0  0  0  0  0  0  0
   19.3645   17.4988   26.4716 H   0  0  0  0  0  0  0  0  0  0  0  0
   19.8395   19.5858   26.8794 C   0  0  0  0  0  0  0  0  0  0  0  0
   20.0332   19.5427   27.9546 H   0  0  0  0  0  0  0  0  0  0  0  0
   19.4023   20.5619   26.6525 H   0  0  0  0  0  0  0  0  0  0  0  0
   21.1835   19.4851   26.1849 N   0  3  0  0  0  0  0  0  0  0  0  0
   21.6606   18.6058   26.4101 H   0  0  0  0  0  0  0  0  0  0  0  0
   21.8125   20.2465   26.4633 H   0  0  0  0  0  0  0  0  0  0  0  0
   21.0873   19.5270   25.1667 H   0  0  0  0  0  0  0  0  0  0  0  0
  1  2  1  0  0  0  0
  1  3  1  0  0  0  0
  1  4  1  0  0  0  0
  1  5  1  0  0  0  0
  5  6  1  0  0  0  0
  5  7  1  0  0  0  0
  5  8  1  0  0  0  0
  8  9  1  0  0  0  0
  8 10  1  0  0  0  0
  8 11  1  0  0  0  0
 11 12  1  0  0  0  0
 11 13  1  0  0  0  0
 11 14  1  0  0  0  0
 14 15  1  0  0  0  0
 14 16  1  0  0  0  0
 14 17  1  0  0  0  0
 17 18  1  0  0  0  0
 17 19  1  0  0  0  0
 17 20  1  0  0  0  0
 20 21  1  0  0  0  0
 20 22  1  0  0  0  0
 20 23  1  0  0  0  0
 23 24  1  0  0  0  0
 23 25  1  0  0  0  0
 23 26  1  0  0  0  0
 26 27  1  0  0  0  0
 26 28  1  0  0  0  0
 26 29  1  0  0  0  0
M  END
> <VM2 Rank>
466

> <Conf_Id>
967

> <Probability>
0.00

> <Sum Probability>
100.00

> <Delta G>
6.974

> <G>
65.120

> <E>
27.478

> <-TS>
37.642

> <U+W>
3.333

> <U>
55.357

> <W>
-52.023

> <W(PB)>
-54.422

> <W(SA)>
2.399

> <Valence>
7.162

> <Coulomb>
47.546

> <VdW>
0.649

> <VdW6>
-10.234

> <VdW12>
10.883

> <Bond>
0.291

> <Angle>
1.731

> <Pdih>
5.140

> <Idih>
0.000

> <Tether>
0.000

$$$$
VeraChem MOL file


 29 28  0  0  0  0  0  0  0  0999 V2000     
   21.3023   19.5384   22.1006 C   0  0  0  0  0  0  0  0  0  0  0  0
   21.8112   18.9056   21.3620 H   0  0  0  0  0  0  0  0  0  0  0  0
   21.9678   20.3799   22.3324 H   0  0  0  0  0  0  0  0  0  0  0  0
   21.1778   18.9504   23.0158 H   0  0  0  0  0  0  0  0  0  0  0  0
   19.9526   20.0522   21.5469 C   0  0  0  0  0  0  0  0  0  0  0  0
   20.1633   20.6307   20.6366 H   0  0  0  0  0  0  0  0  0  0  0  0
   19.4877   20.7588   22.2473 H   0  0  0  0  0  0  0  0  0  0  0  0
   18.9608   18.9171   21.1869 C   0  0  0  0  0  0  0  0  0  0  0  0
   18.3796   19.2458   20.3143 H   0  0  0  0  0  0  0  0  0  0  0  0
   19.5102   18.0263   20.8528 H   0  0  0  0  0  0  0  0  0  0  0  0
   17.9439   18.5313   22.2955 C   0  0  0  0  0  0  0  0  0  0  0  0
   17.2414   17.8106   21.8546 H   0  0  0  0  0  0  0  0  0  0  0  0
   17.3341   19.4037   22.5682 H   0  0  0  0  0  0  0  0  0  0  0  0
   18.5514   17.8822   23.5649 C   0  0  0  0  0  0  0  0  0  0  0  0
   17.8501   17.1218   23.9355 H   0  0  0  0  0  0  0  0  0  0  0  0
   19.4714   17.3408   23.3073 H   0  0  0  0  0  0  0  0  0  0  0  0
   18.8083   18.8938   24.7083 C   0  0  0  0  0  0  0  0  0  0  0  0
   17.8545   19.3446   25.0153 H   0  0  0  0  0  0  0  0  0  0  0  0
   19.4391   19.7147   24.3511 H   0  0  0  0  0  0  0  0  0  0  0  0
   19.4732   18.2184   25.9305 C   0  0  0  0  0  0  0  0  0  0  0  0
   18.8413   17.3896   26.2764 H   0  0  0  0  0  0  0  0  0  0  0  0
   20.4362   17.7780   25.6396 H   0  0  0  0  0  0  0  0  0  0  0  0
   19.6880   19.1926   27.1046 C   0  0  0  0  0  0  0  0  0  0  0  0
   20.0762   18.6426   27.9661 H   0  0  0  0  0  0  0  0  0  0  0  0
   18.7331   19.6428   27.3890 H   0  0  0  0  0  0  0  0  0  0  0  0
   20.6633   20.3119   26.7969 N   0  3  0  0  0  0  0  0  0  0  0  0
   21.5894   19.9507   26.5454 H   0  0  0  0  0  0  0  0  0  0  0  0
   20.7928   20.9351   27.6016 H   0  0  0  0  0  0  0  0  0  0  0  0
   20.3406   20.8920   26.0162 H   0  0  0  0  0  0  0  0  0  0  0  0
  1  2  1  0  0  0  0
  1  3  1  0  0  0  0
  1  4  1  0  0  0  0
  1  5  1  0  0  0  0
  5  6  1  0  0  0  0
  5  7  1  0  0  0  0
  5  8  1  0  0  0  0
  8  9  1  0  0  0  0
  8 10  1  0  0  0  0
  8 11  1  0  0  0  0
 11 12  1  0  0  0  0
 11 13  1  0  0  0  0
 11 14  1  0  0  0  0
 14 15  1  0  0  0  0
 14 16  1  0  0  0  0
 14 17  1  0  0  0  0
 17 18  1  0  0  0  0
 17 19  1  0  0  0  0
 17 20  1  0  0  0  0
 20 21  1  0  0  0  0
 20 22  1  0  0  0  0
 20 23  1  0  0  0  0
 23 24  1  0  0  0  0
 23 25  1  0  0  0  0
 23 26  1  0  0  0  0
 26 27  1  0  0  0  0
 26 28  1  0  0  0  0
 26 29  1  0  0  0  0
M  END
> <VM2 Rank>
467

> <Conf_Id>
1937

> <Probability>
0.00

> <Sum Probability>
100.00

> <Delta G>
6.979

> <G>
65.126

> <E>
26.929

> <-TS>
38.197

> <U+W>
2.784

> <U>
55.157

> <W>
-52.373

> <W(PB)>
-54.750

> <W(SA)>
2.377

> <Valence>
8.243

> <Coulomb>
46.333

> <VdW>
0.581

> <VdW6>
-10.567

> <VdW12>
11.148

> <Bond>
0.304

> <Angle>
1.956

> <Pdih>
5.983

> <Idih>
0.000

> <Tether>
0.000

$$$$
VeraChem MOL file


 29 28  0  0  0  0  0  0  0  0999 V2000     
   19.5419   20.4071   20.3817 C   0  0  0  0  0  0  0  0  0  0  0  0
   20.1841   20.9841   21.0579 H   0  0  0  0  0  0  0  0  0  0  0  0
   20.1624   20.0318   19.5576 H   0  0  0  0  0  0  0  0  0  0  0  0
   18.8042   21.0996   19.9563 H   0  0  0  0  0  0  0  0  0  0  0  0
   18.8324   19.2462   21.1158 C   0  0  0  0  0  0  0  0  0  0  0  0
   18.1351   18.7663   20.4151 H   0  0  0  0  0  0  0  0  0  0  0  0
   18.2166   19.6494   21.9287 H   0  0  0  0  0  0  0  0  0  0  0  0
   19.8135   18.1699   21.6484 C   0  0  0  0  0  0  0  0  0  0  0  0
   19.2523   17.2697   21.9340 H   0  0  0  0  0  0  0  0  0  0  0  0
   20.4633   17.8587   20.8189 H   0  0  0  0  0  0  0  0  0  0  0  0
   20.7039   18.6239   22.8374 C   0  0  0  0  0  0  0  0  0  0  0  0
   20.9005   19.7021   22.7908 H   0  0  0  0  0  0  0  0  0  0  0  0
   21.6854   18.1421   22.7284 H   0  0  0  0  0  0  0  0  0  0  0  0
   20.1562   18.2497   24.2388 C   0  0  0  0  0  0  0  0  0  0  0  0
   20.0594   17.1576   24.3107 H   0  0  0  0  0  0  0  0  0  0  0  0
   20.9110   18.5334   24.9799 H   0  0  0  0  0  0  0  0  0  0  0  0
   18.7970   18.9071   24.5848 C   0  0  0  0  0  0  0  0  0  0  0  0
   18.0357   18.4986   23.9077 H   0  0  0  0  0  0  0  0  0  0  0  0
   18.8349   19.9887   24.3955 H   0  0  0  0  0  0  0  0  0  0  0  0
   18.3252   18.6426   26.0378 C   0  0  0  0  0  0  0  0  0  0  0  0
   17.2282   18.6904   26.0542 H   0  0  0  0  0  0  0  0  0  0  0  0
   18.5865   17.6227   26.3498 H   0  0  0  0  0  0  0  0  0  0  0  0
   18.8406   19.6687   27.0693 C   0  0  0  0  0  0  0  0  0  0  0  0
   18.3442   19.4912   28.0272 H   0  0  0  0  0  0  0  0  0  0  0  0
   18.5852   20.6792   26.7391 H   0  0  0  0  0  0  0  0  0  0  0  0
   20.3333   19.6229   27.3209 N   0  3  0  0  0  0  0  0  0  0  0  0
   20.8631   19.8364   26.4704 H   0  0  0  0  0  0  0  0  0  0  0  0
   20.6354   18.6993   27.6478 H   0  0  0  0  0  0  0  0  0  0  0  0
   20.6198   20.3033   28.0334 H   0  0  0  0  0  0  0  0  0  0  0  0
  1  2  1  0  0  0  0
  1  3  1  0  0  0  0
  1  4  1  0  0  0  0
  1  5  1  0  0  0  0
  5  6  1  0  0  0  0
  5  7  1  0  0  0  0
  5  8  1  0  0  0  0
  8  9  1  0  0  0  0
  8 10  1  0  0  0  0
  8 11  1  0  0  0  0
 11 12  1  0  0  0  0
 11 13  1  0  0  0  0
 11 14  1  0  0  0  0
 14 15  1  0  0  0  0
 14 16  1  0  0  0  0
 14 17  1  0  0  0  0
 17 18  1  0  0  0  0
 17 19  1  0  0  0  0
 17 20  1  0  0  0  0
 20 21  1  0  0  0  0
 20 22  1  0  0  0  0
 20 23  1  0  0  0  0
 23 24  1  0  0  0  0
 23 25  1  0  0  0  0
 23 26  1  0  0  0  0
 26 27  1  0  0  0  0
 26 28  1  0  0  0  0
 26 29  1  0  0  0  0
M  END
> <VM2 Rank>
468

> <Conf_Id>
2016

> <Probability>
0.00

> <Sum Probability>
100.00

> <Delta G>
7.009

> <G>
65.156

> <E>
27.645

> <-TS>
37.511

> <U+W>
3.500

> <U>
55.614

> <W>
-52.114

> <W(PB)>
-54.516

> <W(SA)>
2.402

> <Valence>
8.344

> <Coulomb>
46.232

> <VdW>
1.039

> <VdW6>
-10.400

> <VdW12>
11.439

> <Bond>
0.346

> <Angle>
2.025

> <Pdih>
5.972

> <Idih>
0.000

> <Tether>
0.000

$$$$
VeraChem MOL file


 29 28  0  0  0  0  0  0  0  0999 V2000     
   19.1452   17.5825   20.8997 C   0  0  0  0  0  0  0  0  0  0  0  0
   19.7042   17.7649   19.9727 H   0  0  0  0  0  0  0  0  0  0  0  0
   18.8974   16.5138   20.9359 H   0  0  0  0  0  0  0  0  0  0  0  0
   18.2013   18.1380   20.8449 H   0  0  0  0  0  0  0  0  0  0  0  0
   19.9767   17.9864   22.1386 C   0  0  0  0  0  0  0  0  0  0  0  0
   20.8588   17.3334   22.1935 H   0  0  0  0  0  0  0  0  0  0  0  0
   19.3955   17.7894   23.0467 H   0  0  0  0  0  0  0  0  0  0  0  0
   20.4568   19.4605   22.0982 C   0  0  0  0  0  0  0  0  0  0  0  0
   21.2373   19.6211   22.8537 H   0  0  0  0  0  0  0  0  0  0  0  0
   20.9513   19.6294   21.1317 H   0  0  0  0  0  0  0  0  0  0  0  0
   19.3382   20.5222   22.2744 C   0  0  0  0  0  0  0  0  0  0  0  0
   18.3905   20.1660   21.8522 H   0  0  0  0  0  0  0  0  0  0  0  0
   19.6133   21.3970   21.6692 H   0  0  0  0  0  0  0  0  0  0  0  0
   19.1113   21.0251   23.7259 C   0  0  0  0  0  0  0  0  0  0  0  0
   20.0360   21.4673   24.1215 H   0  0  0  0  0  0  0  0  0  0  0  0
   18.3912   21.8534   23.6732 H   0  0  0  0  0  0  0  0  0  0  0  0
   18.5500   19.9745   24.7175 C   0  0  0  0  0  0  0  0  0  0  0  0
   17.9360   19.2385   24.1812 H   0  0  0  0  0  0  0  0  0  0  0  0
   17.8676   20.4833   25.4126 H   0  0  0  0  0  0  0  0  0  0  0  0
   19.6454   19.2723   25.5550 C   0  0  0  0  0  0  0  0  0  0  0  0
   20.3874   18.7990   24.9029 H   0  0  0  0  0  0  0  0  0  0  0  0
   20.1828   20.0196   26.1540 H   0  0  0  0  0  0  0  0  0  0  0  0
   19.0406   18.2105   26.4897 C   0  0  0  0  0  0  0  0  0  0  0  0
   18.5167   17.4549   25.8982 H   0  0  0  0  0  0  0  0  0  0  0  0
   18.3196   18.6810   27.1637 H   0  0  0  0  0  0  0  0  0  0  0  0
   20.0798   17.5040   27.3358 N   0  3  0  0  0  0  0  0  0  0  0  0
   20.7743   17.0166   26.7602 H   0  0  0  0  0  0  0  0  0  0  0  0
   19.6555   16.8015   27.9517 H   0  0  0  0  0  0  0  0  0  0  0  0
   20.5911   18.1584   27.9373 H   0  0  0  0  0  0  0  0  0  0  0  0
  1  2  1  0  0  0  0
  1  3  1  0  0  0  0
  1  4  1  0  0  0  0
  1  5  1  0  0  0  0
  5  6  1  0  0  0  0
  5  7  1  0  0  0  0
  5  8  1  0  0  0  0
  8  9  1  0  0  0  0
  8 10  1  0  0  0  0
  8 11  1  0  0  0  0
 11 12  1  0  0  0  0
 11 13  1  0  0  0  0
 11 14  1  0  0  0  0
 14 15  1  0  0  0  0
 14 16  1  0  0  0  0
 14 17  1  0  0  0  0
 17 18  1  0  0  0  0
 17 19  1  0  0  0  0
 17 20  1  0  0  0  0
 20 21  1  0  0  0  0
 20 22  1  0  0  0  0
 20 23  1  0  0  0  0
 23 24  1  0  0  0  0
 23 25  1  0  0  0  0
 23 26  1  0  0  0  0
 26 27  1  0  0  0  0
 26 28  1  0  0  0  0
 26 29  1  0  0  0  0
M  END
> <VM2 Rank>
469

> <Conf_Id>
995

> <Probability>
0.00

> <Sum Probability>
100.00

> <Delta G>
7.031

> <G>
65.178

> <E>
27.068

> <-TS>
38.110

> <U+W>
2.923

> <U>
55.529

> <W>
-52.606

> <W(PB)>
-55.025

> <W(SA)>
2.419

> <Valence>
8.892

> <Coulomb>
46.031

> <VdW>
0.606

> <VdW6>
-10.528

> <VdW12>
11.133

> <Bond>
0.331

> <Angle>
2.235

> <Pdih>
6.326

> <Idih>
0.000

> <Tether>
0.000

$$$$
VeraChem MOL file


 29 28  0  0  0  0  0  0  0  0999 V2000     
   20.8512   17.6599   21.7222 C   0  0  0  0  0  0  0  0  0  0  0  0
   20.1376   16.9897   22.2165 H   0  0  0  0  0  0  0  0  0  0  0  0
   21.3257   17.0942   20.9100 H   0  0  0  0  0  0  0  0  0  0  0  0
   21.6335   17.9257   22.4447 H   0  0  0  0  0  0  0  0  0  0  0  0
   20.1568   18.9233   21.1647 C   0  0  0  0  0  0  0  0  0  0  0  0
   19.3781   18.6324   20.4458 H   0  0  0  0  0  0  0  0  0  0  0  0
   20.8943   19.5092   20.5985 H   0  0  0  0  0  0  0  0  0  0  0  0
   19.5452   19.8244   22.2639 C   0  0  0  0  0  0  0  0  0  0  0  0
   20.3230   20.0974   22.9867 H   0  0  0  0  0  0  0  0  0  0  0  0
   19.2231   20.7668   21.7999 H   0  0  0  0  0  0  0  0  0  0  0  0
   18.3270   19.1835   22.9778 C   0  0  0  0  0  0  0  0  0  0  0  0
   18.5742   18.1975   23.3892 H   0  0  0  0  0  0  0  0  0  0  0  0
   17.5489   19.0044   22.2230 H   0  0  0  0  0  0  0  0  0  0  0  0
   17.7337   20.0842   24.0909 C   0  0  0  0  0  0  0  0  0  0  0  0
   17.9398   21.1417   23.8754 H   0  0  0  0  0  0  0  0  0  0  0  0
   16.6397   19.9877   24.0555 H   0  0  0  0  0  0  0  0  0  0  0  0
   18.1804   19.7413   25.5378 C   0  0  0  0  0  0  0  0  0  0  0  0
   17.8598   18.7237   25.7956 H   0  0  0  0  0  0  0  0  0  0  0  0
   17.6222   20.4018   26.2156 H   0  0  0  0  0  0  0  0  0  0  0  0
   19.6914   19.9278   25.8370 C   0  0  0  0  0  0  0  0  0  0  0  0
   20.0551   20.8384   25.3435 H   0  0  0  0  0  0  0  0  0  0  0  0
   19.8215   20.0984   26.9139 H   0  0  0  0  0  0  0  0  0  0  0  0
   20.5771   18.7309   25.4325 C   0  0  0  0  0  0  0  0  0  0  0  0
   21.6265   18.9846   25.6047 H   0  0  0  0  0  0  0  0  0  0  0  0
   20.4515   18.5118   24.3708 H   0  0  0  0  0  0  0  0  0  0  0  0
   20.2812   17.4627   26.2083 N   0  3  0  0  0  0  0  0  0  0  0  0
   20.4110   17.5960   27.2166 H   0  0  0  0  0  0  0  0  0  0  0  0
   20.8956   16.6912   25.9264 H   0  0  0  0  0  0  0  0  0  0  0  0
   19.3166   17.1479   26.0664 H   0  0  0  0  0  0  0  0  0  0  0  0
  1  2  1  0  0  0  0
  1  3  1  0  0  0  0
  1  4  1  0  0  0  0
  1  5  1  0  0  0  0
  5  6  1  0  0  0  0
  5  7  1  0  0  0  0
  5  8  1  0  0  0  0
  8  9  1  0  0  0  0
  8 10  1  0  0  0  0
  8 11  1  0  0  0  0
 11 12  1  0  0  0  0
 11 13  1  0  0  0  0
 11 14  1  0  0  0  0
 14 15  1  0  0  0  0
 14 16  1  0  0  0  0
 14 17  1  0  0  0  0
 17 18  1  0  0  0  0
 17 19  1  0  0  0  0
 17 20  1  0  0  0  0
 20 21  1  0  0  0  0
 20 22  1  0  0  0  0
 20 23  1  0  0  0  0
 23 24  1  0  0  0  0
 23 25  1  0  0  0  0
 23 26  1  0  0  0  0
 26 27  1  0  0  0  0
 26 28  1  0  0  0  0
 26 29  1  0  0  0  0
M  END
> <VM2 Rank>
470

> <Conf_Id>
1972

> <Probability>
0.00

> <Sum Probability>
100.00

> <Delta G>
7.043

> <G>
65.190

> <E>
26.645

> <-TS>
38.544

> <U+W>
2.501

> <U>
55.368

> <W>
-52.868

> <W(PB)>
-55.205

> <W(SA)>
2.337

> <Valence>
8.201

> <Coulomb>
46.965

> <VdW>
0.202

> <VdW6>
-12.074

> <VdW12>
12.276

> <Bond>
0.335

> <Angle>
2.164

> <Pdih>
5.703

> <Idih>
0.000

> <Tether>
0.000

$$$$
VeraChem MOL file


 29 28  0  0  0  0  0  0  0  0999 V2000     
   20.6957   17.8043   20.8405 C   0  0  0  0  0  0  0  0  0  0  0  0
   21.4612   17.6066   21.6021 H   0  0  0  0  0  0  0  0  0  0  0  0
   20.4160   16.8448   20.3865 H   0  0  0  0  0  0  0  0  0  0  0  0
   21.1453   18.4293   20.0579 H   0  0  0  0  0  0  0  0  0  0  0  0
   19.4622   18.4940   21.4603 C   0  0  0  0  0  0  0  0  0  0  0  0
   19.0111   17.8282   22.2058 H   0  0  0  0  0  0  0  0  0  0  0  0
   18.7020   18.6454   20.6813 H   0  0  0  0  0  0  0  0  0  0  0  0
   19.8287   19.8573   22.0943 C   0  0  0  0  0  0  0  0  0  0  0  0
   20.6668   19.7513   22.7957 H   0  0  0  0  0  0  0  0  0  0  0  0
   20.1916   20.5164   21.2935 H   0  0  0  0  0  0  0  0  0  0  0  0
   18.6302   20.5471   22.7934 C   0  0  0  0  0  0  0  0  0  0  0  0
   17.6852   20.2299   22.3313 H   0  0  0  0  0  0  0  0  0  0  0  0
   18.7025   21.6258   22.5974 H   0  0  0  0  0  0  0  0  0  0  0  0
   18.5574   20.3633   24.3333 C   0  0  0  0  0  0  0  0  0  0  0  0
   19.4566   20.7833   24.8011 H   0  0  0  0  0  0  0  0  0  0  0  0
   17.7283   20.9888   24.6919 H   0  0  0  0  0  0  0  0  0  0  0  0
   18.2980   18.9144   24.8282 C   0  0  0  0  0  0  0  0  0  0  0  0
   17.6618   18.3871   24.1050 H   0  0  0  0  0  0  0  0  0  0  0  0
   17.7017   18.9639   25.7489 H   0  0  0  0  0  0  0  0  0  0  0  0
   19.5719   18.0744   25.1183 C   0  0  0  0  0  0  0  0  0  0  0  0
   19.2700   17.0636   25.4228 H   0  0  0  0  0  0  0  0  0  0  0  0
   20.1614   17.9468   24.2044 H   0  0  0  0  0  0  0  0  0  0  0  0
   20.4873   18.6677   26.2088 C   0  0  0  0  0  0  0  0  0  0  0  0
   20.8448   19.6528   25.8993 H   0  0  0  0  0  0  0  0  0  0  0  0
   21.3575   18.0194   26.3424 H   0  0  0  0  0  0  0  0  0  0  0  0
   19.8126   18.8156   27.5579 N   0  3  0  0  0  0  0  0  0  0  0  0
   19.4774   17.9153   27.9160 H   0  0  0  0  0  0  0  0  0  0  0  0
   19.0037   19.4427   27.5073 H   0  0  0  0  0  0  0  0  0  0  0  0
   20.4502   19.2012   28.2630 H   0  0  0  0  0  0  0  0  0  0  0  0
  1  2  1  0  0  0  0
  1  3  1  0  0  0  0
  1  4  1  0  0  0  0
  1  5  1  0  0  0  0
  5  6  1  0  0  0  0
  5  7  1  0  0  0  0
  5  8  1  0  0  0  0
  8  9  1  0  0  0  0
  8 10  1  0  0  0  0
  8 11  1  0  0  0  0
 11 12  1  0  0  0  0
 11 13  1  0  0  0  0
 11 14  1  0  0  0  0
 14 15  1  0  0  0  0
 14 16  1  0  0  0  0
 14 17  1  0  0  0  0
 17 18  1  0  0  0  0
 17 19  1  0  0  0  0
 17 20  1  0  0  0  0
 20 21  1  0  0  0  0
 20 22  1  0  0  0  0
 20 23  1  0  0  0  0
 23 24  1  0  0  0  0
 23 25  1  0  0  0  0
 23 26  1  0  0  0  0
 26 27  1  0  0  0  0
 26 28  1  0  0  0  0
 26 29  1  0  0  0  0
M  END
> <VM2 Rank>
471

> <Conf_Id>
2603

> <Probability>
0.00

> <Sum Probability>
100.00

> <Delta G>
7.125

> <G>
65.271

> <E>
27.009

> <-TS>
38.262

> <U+W>
2.865

> <U>
55.319

> <W>
-52.454

> <W(PB)>
-54.845

> <W(SA)>
2.391

> <Valence>
8.750

> <Coulomb>
45.963

> <VdW>
0.605

> <VdW6>
-11.304

> <VdW12>
11.909

> <Bond>
0.354

> <Angle>
2.318

> <Pdih>
6.078

> <Idih>
0.000

> <Tether>
0.000

$$$$
VeraChem MOL file


 29 28  0  0  0  0  0  0  0  0999 V2000     
   20.9200   17.4763   21.6190 C   0  0  0  0  0  0  0  0  0  0  0  0
   21.7696   17.8703   22.1917 H   0  0  0  0  0  0  0  0  0  0  0  0
   20.9063   16.3857   21.7427 H   0  0  0  0  0  0  0  0  0  0  0  0
   21.0940   17.6927   20.5568 H   0  0  0  0  0  0  0  0  0  0  0  0
   19.5915   18.0964   22.1002 C   0  0  0  0  0  0  0  0  0  0  0  0
   19.4277   17.8269   23.1493 H   0  0  0  0  0  0  0  0  0  0  0  0
   18.7591   17.6559   21.5339 H   0  0  0  0  0  0  0  0  0  0  0  0
   19.5804   19.6335   21.9213 C   0  0  0  0  0  0  0  0  0  0  0  0
   20.4663   20.0887   22.3833 H   0  0  0  0  0  0  0  0  0  0  0  0
   19.6609   19.8487   20.8468 H   0  0  0  0  0  0  0  0  0  0  0  0
   18.2923   20.3061   22.4604 C   0  0  0  0  0  0  0  0  0  0  0  0
   17.4407   19.6167   22.3791 H   0  0  0  0  0  0  0  0  0  0  0  0
   18.0508   21.1473   21.7959 H   0  0  0  0  0  0  0  0  0  0  0  0
   18.3834   20.8731   23.9034 C   0  0  0  0  0  0  0  0  0  0  0  0
   19.1753   21.6326   23.9601 H   0  0  0  0  0  0  0  0  0  0  0  0
   17.4469   21.4138   24.0985 H   0  0  0  0  0  0  0  0  0  0  0  0
   18.5649   19.8232   25.0296 C   0  0  0  0  0  0  0  0  0  0  0  0
   18.0715   18.8846   24.7474 H   0  0  0  0  0  0  0  0  0  0  0  0
   18.0358   20.1824   25.9233 H   0  0  0  0  0  0  0  0  0  0  0  0
   20.0464   19.5862   25.4197 C   0  0  0  0  0  0  0  0  0  0  0  0
   20.6326   19.2456   24.5594 H   0  0  0  0  0  0  0  0  0  0  0  0
   20.4910   20.5390   25.7361 H   0  0  0  0  0  0  0  0  0  0  0  0
   20.2010   18.5746   26.5711 C   0  0  0  0  0  0  0  0  0  0  0  0
   19.6118   18.9031   27.4315 H   0  0  0  0  0  0  0  0  0  0  0  0
   21.2505   18.5276   26.8742 H   0  0  0  0  0  0  0  0  0  0  0  0
   19.7641   17.1685   26.2102 N   0  3  0  0  0  0  0  0  0  0  0  0
   19.8874   16.5202   26.9959 H   0  0  0  0  0  0  0  0  0  0  0  0
   20.3039   16.7927   25.4239 H   0  0  0  0  0  0  0  0  0  0  0  0
   18.7745   17.1355   25.9467 H   0  0  0  0  0  0  0  0  0  0  0  0
  1  2  1  0  0  0  0
  1  3  1  0  0  0  0
  1  4  1  0  0  0  0
  1  5  1  0  0  0  0
  5  6  1  0  0  0  0
  5  7  1  0  0  0  0
  5  8  1  0  0  0  0
  8  9  1  0  0  0  0
  8 10  1  0  0  0  0
  8 11  1  0  0  0  0
 11 12  1  0  0  0  0
 11 13  1  0  0  0  0
 11 14  1  0  0  0  0
 14 15  1  0  0  0  0
 14 16  1  0  0  0  0
 14 17  1  0  0  0  0
 17 18  1  0  0  0  0
 17 19  1  0  0  0  0
 17 20  1  0  0  0  0
 20 21  1  0  0  0  0
 20 22  1  0  0  0  0
 20 23  1  0  0  0  0
 23 24  1  0  0  0  0
 23 25  1  0  0  0  0
 23 26  1  0  0  0  0
 26 27  1  0  0  0  0
 26 28  1  0  0  0  0
 26 29  1  0  0  0  0
M  END
> <VM2 Rank>
472

> <Conf_Id>
2563

> <Probability>
0.00

> <Sum Probability>
100.00

> <Delta G>
7.165

> <G>
65.311

> <E>
26.981

> <-TS>
38.330

> <U+W>
2.837

> <U>
55.689

> <W>
-52.852

> <W(PB)>
-55.194

> <W(SA)>
2.341

> <Valence>
8.280

> <Coulomb>
47.124

> <VdW>
0.285

> <VdW6>
-11.008

> <VdW12>
11.292

> <Bond>
0.312

> <Angle>
2.003

> <Pdih>
5.965

> <Idih>
0.000

> <Tether>
0.000

$$$$
VeraChem MOL file


 29 28  0  0  0  0  0  0  0  0999 V2000     
   20.9820   19.6873   21.5365 C   0  0  0  0  0  0  0  0  0  0  0  0
   21.6844   20.3743   21.0471 H   0  0  0  0  0  0  0  0  0  0  0  0
   21.1580   19.7536   22.6171 H   0  0  0  0  0  0  0  0  0  0  0  0
   21.2216   18.6689   21.2045 H   0  0  0  0  0  0  0  0  0  0  0  0
   19.5264   20.0607   21.1810 C   0  0  0  0  0  0  0  0  0  0  0  0
   19.4393   20.1387   20.0883 H   0  0  0  0  0  0  0  0  0  0  0  0
   19.3004   21.0609   21.5762 H   0  0  0  0  0  0  0  0  0  0  0  0
   18.4656   19.0504   21.6880 C   0  0  0  0  0  0  0  0  0  0  0  0
   17.4839   19.3980   21.3378 H   0  0  0  0  0  0  0  0  0  0  0  0
   18.6196   18.0713   21.2140 H   0  0  0  0  0  0  0  0  0  0  0  0
   18.4037   18.9001   23.2301 C   0  0  0  0  0  0  0  0  0  0  0  0
   17.3566   18.7372   23.5200 H   0  0  0  0  0  0  0  0  0  0  0  0
   18.7030   19.8434   23.6990 H   0  0  0  0  0  0  0  0  0  0  0  0
   19.2401   17.7072   23.7623 C   0  0  0  0  0  0  0  0  0  0  0  0
   18.8401   16.7889   23.3106 H   0  0  0  0  0  0  0  0  0  0  0  0
   20.2823   17.7714   23.4281 H   0  0  0  0  0  0  0  0  0  0  0  0
   19.1940   17.5445   25.3039 C   0  0  0  0  0  0  0  0  0  0  0  0
   19.3133   16.4766   25.5333 H   0  0  0  0  0  0  0  0  0  0  0  0
   18.2026   17.8172   25.6894 H   0  0  0  0  0  0  0  0  0  0  0  0
   20.3098   18.3067   26.0671 C   0  0  0  0  0  0  0  0  0  0  0  0
   20.2676   18.0319   27.1294 H   0  0  0  0  0  0  0  0  0  0  0  0
   21.2897   17.9669   25.7064 H   0  0  0  0  0  0  0  0  0  0  0  0
   20.2484   19.8415   25.9518 C   0  0  0  0  0  0  0  0  0  0  0  0
   20.3365   20.1384   24.9042 H   0  0  0  0  0  0  0  0  0  0  0  0
   21.0884   20.2791   26.4979 H   0  0  0  0  0  0  0  0  0  0  0  0
   18.9741   20.4395   26.5144 N   0  3  0  0  0  0  0  0  0  0  0  0
   18.1450   20.0796   26.0318 H   0  0  0  0  0  0  0  0  0  0  0  0
   18.9600   21.4614   26.4251 H   0  0  0  0  0  0  0  0  0  0  0  0
   18.8626   20.2238   27.5105 H   0  0  0  0  0  0  0  0  0  0  0  0
  1  2  1  0  0  0  0
  1  3  1  0  0  0  0
  1  4  1  0  0  0  0
  1  5  1  0  0  0  0
  5  6  1  0  0  0  0
  5  7  1  0  0  0  0
  5  8  1  0  0  0  0
  8  9  1  0  0  0  0
  8 10  1  0  0  0  0
  8 11  1  0  0  0  0
 11 12  1  0  0  0  0
 11 13  1  0  0  0  0
 11 14  1  0  0  0  0
 14 15  1  0  0  0  0
 14 16  1  0  0  0  0
 14 17  1  0  0  0  0
 17 18  1  0  0  0  0
 17 19  1  0  0  0  0
 17 20  1  0  0  0  0
 20 21  1  0  0  0  0
 20 22  1  0  0  0  0
 20 23  1  0  0  0  0
 23 24  1  0  0  0  0
 23 25  1  0  0  0  0
 23 26  1  0  0  0  0
 26 27  1  0  0  0  0
 26 28  1  0  0  0  0
 26 29  1  0  0  0  0
M  END
> <VM2 Rank>
473

> <Conf_Id>
2653

> <Probability>
0.00

> <Sum Probability>
100.00

> <Delta G>
7.170

> <G>
65.316

> <E>
27.004

> <-TS>
38.312

> <U+W>
2.860

> <U>
55.529

> <W>
-52.669

> <W(PB)>
-55.020

> <W(SA)>
2.351

> <Valence>
8.223

> <Coulomb>
46.889

> <VdW>
0.417

> <VdW6>
-11.433

> <VdW12>
11.850

> <Bond>
0.338

> <Angle>
2.106

> <Pdih>
5.779

> <Idih>
0.000

> <Tether>
0.000

$$$$
VeraChem MOL file


 29 28  0  0  0  0  0  0  0  0999 V2000     
   21.3865   19.5361   21.5090 C   0  0  0  0  0  0  0  0  0  0  0  0
   21.2290   20.4633   22.0737 H   0  0  0  0  0  0  0  0  0  0  0  0
   21.9511   18.8374   22.1392 H   0  0  0  0  0  0  0  0  0  0  0  0
   22.0124   19.7825   20.6415 H   0  0  0  0  0  0  0  0  0  0  0  0
   20.0485   18.9145   21.0476 C   0  0  0  0  0  0  0  0  0  0  0  0
   20.2643   18.0499   20.4045 H   0  0  0  0  0  0  0  0  0  0  0  0
   19.5018   19.6337   20.4219 H   0  0  0  0  0  0  0  0  0  0  0  0
   19.1510   18.4506   22.2195 C   0  0  0  0  0  0  0  0  0  0  0  0
   18.2965   17.8967   21.8069 H   0  0  0  0  0  0  0  0  0  0  0  0
   19.7112   17.7361   22.8340 H   0  0  0  0  0  0  0  0  0  0  0  0
   18.6177   19.6234   23.0820 C   0  0  0  0  0  0  0  0  0  0  0  0
   18.1006   20.3320   22.4205 H   0  0  0  0  0  0  0  0  0  0  0  0
   19.4471   20.1855   23.5197 H   0  0  0  0  0  0  0  0  0  0  0  0
   17.6192   19.1828   24.1851 C   0  0  0  0  0  0  0  0  0  0  0  0
   17.1797   20.0741   24.6535 H   0  0  0  0  0  0  0  0  0  0  0  0
   16.7821   18.6669   23.6947 H   0  0  0  0  0  0  0  0  0  0  0  0
   18.1841   18.2506   25.2927 C   0  0  0  0  0  0  0  0  0  0  0  0
   18.8214   17.4677   24.8659 H   0  0  0  0  0  0  0  0  0  0  0  0
   17.3334   17.7120   25.7327 H   0  0  0  0  0  0  0  0  0  0  0  0
   18.9136   18.9708   26.4589 C   0  0  0  0  0  0  0  0  0  0  0  0
   18.2206   19.6733   26.9404 H   0  0  0  0  0  0  0  0  0  0  0  0
   19.1685   18.2271   27.2255 H   0  0  0  0  0  0  0  0  0  0  0  0
   20.1967   19.7327   26.0747 C   0  0  0  0  0  0  0  0  0  0  0  0
   20.6626   20.1328   26.9793 H   0  0  0  0  0  0  0  0  0  0  0  0
   19.9466   20.5758   25.4274 H   0  0  0  0  0  0  0  0  0  0  0  0
   21.2266   18.8766   25.3654 N   0  3  0  0  0  0  0  0  0  0  0  0
   20.8560   18.5098   24.4830 H   0  0  0  0  0  0  0  0  0  0  0  0
   21.5115   18.0753   25.9385 H   0  0  0  0  0  0  0  0  0  0  0  0
   22.0763   19.4080   25.1458 H   0  0  0  0  0  0  0  0  0  0  0  0
  1  2  1  0  0  0  0
  1  3  1  0  0  0  0
  1  4  1  0  0  0  0
  1  5  1  0  0  0  0
  5  6  1  0  0  0  0
  5  7  1  0  0  0  0
  5  8  1  0  0  0  0
  8  9  1  0  0  0  0
  8 10  1  0  0  0  0
  8 11  1  0  0  0  0
 11 12  1  0  0  0  0
 11 13  1  0  0  0  0
 11 14  1  0  0  0  0
 14 15  1  0  0  0  0
 14 16  1  0  0  0  0
 14 17  1  0  0  0  0
 17 18  1  0  0  0  0
 17 19  1  0  0  0  0
 17 20  1  0  0  0  0
 20 21  1  0  0  0  0
 20 22  1  0  0  0  0
 20 23  1  0  0  0  0
 23 24  1  0  0  0  0
 23 25  1  0  0  0  0
 23 26  1  0  0  0  0
 26 27  1  0  0  0  0
 26 28  1  0  0  0  0
 26 29  1  0  0  0  0
M  END
> <VM2 Rank>
474

> <Conf_Id>
2928

> <Probability>
0.00

> <Sum Probability>
100.00

> <Delta G>
7.196

> <G>
65.342

> <E>
26.912

> <-TS>
38.430

> <U+W>
2.767

> <U>
54.377

> <W>
-51.610

> <W(PB)>
-53.922

> <W(SA)>
2.311

> <Valence>
6.450

> <Coulomb>
47.649

> <VdW>
0.278

> <VdW6>
-11.848

> <VdW12>
12.127

> <Bond>
0.365

> <Angle>
2.433

> <Pdih>
3.651

> <Idih>
0.000

> <Tether>
0.000

$$$$
VeraChem MOL file


 29 28  0  0  0  0  0  0  0  0999 V2000     
   21.6295   19.4683   21.6635 C   0  0  0  0  0  0  0  0  0  0  0  0
   22.3063   20.3162   21.8307 H   0  0  0  0  0  0  0  0  0  0  0  0
   22.0308   18.6037   22.2080 H   0  0  0  0  0  0  0  0  0  0  0  0
   21.6426   19.2331   20.5912 H   0  0  0  0  0  0  0  0  0  0  0  0
   20.2014   19.8086   22.1385 C   0  0  0  0  0  0  0  0  0  0  0  0
   19.8426   20.6981   21.6020 H   0  0  0  0  0  0  0  0  0  0  0  0
   20.2300   20.0790   23.1997 H   0  0  0  0  0  0  0  0  0  0  0  0
   19.2240   18.6330   21.8990 C   0  0  0  0  0  0  0  0  0  0  0  0
   19.1656   18.4581   20.8157 H   0  0  0  0  0  0  0  0  0  0  0  0
   19.6164   17.7025   22.3300 H   0  0  0  0  0  0  0  0  0  0  0  0
   17.7932   18.9049   22.4291 C   0  0  0  0  0  0  0  0  0  0  0  0
   17.0840   18.4327   21.7353 H   0  0  0  0  0  0  0  0  0  0  0  0
   17.5701   19.9798   22.3872 H   0  0  0  0  0  0  0  0  0  0  0  0
   17.4852   18.3511   23.8471 C   0  0  0  0  0  0  0  0  0  0  0  0
   16.4150   18.5166   24.0337 H   0  0  0  0  0  0  0  0  0  0  0  0
   17.6182   17.2607   23.8624 H   0  0  0  0  0  0  0  0  0  0  0  0
   18.2733   19.0046   25.0113 C   0  0  0  0  0  0  0  0  0  0  0  0
   17.6236   19.0255   25.8974 H   0  0  0  0  0  0  0  0  0  0  0  0
   18.4880   20.0540   24.7735 H   0  0  0  0  0  0  0  0  0  0  0  0
   19.5656   18.2364   25.3896 C   0  0  0  0  0  0  0  0  0  0  0  0
   19.3035   17.2055   25.6618 H   0  0  0  0  0  0  0  0  0  0  0  0
   20.2472   18.1636   24.5354 H   0  0  0  0  0  0  0  0  0  0  0  0
   20.3083   18.8762   26.5779 C   0  0  0  0  0  0  0  0  0  0  0  0
   21.1470   18.2374   26.8679 H   0  0  0  0  0  0  0  0  0  0  0  0
   19.6320   18.9604   27.4328 H   0  0  0  0  0  0  0  0  0  0  0  0
   20.8636   20.2549   26.2790 N   0  3  0  0  0  0  0  0  0  0  0  0
   21.5305   20.2356   25.5008 H   0  0  0  0  0  0  0  0  0  0  0  0
   21.3576   20.6478   27.0879 H   0  0  0  0  0  0  0  0  0  0  0  0
   20.1213   20.9163   26.0307 H   0  0  0  0  0  0  0  0  0  0  0  0
  1  2  1  0  0  0  0
  1  3  1  0  0  0  0
  1  4  1  0  0  0  0
  1  5  1  0  0  0  0
  5  6  1  0  0  0  0
  5  7  1  0  0  0  0
  5  8  1  0  0  0  0
  8  9  1  0  0  0  0
  8 10  1  0  0  0  0
  8 11  1  0  0  0  0
 11 12  1  0  0  0  0
 11 13  1  0  0  0  0
 11 14  1  0  0  0  0
 14 15  1  0  0  0  0
 14 16  1  0  0  0  0
 14 17  1  0  0  0  0
 17 18  1  0  0  0  0
 17 19  1  0  0  0  0
 17 20  1  0  0  0  0
 20 21  1  0  0  0  0
 20 22  1  0  0  0  0
 20 23  1  0  0  0  0
 23 24  1  0  0  0  0
 23 25  1  0  0  0  0
 23 26  1  0  0  0  0
 26 27  1  0  0  0  0
 26 28  1  0  0  0  0
 26 29  1  0  0  0  0
M  END
> <VM2 Rank>
475

> <Conf_Id>
2891

> <Probability>
0.00

> <Sum Probability>
100.00

> <Delta G>
7.218

> <G>
65.365

> <E>
27.035

> <-TS>
38.330

> <U+W>
2.890

> <U>
55.689

> <W>
-52.799

> <W(PB)>
-55.155

> <W(SA)>
2.356

> <Valence>
8.280

> <Coulomb>
47.124

> <VdW>
0.284

> <VdW6>
-11.007

> <VdW12>
11.292

> <Bond>
0.312

> <Angle>
2.003

> <Pdih>
5.965

> <Idih>
0.000

> <Tether>
0.000

$$$$
VeraChem MOL file


 29 28  0  0  0  0  0  0  0  0999 V2000     
   21.1988   18.2051   21.0809 C   0  0  0  0  0  0  0  0  0  0  0  0
   22.2677   18.4496   21.0284 H   0  0  0  0  0  0  0  0  0  0  0  0
   21.1007   17.2230   21.5616 H   0  0  0  0  0  0  0  0  0  0  0  0
   20.8212   18.1222   20.0534 H   0  0  0  0  0  0  0  0  0  0  0  0
   20.4304   19.2867   21.8687 C   0  0  0  0  0  0  0  0  0  0  0  0
   20.5737   20.2620   21.3831 H   0  0  0  0  0  0  0  0  0  0  0  0
   20.8614   19.3700   22.8742 H   0  0  0  0  0  0  0  0  0  0  0  0
   18.9193   18.9654   21.9517 C   0  0  0  0  0  0  0  0  0  0  0  0
   18.5222   18.8828   20.9306 H   0  0  0  0  0  0  0  0  0  0  0  0
   18.7626   17.9823   22.4134 H   0  0  0  0  0  0  0  0  0  0  0  0
   18.1017   20.0433   22.7059 C   0  0  0  0  0  0  0  0  0  0  0  0
   17.0323   19.8192   22.5912 H   0  0  0  0  0  0  0  0  0  0  0  0
   18.2556   21.0127   22.2122 H   0  0  0  0  0  0  0  0  0  0  0  0
   18.4208   20.1961   24.2175 C   0  0  0  0  0  0  0  0  0  0  0  0
   19.4657   20.4934   24.3549 H   0  0  0  0  0  0  0  0  0  0  0  0
   17.8255   21.0405   24.5915 H   0  0  0  0  0  0  0  0  0  0  0  0
   18.0674   18.9492   25.0747 C   0  0  0  0  0  0  0  0  0  0  0  0
   17.2400   18.4095   24.5939 H   0  0  0  0  0  0  0  0  0  0  0  0
   17.6709   19.2782   26.0453 H   0  0  0  0  0  0  0  0  0  0  0  0
   19.2395   17.9634   25.3277 C   0  0  0  0  0  0  0  0  0  0  0  0
   18.8156   16.9654   25.5001 H   0  0  0  0  0  0  0  0  0  0  0  0
   19.8787   17.8680   24.4432 H   0  0  0  0  0  0  0  0  0  0  0  0
   20.0962   18.3159   26.5620 C   0  0  0  0  0  0  0  0  0  0  0  0
   20.8212   17.5163   26.7365 H   0  0  0  0  0  0  0  0  0  0  0  0
   19.4530   18.3869   27.4432 H   0  0  0  0  0  0  0  0  0  0  0  0
   20.8698   19.6129   26.4459 N   0  3  0  0  0  0  0  0  0  0  0  0
   20.2413   20.4112   26.3113 H   0  0  0  0  0  0  0  0  0  0  0  0
   21.5221   19.5969   25.6555 H   0  0  0  0  0  0  0  0  0  0  0  0
   21.4226   19.8020   27.2893 H   0  0  0  0  0  0  0  0  0  0  0  0
  1  2  1  0  0  0  0
  1  3  1  0  0  0  0
  1  4  1  0  0  0  0
  1  5  1  0  0  0  0
  5  6  1  0  0  0  0
  5  7  1  0  0  0  0
  5  8  1  0  0  0  0
  8  9  1  0  0  0  0
  8 10  1  0  0  0  0
  8 11  1  0  0  0  0
 11 12  1  0  0  0  0
 11 13  1  0  0  0  0
 11 14  1  0  0  0  0
 14 15  1  0  0  0  0
 14 16  1  0  0  0  0
 14 17  1  0  0  0  0
 17 18  1  0  0  0  0
 17 19  1  0  0  0  0
 17 20  1  0  0  0  0
 20 21  1  0  0  0  0
 20 22  1  0  0  0  0
 20 23  1  0  0  0  0
 23 24  1  0  0  0  0
 23 25  1  0  0  0  0
 23 26  1  0  0  0  0
 26 27  1  0  0  0  0
 26 28  1  0  0  0  0
 26 29  1  0  0  0  0
M  END
> <VM2 Rank>
476

> <Conf_Id>
306

> <Probability>
0.00

> <Sum Probability>
100.00

> <Delta G>
7.259

> <G>
65.405

> <E>
27.159

> <-TS>
38.246

> <U+W>
3.015

> <U>
55.771

> <W>
-52.757

> <W(PB)>
-55.129

> <W(SA)>
2.372

> <Valence>
8.098

> <Coulomb>
47.193

> <VdW>
0.480

> <VdW6>
-11.255

> <VdW12>
11.735

> <Bond>
0.348

> <Angle>
2.031

> <Pdih>
5.719

> <Idih>
0.000

> <Tether>
0.000

$$$$
VeraChem MOL file


 29 28  0  0  0  0  0  0  0  0999 V2000     
   19.6711   19.7151   19.8201 C   0  0  0  0  0  0  0  0  0  0  0  0
   20.7220   19.7272   19.5026 H   0  0  0  0  0  0  0  0  0  0  0  0
   19.0697   19.3446   18.9797 H   0  0  0  0  0  0  0  0  0  0  0  0
   19.3636   20.7489   20.0249 H   0  0  0  0  0  0  0  0  0  0  0  0
   19.4769   18.8225   21.0641 C   0  0  0  0  0  0  0  0  0  0  0  0
   19.7653   17.7903   20.8211 H   0  0  0  0  0  0  0  0  0  0  0  0
   18.4103   18.8047   21.3242 H   0  0  0  0  0  0  0  0  0  0  0  0
   20.3096   19.3296   22.2649 C   0  0  0  0  0  0  0  0  0  0  0  0
   21.3563   19.4380   21.9487 H   0  0  0  0  0  0  0  0  0  0  0  0
   19.9778   20.3376   22.5442 H   0  0  0  0  0  0  0  0  0  0  0  0
   20.2745   18.3885   23.4984 C   0  0  0  0  0  0  0  0  0  0  0  0
   20.9270   18.8140   24.2689 H   0  0  0  0  0  0  0  0  0  0  0  0
   20.7313   17.4301   23.2155 H   0  0  0  0  0  0  0  0  0  0  0  0
   18.8639   18.1048   24.0880 C   0  0  0  0  0  0  0  0  0  0  0  0
   18.2342   17.6717   23.3004 H   0  0  0  0  0  0  0  0  0  0  0  0
   18.9314   17.3179   24.8507 H   0  0  0  0  0  0  0  0  0  0  0  0
   18.1365   19.3406   24.6832 C   0  0  0  0  0  0  0  0  0  0  0  0
   17.0611   19.2223   24.4918 H   0  0  0  0  0  0  0  0  0  0  0  0
   18.4238   20.2565   24.1532 H   0  0  0  0  0  0  0  0  0  0  0  0
   18.3112   19.5463   26.2113 C   0  0  0  0  0  0  0  0  0  0  0  0
   17.7189   20.4247   26.5001 H   0  0  0  0  0  0  0  0  0  0  0  0
   17.8768   18.7001   26.7599 H   0  0  0  0  0  0  0  0  0  0  0  0
   19.7608   19.7837   26.6783 C   0  0  0  0  0  0  0  0  0  0  0  0
   19.7469   20.3371   27.6212 H   0  0  0  0  0  0  0  0  0  0  0  0
   20.2967   20.3843   25.9385 H   0  0  0  0  0  0  0  0  0  0  0  0
   20.5395   18.5068   26.9267 N   0  3  0  0  0  0  0  0  0  0  0  0
   20.1084   17.9379   27.6629 H   0  0  0  0  0  0  0  0  0  0  0  0
   21.5030   18.6992   27.2222 H   0  0  0  0  0  0  0  0  0  0  0  0
   20.5862   17.9279   26.0826 H   0  0  0  0  0  0  0  0  0  0  0  0
  1  2  1  0  0  0  0
  1  3  1  0  0  0  0
  1  4  1  0  0  0  0
  1  5  1  0  0  0  0
  5  6  1  0  0  0  0
  5  7  1  0  0  0  0
  5  8  1  0  0  0  0
  8  9  1  0  0  0  0
  8 10  1  0  0  0  0
  8 11  1  0  0  0  0
 11 12  1  0  0  0  0
 11 13  1  0  0  0  0
 11 14  1  0  0  0  0
 14 15  1  0  0  0  0
 14 16  1  0  0  0  0
 14 17  1  0  0  0  0
 17 18  1  0  0  0  0
 17 19  1  0  0  0  0
 17 20  1  0  0  0  0
 20 21  1  0  0  0  0
 20 22  1  0  0  0  0
 20 23  1  0  0  0  0
 23 24  1  0  0  0  0
 23 25  1  0  0  0  0
 23 26  1  0  0  0  0
 26 27  1  0  0  0  0
 26 28  1  0  0  0  0
 26 29  1  0  0  0  0
M  END
> <VM2 Rank>
477

> <Conf_Id>
1296

> <Probability>
0.00

> <Sum Probability>
100.00

> <Delta G>
7.334

> <G>
65.481

> <E>
27.578

> <-TS>
37.903

> <U+W>
3.433

> <U>
55.796

> <W>
-52.362

> <W(PB)>
-54.762

> <W(SA)>
2.399

> <Valence>
7.989

> <Coulomb>
47.017

> <VdW>
0.789

> <VdW6>
-11.175

> <VdW12>
11.964

> <Bond>
0.372

> <Angle>
2.357

> <Pdih>
5.260

> <Idih>
0.000

> <Tether>
0.000

$$$$
VeraChem MOL file


 29 28  0  0  0  0  0  0  0  0999 V2000     
   19.2735   18.5944   19.7955 C   0  0  0  0  0  0  0  0  0  0  0  0
   18.3811   17.9775   19.9638 H   0  0  0  0  0  0  0  0  0  0  0  0
   19.0510   19.2936   18.9790 H   0  0  0  0  0  0  0  0  0  0  0  0
   20.0868   17.9363   19.4629 H   0  0  0  0  0  0  0  0  0  0  0  0
   19.6672   19.3602   21.0764 C   0  0  0  0  0  0  0  0  0  0  0  0
   18.8460   20.0349   21.3522 H   0  0  0  0  0  0  0  0  0  0  0  0
   20.5442   19.9894   20.8702 H   0  0  0  0  0  0  0  0  0  0  0  0
   19.9786   18.3950   22.2443 C   0  0  0  0  0  0  0  0  0  0  0  0
   19.0826   17.8105   22.4884 H   0  0  0  0  0  0  0  0  0  0  0  0
   20.7280   17.6647   21.9093 H   0  0  0  0  0  0  0  0  0  0  0  0
   20.5266   19.0988   23.5143 C   0  0  0  0  0  0  0  0  0  0  0  0
   21.4888   19.5660   23.2630 H   0  0  0  0  0  0  0  0  0  0  0  0
   20.7549   18.3274   24.2582 H   0  0  0  0  0  0  0  0  0  0  0  0
   19.6013   20.1838   24.1343 C   0  0  0  0  0  0  0  0  0  0  0  0
   20.1384   20.7215   24.9267 H   0  0  0  0  0  0  0  0  0  0  0  0
   19.3961   20.9475   23.3734 H   0  0  0  0  0  0  0  0  0  0  0  0
   18.2496   19.6595   24.6901 C   0  0  0  0  0  0  0  0  0  0  0  0
   17.9034   18.7892   24.1199 H   0  0  0  0  0  0  0  0  0  0  0  0
   17.4917   20.4363   24.5188 H   0  0  0  0  0  0  0  0  0  0  0  0
   18.2341   19.3289   26.2061 C   0  0  0  0  0  0  0  0  0  0  0  0
   18.4217   20.2372   26.7941 H   0  0  0  0  0  0  0  0  0  0  0  0
   17.2168   19.0088   26.4679 H   0  0  0  0  0  0  0  0  0  0  0  0
   19.2040   18.2134   26.6427 C   0  0  0  0  0  0  0  0  0  0  0  0
   19.2529   17.4397   25.8719 H   0  0  0  0  0  0  0  0  0  0  0  0
   18.8312   17.7549   27.5627 H   0  0  0  0  0  0  0  0  0  0  0  0
   20.6092   18.7040   26.9313 N   0  3  0  0  0  0  0  0  0  0  0  0
   20.6219   19.3873   27.6958 H   0  0  0  0  0  0  0  0  0  0  0  0
   21.0221   19.1577   26.1106 H   0  0  0  0  0  0  0  0  0  0  0  0
   21.2323   17.9363   27.2052 H   0  0  0  0  0  0  0  0  0  0  0  0
  1  2  1  0  0  0  0
  1  3  1  0  0  0  0
  1  4  1  0  0  0  0
  1  5  1  0  0  0  0
  5  6  1  0  0  0  0
  5  7  1  0  0  0  0
  5  8  1  0  0  0  0
  8  9  1  0  0  0  0
  8 10  1  0  0  0  0
  8 11  1  0  0  0  0
 11 12  1  0  0  0  0
 11 13  1  0  0  0  0
 11 14  1  0  0  0  0
 14 15  1  0  0  0  0
 14 16  1  0  0  0  0
 14 17  1  0  0  0  0
 17 18  1  0  0  0  0
 17 19  1  0  0  0  0
 17 20  1  0  0  0  0
 20 21  1  0  0  0  0
 20 22  1  0  0  0  0
 20 23  1  0  0  0  0
 23 24  1  0  0  0  0
 23 25  1  0  0  0  0
 23 26  1  0  0  0  0
 26 27  1  0  0  0  0
 26 28  1  0  0  0  0
 26 29  1  0  0  0  0
M  END
> <VM2 Rank>
478

> <Conf_Id>
2332

> <Probability>
0.00

> <Sum Probability>
100.00

> <Delta G>
7.395

> <G>
65.541

> <E>
27.638

> <-TS>
37.904

> <U+W>
3.493

> <U>
55.796

> <W>
-52.302

> <W(PB)>
-54.725

> <W(SA)>
2.422

> <Valence>
7.989

> <Coulomb>
47.017

> <VdW>
0.789

> <VdW6>
-11.176

> <VdW12>
11.965

> <Bond>
0.372

> <Angle>
2.358

> <Pdih>
5.259

> <Idih>
0.000

> <Tether>
0.000

$$$$
VeraChem MOL file


 29 28  0  0  0  0  0  0  0  0999 V2000     
   18.6736   18.8547   20.1806 C   0  0  0  0  0  0  0  0  0  0  0  0
   17.8875   19.3530   20.7613 H   0  0  0  0  0  0  0  0  0  0  0  0
   19.2849   19.6264   19.6950 H   0  0  0  0  0  0  0  0  0  0  0  0
   18.1814   18.2709   19.3922 H   0  0  0  0  0  0  0  0  0  0  0  0
   19.5418   17.9370   21.0708 C   0  0  0  0  0  0  0  0  0  0  0  0
   20.2306   17.3701   20.4291 H   0  0  0  0  0  0  0  0  0  0  0  0
   18.9031   17.1938   21.5683 H   0  0  0  0  0  0  0  0  0  0  0  0
   20.3689   18.7085   22.1271 C   0  0  0  0  0  0  0  0  0  0  0  0
   21.0318   17.9965   22.6374 H   0  0  0  0  0  0  0  0  0  0  0  0
   21.0242   19.4322   21.6228 H   0  0  0  0  0  0  0  0  0  0  0  0
   19.4984   19.4388   23.1774 C   0  0  0  0  0  0  0  0  0  0  0  0
   18.7841   18.7334   23.6172 H   0  0  0  0  0  0  0  0  0  0  0  0
   18.8970   20.2140   22.6845 H   0  0  0  0  0  0  0  0  0  0  0  0
   20.3627   20.1070   24.2752 C   0  0  0  0  0  0  0  0  0  0  0  0
   21.0952   19.4013   24.6887 H   0  0  0  0  0  0  0  0  0  0  0  0
   20.9534   20.9033   23.8012 H   0  0  0  0  0  0  0  0  0  0  0  0
   19.5206   20.7318   25.4167 C   0  0  0  0  0  0  0  0  0  0  0  0
   18.5386   21.0444   25.0354 H   0  0  0  0  0  0  0  0  0  0  0  0
   20.0183   21.6568   25.7393 H   0  0  0  0  0  0  0  0  0  0  0  0
   19.3408   19.8391   26.6738 C   0  0  0  0  0  0  0  0  0  0  0  0
   20.3166   19.6328   27.1335 H   0  0  0  0  0  0  0  0  0  0  0  0
   18.7766   20.4175   27.4175 H   0  0  0  0  0  0  0  0  0  0  0  0
   18.5856   18.5155   26.4381 C   0  0  0  0  0  0  0  0  0  0  0  0
   17.7456   18.6828   25.7588 H   0  0  0  0  0  0  0  0  0  0  0  0
   18.1865   18.1572   27.3909 H   0  0  0  0  0  0  0  0  0  0  0  0
   19.4515   17.4055   25.8752 N   0  3  0  0  0  0  0  0  0  0  0  0
   20.2236   17.1702   26.5078 H   0  0  0  0  0  0  0  0  0  0  0  0
   19.8634   17.6767   24.9763 H   0  0  0  0  0  0  0  0  0  0  0  0
   18.9152   16.5443   25.7223 H   0  0  0  0  0  0  0  0  0  0  0  0
  1  2  1  0  0  0  0
  1  3  1  0  0  0  0
  1  4  1  0  0  0  0
  1  5  1  0  0  0  0
  5  6  1  0  0  0  0
  5  7  1  0  0  0  0
  5  8  1  0  0  0  0
  8  9  1  0  0  0  0
  8 10  1  0  0  0  0
  8 11  1  0  0  0  0
 11 12  1  0  0  0  0
 11 13  1  0  0  0  0
 11 14  1  0  0  0  0
 14 15  1  0  0  0  0
 14 16  1  0  0  0  0
 14 17  1  0  0  0  0
 17 18  1  0  0  0  0
 17 19  1  0  0  0  0
 17 20  1  0  0  0  0
 20 21  1  0  0  0  0
 20 22  1  0  0  0  0
 20 23  1  0  0  0  0
 23 24  1  0  0  0  0
 23 25  1  0  0  0  0
 23 26  1  0  0  0  0
 26 27  1  0  0  0  0
 26 28  1  0  0  0  0
 26 29  1  0  0  0  0
M  END
> <VM2 Rank>
479

> <Conf_Id>
2011

> <Probability>
0.00

> <Sum Probability>
100.00

> <Delta G>
7.414

> <G>
65.560

> <E>
27.466

> <-TS>
38.095

> <U+W>
3.321

> <U>
54.941

> <W>
-51.620

> <W(PB)>
-54.027

> <W(SA)>
2.408

> <Valence>
7.115

> <Coulomb>
47.184

> <VdW>
0.642

> <VdW6>
-10.766

> <VdW12>
11.407

> <Bond>
0.284

> <Angle>
1.697

> <Pdih>
5.134

> <Idih>
0.000

> <Tether>
0.000

$$$$
VeraChem MOL file


 29 28  0  0  0  0  0  0  0  0999 V2000     
   20.1086   17.4517   21.0347 C   0  0  0  0  0  0  0  0  0  0  0  0
   20.8345   17.3092   21.8448 H   0  0  0  0  0  0  0  0  0  0  0  0
   19.1856   16.9210   21.3019 H   0  0  0  0  0  0  0  0  0  0  0  0
   20.5210   16.9763   20.1353 H   0  0  0  0  0  0  0  0  0  0  0  0
   19.8329   18.9503   20.7758 C   0  0  0  0  0  0  0  0  0  0  0  0
   19.2022   19.0445   19.8808 H   0  0  0  0  0  0  0  0  0  0  0  0
   20.7755   19.4651   20.5431 H   0  0  0  0  0  0  0  0  0  0  0  0
   19.1266   19.6580   21.9571 C   0  0  0  0  0  0  0  0  0  0  0  0
   18.8696   20.6800   21.6464 H   0  0  0  0  0  0  0  0  0  0  0  0
   18.1755   19.1504   22.1631 H   0  0  0  0  0  0  0  0  0  0  0  0
   19.9929   19.7217   23.2408 C   0  0  0  0  0  0  0  0  0  0  0  0
   20.9626   20.1718   22.9875 H   0  0  0  0  0  0  0  0  0  0  0  0
   20.2013   18.7058   23.5932 H   0  0  0  0  0  0  0  0  0  0  0  0
   19.3392   20.5589   24.3716 C   0  0  0  0  0  0  0  0  0  0  0  0
   20.0919   20.8340   25.1221 H   0  0  0  0  0  0  0  0  0  0  0  0
   19.0011   21.5124   23.9427 H   0  0  0  0  0  0  0  0  0  0  0  0
   18.1357   19.8691   25.0683 C   0  0  0  0  0  0  0  0  0  0  0  0
   17.6199   19.1936   24.3743 H   0  0  0  0  0  0  0  0  0  0  0  0
   17.4004   20.6458   25.3204 H   0  0  0  0  0  0  0  0  0  0  0  0
   18.4737   19.1091   26.3784 C   0  0  0  0  0  0  0  0  0  0  0  0
   18.8703   19.8052   27.1294 H   0  0  0  0  0  0  0  0  0  0  0  0
   17.5330   18.7249   26.7945 H   0  0  0  0  0  0  0  0  0  0  0  0
   19.4347   17.9149   26.2123 C   0  0  0  0  0  0  0  0  0  0  0  0
   19.2042   17.3780   25.2883 H   0  0  0  0  0  0  0  0  0  0  0  0
   19.2969   17.2258   27.0499 H   0  0  0  0  0  0  0  0  0  0  0  0
   20.8997   18.3041   26.1960 N   0  3  0  0  0  0  0  0  0  0  0  0
   21.5095   17.4886   26.0706 H   0  0  0  0  0  0  0  0  0  0  0  0
   21.1806   18.7566   27.0723 H   0  0  0  0  0  0  0  0  0  0  0  0
   21.1021   18.9604   25.4354 H   0  0  0  0  0  0  0  0  0  0  0  0
  1  2  1  0  0  0  0
  1  3  1  0  0  0  0
  1  4  1  0  0  0  0
  1  5  1  0  0  0  0
  5  6  1  0  0  0  0
  5  7  1  0  0  0  0
  5  8  1  0  0  0  0
  8  9  1  0  0  0  0
  8 10  1  0  0  0  0
  8 11  1  0  0  0  0
 11 12  1  0  0  0  0
 11 13  1  0  0  0  0
 11 14  1  0  0  0  0
 14 15  1  0  0  0  0
 14 16  1  0  0  0  0
 14 17  1  0  0  0  0
 17 18  1  0  0  0  0
 17 19  1  0  0  0  0
 17 20  1  0  0  0  0
 20 21  1  0  0  0  0
 20 22  1  0  0  0  0
 20 23  1  0  0  0  0
 23 24  1  0  0  0  0
 23 25  1  0  0  0  0
 23 26  1  0  0  0  0
 26 27  1  0  0  0  0
 26 28  1  0  0  0  0
 26 29  1  0  0  0  0
M  END
> <VM2 Rank>
480

> <Conf_Id>
1977

> <Probability>
0.00

> <Sum Probability>
100.00

> <Delta G>
7.453

> <G>
65.600

> <E>
27.506

> <-TS>
38.094

> <U+W>
3.361

> <U>
55.776

> <W>
-52.415

> <W(PB)>
-54.787

> <W(SA)>
2.373

> <Valence>
7.842

> <Coulomb>
47.177

> <VdW>
0.757

> <VdW6>
-11.138

> <VdW12>
11.895

> <Bond>
0.338

> <Angle>
1.835

> <Pdih>
5.669

> <Idih>
0.000

> <Tether>
0.000

$$$$
VeraChem MOL file


 29 28  0  0  0  0  0  0  0  0999 V2000     
   20.6168   18.9366   19.8443 C   0  0  0  0  0  0  0  0  0  0  0  0
   21.5671   18.4804   20.1509 H   0  0  0  0  0  0  0  0  0  0  0  0
   20.2378   18.3771   18.9792 H   0  0  0  0  0  0  0  0  0  0  0  0
   20.8205   19.9647   19.5174 H   0  0  0  0  0  0  0  0  0  0  0  0
   19.5929   18.9137   20.9988 C   0  0  0  0  0  0  0  0  0  0  0  0
   19.3849   17.8702   21.2704 H   0  0  0  0  0  0  0  0  0  0  0  0
   18.6446   19.3486   20.6534 H   0  0  0  0  0  0  0  0  0  0  0  0
   20.1067   19.6937   22.2317 C   0  0  0  0  0  0  0  0  0  0  0  0
   21.0307   19.2290   22.6018 H   0  0  0  0  0  0  0  0  0  0  0  0
   20.3768   20.7129   21.9221 H   0  0  0  0  0  0  0  0  0  0  0  0
   19.0709   19.7866   23.3786 C   0  0  0  0  0  0  0  0  0  0  0  0
   18.1616   20.2798   23.0078 H   0  0  0  0  0  0  0  0  0  0  0  0
   19.4670   20.4496   24.1569 H   0  0  0  0  0  0  0  0  0  0  0  0
   18.6931   18.4092   23.9827 C   0  0  0  0  0  0  0  0  0  0  0  0
   18.0939   17.8623   23.2424 H   0  0  0  0  0  0  0  0  0  0  0  0
   19.5859   17.7942   24.1566 H   0  0  0  0  0  0  0  0  0  0  0  0
   17.8608   18.5247   25.2854 C   0  0  0  0  0  0  0  0  0  0  0  0
   17.1218   17.7115   25.2897 H   0  0  0  0  0  0  0  0  0  0  0  0
   17.2746   19.4541   25.2791 H   0  0  0  0  0  0  0  0  0  0  0  0
   18.6734   18.4189   26.6038 C   0  0  0  0  0  0  0  0  0  0  0  0
   17.9622   18.4536   27.4397 H   0  0  0  0  0  0  0  0  0  0  0  0
   19.1628   17.4380   26.6684 H   0  0  0  0  0  0  0  0  0  0  0  0
   19.7132   19.5356   26.8267 C   0  0  0  0  0  0  0  0  0  0  0  0
   19.9575   19.5898   27.8911 H   0  0  0  0  0  0  0  0  0  0  0  0
   19.2941   20.4989   26.5245 H   0  0  0  0  0  0  0  0  0  0  0  0
   21.0162   19.3189   26.0830 N   0  3  0  0  0  0  0  0  0  0  0  0
   21.4817   18.4546   26.3792 H   0  0  0  0  0  0  0  0  0  0  0  0
   21.6781   20.0867   26.2421 H   0  0  0  0  0  0  0  0  0  0  0  0
   20.8577   19.2511   25.0723 H   0  0  0  0  0  0  0  0  0  0  0  0
  1  2  1  0  0  0  0
  1  3  1  0  0  0  0
  1  4  1  0  0  0  0
  1  5  1  0  0  0  0
  5  6  1  0  0  0  0
  5  7  1  0  0  0  0
  5  8  1  0  0  0  0
  8  9  1  0  0  0  0
  8 10  1  0  0  0  0
  8 11  1  0  0  0  0
 11 12  1  0  0  0  0
 11 13  1  0  0  0  0
 11 14  1  0  0  0  0
 14 15  1  0  0  0  0
 14 16  1  0  0  0  0
 14 17  1  0  0  0  0
 17 18  1  0  0  0  0
 17 19  1  0  0  0  0
 17 20  1  0  0  0  0
 20 21  1  0  0  0  0
 20 22  1  0  0  0  0
 20 23  1  0  0  0  0
 23 24  1  0  0  0  0
 23 25  1  0  0  0  0
 23 26  1  0  0  0  0
 26 27  1  0  0  0  0
 26 28  1  0  0  0  0
 26 29  1  0  0  0  0
M  END
> <VM2 Rank>
481

> <Conf_Id>
953

> <Probability>
0.00

> <Sum Probability>
100.00

> <Delta G>
7.461

> <G>
65.608

> <E>
27.462

> <-TS>
38.146

> <U+W>
3.317

> <U>
54.961

> <W>
-51.644

> <W(PB)>
-54.083

> <W(SA)>
2.439

> <Valence>
7.165

> <Coulomb>
47.155

> <VdW>
0.641

> <VdW6>
-10.820

> <VdW12>
11.462

> <Bond>
0.290

> <Angle>
1.665

> <Pdih>
5.210

> <Idih>
0.000

> <Tether>
0.000

$$$$
VeraChem MOL file


 29 28  0  0  0  0  0  0  0  0999 V2000     
   21.1003   19.1076   21.3516 C   0  0  0  0  0  0  0  0  0  0  0  0
   21.8813   19.2936   20.6031 H   0  0  0  0  0  0  0  0  0  0  0  0
   21.4676   19.4752   22.3177 H   0  0  0  0  0  0  0  0  0  0  0  0
   20.9649   18.0215   21.4153 H   0  0  0  0  0  0  0  0  0  0  0  0
   19.7882   19.8120   20.9447 C   0  0  0  0  0  0  0  0  0  0  0  0
   19.4000   19.3523   20.0251 H   0  0  0  0  0  0  0  0  0  0  0  0
   20.0166   20.8559   20.6883 H   0  0  0  0  0  0  0  0  0  0  0  0
   18.6836   19.8084   22.0327 C   0  0  0  0  0  0  0  0  0  0  0  0
   19.0115   20.3755   22.9109 H   0  0  0  0  0  0  0  0  0  0  0  0
   17.8334   20.3752   21.6288 H   0  0  0  0  0  0  0  0  0  0  0  0
   18.1603   18.4042   22.4396 C   0  0  0  0  0  0  0  0  0  0  0  0
   18.1619   17.7469   21.5593 H   0  0  0  0  0  0  0  0  0  0  0  0
   17.1047   18.5014   22.7285 H   0  0  0  0  0  0  0  0  0  0  0  0
   18.9075   17.7039   23.6076 C   0  0  0  0  0  0  0  0  0  0  0  0
   18.4539   16.7116   23.7372 H   0  0  0  0  0  0  0  0  0  0  0  0
   19.9538   17.5075   23.3477 H   0  0  0  0  0  0  0  0  0  0  0  0
   18.8194   18.4507   24.9647 C   0  0  0  0  0  0  0  0  0  0  0  0
   18.5673   17.7202   25.7450 H   0  0  0  0  0  0  0  0  0  0  0  0
   17.9924   19.1740   24.9483 H   0  0  0  0  0  0  0  0  0  0  0  0
   20.1413   19.1585   25.3551 C   0  0  0  0  0  0  0  0  0  0  0  0
   20.9442   18.4170   25.4622 H   0  0  0  0  0  0  0  0  0  0  0  0
   20.4544   19.8386   24.5546 H   0  0  0  0  0  0  0  0  0  0  0  0
   20.0173   19.9706   26.6584 C   0  0  0  0  0  0  0  0  0  0  0  0
   19.2155   20.7071   26.5580 H   0  0  0  0  0  0  0  0  0  0  0  0
   20.9523   20.5068   26.8423 H   0  0  0  0  0  0  0  0  0  0  0  0
   19.7261   19.1222   27.8805 N   0  3  0  0  0  0  0  0  0  0  0  0
   20.4586   18.4231   28.0416 H   0  0  0  0  0  0  0  0  0  0  0  0
   18.8394   18.6167   27.7882 H   0  0  0  0  0  0  0  0  0  0  0  0
   19.6611   19.6906   28.7321 H   0  0  0  0  0  0  0  0  0  0  0  0
  1  2  1  0  0  0  0
  1  3  1  0  0  0  0
  1  4  1  0  0  0  0
  1  5  1  0  0  0  0
  5  6  1  0  0  0  0
  5  7  1  0  0  0  0
  5  8  1  0  0  0  0
  8  9  1  0  0  0  0
  8 10  1  0  0  0  0
  8 11  1  0  0  0  0
 11 12  1  0  0  0  0
 11 13  1  0  0  0  0
 11 14  1  0  0  0  0
 14 15  1  0  0  0  0
 14 16  1  0  0  0  0
 14 17  1  0  0  0  0
 17 18  1  0  0  0  0
 17 19  1  0  0  0  0
 17 20  1  0  0  0  0
 20 21  1  0  0  0  0
 20 22  1  0  0  0  0
 20 23  1  0  0  0  0
 23 24  1  0  0  0  0
 23 25  1  0  0  0  0
 23 26  1  0  0  0  0
 26 27  1  0  0  0  0
 26 28  1  0  0  0  0
 26 29  1  0  0  0  0
M  END
> <VM2 Rank>
482

> <Conf_Id>
1038

> <Probability>
0.00

> <Sum Probability>
100.00

> <Delta G>
7.499

> <G>
65.646

> <E>
27.534

> <-TS>
38.111

> <U+W>
3.390

> <U>
55.720

> <W>
-52.330

> <W(PB)>
-54.710

> <W(SA)>
2.380

> <Valence>
9.315

> <Coulomb>
45.595

> <VdW>
0.809

> <VdW6>
-10.833

> <VdW12>
11.642

> <Bond>
0.364

> <Angle>
2.376

> <Pdih>
6.575

> <Idih>
0.000

> <Tether>
0.000

$$$$
VeraChem MOL file


 29 28  0  0  0  0  0  0  0  0999 V2000     
   19.7996   17.8369   20.2841 C   0  0  0  0  0  0  0  0  0  0  0  0
   20.2625   17.1366   20.9903 H   0  0  0  0  0  0  0  0  0  0  0  0
   19.3321   17.2420   19.4889 H   0  0  0  0  0  0  0  0  0  0  0  0
   20.5938   18.4420   19.8280 H   0  0  0  0  0  0  0  0  0  0  0  0
   18.7484   18.7322   20.9783 C   0  0  0  0  0  0  0  0  0  0  0  0
   17.9837   18.1028   21.4547 H   0  0  0  0  0  0  0  0  0  0  0  0
   18.2265   19.3232   20.2128 H   0  0  0  0  0  0  0  0  0  0  0  0
   19.3552   19.6995   22.0232 C   0  0  0  0  0  0  0  0  0  0  0  0
   20.1027   20.3407   21.5362 H   0  0  0  0  0  0  0  0  0  0  0  0
   18.5593   20.3689   22.3736 H   0  0  0  0  0  0  0  0  0  0  0  0
   19.9992   18.9743   23.2321 C   0  0  0  0  0  0  0  0  0  0  0  0
   20.8441   18.3697   22.8773 H   0  0  0  0  0  0  0  0  0  0  0  0
   19.2721   18.2764   23.6641 H   0  0  0  0  0  0  0  0  0  0  0  0
   20.5244   19.9551   24.3129 C   0  0  0  0  0  0  0  0  0  0  0  0
   21.2587   19.4522   24.9561 H   0  0  0  0  0  0  0  0  0  0  0  0
   21.0852   20.7547   23.8091 H   0  0  0  0  0  0  0  0  0  0  0  0
   19.4153   20.5955   25.1900 C   0  0  0  0  0  0  0  0  0  0  0  0
   18.4742   20.6734   24.6310 H   0  0  0  0  0  0  0  0  0  0  0  0
   19.7124   21.6304   25.4093 H   0  0  0  0  0  0  0  0  0  0  0  0
   19.1554   19.8901   26.5477 C   0  0  0  0  0  0  0  0  0  0  0  0
   20.0615   19.9135   27.1675 H   0  0  0  0  0  0  0  0  0  0  0  0
   18.4052   20.4785   27.0925 H   0  0  0  0  0  0  0  0  0  0  0  0
   18.6299   18.4443   26.4424 C   0  0  0  0  0  0  0  0  0  0  0  0
   17.9071   18.3704   25.6256 H   0  0  0  0  0  0  0  0  0  0  0  0
   18.1202   18.1804   27.3730 H   0  0  0  0  0  0  0  0  0  0  0  0
   19.7165   17.4102   26.2241 N   0  3  0  0  0  0  0  0  0  0  0  0
   20.2445   17.6009   25.3667 H   0  0  0  0  0  0  0  0  0  0  0  0
   19.3307   16.4628   26.1448 H   0  0  0  0  0  0  0  0  0  0  0  0
   20.3875   17.3969   26.9994 H   0  0  0  0  0  0  0  0  0  0  0  0
  1  2  1  0  0  0  0
  1  3  1  0  0  0  0
  1  4  1  0  0  0  0
  1  5  1  0  0  0  0
  5  6  1  0  0  0  0
  5  7  1  0  0  0  0
  5  8  1  0  0  0  0
  8  9  1  0  0  0  0
  8 10  1  0  0  0  0
  8 11  1  0  0  0  0
 11 12  1  0  0  0  0
 11 13  1  0  0  0  0
 11 14  1  0  0  0  0
 14 15  1  0  0  0  0
 14 16  1  0  0  0  0
 14 17  1  0  0  0  0
 17 18  1  0  0  0  0
 17 19  1  0  0  0  0
 17 20  1  0  0  0  0
 20 21  1  0  0  0  0
 20 22  1  0  0  0  0
 20 23  1  0  0  0  0
 23 24  1  0  0  0  0
 23 25  1  0  0  0  0
 23 26  1  0  0  0  0
 26 27  1  0  0  0  0
 26 28  1  0  0  0  0
 26 29  1  0  0  0  0
M  END
> <VM2 Rank>
483

> <Conf_Id>
804

> <Probability>
0.00

> <Sum Probability>
100.00

> <Delta G>
7.600

> <G>
65.746

> <E>
27.618

> <-TS>
38.129

> <U+W>
3.473

> <U>
55.775

> <W>
-52.302

> <W(PB)>
-54.712

> <W(SA)>
2.410

> <Valence>
7.940

> <Coulomb>
46.996

> <VdW>
0.839

> <VdW6>
-11.015

> <VdW12>
11.854

> <Bond>
0.334

> <Angle>
1.815

> <Pdih>
5.790

> <Idih>
0.000

> <Tether>
0.000

$$$$
VeraChem MOL file


 29 28  0  0  0  0  0  0  0  0999 V2000     
   21.2242   18.3272   22.1235 C   0  0  0  0  0  0  0  0  0  0  0  0
   21.9100   17.7249   21.5137 H   0  0  0  0  0  0  0  0  0  0  0  0
   21.8341   18.9744   22.7665 H   0  0  0  0  0  0  0  0  0  0  0  0
   20.6637   17.6369   22.7612 H   0  0  0  0  0  0  0  0  0  0  0  0
   20.2945   19.1639   21.2163 C   0  0  0  0  0  0  0  0  0  0  0  0
   19.7070   18.5024   20.5646 H   0  0  0  0  0  0  0  0  0  0  0  0
   20.9309   19.7574   20.5450 H   0  0  0  0  0  0  0  0  0  0  0  0
   19.3578   20.1361   21.9812 C   0  0  0  0  0  0  0  0  0  0  0  0
   19.8463   20.5346   22.8776 H   0  0  0  0  0  0  0  0  0  0  0  0
   19.2025   21.0103   21.3339 H   0  0  0  0  0  0  0  0  0  0  0  0
   17.9500   19.5712   22.3088 C   0  0  0  0  0  0  0  0  0  0  0  0
   17.5067   19.1887   21.3792 H   0  0  0  0  0  0  0  0  0  0  0  0
   17.3034   20.4053   22.6143 H   0  0  0  0  0  0  0  0  0  0  0  0
   17.8580   18.4611   23.3892 C   0  0  0  0  0  0  0  0  0  0  0  0
   16.8286   18.0780   23.3593 H   0  0  0  0  0  0  0  0  0  0  0  0
   18.4851   17.6008   23.1293 H   0  0  0  0  0  0  0  0  0  0  0  0
   18.1271   18.9351   24.8425 C   0  0  0  0  0  0  0  0  0  0  0  0
   17.4856   18.3500   25.5162 H   0  0  0  0  0  0  0  0  0  0  0  0
   17.8144   19.9815   24.9627 H   0  0  0  0  0  0  0  0  0  0  0  0
   19.5902   18.7582   25.3098 C   0  0  0  0  0  0  0  0  0  0  0  0
   19.8897   17.7084   25.1938 H   0  0  0  0  0  0  0  0  0  0  0  0
   20.2657   19.3570   24.6913 H   0  0  0  0  0  0  0  0  0  0  0  0
   19.7611   19.1746   26.7810 C   0  0  0  0  0  0  0  0  0  0  0  0
   19.1076   18.5680   27.4137 H   0  0  0  0  0  0  0  0  0  0  0  0
   19.4797   20.2242   26.9016 H   0  0  0  0  0  0  0  0  0  0  0  0
   21.1811   19.0105   27.2828 N   0  3  0  0  0  0  0  0  0  0  0  0
   21.2723   19.2925   28.2651 H   0  0  0  0  0  0  0  0  0  0  0  0
   21.8442   19.5792   26.7460 H   0  0  0  0  0  0  0  0  0  0  0  0
   21.4977   18.0371   27.2210 H   0  0  0  0  0  0  0  0  0  0  0  0
  1  2  1  0  0  0  0
  1  3  1  0  0  0  0
  1  4  1  0  0  0  0
  1  5  1  0  0  0  0
  5  6  1  0  0  0  0
  5  7  1  0  0  0  0
  5  8  1  0  0  0  0
  8  9  1  0  0  0  0
  8 10  1  0  0  0  0
  8 11  1  0  0  0  0
 11 12  1  0  0  0  0
 11 13  1  0  0  0  0
 11 14  1  0  0  0  0
 14 15  1  0  0  0  0
 14 16  1  0  0  0  0
 14 17  1  0  0  0  0
 17 18  1  0  0  0  0
 17 19  1  0  0  0  0
 17 20  1  0  0  0  0
 20 21  1  0  0  0  0
 20 22  1  0  0  0  0
 20 23  1  0  0  0  0
 23 24  1  0  0  0  0
 23 25  1  0  0  0  0
 23 26  1  0  0  0  0
 26 27  1  0  0  0  0
 26 28  1  0  0  0  0
 26 29  1  0  0  0  0
M  END
> <VM2 Rank>
484

> <Conf_Id>
1042

> <Probability>
0.00

> <Sum Probability>
100.00

> <Delta G>
7.625

> <G>
65.772

> <E>
27.590

> <-TS>
38.181

> <U+W>
3.446

> <U>
56.007

> <W>
-52.561

> <W(PB)>
-54.916

> <W(SA)>
2.355

> <Valence>
9.527

> <Coulomb>
46.202

> <VdW>
0.278

> <VdW6>
-10.642

> <VdW12>
10.921

> <Bond>
0.339

> <Angle>
3.123

> <Pdih>
6.065

> <Idih>
0.000

> <Tether>
0.000

$$$$
VeraChem MOL file


 29 28  0  0  0  0  0  0  0  0999 V2000     
   20.5519   19.9507   20.3316 C   0  0  0  0  0  0  0  0  0  0  0  0
   20.5763   20.7381   19.5673 H   0  0  0  0  0  0  0  0  0  0  0  0
   21.3429   20.1727   21.0585 H   0  0  0  0  0  0  0  0  0  0  0  0
   20.7922   18.9987   19.8406 H   0  0  0  0  0  0  0  0  0  0  0  0
   19.1617   19.8934   21.0043 C   0  0  0  0  0  0  0  0  0  0  0  0
   18.3948   19.7955   20.2233 H   0  0  0  0  0  0  0  0  0  0  0  0
   18.9593   20.8447   21.5160 H   0  0  0  0  0  0  0  0  0  0  0  0
   19.0066   18.7197   22.0013 C   0  0  0  0  0  0  0  0  0  0  0  0
   17.9619   18.6900   22.3360 H   0  0  0  0  0  0  0  0  0  0  0  0
   19.1881   17.7705   21.4787 H   0  0  0  0  0  0  0  0  0  0  0  0
   19.9467   18.8267   23.2289 C   0  0  0  0  0  0  0  0  0  0  0  0
   19.8176   19.8091   23.6983 H   0  0  0  0  0  0  0  0  0  0  0  0
   20.9885   18.7753   22.8865 H   0  0  0  0  0  0  0  0  0  0  0  0
   19.7191   17.6927   24.2625 C   0  0  0  0  0  0  0  0  0  0  0  0
   19.6560   16.7394   23.7196 H   0  0  0  0  0  0  0  0  0  0  0  0
   20.5968   17.5929   24.9146 H   0  0  0  0  0  0  0  0  0  0  0  0
   18.4425   17.8626   25.1291 C   0  0  0  0  0  0  0  0  0  0  0  0
   18.0162   16.8650   25.3031 H   0  0  0  0  0  0  0  0  0  0  0  0
   17.6716   18.4188   24.5806 H   0  0  0  0  0  0  0  0  0  0  0  0
   18.6674   18.5194   26.5170 C   0  0  0  0  0  0  0  0  0  0  0  0
   17.7066   18.5160   27.0487 H   0  0  0  0  0  0  0  0  0  0  0  0
   19.3463   17.9045   27.1227 H   0  0  0  0  0  0  0  0  0  0  0  0
   19.1747   19.9749   26.4764 C   0  0  0  0  0  0  0  0  0  0  0  0
   18.9332   20.4644   27.4237 H   0  0  0  0  0  0  0  0  0  0  0  0
   18.6726   20.5210   25.6734 H   0  0  0  0  0  0  0  0  0  0  0  0
   20.6732   20.0979   26.2839 N   0  3  0  0  0  0  0  0  0  0  0  0
   21.1908   19.6538   27.0496 H   0  0  0  0  0  0  0  0  0  0  0  0
   20.9737   21.0783   26.2475 H   0  0  0  0  0  0  0  0  0  0  0  0
   20.9741   19.6507   25.4123 H   0  0  0  0  0  0  0  0  0  0  0  0
  1  2  1  0  0  0  0
  1  3  1  0  0  0  0
  1  4  1  0  0  0  0
  1  5  1  0  0  0  0
  5  6  1  0  0  0  0
  5  7  1  0  0  0  0
  5  8  1  0  0  0  0
  8  9  1  0  0  0  0
  8 10  1  0  0  0  0
  8 11  1  0  0  0  0
 11 12  1  0  0  0  0
 11 13  1  0  0  0  0
 11 14  1  0  0  0  0
 14 15  1  0  0  0  0
 14 16  1  0  0  0  0
 14 17  1  0  0  0  0
 17 18  1  0  0  0  0
 17 19  1  0  0  0  0
 17 20  1  0  0  0  0
 20 21  1  0  0  0  0
 20 22  1  0  0  0  0
 20 23  1  0  0  0  0
 23 24  1  0  0  0  0
 23 25  1  0  0  0  0
 23 26  1  0  0  0  0
 26 27  1  0  0  0  0
 26 28  1  0  0  0  0
 26 29  1  0  0  0  0
M  END
> <VM2 Rank>
485

> <Conf_Id>
806

> <Probability>
0.00

> <Sum Probability>
100.00

> <Delta G>
7.637

> <G>
65.783

> <E>
27.654

> <-TS>
38.129

> <U+W>
3.510

> <U>
55.775

> <W>
-52.265

> <W(PB)>
-54.678

> <W(SA)>
2.413

> <Valence>
7.939

> <Coulomb>
46.996

> <VdW>
0.840

> <VdW6>
-11.015

> <VdW12>
11.855

> <Bond>
0.334

> <Angle>
1.815

> <Pdih>
5.790

> <Idih>
0.000

> <Tether>
0.000

$$$$
VeraChem MOL file


 29 28  0  0  0  0  0  0  0  0999 V2000     
   19.7630   17.3023   21.0837 C   0  0  0  0  0  0  0  0  0  0  0  0
   20.7244   16.9879   21.5100 H   0  0  0  0  0  0  0  0  0  0  0  0
   18.9672   17.0288   21.7875 H   0  0  0  0  0  0  0  0  0  0  0  0
   19.6002   16.7260   20.1637 H   0  0  0  0  0  0  0  0  0  0  0  0
   19.7582   18.8176   20.7789 C   0  0  0  0  0  0  0  0  0  0  0  0
   18.7765   19.1127   20.3826 H   0  0  0  0  0  0  0  0  0  0  0  0
   20.4855   19.0195   19.9802 H   0  0  0  0  0  0  0  0  0  0  0  0
   20.1128   19.6923   22.0052 C   0  0  0  0  0  0  0  0  0  0  0  0
   21.0981   19.3971   22.3908 H   0  0  0  0  0  0  0  0  0  0  0  0
   20.2117   20.7354   21.6741 H   0  0  0  0  0  0  0  0  0  0  0  0
   19.0596   19.6219   23.1363 C   0  0  0  0  0  0  0  0  0  0  0  0
   18.9539   18.5905   23.4881 H   0  0  0  0  0  0  0  0  0  0  0  0
   18.0770   19.9079   22.7362 H   0  0  0  0  0  0  0  0  0  0  0  0
   19.4191   20.5614   24.3136 C   0  0  0  0  0  0  0  0  0  0  0  0
   20.4657   20.4310   24.6192 H   0  0  0  0  0  0  0  0  0  0  0  0
   19.3417   21.5975   23.9555 H   0  0  0  0  0  0  0  0  0  0  0  0
   18.4820   20.3905   25.5363 C   0  0  0  0  0  0  0  0  0  0  0  0
   17.4870   20.0598   25.2076 H   0  0  0  0  0  0  0  0  0  0  0  0
   18.3284   21.3803   25.9879 H   0  0  0  0  0  0  0  0  0  0  0  0
   19.0123   19.4490   26.6511 C   0  0  0  0  0  0  0  0  0  0  0  0
   19.9456   19.8480   27.0701 H   0  0  0  0  0  0  0  0  0  0  0  0
   18.2857   19.4623   27.4743 H   0  0  0  0  0  0  0  0  0  0  0  0
   19.2168   17.9794   26.2305 C   0  0  0  0  0  0  0  0  0  0  0  0
   18.3892   17.6567   25.5933 H   0  0  0  0  0  0  0  0  0  0  0  0
   19.2231   17.3497   27.1243 H   0  0  0  0  0  0  0  0  0  0  0  0
   20.5203   17.7237   25.4994 N   0  3  0  0  0  0  0  0  0  0  0  0
   21.3320   17.9575   26.0808 H   0  0  0  0  0  0  0  0  0  0  0  0
   20.5821   18.2871   24.6448 H   0  0  0  0  0  0  0  0  0  0  0  0
   20.6181   16.7388   25.2286 H   0  0  0  0  0  0  0  0  0  0  0  0
  1  2  1  0  0  0  0
  1  3  1  0  0  0  0
  1  4  1  0  0  0  0
  1  5  1  0  0  0  0
  5  6  1  0  0  0  0
  5  7  1  0  0  0  0
  5  8  1  0  0  0  0
  8  9  1  0  0  0  0
  8 10  1  0  0  0  0
  8 11  1  0  0  0  0
 11 12  1  0  0  0  0
 11 13  1  0  0  0  0
 11 14  1  0  0  0  0
 14 15  1  0  0  0  0
 14 16  1  0  0  0  0
 14 17  1  0  0  0  0
 17 18  1  0  0  0  0
 17 19  1  0  0  0  0
 17 20  1  0  0  0  0
 20 21  1  0  0  0  0
 20 22  1  0  0  0  0
 20 23  1  0  0  0  0
 23 24  1  0  0  0  0
 23 25  1  0  0  0  0
 23 26  1  0  0  0  0
 26 27  1  0  0  0  0
 26 28  1  0  0  0  0
 26 29  1  0  0  0  0
M  END
> <VM2 Rank>
486

> <Conf_Id>
2902

> <Probability>
0.00

> <Sum Probability>
100.00

> <Delta G>
7.758

> <G>
65.904

> <E>
27.794

> <-TS>
38.110

> <U+W>
3.649

> <U>
55.068

> <W>
-51.418

> <W(PB)>
-53.815

> <W(SA)>
2.396

> <Valence>
7.106

> <Coulomb>
47.421

> <VdW>
0.541

> <VdW6>
-10.987

> <VdW12>
11.528

> <Bond>
0.285

> <Angle>
1.678

> <Pdih>
5.143

> <Idih>
0.000

> <Tether>
0.000

$$$$
VeraChem MOL file


 29 28  0  0  0  0  0  0  0  0999 V2000     
   21.1922   19.6565   21.2376 C   0  0  0  0  0  0  0  0  0  0  0  0
   22.2621   19.8321   21.4088 H   0  0  0  0  0  0  0  0  0  0  0  0
   21.0754   19.2761   20.2145 H   0  0  0  0  0  0  0  0  0  0  0  0
   20.6843   20.6262   21.3017 H   0  0  0  0  0  0  0  0  0  0  0  0
   20.6377   18.6496   22.2710 C   0  0  0  0  0  0  0  0  0  0  0  0
   20.7740   19.0531   23.2804 H   0  0  0  0  0  0  0  0  0  0  0  0
   21.2415   17.7327   22.2230 H   0  0  0  0  0  0  0  0  0  0  0  0
   19.1532   18.2767   22.0244 C   0  0  0  0  0  0  0  0  0  0  0  0
   19.0478   17.9782   20.9723 H   0  0  0  0  0  0  0  0  0  0  0  0
   18.8895   17.3834   22.6059 H   0  0  0  0  0  0  0  0  0  0  0  0
   18.1354   19.4097   22.3238 C   0  0  0  0  0  0  0  0  0  0  0  0
   17.3129   19.3165   21.6013 H   0  0  0  0  0  0  0  0  0  0  0  0
   18.5785   20.3946   22.1314 H   0  0  0  0  0  0  0  0  0  0  0  0
   17.5029   19.3857   23.7417 C   0  0  0  0  0  0  0  0  0  0  0  0
   16.7220   20.1585   23.7609 H   0  0  0  0  0  0  0  0  0  0  0  0
   16.9761   18.4354   23.9039 H   0  0  0  0  0  0  0  0  0  0  0  0
   18.4760   19.6694   24.9145 C   0  0  0  0  0  0  0  0  0  0  0  0
   17.9296   20.2265   25.6883 H   0  0  0  0  0  0  0  0  0  0  0  0
   19.2809   20.3353   24.5783 H   0  0  0  0  0  0  0  0  0  0  0  0
   19.0447   18.3839   25.5676 C   0  0  0  0  0  0  0  0  0  0  0  0
   18.2115   17.7627   25.9220 H   0  0  0  0  0  0  0  0  0  0  0  0
   19.5893   17.7771   24.8361 H   0  0  0  0  0  0  0  0  0  0  0  0
   19.9650   18.6862   26.7655 C   0  0  0  0  0  0  0  0  0  0  0  0
   20.2542   17.7481   27.2469 H   0  0  0  0  0  0  0  0  0  0  0  0
   19.4271   19.2938   27.4982 H   0  0  0  0  0  0  0  0  0  0  0  0
   21.2369   19.4204   26.3889 N   0  3  0  0  0  0  0  0  0  0  0  0
   21.8047   18.8827   25.7263 H   0  0  0  0  0  0  0  0  0  0  0  0
   21.8258   19.6029   27.2090 H   0  0  0  0  0  0  0  0  0  0  0  0
   21.0365   20.3272   25.9558 H   0  0  0  0  0  0  0  0  0  0  0  0
  1  2  1  0  0  0  0
  1  3  1  0  0  0  0
  1  4  1  0  0  0  0
  1  5  1  0  0  0  0
  5  6  1  0  0  0  0
  5  7  1  0  0  0  0
  5  8  1  0  0  0  0
  8  9  1  0  0  0  0
  8 10  1  0  0  0  0
  8 11  1  0  0  0  0
 11 12  1  0  0  0  0
 11 13  1  0  0  0  0
 11 14  1  0  0  0  0
 14 15  1  0  0  0  0
 14 16  1  0  0  0  0
 14 17  1  0  0  0  0
 17 18  1  0  0  0  0
 17 19  1  0  0  0  0
 17 20  1  0  0  0  0
 20 21  1  0  0  0  0
 20 22  1  0  0  0  0
 20 23  1  0  0  0  0
 23 24  1  0  0  0  0
 23 25  1  0  0  0  0
 23 26  1  0  0  0  0
 26 27  1  0  0  0  0
 26 28  1  0  0  0  0
 26 29  1  0  0  0  0
M  END
> <VM2 Rank>
487

> <Conf_Id>
283

> <Probability>
0.00

> <Sum Probability>
100.00

> <Delta G>
7.919

> <G>
66.065

> <E>
27.756

> <-TS>
38.309

> <U+W>
3.612

> <U>
56.580

> <W>
-52.968

> <W(PB)>
-55.317

> <W(SA)>
2.349

> <Valence>
8.991

> <Coulomb>
47.063

> <VdW>
0.525

> <VdW6>
-11.279

> <VdW12>
11.804

> <Bond>
0.353

> <Angle>
2.265

> <Pdih>
6.373

> <Idih>
0.000

> <Tether>
0.000

$$$$
VeraChem MOL file


 29 28  0  0  0  0  0  0  0  0999 V2000     
   21.4123   19.1702   21.0453 C   0  0  0  0  0  0  0  0  0  0  0  0
   21.4787   20.2069   20.6902 H   0  0  0  0  0  0  0  0  0  0  0  0
   22.4228   18.8451   21.3248 H   0  0  0  0  0  0  0  0  0  0  0  0
   21.0754   18.5432   20.2094 H   0  0  0  0  0  0  0  0  0  0  0  0
   20.4509   19.0548   22.2470 C   0  0  0  0  0  0  0  0  0  0  0  0
   20.8262   19.6746   23.0717 H   0  0  0  0  0  0  0  0  0  0  0  0
   20.4471   18.0134   22.5896 H   0  0  0  0  0  0  0  0  0  0  0  0
   19.0165   19.4891   21.8720 C   0  0  0  0  0  0  0  0  0  0  0  0
   19.0661   20.4586   21.3574 H   0  0  0  0  0  0  0  0  0  0  0  0
   18.6001   18.7805   21.1429 H   0  0  0  0  0  0  0  0  0  0  0  0
   18.0396   19.6353   23.0680 C   0  0  0  0  0  0  0  0  0  0  0  0
   17.0994   20.0316   22.6603 H   0  0  0  0  0  0  0  0  0  0  0  0
   18.3908   20.4083   23.7595 H   0  0  0  0  0  0  0  0  0  0  0  0
   17.6950   18.3212   23.8209 C   0  0  0  0  0  0  0  0  0  0  0  0
   16.6924   18.4362   24.2558 H   0  0  0  0  0  0  0  0  0  0  0  0
   17.6029   17.5022   23.0946 H   0  0  0  0  0  0  0  0  0  0  0  0
   18.6513   17.8856   24.9661 C   0  0  0  0  0  0  0  0  0  0  0  0
   19.6372   17.6118   24.5790 H   0  0  0  0  0  0  0  0  0  0  0  0
   18.2449   16.9544   25.3843 H   0  0  0  0  0  0  0  0  0  0  0  0
   18.7824   18.9042   26.1302 C   0  0  0  0  0  0  0  0  0  0  0  0
   17.8508   19.4765   26.2306 H   0  0  0  0  0  0  0  0  0  0  0  0
   18.8996   18.3559   27.0744 H   0  0  0  0  0  0  0  0  0  0  0  0
   19.9715   19.8772   25.9902 C   0  0  0  0  0  0  0  0  0  0  0  0
   19.9181   20.6275   26.7836 H   0  0  0  0  0  0  0  0  0  0  0  0
   19.9275   20.3951   25.0305 H   0  0  0  0  0  0  0  0  0  0  0  0
   21.3244   19.2004   26.0953 N   0  3  0  0  0  0  0  0  0  0  0  0
   21.4411   18.7266   26.9971 H   0  0  0  0  0  0  0  0  0  0  0  0
   22.0942   19.8731   26.0095 H   0  0  0  0  0  0  0  0  0  0  0  0
   21.4548   18.4951   25.3640 H   0  0  0  0  0  0  0  0  0  0  0  0
  1  2  1  0  0  0  0
  1  3  1  0  0  0  0
  1  4  1  0  0  0  0
  1  5  1  0  0  0  0
  5  6  1  0  0  0  0
  5  7  1  0  0  0  0
  5  8  1  0  0  0  0
  8  9  1  0  0  0  0
  8 10  1  0  0  0  0
  8 11  1  0  0  0  0
 11 12  1  0  0  0  0
 11 13  1  0  0  0  0
 11 14  1  0  0  0  0
 14 15  1  0  0  0  0
 14 16  1  0  0  0  0
 14 17  1  0  0  0  0
 17 18  1  0  0  0  0
 17 19  1  0  0  0  0
 17 20  1  0  0  0  0
 20 21  1  0  0  0  0
 20 22  1  0  0  0  0
 20 23  1  0  0  0  0
 23 24  1  0  0  0  0
 23 25  1  0  0  0  0
 23 26  1  0  0  0  0
 26 27  1  0  0  0  0
 26 28  1  0  0  0  0
 26 29  1  0  0  0  0
M  END
> <VM2 Rank>
488

> <Conf_Id>
1298

> <Probability>
0.00

> <Sum Probability>
100.00

> <Delta G>
7.943

> <G>
66.090

> <E>
27.929

> <-TS>
38.161

> <U+W>
3.784

> <U>
56.781

> <W>
-52.997

> <W(PB)>
-55.352

> <W(SA)>
2.355

> <Valence>
8.937

> <Coulomb>
47.536

> <VdW>
0.309

> <VdW6>
-11.432

> <VdW12>
11.740

> <Bond>
0.370

> <Angle>
3.008

> <Pdih>
5.559

> <Idih>
0.000

> <Tether>
0.000

$$$$
VeraChem MOL file


 29 28  0  0  0  0  0  0  0  0999 V2000     
   20.4840   17.9847   20.2789 C   0  0  0  0  0  0  0  0  0  0  0  0
   21.3400   17.2991   20.2312 H   0  0  0  0  0  0  0  0  0  0  0  0
   19.6453   17.5135   19.7501 H   0  0  0  0  0  0  0  0  0  0  0  0
   20.7562   18.9016   19.7399 H   0  0  0  0  0  0  0  0  0  0  0  0
   20.1134   18.2929   21.7449 C   0  0  0  0  0  0  0  0  0  0  0  0
   20.9885   18.7253   22.2472 H   0  0  0  0  0  0  0  0  0  0  0  0
   19.8756   17.3523   22.2602 H   0  0  0  0  0  0  0  0  0  0  0  0
   18.9079   19.2585   21.8338 C   0  0  0  0  0  0  0  0  0  0  0  0
   19.1501   20.2039   21.3290 H   0  0  0  0  0  0  0  0  0  0  0  0
   18.0643   18.8227   21.2807 H   0  0  0  0  0  0  0  0  0  0  0  0
   18.4467   19.5477   23.2829 C   0  0  0  0  0  0  0  0  0  0  0  0
   18.2255   18.6038   23.7945 H   0  0  0  0  0  0  0  0  0  0  0  0
   17.4911   20.0884   23.2373 H   0  0  0  0  0  0  0  0  0  0  0  0
   19.4541   20.4059   24.0921 C   0  0  0  0  0  0  0  0  0  0  0  0
   20.4605   19.9703   24.0841 H   0  0  0  0  0  0  0  0  0  0  0  0
   19.5489   21.3774   23.5873 H   0  0  0  0  0  0  0  0  0  0  0  0
   19.0009   20.6567   25.5533 C   0  0  0  0  0  0  0  0  0  0  0  0
   17.9041   20.6418   25.6181 H   0  0  0  0  0  0  0  0  0  0  0  0
   19.2971   21.6779   25.8306 H   0  0  0  0  0  0  0  0  0  0  0  0
   19.6060   19.6954   26.6111 C   0  0  0  0  0  0  0  0  0  0  0  0
   20.6979   19.8077   26.6433 H   0  0  0  0  0  0  0  0  0  0  0  0
   19.2439   20.0123   27.5982 H   0  0  0  0  0  0  0  0  0  0  0  0
   19.2401   18.2084   26.4323 C   0  0  0  0  0  0  0  0  0  0  0  0
   18.1897   18.1164   26.1434 H   0  0  0  0  0  0  0  0  0  0  0  0
   19.3782   17.6886   27.3842 H   0  0  0  0  0  0  0  0  0  0  0  0
   20.0909   17.4878   25.4056 N   0  3  0  0  0  0  0  0  0  0  0  0
   19.8108   16.5061   25.3012 H   0  0  0  0  0  0  0  0  0  0  0  0
   21.0824   17.4911   25.6680 H   0  0  0  0  0  0  0  0  0  0  0  0
   20.0135   17.9342   24.4857 H   0  0  0  0  0  0  0  0  0  0  0  0
  1  2  1  0  0  0  0
  1  3  1  0  0  0  0
  1  4  1  0  0  0  0
  1  5  1  0  0  0  0
  5  6  1  0  0  0  0
  5  7  1  0  0  0  0
  5  8  1  0  0  0  0
  8  9  1  0  0  0  0
  8 10  1  0  0  0  0
  8 11  1  0  0  0  0
 11 12  1  0  0  0  0
 11 13  1  0  0  0  0
 11 14  1  0  0  0  0
 14 15  1  0  0  0  0
 14 16  1  0  0  0  0
 14 17  1  0  0  0  0
 17 18  1  0  0  0  0
 17 19  1  0  0  0  0
 17 20  1  0  0  0  0
 20 21  1  0  0  0  0
 20 22  1  0  0  0  0
 20 23  1  0  0  0  0
 23 24  1  0  0  0  0
 23 25  1  0  0  0  0
 23 26  1  0  0  0  0
 26 27  1  0  0  0  0
 26 28  1  0  0  0  0
 26 29  1  0  0  0  0
M  END
> <VM2 Rank>
489

> <Conf_Id>
659

> <Probability>
0.00

> <Sum Probability>
100.00

> <Delta G>
8.416

> <G>
66.563

> <E>
28.295

> <-TS>
38.267

> <U+W>
4.151

> <U>
55.609

> <W>
-51.458

> <W(PB)>
-53.817

> <W(SA)>
2.359

> <Valence>
7.220

> <Coulomb>
48.045

> <VdW>
0.343

> <VdW6>
-11.199

> <VdW12>
11.542

> <Bond>
0.291

> <Angle>
1.803

> <Pdih>
5.126

> <Idih>
0.000

> <Tether>
0.000

$$$$
VeraChem MOL file


 29 28  0  0  0  0  0  0  0  0999 V2000     
   20.9221   17.8468   22.3807 C   0  0  0  0  0  0  0  0  0  0  0  0
   20.9004   18.3087   23.3719 H   0  0  0  0  0  0  0  0  0  0  0  0
   21.0033   16.7598   22.5100 H   0  0  0  0  0  0  0  0  0  0  0  0
   21.8327   18.1915   21.8735 H   0  0  0  0  0  0  0  0  0  0  0  0
   19.6672   18.2052   21.5527 C   0  0  0  0  0  0  0  0  0  0  0  0
   18.7707   17.7350   21.9783 H   0  0  0  0  0  0  0  0  0  0  0  0
   19.7868   17.7668   20.5520 H   0  0  0  0  0  0  0  0  0  0  0  0
   19.4561   19.7323   21.4030 C   0  0  0  0  0  0  0  0  0  0  0  0
   20.4226   20.2539   21.4356 H   0  0  0  0  0  0  0  0  0  0  0  0
   19.0572   19.9193   20.3964 H   0  0  0  0  0  0  0  0  0  0  0  0
   18.4703   20.3758   22.4154 C   0  0  0  0  0  0  0  0  0  0  0  0
   17.4740   19.9260   22.3062 H   0  0  0  0  0  0  0  0  0  0  0  0
   18.3475   21.4278   22.1228 H   0  0  0  0  0  0  0  0  0  0  0  0
   18.9120   20.3482   23.9018 C   0  0  0  0  0  0  0  0  0  0  0  0
   20.0067   20.3817   23.9698 H   0  0  0  0  0  0  0  0  0  0  0  0
   18.5550   21.2711   24.3794 H   0  0  0  0  0  0  0  0  0  0  0  0
   18.3334   19.1481   24.6956 C   0  0  0  0  0  0  0  0  0  0  0  0
   18.6719   18.1982   24.2673 H   0  0  0  0  0  0  0  0  0  0  0  0
   17.2393   19.1523   24.5954 H   0  0  0  0  0  0  0  0  0  0  0  0
   18.6824   19.1992   26.2038 C   0  0  0  0  0  0  0  0  0  0  0  0
   18.3414   20.1558   26.6216 H   0  0  0  0  0  0  0  0  0  0  0  0
   18.1232   18.4180   26.7356 H   0  0  0  0  0  0  0  0  0  0  0  0
   20.1857   19.0333   26.5009 C   0  0  0  0  0  0  0  0  0  0  0  0
   20.3671   19.2168   27.5634 H   0  0  0  0  0  0  0  0  0  0  0  0
   20.7622   19.7629   25.9266 H   0  0  0  0  0  0  0  0  0  0  0  0
   20.7149   17.6491   26.1811 N   0  3  0  0  0  0  0  0  0  0  0  0
   21.7184   17.5705   26.3797 H   0  0  0  0  0  0  0  0  0  0  0  0
   20.5788   17.4102   25.1944 H   0  0  0  0  0  0  0  0  0  0  0  0
   20.2432   16.9273   26.7361 H   0  0  0  0  0  0  0  0  0  0  0  0
  1  2  1  0  0  0  0
  1  3  1  0  0  0  0
  1  4  1  0  0  0  0
  1  5  1  0  0  0  0
  5  6  1  0  0  0  0
  5  7  1  0  0  0  0
  5  8  1  0  0  0  0
  8  9  1  0  0  0  0
  8 10  1  0  0  0  0
  8 11  1  0  0  0  0
 11 12  1  0  0  0  0
 11 13  1  0  0  0  0
 11 14  1  0  0  0  0
 14 15  1  0  0  0  0
 14 16  1  0  0  0  0
 14 17  1  0  0  0  0
 17 18  1  0  0  0  0
 17 19  1  0  0  0  0
 17 20  1  0  0  0  0
 20 21  1  0  0  0  0
 20 22  1  0  0  0  0
 20 23  1  0  0  0  0
 23 24  1  0  0  0  0
 23 25  1  0  0  0  0
 23 26  1  0  0  0  0
 26 27  1  0  0  0  0
 26 28  1  0  0  0  0
 26 29  1  0  0  0  0
M  END
> <VM2 Rank>
490

> <Conf_Id>
1659

> <Probability>
0.00

> <Sum Probability>
100.00

> <Delta G>
8.682

> <G>
66.828

> <E>
28.314

> <-TS>
38.514

> <U+W>
4.169

> <U>
56.468

> <W>
-52.299

> <W(PB)>
-54.625

> <W(SA)>
2.327

> <Valence>
8.838

> <Coulomb>
47.456

> <VdW>
0.174

> <VdW6>
-11.720

> <VdW12>
11.894

> <Bond>
0.333

> <Angle>
2.145

> <Pdih>
6.360

> <Idih>
0.000

> <Tether>
0.000

$$$$
VeraChem MOL file


 29 28  0  0  0  0  0  0  0  0999 V2000     
   20.2438   18.8144   20.5760 C   0  0  0  0  0  0  0  0  0  0  0  0
   21.0201   18.2059   21.0575 H   0  0  0  0  0  0  0  0  0  0  0  0
   20.3186   18.6575   19.4922 H   0  0  0  0  0  0  0  0  0  0  0  0
   20.4592   19.8722   20.7715 H   0  0  0  0  0  0  0  0  0  0  0  0
   18.8379   18.4242   21.0825 C   0  0  0  0  0  0  0  0  0  0  0  0
   18.6182   17.3979   20.7567 H   0  0  0  0  0  0  0  0  0  0  0  0
   18.0856   19.0641   20.6005 H   0  0  0  0  0  0  0  0  0  0  0  0
   18.6746   18.4995   22.6219 C   0  0  0  0  0  0  0  0  0  0  0  0
   17.6669   18.1369   22.8669 H   0  0  0  0  0  0  0  0  0  0  0  0
   19.3708   17.8002   23.1025 H   0  0  0  0  0  0  0  0  0  0  0  0
   18.8345   19.9258   23.2147 C   0  0  0  0  0  0  0  0  0  0  0  0
   18.1396   20.0590   24.0543 H   0  0  0  0  0  0  0  0  0  0  0  0
   18.5162   20.6598   22.4618 H   0  0  0  0  0  0  0  0  0  0  0  0
   20.2743   20.2659   23.6837 C   0  0  0  0  0  0  0  0  0  0  0  0
   21.0149   19.6932   23.1115 H   0  0  0  0  0  0  0  0  0  0  0  0
   20.4669   21.3199   23.4407 H   0  0  0  0  0  0  0  0  0  0  0  0
   20.5397   20.0839   25.2023 C   0  0  0  0  0  0  0  0  0  0  0  0
   19.8576   20.7195   25.7815 H   0  0  0  0  0  0  0  0  0  0  0  0
   21.5454   20.4767   25.4059 H   0  0  0  0  0  0  0  0  0  0  0  0
   20.4950   18.6211   25.7183 C   0  0  0  0  0  0  0  0  0  0  0  0
   20.9964   17.9613   24.9982 H   0  0  0  0  0  0  0  0  0  0  0  0
   21.0812   18.5541   26.6444 H   0  0  0  0  0  0  0  0  0  0  0  0
   19.0787   18.0837   26.0093 C   0  0  0  0  0  0  0  0  0  0  0  0
   19.1451   17.0314   26.2983 H   0  0  0  0  0  0  0  0  0  0  0  0
   18.4590   18.1497   25.1137 H   0  0  0  0  0  0  0  0  0  0  0  0
   18.3654   18.8195   27.1263 N   0  3  0  0  0  0  0  0  0  0  0  0
   18.2404   19.8124   26.9065 H   0  0  0  0  0  0  0  0  0  0  0  0
   18.8861   18.7675   28.0080 H   0  0  0  0  0  0  0  0  0  0  0  0
   17.4334   18.4300   27.3050 H   0  0  0  0  0  0  0  0  0  0  0  0
  1  2  1  0  0  0  0
  1  3  1  0  0  0  0
  1  4  1  0  0  0  0
  1  5  1  0  0  0  0
  5  6  1  0  0  0  0
  5  7  1  0  0  0  0
  5  8  1  0  0  0  0
  8  9  1  0  0  0  0
  8 10  1  0  0  0  0
  8 11  1  0  0  0  0
 11 12  1  0  0  0  0
 11 13  1  0  0  0  0
 11 14  1  0  0  0  0
 14 15  1  0  0  0  0
 14 16  1  0  0  0  0
 14 17  1  0  0  0  0
 17 18  1  0  0  0  0
 17 19  1  0  0  0  0
 17 20  1  0  0  0  0
 20 21  1  0  0  0  0
 20 22  1  0  0  0  0
 20 23  1  0  0  0  0
 23 24  1  0  0  0  0
 23 25  1  0  0  0  0
 23 26  1  0  0  0  0
 26 27  1  0  0  0  0
 26 28  1  0  0  0  0
 26 29  1  0  0  0  0
M  END
> <VM2 Rank>
491

> <Conf_Id>
312

> <Probability>
0.00

> <Sum Probability>
100.00

> <Delta G>
9.018

> <G>
67.164

> <E>
28.603

> <-TS>
38.561

> <U+W>
4.459

> <U>
57.201

> <W>
-52.742

> <W(PB)>
-55.087

> <W(SA)>
2.344

> <Valence>
10.126

> <Coulomb>
46.546

> <VdW>
0.529

> <VdW6>
-12.293

> <VdW12>
12.823

> <Bond>
0.377

> <Angle>
2.399

> <Pdih>
7.350

> <Idih>
0.000

> <Tether>
0.000

$$$$
VeraChem MOL file


 29 28  0  0  0  0  0  0  0  0999 V2000     
   21.2148   18.5188   21.6484 C   0  0  0  0  0  0  0  0  0  0  0  0
   20.7708   17.5992   21.2456 H   0  0  0  0  0  0  0  0  0  0  0  0
   22.2051   18.6390   21.1902 H   0  0  0  0  0  0  0  0  0  0  0  0
   21.3745   18.3887   22.7226 H   0  0  0  0  0  0  0  0  0  0  0  0
   20.3315   19.7480   21.3399 C   0  0  0  0  0  0  0  0  0  0  0  0
   20.4256   19.9692   20.2674 H   0  0  0  0  0  0  0  0  0  0  0  0
   20.7217   20.6319   21.8632 H   0  0  0  0  0  0  0  0  0  0  0  0
   18.8243   19.5625   21.6546 C   0  0  0  0  0  0  0  0  0  0  0  0
   18.2891   20.3905   21.1693 H   0  0  0  0  0  0  0  0  0  0  0  0
   18.4446   18.6490   21.1768 H   0  0  0  0  0  0  0  0  0  0  0  0
   18.4454   19.5851   23.1582 C   0  0  0  0  0  0  0  0  0  0  0  0
   17.4003   19.9154   23.2364 H   0  0  0  0  0  0  0  0  0  0  0  0
   19.0379   20.3483   23.6766 H   0  0  0  0  0  0  0  0  0  0  0  0
   18.5583   18.2086   23.8621 C   0  0  0  0  0  0  0  0  0  0  0  0
   17.9870   17.4700   23.2830 H   0  0  0  0  0  0  0  0  0  0  0  0
   19.5887   17.8435   23.8647 H   0  0  0  0  0  0  0  0  0  0  0  0
   18.0075   18.2114   25.3108 C   0  0  0  0  0  0  0  0  0  0  0  0
   18.0871   17.1934   25.7167 H   0  0  0  0  0  0  0  0  0  0  0  0
   16.9323   18.4357   25.2793 H   0  0  0  0  0  0  0  0  0  0  0  0
   18.6883   19.1956   26.2994 C   0  0  0  0  0  0  0  0  0  0  0  0
   18.5180   20.2363   25.9952 H   0  0  0  0  0  0  0  0  0  0  0  0
   18.1918   19.0873   27.2728 H   0  0  0  0  0  0  0  0  0  0  0  0
   20.1948   18.9415   26.5108 C   0  0  0  0  0  0  0  0  0  0  0  0
   20.3875   17.8656   26.5345 H   0  0  0  0  0  0  0  0  0  0  0  0
   20.5001   19.3629   27.4724 H   0  0  0  0  0  0  0  0  0  0  0  0
   21.0793   19.5666   25.4507 N   0  3  0  0  0  0  0  0  0  0  0  0
   21.0208   20.5902   25.4687 H   0  0  0  0  0  0  0  0  0  0  0  0
   20.8052   19.2620   24.5112 H   0  0  0  0  0  0  0  0  0  0  0  0
   22.0664   19.3204   25.5851 H   0  0  0  0  0  0  0  0  0  0  0  0
  1  2  1  0  0  0  0
  1  3  1  0  0  0  0
  1  4  1  0  0  0  0
  1  5  1  0  0  0  0
  5  6  1  0  0  0  0
  5  7  1  0  0  0  0
  5  8  1  0  0  0  0
  8  9  1  0  0  0  0
  8 10  1  0  0  0  0
  8 11  1  0  0  0  0
 11 12  1  0  0  0  0
 11 13  1  0  0  0  0
 11 14  1  0  0  0  0
 14 15  1  0  0  0  0
 14 16  1  0  0  0  0
 14 17  1  0  0  0  0
 17 18  1  0  0  0  0
 17 19  1  0  0  0  0
 17 20  1  0  0  0  0
 20 21  1  0  0  0  0
 20 22  1  0  0  0  0
 20 23  1  0  0  0  0
 23 24  1  0  0  0  0
 23 25  1  0  0  0  0
 23 26  1  0  0  0  0
 26 27  1  0  0  0  0
 26 28  1  0  0  0  0
 26 29  1  0  0  0  0
M  END
> <VM2 Rank>
492

> <Conf_Id>
1014

> <Probability>
0.00

> <Sum Probability>
100.00

> <Delta G>
9.485

> <G>
67.631

> <E>
29.260

> <-TS>
38.371

> <U+W>
5.115

> <U>
56.224

> <W>
-51.109

> <W(PB)>
-53.448

> <W(SA)>
2.340

> <Valence>
7.966

> <Coulomb>
48.139

> <VdW>
0.119

> <VdW6>
-11.917

> <VdW12>
12.036

> <Bond>
0.344

> <Angle>
2.693

> <Pdih>
4.929

> <Idih>
0.000

> <Tether>
0.000

$$$$
VeraChem MOL file


 29 28  0  0  0  0  0  0  0  0999 V2000     
   18.4559   19.6449   20.4141 C   0  0  0  0  0  0  0  0  0  0  0  0
   18.6857   18.9150   19.6269 H   0  0  0  0  0  0  0  0  0  0  0  0
   17.4239   19.9882   20.2648 H   0  0  0  0  0  0  0  0  0  0  0  0
   19.1207   20.5088   20.2843 H   0  0  0  0  0  0  0  0  0  0  0  0
   18.6252   19.0211   21.8153 C   0  0  0  0  0  0  0  0  0  0  0  0
   17.9226   18.1832   21.9258 H   0  0  0  0  0  0  0  0  0  0  0  0
   18.3489   19.7617   22.5761 H   0  0  0  0  0  0  0  0  0  0  0  0
   20.0707   18.5184   22.0456 C   0  0  0  0  0  0  0  0  0  0  0  0
   20.2902   17.7457   21.2958 H   0  0  0  0  0  0  0  0  0  0  0  0
   20.7898   19.3285   21.8624 H   0  0  0  0  0  0  0  0  0  0  0  0
   20.2863   17.9150   23.4583 C   0  0  0  0  0  0  0  0  0  0  0  0
   20.8449   16.9757   23.3437 H   0  0  0  0  0  0  0  0  0  0  0  0
   19.3224   17.6260   23.8898 H   0  0  0  0  0  0  0  0  0  0  0  0
   21.0958   18.8218   24.4272 C   0  0  0  0  0  0  0  0  0  0  0  0
   21.3109   18.2786   25.3569 H   0  0  0  0  0  0  0  0  0  0  0  0
   22.0771   19.0029   23.9670 H   0  0  0  0  0  0  0  0  0  0  0  0
   20.4631   20.1988   24.7645 C   0  0  0  0  0  0  0  0  0  0  0  0
   19.9618   20.6205   23.8862 H   0  0  0  0  0  0  0  0  0  0  0  0
   21.2832   20.8967   24.9825 H   0  0  0  0  0  0  0  0  0  0  0  0
   19.5082   20.2277   25.9875 C   0  0  0  0  0  0  0  0  0  0  0  0
   20.0687   20.0154   26.9076 H   0  0  0  0  0  0  0  0  0  0  0  0
   19.1366   21.2552   26.0964 H   0  0  0  0  0  0  0  0  0  0  0  0
   18.2870   19.2928   25.8957 C   0  0  0  0  0  0  0  0  0  0  0  0
   17.9503   19.2183   24.8584 H   0  0  0  0  0  0  0  0  0  0  0  0
   17.4703   19.7106   26.4906 H   0  0  0  0  0  0  0  0  0  0  0  0
   18.5520   17.8977   26.4269 N   0  3  0  0  0  0  0  0  0  0  0  0
   19.3220   17.4464   25.9235 H   0  0  0  0  0  0  0  0  0  0  0  0
   17.7283   17.2925   26.3380 H   0  0  0  0  0  0  0  0  0  0  0  0
   18.8063   17.9133   27.4202 H   0  0  0  0  0  0  0  0  0  0  0  0
  1  2  1  0  0  0  0
  1  3  1  0  0  0  0
  1  4  1  0  0  0  0
  1  5  1  0  0  0  0
  5  6  1  0  0  0  0
  5  7  1  0  0  0  0
  5  8  1  0  0  0  0
  8  9  1  0  0  0  0
  8 10  1  0  0  0  0
  8 11  1  0  0  0  0
 11 12  1  0  0  0  0
 11 13  1  0  0  0  0
 11 14  1  0  0  0  0
 14 15  1  0  0  0  0
 14 16  1  0  0  0  0
 14 17  1  0  0  0  0
 17 18  1  0  0  0  0
 17 19  1  0  0  0  0
 17 20  1  0  0  0  0
 20 21  1  0  0  0  0
 20 22  1  0  0  0  0
 20 23  1  0  0  0  0
 23 24  1  0  0  0  0
 23 25  1  0  0  0  0
 23 26  1  0  0  0  0
 26 27  1  0  0  0  0
 26 28  1  0  0  0  0
 26 29  1  0  0  0  0
M  END
> <VM2 Rank>
493

> <Conf_Id>
2317

> <Probability>
0.00

> <Sum Probability>
100.00

> <Delta G>
9.757

> <G>
67.903

> <E>
29.778

> <-TS>
38.126

> <U+W>
5.633

> <U>
58.317

> <W>
-52.684

> <W(PB)>
-55.071

> <W(SA)>
2.387

> <Valence>
10.368

> <Coulomb>
47.476

> <VdW>
0.473

> <VdW6>
-11.674

> <VdW12>
12.147

> <Bond>
0.367

> <Angle>
2.612

> <Pdih>
7.389

> <Idih>
0.000

> <Tether>
0.000

$$$$
VeraChem MOL file


 29 28  0  0  0  0  0  0  0  0999 V2000     
   21.0920   18.3567   21.5609 C   0  0  0  0  0  0  0  0  0  0  0  0
   22.0009   18.7297   22.0506 H   0  0  0  0  0  0  0  0  0  0  0  0
   20.6736   17.5599   22.1865 H   0  0  0  0  0  0  0  0  0  0  0  0
   21.3887   17.9089   20.6037 H   0  0  0  0  0  0  0  0  0  0  0  0
   20.0786   19.5017   21.3324 C   0  0  0  0  0  0  0  0  0  0  0  0
   19.2100   19.1307   20.7708 H   0  0  0  0  0  0  0  0  0  0  0  0
   20.5526   20.2561   20.6891 H   0  0  0  0  0  0  0  0  0  0  0  0
   19.6254   20.1823   22.6503 C   0  0  0  0  0  0  0  0  0  0  0  0
   20.3416   19.9650   23.4497 H   0  0  0  0  0  0  0  0  0  0  0  0
   19.6752   21.2702   22.5053 H   0  0  0  0  0  0  0  0  0  0  0  0
   18.1742   19.8365   23.0846 C   0  0  0  0  0  0  0  0  0  0  0  0
   17.5036   20.1250   22.2634 H   0  0  0  0  0  0  0  0  0  0  0  0
   17.8786   20.4685   23.9327 H   0  0  0  0  0  0  0  0  0  0  0  0
   17.9056   18.3472   23.4291 C   0  0  0  0  0  0  0  0  0  0  0  0
   16.8612   18.1301   23.1654 H   0  0  0  0  0  0  0  0  0  0  0  0
   18.5009   17.6868   22.7889 H   0  0  0  0  0  0  0  0  0  0  0  0
   18.0863   17.9499   24.9192 C   0  0  0  0  0  0  0  0  0  0  0  0
   17.8137   16.8893   25.0105 H   0  0  0  0  0  0  0  0  0  0  0  0
   17.3621   18.4936   25.5416 H   0  0  0  0  0  0  0  0  0  0  0  0
   19.5120   18.1273   25.4953 C   0  0  0  0  0  0  0  0  0  0  0  0
   19.6664   17.3806   26.2856 H   0  0  0  0  0  0  0  0  0  0  0  0
   20.2620   17.9172   24.7222 H   0  0  0  0  0  0  0  0  0  0  0  0
   19.7347   19.5229   26.1091 C   0  0  0  0  0  0  0  0  0  0  0  0
   19.0300   19.6778   26.9305 H   0  0  0  0  0  0  0  0  0  0  0  0
   19.5570   20.2963   25.3591 H   0  0  0  0  0  0  0  0  0  0  0  0
   21.1353   19.7137   26.6540 N   0  3  0  0  0  0  0  0  0  0  0  0
   21.3521   19.0354   27.3918 H   0  0  0  0  0  0  0  0  0  0  0  0
   21.2618   20.6471   27.0605 H   0  0  0  0  0  0  0  0  0  0  0  0
   21.8477   19.6048   25.9250 H   0  0  0  0  0  0  0  0  0  0  0  0
  1  2  1  0  0  0  0
  1  3  1  0  0  0  0
  1  4  1  0  0  0  0
  1  5  1  0  0  0  0
  5  6  1  0  0  0  0
  5  7  1  0  0  0  0
  5  8  1  0  0  0  0
  8  9  1  0  0  0  0
  8 10  1  0  0  0  0
  8 11  1  0  0  0  0
 11 12  1  0  0  0  0
 11 13  1  0  0  0  0
 11 14  1  0  0  0  0
 14 15  1  0  0  0  0
 14 16  1  0  0  0  0
 14 17  1  0  0  0  0
 17 18  1  0  0  0  0
 17 19  1  0  0  0  0
 17 20  1  0  0  0  0
 20 21  1  0  0  0  0
 20 22  1  0  0  0  0
 20 23  1  0  0  0  0
 23 24  1  0  0  0  0
 23 25  1  0  0  0  0
 23 26  1  0  0  0  0
 26 27  1  0  0  0  0
 26 28  1  0  0  0  0
 26 29  1  0  0  0  0
M  END
> <VM2 Rank>
494

> <Conf_Id>
1315

> <Probability>
0.00

> <Sum Probability>
100.00

> <Delta G>
9.868

> <G>
68.014

> <E>
29.601

> <-TS>
38.413

> <U+W>
5.457

> <U>
58.517

> <W>
-53.061

> <W(PB)>
-55.417

> <W(SA)>
2.357

> <Valence>
11.198

> <Coulomb>
46.940

> <VdW>
0.379

> <VdW6>
-11.859

> <VdW12>
12.237

> <Bond>
0.370

> <Angle>
2.762

> <Pdih>
8.066

> <Idih>
0.000

> <Tether>
0.000

$$$$
VeraChem MOL file


 29 28  0  0  0  0  0  0  0  0999 V2000     
   19.7669   20.6770   21.4392 C   0  0  0  0  0  0  0  0  0  0  0  0
   19.0974   21.3832   20.9315 H   0  0  0  0  0  0  0  0  0  0  0  0
   19.7793   20.9385   22.5039 H   0  0  0  0  0  0  0  0  0  0  0  0
   20.7782   20.8284   21.0404 H   0  0  0  0  0  0  0  0  0  0  0  0
   19.2948   19.2229   21.2092 C   0  0  0  0  0  0  0  0  0  0  0  0
   19.2436   19.0408   20.1267 H   0  0  0  0  0  0  0  0  0  0  0  0
   18.2711   19.0913   21.5829 H   0  0  0  0  0  0  0  0  0  0  0  0
   20.2371   18.1687   21.8403 C   0  0  0  0  0  0  0  0  0  0  0  0
   19.9280   17.1696   21.5035 H   0  0  0  0  0  0  0  0  0  0  0  0
   21.2489   18.3167   21.4385 H   0  0  0  0  0  0  0  0  0  0  0  0
   20.3099   18.1759   23.3907 C   0  0  0  0  0  0  0  0  0  0  0  0
   20.6567   19.1539   23.7449 H   0  0  0  0  0  0  0  0  0  0  0  0
   21.0891   17.4580   23.6813 H   0  0  0  0  0  0  0  0  0  0  0  0
   18.9872   17.7604   24.0930 C   0  0  0  0  0  0  0  0  0  0  0  0
   18.4254   17.0957   23.4224 H   0  0  0  0  0  0  0  0  0  0  0  0
   19.2100   17.1472   24.9765 H   0  0  0  0  0  0  0  0  0  0  0  0
   18.0734   18.9425   24.5133 C   0  0  0  0  0  0  0  0  0  0  0  0
   17.0300   18.6092   24.4265 H   0  0  0  0  0  0  0  0  0  0  0  0
   18.1725   19.7784   23.8113 H   0  0  0  0  0  0  0  0  0  0  0  0
   18.2761   19.4558   25.9638 C   0  0  0  0  0  0  0  0  0  0  0  0
   17.5180   20.2269   26.1551 H   0  0  0  0  0  0  0  0  0  0  0  0
   18.0725   18.6515   26.6831 H   0  0  0  0  0  0  0  0  0  0  0  0
   19.6574   20.0775   26.2507 C   0  0  0  0  0  0  0  0  0  0  0  0
   19.5847   20.7212   27.1315 H   0  0  0  0  0  0  0  0  0  0  0  0
   19.9704   20.6937   25.4037 H   0  0  0  0  0  0  0  0  0  0  0  0
   20.7413   19.0574   26.5348 N   0  3  0  0  0  0  0  0  0  0  0  0
   20.5244   18.4964   27.3653 H   0  0  0  0  0  0  0  0  0  0  0  0
   21.6505   19.5027   26.7017 H   0  0  0  0  0  0  0  0  0  0  0  0
   20.8536   18.4091   25.7491 H   0  0  0  0  0  0  0  0  0  0  0  0
  1  2  1  0  0  0  0
  1  3  1  0  0  0  0
  1  4  1  0  0  0  0
  1  5  1  0  0  0  0
  5  6  1  0  0  0  0
  5  7  1  0  0  0  0
  5  8  1  0  0  0  0
  8  9  1  0  0  0  0
  8 10  1  0  0  0  0
  8 11  1  0  0  0  0
 11 12  1  0  0  0  0
 11 13  1  0  0  0  0
 11 14  1  0  0  0  0
 14 15  1  0  0  0  0
 14 16  1  0  0  0  0
 14 17  1  0  0  0  0
 17 18  1  0  0  0  0
 17 19  1  0  0  0  0
 17 20  1  0  0  0  0
 20 21  1  0  0  0  0
 20 22  1  0  0  0  0
 20 23  1  0  0  0  0
 23 24  1  0  0  0  0
 23 25  1  0  0  0  0
 23 26  1  0  0  0  0
 26 27  1  0  0  0  0
 26 28  1  0  0  0  0
 26 29  1  0  0  0  0
M  END
> <VM2 Rank>
495

> <Conf_Id>
294

> <Probability>
0.00

> <Sum Probability>
100.00

> <Delta G>
9.968

> <G>
68.115

> <E>
29.274

> <-TS>
38.841

> <U+W>
5.130

> <U>
57.506

> <W>
-52.376

> <W(PB)>
-54.702

> <W(SA)>
2.326

> <Valence>
9.827

> <Coulomb>
47.298

> <VdW>
0.381

> <VdW6>
-12.658

> <VdW12>
13.038

> <Bond>
0.384

> <Angle>
2.465

> <Pdih>
6.978

> <Idih>
0.000

> <Tether>
0.000

$$$$
