@<TRIPOS>MOLECULE
guest-s9_confgen4.mol2 : confsearch ligand conformer 1
          20          19           1
SMALL
USER_CHARGES
 
@<TRIPOS>ATOM
       1    C1      19.854275   19.150937   18.816942 C.3        1 MOL1        -0.2224
       2    H1      20.035442   20.233089   18.780829 H          1 MOL1         0.1052
       3    H2      20.337884   18.699857   17.940771 H          1 MOL1         0.1052
       4    H3      18.773125   18.982515   18.727918 H          1 MOL1         0.1052
       5    C2      20.407307   18.537511   20.121586 C.3        1 MOL1        -0.1209
       6    H4      21.494857   18.691443   20.165081 H          1 MOL1         0.1041
       7    H5      20.242392   17.450738   20.112627 H          1 MOL1         0.1041
       8    C3      19.743969   19.154246   21.372737 C.3        1 MOL1        -0.1274
       9    H6      19.912165   20.239407   21.382758 H          1 MOL1         0.1041
      10    H7      18.657937   18.997120   21.330159 H          1 MOL1         0.1041
      11    C4      20.300575   18.537375   22.669364 C.3        1 MOL1         0.0313
      12    H8      21.379180   18.705553   22.722431 H          1 MOL1         0.1015
      13    H9      20.120785   17.459338   22.669729 H          1 MOL1         0.1015
      14    N1      19.677585   19.113321   23.925896 N.4        1 MOL1        -0.4809
      15    H10     18.654690   18.980710   23.909852 H          1 MOL1         0.3726
      16    H11     19.819845   20.134518   23.958669 H          1 MOL1         0.3726
      17    C5      20.282289   18.450611   25.156475 C.3        1 MOL1        -0.0677
      18    H12     21.359024   18.632926   25.170971 H          1 MOL1         0.1026
      19    H13     19.825124   18.874406   26.053363 H          1 MOL1         0.1026
      20    H14     20.089865   17.376231   25.117862 H          1 MOL1         0.1026
@<TRIPOS>BOND
    1     1     2    1
    2     1     3    1
    3     1     4    1
    4     1     5    1
    5     5     6    1
    6     5     7    1
    7     5     8    1
    8     8     9    1
    9     8    10    1
   10     8    11    1
   11    11    12    1
   12    11    13    1
   13    11    14    1
   14    14    15    1
   15    14    16    1
   16    14    17    1
   17    17    18    1
   18    17    19    1
   19    17    20    1
@<TRIPOS>SUBSTRUCTURE
       1 MOL1            1 RESIDUE      1      MOL     
@<SCITEGIC>MOL_PROPERTY
VConf Rank
SciTegic.value.IntegerValue
1

@<SCITEGIC>MOL_PROPERTY
Conf_Id
SciTegic.value.IntegerValue
67

@<SCITEGIC>MOL_PROPERTY
Delta U+W
SciTegic.value.DoubleValue
0.000

@<SCITEGIC>MOL_PROPERTY
U+W
SciTegic.value.DoubleValue
15.338

@<SCITEGIC>MOL_PROPERTY
Grad RMS
SciTegic.value.DoubleValue
0.000000

@<SCITEGIC>MOL_PROPERTY
U
SciTegic.value.DoubleValue
69.277

@<SCITEGIC>MOL_PROPERTY
W
SciTegic.value.DoubleValue
-53.939

@<SCITEGIC>MOL_PROPERTY
W(PB)
SciTegic.value.DoubleValue
-55.889

@<SCITEGIC>MOL_PROPERTY
W(SA)
SciTegic.value.DoubleValue
1.950

@<SCITEGIC>MOL_PROPERTY
Valence
SciTegic.value.DoubleValue
0.846

@<SCITEGIC>MOL_PROPERTY
Coulomb
SciTegic.value.DoubleValue
68.557

@<SCITEGIC>MOL_PROPERTY
VdW
SciTegic.value.DoubleValue
-0.127

@<SCITEGIC>MOL_PROPERTY
VdW6
SciTegic.value.DoubleValue
-3.008

@<SCITEGIC>MOL_PROPERTY
VdW12
SciTegic.value.DoubleValue
2.882

@<SCITEGIC>MOL_PROPERTY
Bond
SciTegic.value.DoubleValue
0.088

@<SCITEGIC>MOL_PROPERTY
Angle
SciTegic.value.DoubleValue
0.332

@<SCITEGIC>MOL_PROPERTY
Pdih
SciTegic.value.DoubleValue
0.426

@<SCITEGIC>MOL_PROPERTY
Idih
SciTegic.value.DoubleValue
0.000

@<SCITEGIC>MOL_PROPERTY
Tether
SciTegic.value.DoubleValue
0.000

@<TRIPOS>MOLECULE
guest-s9_confgen4.mol2 : confsearch ligand conformer 2
          20          19           1
SMALL
USER_CHARGES
 
@<TRIPOS>ATOM
       1    C1      20.244641   19.523366   19.057549 C.3        1 MOL1        -0.2224
       2    H1      21.084330   20.204531   19.247563 H          1 MOL1         0.1052
       3    H2      20.406861   19.055075   18.078055 H          1 MOL1         0.1052
       4    H3      19.326478   20.121987   18.995917 H          1 MOL1         0.1052
       5    C2      20.136592   18.451368   20.163631 C.3        1 MOL1        -0.1209
       6    H4      21.054952   17.847431   20.177792 H          1 MOL1         0.1041
       7    H5      19.310979   17.765132   19.927512 H          1 MOL1         0.1041
       8    C3      19.907513   19.082141   21.554796 C.3        1 MOL1        -0.1274
       9    H6      20.733997   19.766356   21.786156 H          1 MOL1         0.1041
      10    H7      18.987754   19.681706   21.541127 H          1 MOL1         0.1041
      11    C4      19.799448   18.003547   22.652489 C.3        1 MOL1         0.0313
      12    H8      20.730260   17.433314   22.705461 H          1 MOL1         0.1015
      13    H9      18.993909   17.312164   22.392152 H          1 MOL1         0.1015
      14    N1      19.500572   18.542354   24.042138 N.4        1 MOL1        -0.4809
      15    H10     19.282596   17.758119   24.676762 H          1 MOL1         0.3726
      16    H11     18.643054   19.115238   24.026567 H          1 MOL1         0.3726
      17    C5      20.677234   19.341225   24.592398 C.3        1 MOL1        -0.0677
      18    H12     20.859407   20.206498   23.952084 H          1 MOL1         0.1026
      19    H13     20.439084   19.678009   25.603750 H          1 MOL1         0.1026
      20    H14     21.564271   18.704587   24.616165 H          1 MOL1         0.1026
@<TRIPOS>BOND
    1     1     2    1
    2     1     3    1
    3     1     4    1
    4     1     5    1
    5     5     6    1
    6     5     7    1
    7     5     8    1
    8     8     9    1
    9     8    10    1
   10     8    11    1
   11    11    12    1
   12    11    13    1
   13    11    14    1
   14    14    15    1
   15    14    16    1
   16    14    17    1
   17    17    18    1
   18    17    19    1
   19    17    20    1
@<TRIPOS>SUBSTRUCTURE
       1 MOL1            1 RESIDUE      1      MOL     
@<SCITEGIC>MOL_PROPERTY
VConf Rank
SciTegic.value.IntegerValue
2

@<SCITEGIC>MOL_PROPERTY
Conf_Id
SciTegic.value.IntegerValue
37

@<SCITEGIC>MOL_PROPERTY
Delta U+W
SciTegic.value.DoubleValue
-0.021

@<SCITEGIC>MOL_PROPERTY
U+W
SciTegic.value.DoubleValue
15.318

@<SCITEGIC>MOL_PROPERTY
Grad RMS
SciTegic.value.DoubleValue
0.000000

@<SCITEGIC>MOL_PROPERTY
U
SciTegic.value.DoubleValue
69.657

@<SCITEGIC>MOL_PROPERTY
W
SciTegic.value.DoubleValue
-54.340

@<SCITEGIC>MOL_PROPERTY
W(PB)
SciTegic.value.DoubleValue
-56.238

@<SCITEGIC>MOL_PROPERTY
W(SA)
SciTegic.value.DoubleValue
1.899

@<SCITEGIC>MOL_PROPERTY
Valence
SciTegic.value.DoubleValue
1.137

@<SCITEGIC>MOL_PROPERTY
Coulomb
SciTegic.value.DoubleValue
68.383

@<SCITEGIC>MOL_PROPERTY
VdW
SciTegic.value.DoubleValue
0.138

@<SCITEGIC>MOL_PROPERTY
VdW6
SciTegic.value.DoubleValue
-3.703

@<SCITEGIC>MOL_PROPERTY
VdW12
SciTegic.value.DoubleValue
3.841

@<SCITEGIC>MOL_PROPERTY
Bond
SciTegic.value.DoubleValue
0.125

@<SCITEGIC>MOL_PROPERTY
Angle
SciTegic.value.DoubleValue
0.468

@<SCITEGIC>MOL_PROPERTY
Pdih
SciTegic.value.DoubleValue
0.543

@<SCITEGIC>MOL_PROPERTY
Idih
SciTegic.value.DoubleValue
0.000

@<SCITEGIC>MOL_PROPERTY
Tether
SciTegic.value.DoubleValue
0.000

@<TRIPOS>MOLECULE
guest-s9_confgen4.mol2 : confsearch ligand conformer 3
          20          19           1
SMALL
USER_CHARGES
 
@<TRIPOS>ATOM
       1    C1      19.468688   18.754797   19.025049 C.3        1 MOL1        -0.2224
       2    H1      19.976521   18.628805   18.060035 H          1 MOL1         0.1052
       3    H2      18.772803   17.915086   19.150739 H          1 MOL1         0.1052
       4    H3      18.881237   19.680965   18.977267 H          1 MOL1         0.1052
       5    C2      20.493882   18.805213   20.178609 C.3        1 MOL1        -0.1209
       6    H4      21.196660   19.632737   20.006517 H          1 MOL1         0.1041
       7    H5      21.088647   17.880778   20.179231 H          1 MOL1         0.1041
       8    C3      19.806887   18.982490   21.550578 C.3        1 MOL1        -0.1274
       9    H6      19.216457   19.908240   21.550675 H          1 MOL1         0.1041
      10    H7      19.106340   18.154258   21.717975 H          1 MOL1         0.1041
      11    C4      20.839008   19.033256   22.696054 C.3        1 MOL1         0.0313
      12    H8      21.547715   19.841744   22.499180 H          1 MOL1         0.1015
      13    H9      21.398427   18.095155   22.733465 H          1 MOL1         0.1015
      14    N1      20.244531   19.279277   24.073308 N.4        1 MOL1        -0.4809
      15    H10     19.680227   20.142599   24.070015 H          1 MOL1         0.3726
      16    H11     21.003084   19.462337   24.748861 H          1 MOL1         0.3726
      17    C5      19.413004   18.088968   24.539403 C.3        1 MOL1        -0.0677
      18    H12     20.040386   17.195137   24.552224 H          1 MOL1         0.1026
      19    H13     19.035888   18.288020   25.544954 H          1 MOL1         0.1026
      20    H14     18.573998   17.942803   23.856328 H          1 MOL1         0.1026
@<TRIPOS>BOND
    1     1     2    1
    2     1     3    1
    3     1     4    1
    4     1     5    1
    5     5     6    1
    6     5     7    1
    7     5     8    1
    8     8     9    1
    9     8    10    1
   10     8    11    1
   11    11    12    1
   12    11    13    1
   13    11    14    1
   14    14    15    1
   15    14    16    1
   16    14    17    1
   17    17    18    1
   18    17    19    1
   19    17    20    1
@<TRIPOS>SUBSTRUCTURE
       1 MOL1            1 RESIDUE      1      MOL     
@<SCITEGIC>MOL_PROPERTY
VConf Rank
SciTegic.value.IntegerValue
3

@<SCITEGIC>MOL_PROPERTY
Conf_Id
SciTegic.value.IntegerValue
2

@<SCITEGIC>MOL_PROPERTY
Delta U+W
SciTegic.value.DoubleValue
0.069

@<SCITEGIC>MOL_PROPERTY
U+W
SciTegic.value.DoubleValue
15.407

@<SCITEGIC>MOL_PROPERTY
Grad RMS
SciTegic.value.DoubleValue
0.000000

@<SCITEGIC>MOL_PROPERTY
U
SciTegic.value.DoubleValue
69.657

@<SCITEGIC>MOL_PROPERTY
W
SciTegic.value.DoubleValue
-54.250

@<SCITEGIC>MOL_PROPERTY
W(PB)
SciTegic.value.DoubleValue
-56.176

@<SCITEGIC>MOL_PROPERTY
W(SA)
SciTegic.value.DoubleValue
1.926

@<SCITEGIC>MOL_PROPERTY
Valence
SciTegic.value.DoubleValue
1.137

@<SCITEGIC>MOL_PROPERTY
Coulomb
SciTegic.value.DoubleValue
68.383

@<SCITEGIC>MOL_PROPERTY
VdW
SciTegic.value.DoubleValue
0.138

@<SCITEGIC>MOL_PROPERTY
VdW6
SciTegic.value.DoubleValue
-3.703

@<SCITEGIC>MOL_PROPERTY
VdW12
SciTegic.value.DoubleValue
3.841

@<SCITEGIC>MOL_PROPERTY
Bond
SciTegic.value.DoubleValue
0.125

@<SCITEGIC>MOL_PROPERTY
Angle
SciTegic.value.DoubleValue
0.468

@<SCITEGIC>MOL_PROPERTY
Pdih
SciTegic.value.DoubleValue
0.543

@<SCITEGIC>MOL_PROPERTY
Idih
SciTegic.value.DoubleValue
0.000

@<SCITEGIC>MOL_PROPERTY
Tether
SciTegic.value.DoubleValue
0.000

@<TRIPOS>MOLECULE
guest-s9_confgen4.mol2 : confsearch ligand conformer 4
          20          19           1
SMALL
USER_CHARGES
 
@<TRIPOS>ATOM
       1    C1      19.600714   18.112190   19.466341 C.3        1 MOL1        -0.2224
       2    H1      19.669127   17.214595   20.093801 H          1 MOL1         0.1052
       3    H2      18.550823   18.431595   19.437907 H          1 MOL1         0.1052
       4    H3      19.890907   17.825848   18.447132 H          1 MOL1         0.1052
       5    C2      20.513005   19.244397   19.991813 C.3        1 MOL1        -0.1209
       6    H4      20.484336   20.085202   19.284537 H          1 MOL1         0.1041
       7    H5      21.555582   18.897049   20.016063 H          1 MOL1         0.1041
       8    C3      20.100186   19.752420   21.393123 C.3        1 MOL1        -0.1274
       9    H6      20.739082   20.602343   21.667533 H          1 MOL1         0.1041
      10    H7      19.070061   20.131248   21.358515 H          1 MOL1         0.1041
      11    C4      20.215017   18.663074   22.477275 C.3        1 MOL1         0.0313
      12    H8      21.240840   18.287882   22.513213 H          1 MOL1         0.1015
      13    H9      19.552406   17.829290   22.233312 H          1 MOL1         0.1015
      14    N1      19.849667   19.153651   23.864475 N.4        1 MOL1        -0.4809
      15    H10     18.887625   19.525866   23.869116 H          1 MOL1         0.3726
      16    H11     20.450966   19.948084   24.131718 H          1 MOL1         0.3726
      17    C5      19.987410   18.018269   24.869973 C.3        1 MOL1        -0.0677
      18    H12     21.020263   17.663288   24.872740 H          1 MOL1         0.1026
      19    H13     19.721612   18.385035   25.863873 H          1 MOL1         0.1026
      20    H14     19.317350   17.203573   24.586971 H          1 MOL1         0.1026
@<TRIPOS>BOND
    1     1     2    1
    2     1     3    1
    3     1     4    1
    4     1     5    1
    5     5     6    1
    6     5     7    1
    7     5     8    1
    8     8     9    1
    9     8    10    1
   10     8    11    1
   11    11    12    1
   12    11    13    1
   13    11    14    1
   14    14    15    1
   15    14    16    1
   16    14    17    1
   17    17    18    1
   18    17    19    1
   19    17    20    1
@<TRIPOS>SUBSTRUCTURE
       1 MOL1            1 RESIDUE      1      MOL     
@<SCITEGIC>MOL_PROPERTY
VConf Rank
SciTegic.value.IntegerValue
4

@<SCITEGIC>MOL_PROPERTY
Conf_Id
SciTegic.value.IntegerValue
34

@<SCITEGIC>MOL_PROPERTY
Delta U+W
SciTegic.value.DoubleValue
0.276

@<SCITEGIC>MOL_PROPERTY
U+W
SciTegic.value.DoubleValue
15.615

@<SCITEGIC>MOL_PROPERTY
Grad RMS
SciTegic.value.DoubleValue
0.000000

@<SCITEGIC>MOL_PROPERTY
U
SciTegic.value.DoubleValue
69.798

@<SCITEGIC>MOL_PROPERTY
W
SciTegic.value.DoubleValue
-54.184

@<SCITEGIC>MOL_PROPERTY
W(PB)
SciTegic.value.DoubleValue
-56.116

@<SCITEGIC>MOL_PROPERTY
W(SA)
SciTegic.value.DoubleValue
1.933

@<SCITEGIC>MOL_PROPERTY
Valence
SciTegic.value.DoubleValue
1.134

@<SCITEGIC>MOL_PROPERTY
Coulomb
SciTegic.value.DoubleValue
68.735

@<SCITEGIC>MOL_PROPERTY
VdW
SciTegic.value.DoubleValue
-0.070

@<SCITEGIC>MOL_PROPERTY
VdW6
SciTegic.value.DoubleValue
-3.565

@<SCITEGIC>MOL_PROPERTY
VdW12
SciTegic.value.DoubleValue
3.494

@<SCITEGIC>MOL_PROPERTY
Bond
SciTegic.value.DoubleValue
0.108

@<SCITEGIC>MOL_PROPERTY
Angle
SciTegic.value.DoubleValue
0.456

@<SCITEGIC>MOL_PROPERTY
Pdih
SciTegic.value.DoubleValue
0.569

@<SCITEGIC>MOL_PROPERTY
Idih
SciTegic.value.DoubleValue
0.000

@<SCITEGIC>MOL_PROPERTY
Tether
SciTegic.value.DoubleValue
0.000

@<TRIPOS>MOLECULE
guest-s9_confgen4.mol2 : confsearch ligand conformer 5
          20          19           1
SMALL
USER_CHARGES
 
@<TRIPOS>ATOM
       1    C1      19.684462   18.815761   18.988838 C.3        1 MOL1        -0.2224
       2    H1      20.541501   19.330345   18.535124 H          1 MOL1         0.1052
       3    H2      19.459292   17.933651   18.375482 H          1 MOL1         0.1052
       4    H3      18.818077   19.488288   18.941252 H          1 MOL1         0.1052
       5    C2      19.989584   18.404185   20.445386 C.3        1 MOL1        -0.1209
       6    H4      20.839882   17.707625   20.456427 H          1 MOL1         0.1041
       7    H5      19.127388   17.858394   20.851868 H          1 MOL1         0.1041
       8    C3      20.309995   19.630971   21.331681 C.3        1 MOL1        -0.1274
       9    H6      21.148062   20.187483   20.891429 H          1 MOL1         0.1041
      10    H7      19.453604   20.318128   21.348012 H          1 MOL1         0.1041
      11    C4      20.687861   19.243550   22.775516 C.3        1 MOL1         0.0313
      12    H8      20.988543   20.140365   23.323178 H          1 MOL1         0.1015
      13    H9      21.535637   18.553986   22.760919 H          1 MOL1         0.1015
      14    N1      19.563332   18.587672   23.554710 N.4        1 MOL1        -0.4809
      15    H10     19.248475   17.732658   23.072766 H          1 MOL1         0.3726
      16    H11     18.739641   19.208094   23.580329 H          1 MOL1         0.3726
      17    C5      20.030766   18.261861   24.966869 C.3        1 MOL1        -0.0677
      18    H12     20.881337   17.578697   24.915816 H          1 MOL1         0.1026
      19    H13     20.327842   19.184867   25.469455 H          1 MOL1         0.1026
      20    H14     19.212567   17.790716   25.516015 H          1 MOL1         0.1026
@<TRIPOS>BOND
    1     1     2    1
    2     1     3    1
    3     1     4    1
    4     1     5    1
    5     5     6    1
    6     5     7    1
    7     5     8    1
    8     8     9    1
    9     8    10    1
   10     8    11    1
   11    11    12    1
   12    11    13    1
   13    11    14    1
   14    14    15    1
   15    14    16    1
   16    14    17    1
   17    17    18    1
   18    17    19    1
   19    17    20    1
@<TRIPOS>SUBSTRUCTURE
       1 MOL1            1 RESIDUE      1      MOL     
@<SCITEGIC>MOL_PROPERTY
VConf Rank
SciTegic.value.IntegerValue
5

@<SCITEGIC>MOL_PROPERTY
Conf_Id
SciTegic.value.IntegerValue
50

@<SCITEGIC>MOL_PROPERTY
Delta U+W
SciTegic.value.DoubleValue
0.319

@<SCITEGIC>MOL_PROPERTY
U+W
SciTegic.value.DoubleValue
15.657

@<SCITEGIC>MOL_PROPERTY
Grad RMS
SciTegic.value.DoubleValue
0.000000

@<SCITEGIC>MOL_PROPERTY
U
SciTegic.value.DoubleValue
69.962

@<SCITEGIC>MOL_PROPERTY
W
SciTegic.value.DoubleValue
-54.305

@<SCITEGIC>MOL_PROPERTY
W(PB)
SciTegic.value.DoubleValue
-56.223

@<SCITEGIC>MOL_PROPERTY
W(SA)
SciTegic.value.DoubleValue
1.918

@<SCITEGIC>MOL_PROPERTY
Valence
SciTegic.value.DoubleValue
0.982

@<SCITEGIC>MOL_PROPERTY
Coulomb
SciTegic.value.DoubleValue
69.058

@<SCITEGIC>MOL_PROPERTY
VdW
SciTegic.value.DoubleValue
-0.078

@<SCITEGIC>MOL_PROPERTY
VdW6
SciTegic.value.DoubleValue
-3.548

@<SCITEGIC>MOL_PROPERTY
VdW12
SciTegic.value.DoubleValue
3.471

@<SCITEGIC>MOL_PROPERTY
Bond
SciTegic.value.DoubleValue
0.105

@<SCITEGIC>MOL_PROPERTY
Angle
SciTegic.value.DoubleValue
0.408

@<SCITEGIC>MOL_PROPERTY
Pdih
SciTegic.value.DoubleValue
0.469

@<SCITEGIC>MOL_PROPERTY
Idih
SciTegic.value.DoubleValue
0.000

@<SCITEGIC>MOL_PROPERTY
Tether
SciTegic.value.DoubleValue
0.000

@<TRIPOS>MOLECULE
guest-s9_confgen4.mol2 : confsearch ligand conformer 6
          20          19           1
SMALL
USER_CHARGES
 
@<TRIPOS>ATOM
       1    C1      20.183485   19.309887   19.009748 C.3        1 MOL1        -0.2224
       2    H1      21.092687   19.551292   18.443972 H          1 MOL1         0.1052
       3    H2      19.681160   18.477991   18.499074 H          1 MOL1         0.1052
       4    H3      19.521108   20.184477   18.970635 H          1 MOL1         0.1052
       5    C2      20.530379   18.939837   20.468087 C.3        1 MOL1        -0.1209
       6    H4      21.065947   19.778526   20.933129 H          1 MOL1         0.1041
       7    H5      21.218437   18.082585   20.472408 H          1 MOL1         0.1041
       8    C3      19.264447   18.595495   21.287863 C.3        1 MOL1        -0.1274
       9    H6      18.584696   19.457605   21.311548 H          1 MOL1         0.1041
      10    H7      18.719788   17.782462   20.789659 H          1 MOL1         0.1041
      11    C4      19.587126   18.153494   22.729410 C.3        1 MOL1         0.0313
      12    H8      20.269196   17.299824   22.707899 H          1 MOL1         0.1015
      13    H9      18.665344   17.839669   23.225849 H          1 MOL1         0.1015
      14    N1      20.219362   19.237434   23.582194 N.4        1 MOL1        -0.4809
      15    H10     19.605651   20.065817   23.616678 H          1 MOL1         0.3726
      16    H11     21.096676   19.563175   23.150146 H          1 MOL1         0.3726
      17    C5      20.481201   18.707853   24.985698 C.3        1 MOL1        -0.0677
      18    H12     20.936008   19.497292   25.588133 H          1 MOL1         0.1026
      19    H13     19.535236   18.399820   25.436310 H          1 MOL1         0.1026
      20    H14     21.158350   17.852956   24.927297 H          1 MOL1         0.1026
@<TRIPOS>BOND
    1     1     2    1
    2     1     3    1
    3     1     4    1
    4     1     5    1
    5     5     6    1
    6     5     7    1
    7     5     8    1
    8     8     9    1
    9     8    10    1
   10     8    11    1
   11    11    12    1
   12    11    13    1
   13    11    14    1
   14    14    15    1
   15    14    16    1
   16    14    17    1
   17    17    18    1
   18    17    19    1
   19    17    20    1
@<TRIPOS>SUBSTRUCTURE
       1 MOL1            1 RESIDUE      1      MOL     
@<SCITEGIC>MOL_PROPERTY
VConf Rank
SciTegic.value.IntegerValue
6

@<SCITEGIC>MOL_PROPERTY
Conf_Id
SciTegic.value.IntegerValue
35

@<SCITEGIC>MOL_PROPERTY
Delta U+W
SciTegic.value.DoubleValue
0.360

@<SCITEGIC>MOL_PROPERTY
U+W
SciTegic.value.DoubleValue
15.698

@<SCITEGIC>MOL_PROPERTY
Grad RMS
SciTegic.value.DoubleValue
0.000000

@<SCITEGIC>MOL_PROPERTY
U
SciTegic.value.DoubleValue
69.962

@<SCITEGIC>MOL_PROPERTY
W
SciTegic.value.DoubleValue
-54.264

@<SCITEGIC>MOL_PROPERTY
W(PB)
SciTegic.value.DoubleValue
-56.166

@<SCITEGIC>MOL_PROPERTY
W(SA)
SciTegic.value.DoubleValue
1.902

@<SCITEGIC>MOL_PROPERTY
Valence
SciTegic.value.DoubleValue
0.982

@<SCITEGIC>MOL_PROPERTY
Coulomb
SciTegic.value.DoubleValue
69.058

@<SCITEGIC>MOL_PROPERTY
VdW
SciTegic.value.DoubleValue
-0.078

@<SCITEGIC>MOL_PROPERTY
VdW6
SciTegic.value.DoubleValue
-3.548

@<SCITEGIC>MOL_PROPERTY
VdW12
SciTegic.value.DoubleValue
3.471

@<SCITEGIC>MOL_PROPERTY
Bond
SciTegic.value.DoubleValue
0.105

@<SCITEGIC>MOL_PROPERTY
Angle
SciTegic.value.DoubleValue
0.408

@<SCITEGIC>MOL_PROPERTY
Pdih
SciTegic.value.DoubleValue
0.469

@<SCITEGIC>MOL_PROPERTY
Idih
SciTegic.value.DoubleValue
0.000

@<SCITEGIC>MOL_PROPERTY
Tether
SciTegic.value.DoubleValue
0.000

@<TRIPOS>MOLECULE
guest-s9_confgen4.mol2 : confsearch ligand conformer 7
          20          19           1
SMALL
USER_CHARGES
 
@<TRIPOS>ATOM
       1    C1      19.776499   18.053384   19.540242 C.3        1 MOL1        -0.2224
       2    H1      18.800536   17.829283   19.988955 H          1 MOL1         0.1052
       3    H2      19.634270   18.116475   18.453612 H          1 MOL1         0.1052
       4    H3      20.448272   17.208758   19.741296 H          1 MOL1         0.1052
       5    C2      20.364123   19.374395   20.087816 C.3        1 MOL1        -0.1209
       6    H4      19.671207   20.201549   19.878410 H          1 MOL1         0.1041
       7    H5      21.292672   19.605258   19.546998 H          1 MOL1         0.1041
       8    C3      20.666044   19.318190   21.603586 C.3        1 MOL1        -0.1274
       9    H6      21.387078   18.514664   21.801488 H          1 MOL1         0.1041
      10    H7      21.149301   20.256261   21.906904 H          1 MOL1         0.1041
      11    C4      19.394656   19.107057   22.453564 C.3        1 MOL1         0.0313
      12    H8      18.939549   18.144253   22.209347 H          1 MOL1         0.1015
      13    H9      18.673699   19.892833   22.214091 H          1 MOL1         0.1015
      14    N1      19.624515   19.145973   23.955578 N.4        1 MOL1        -0.4809
      15    H10     18.715358   19.162888   24.443795 H          1 MOL1         0.3726
      16    H11     20.084717   20.029073   24.224034 H          1 MOL1         0.3726
      17    C5      20.440163   17.945001   24.422214 C.3        1 MOL1        -0.0677
      18    H12     21.424870   17.970355   23.951472 H          1 MOL1         0.1026
      19    H13     20.552142   17.988749   25.507806 H          1 MOL1         0.1026
      20    H14     19.919589   17.026478   24.142902 H          1 MOL1         0.1026
@<TRIPOS>BOND
    1     1     2    1
    2     1     3    1
    3     1     4    1
    4     1     5    1
    5     5     6    1
    6     5     7    1
    7     5     8    1
    8     8     9    1
    9     8    10    1
   10     8    11    1
   11    11    12    1
   12    11    13    1
   13    11    14    1
   14    14    15    1
   15    14    16    1
   16    14    17    1
   17    17    18    1
   18    17    19    1
   19    17    20    1
@<TRIPOS>SUBSTRUCTURE
       1 MOL1            1 RESIDUE      1      MOL     
@<SCITEGIC>MOL_PROPERTY
VConf Rank
SciTegic.value.IntegerValue
7

@<SCITEGIC>MOL_PROPERTY
Conf_Id
SciTegic.value.IntegerValue
33

@<SCITEGIC>MOL_PROPERTY
Delta U+W
SciTegic.value.DoubleValue
0.372

@<SCITEGIC>MOL_PROPERTY
U+W
SciTegic.value.DoubleValue
15.711

@<SCITEGIC>MOL_PROPERTY
Grad RMS
SciTegic.value.DoubleValue
0.000000

@<SCITEGIC>MOL_PROPERTY
U
SciTegic.value.DoubleValue
70.163

@<SCITEGIC>MOL_PROPERTY
W
SciTegic.value.DoubleValue
-54.452

@<SCITEGIC>MOL_PROPERTY
W(PB)
SciTegic.value.DoubleValue
-56.363

@<SCITEGIC>MOL_PROPERTY
W(SA)
SciTegic.value.DoubleValue
1.911

@<SCITEGIC>MOL_PROPERTY
Valence
SciTegic.value.DoubleValue
1.420

@<SCITEGIC>MOL_PROPERTY
Coulomb
SciTegic.value.DoubleValue
68.566

@<SCITEGIC>MOL_PROPERTY
VdW
SciTegic.value.DoubleValue
0.177

@<SCITEGIC>MOL_PROPERTY
VdW6
SciTegic.value.DoubleValue
-4.267

@<SCITEGIC>MOL_PROPERTY
VdW12
SciTegic.value.DoubleValue
4.445

@<SCITEGIC>MOL_PROPERTY
Bond
SciTegic.value.DoubleValue
0.146

@<SCITEGIC>MOL_PROPERTY
Angle
SciTegic.value.DoubleValue
0.581

@<SCITEGIC>MOL_PROPERTY
Pdih
SciTegic.value.DoubleValue
0.693

@<SCITEGIC>MOL_PROPERTY
Idih
SciTegic.value.DoubleValue
0.000

@<SCITEGIC>MOL_PROPERTY
Tether
SciTegic.value.DoubleValue
0.000

@<TRIPOS>MOLECULE
guest-s9_confgen4.mol2 : confsearch ligand conformer 8
          20          19           1
SMALL
USER_CHARGES
 
@<TRIPOS>ATOM
       1    C1      20.921670   19.185135   19.588267 C.3        1 MOL1        -0.2224
       2    H1      20.906220   19.373490   18.506946 H          1 MOL1         0.1052
       3    H2      21.137118   20.138566   20.086886 H          1 MOL1         0.1052
       4    H3      21.749691   18.494941   19.795894 H          1 MOL1         0.1052
       5    C2      19.572355   18.591813   20.054669 C.3        1 MOL1        -0.1209
       6    H4      19.354581   17.689681   19.465842 H          1 MOL1         0.1041
       7    H5      18.762369   19.303248   19.840308 H          1 MOL1         0.1041
       8    C3      19.561002   18.226072   21.557328 C.3        1 MOL1        -0.1274
       9    H6      18.605768   17.742358   21.800358 H          1 MOL1         0.1041
      10    H7      20.347605   17.487366   21.758027 H          1 MOL1         0.1041
      11    C4      19.749592   19.458050   22.468440 C.3        1 MOL1         0.0313
      12    H8      18.982328   20.198083   22.227140 H          1 MOL1         0.1015
      13    H9      20.726624   19.911010   22.284074 H          1 MOL1         0.1015
      14    N1      19.644906   19.166038   23.956450 N.4        1 MOL1        -0.4809
      15    H10     18.746472   18.705898   24.168121 H          1 MOL1         0.3726
      16    H11     19.616978   20.054110   24.481573 H          1 MOL1         0.3726
      17    C5      20.816475   18.316891   24.437846 C.3        1 MOL1        -0.0677
      18    H12     20.725787   18.160152   25.514958 H          1 MOL1         0.1026
      19    H13     20.800649   17.353119   23.925225 H          1 MOL1         0.1026
      20    H14     21.751391   18.837368   24.219364 H          1 MOL1         0.1026
@<TRIPOS>BOND
    1     1     2    1
    2     1     3    1
    3     1     4    1
    4     1     5    1
    5     5     6    1
    6     5     7    1
    7     5     8    1
    8     8     9    1
    9     8    10    1
   10     8    11    1
   11    11    12    1
   12    11    13    1
   13    11    14    1
   14    14    15    1
   15    14    16    1
   16    14    17    1
   17    17    18    1
   18    17    19    1
   19    17    20    1
@<TRIPOS>SUBSTRUCTURE
       1 MOL1            1 RESIDUE      1      MOL     
@<SCITEGIC>MOL_PROPERTY
VConf Rank
SciTegic.value.IntegerValue
8

@<SCITEGIC>MOL_PROPERTY
Conf_Id
SciTegic.value.IntegerValue
53

@<SCITEGIC>MOL_PROPERTY
Delta U+W
SciTegic.value.DoubleValue
0.379

@<SCITEGIC>MOL_PROPERTY
U+W
SciTegic.value.DoubleValue
15.717

@<SCITEGIC>MOL_PROPERTY
Grad RMS
SciTegic.value.DoubleValue
0.000000

@<SCITEGIC>MOL_PROPERTY
U
SciTegic.value.DoubleValue
70.163

@<SCITEGIC>MOL_PROPERTY
W
SciTegic.value.DoubleValue
-54.446

@<SCITEGIC>MOL_PROPERTY
W(PB)
SciTegic.value.DoubleValue
-56.322

@<SCITEGIC>MOL_PROPERTY
W(SA)
SciTegic.value.DoubleValue
1.876

@<SCITEGIC>MOL_PROPERTY
Valence
SciTegic.value.DoubleValue
1.420

@<SCITEGIC>MOL_PROPERTY
Coulomb
SciTegic.value.DoubleValue
68.566

@<SCITEGIC>MOL_PROPERTY
VdW
SciTegic.value.DoubleValue
0.177

@<SCITEGIC>MOL_PROPERTY
VdW6
SciTegic.value.DoubleValue
-4.267

@<SCITEGIC>MOL_PROPERTY
VdW12
SciTegic.value.DoubleValue
4.445

@<SCITEGIC>MOL_PROPERTY
Bond
SciTegic.value.DoubleValue
0.146

@<SCITEGIC>MOL_PROPERTY
Angle
SciTegic.value.DoubleValue
0.581

@<SCITEGIC>MOL_PROPERTY
Pdih
SciTegic.value.DoubleValue
0.693

@<SCITEGIC>MOL_PROPERTY
Idih
SciTegic.value.DoubleValue
0.000

@<SCITEGIC>MOL_PROPERTY
Tether
SciTegic.value.DoubleValue
0.000

@<TRIPOS>MOLECULE
guest-s9_confgen4.mol2 : confsearch ligand conformer 9
          20          19           1
SMALL
USER_CHARGES
 
@<TRIPOS>ATOM
       1    C1      20.659230   19.060779   19.249205 C.3        1 MOL1        -0.2224
       2    H1      21.066254   18.292001   18.579644 H          1 MOL1         0.1052
       3    H2      19.853879   19.580289   18.713793 H          1 MOL1         0.1052
       4    H3      21.457601   19.786310   19.452609 H          1 MOL1         0.1052
       5    C2      20.138979   18.425609   20.556821 C.3        1 MOL1        -0.1209
       6    H4      20.960997   17.883650   21.043877 H          1 MOL1         0.1041
       7    H5      19.365001   17.682455   20.318364 H          1 MOL1         0.1041
       8    C3      19.561286   19.489399   21.519808 C.3        1 MOL1        -0.1274
       9    H6      20.337839   20.219109   21.782924 H          1 MOL1         0.1041
      10    H7      18.771131   20.052797   21.006110 H          1 MOL1         0.1041
      11    C4      18.961947   18.874681   22.804166 C.3        1 MOL1         0.0313
      12    H8      18.152340   18.194548   22.527429 H          1 MOL1         0.1015
      13    H9      18.535424   19.668107   23.423073 H          1 MOL1         0.1015
      14    N1      19.938068   18.091324   23.669134 N.4        1 MOL1        -0.4809
      15    H10     20.367921   17.331393   23.121629 H          1 MOL1         0.3726
      16    H11     19.422658   17.614631   24.425665 H          1 MOL1         0.3726
      17    C5      21.006489   19.002207   24.263865 C.3        1 MOL1        -0.0677
      18    H12     20.524076   19.784718   24.853452 H          1 MOL1         0.1026
      19    H13     21.664251   18.411186   24.904938 H          1 MOL1         0.1026
      20    H14     21.588679   19.451911   23.457122 H          1 MOL1         0.1026
@<TRIPOS>BOND
    1     1     2    1
    2     1     3    1
    3     1     4    1
    4     1     5    1
    5     5     6    1
    6     5     7    1
    7     5     8    1
    8     8     9    1
    9     8    10    1
   10     8    11    1
   11    11    12    1
   12    11    13    1
   13    11    14    1
   14    14    15    1
   15    14    16    1
   16    14    17    1
   17    17    18    1
   18    17    19    1
   19    17    20    1
@<TRIPOS>SUBSTRUCTURE
       1 MOL1            1 RESIDUE      1      MOL     
@<SCITEGIC>MOL_PROPERTY
VConf Rank
SciTegic.value.IntegerValue
9

@<SCITEGIC>MOL_PROPERTY
Conf_Id
SciTegic.value.IntegerValue
49

@<SCITEGIC>MOL_PROPERTY
Delta U+W
SciTegic.value.DoubleValue
0.268

@<SCITEGIC>MOL_PROPERTY
U+W
SciTegic.value.DoubleValue
15.607

@<SCITEGIC>MOL_PROPERTY
Grad RMS
SciTegic.value.DoubleValue
0.000000

@<SCITEGIC>MOL_PROPERTY
U
SciTegic.value.DoubleValue
70.298

@<SCITEGIC>MOL_PROPERTY
W
SciTegic.value.DoubleValue
-54.692

@<SCITEGIC>MOL_PROPERTY
W(PB)
SciTegic.value.DoubleValue
-56.576

@<SCITEGIC>MOL_PROPERTY
W(SA)
SciTegic.value.DoubleValue
1.885

@<SCITEGIC>MOL_PROPERTY
Valence
SciTegic.value.DoubleValue
1.245

@<SCITEGIC>MOL_PROPERTY
Coulomb
SciTegic.value.DoubleValue
68.933

@<SCITEGIC>MOL_PROPERTY
VdW
SciTegic.value.DoubleValue
0.120

@<SCITEGIC>MOL_PROPERTY
VdW6
SciTegic.value.DoubleValue
-4.430

@<SCITEGIC>MOL_PROPERTY
VdW12
SciTegic.value.DoubleValue
4.550

@<SCITEGIC>MOL_PROPERTY
Bond
SciTegic.value.DoubleValue
0.148

@<SCITEGIC>MOL_PROPERTY
Angle
SciTegic.value.DoubleValue
0.587

@<SCITEGIC>MOL_PROPERTY
Pdih
SciTegic.value.DoubleValue
0.509

@<SCITEGIC>MOL_PROPERTY
Idih
SciTegic.value.DoubleValue
0.000

@<SCITEGIC>MOL_PROPERTY
Tether
SciTegic.value.DoubleValue
0.000

@<TRIPOS>MOLECULE
guest-s9_confgen4.mol2 : confsearch ligand conformer 10
          20          19           1
SMALL
USER_CHARGES
 
@<TRIPOS>ATOM
       1    C1      19.912641   18.387105   19.223828 C.3        1 MOL1        -0.2224
       2    H1      18.869039   18.658482   19.017867 H          1 MOL1         0.1052
       3    H2      20.561058   19.106140   18.706446 H          1 MOL1         0.1052
       4    H3      20.094798   17.396465   18.787421 H          1 MOL1         0.1052
       5    C2      20.194590   18.374649   20.741944 C.3        1 MOL1        -0.1209
       6    H4      21.236778   18.072942   20.917466 H          1 MOL1         0.1041
       7    H5      19.555779   17.616902   21.214478 H          1 MOL1         0.1041
       8    C3      19.934775   19.757331   21.384057 C.3        1 MOL1        -0.1274
       9    H6      20.491428   20.521806   20.825960 H          1 MOL1         0.1041
      10    H7      18.872636   20.018149   21.287156 H          1 MOL1         0.1041
      11    C4      20.353552   19.853528   22.868713 C.3        1 MOL1         0.0313
      12    H8      20.187928   20.882141   23.199270 H          1 MOL1         0.1015
      13    H9      21.419504   19.638639   22.977648 H          1 MOL1         0.1015
      14    N1      19.585878   18.957072   23.828038 N.4        1 MOL1        -0.4809
      15    H10     18.613839   18.835301   23.506866 H          1 MOL1         0.3726
      16    H11     19.504325   19.428282   24.742543 H          1 MOL1         0.3726
      17    C5      20.284564   17.614315   24.016419 C.3        1 MOL1        -0.0677
      18    H12     19.714879   17.012265   24.727722 H          1 MOL1         0.1026
      19    H13     20.344716   17.091744   23.061113 H          1 MOL1         0.1026
      20    H14     21.290530   17.785969   24.405335 H          1 MOL1         0.1026
@<TRIPOS>BOND
    1     1     2    1
    2     1     3    1
    3     1     4    1
    4     1     5    1
    5     5     6    1
    6     5     7    1
    7     5     8    1
    8     8     9    1
    9     8    10    1
   10     8    11    1
   11    11    12    1
   12    11    13    1
   13    11    14    1
   14    14    15    1
   15    14    16    1
   16    14    17    1
   17    17    18    1
   18    17    19    1
   19    17    20    1
@<TRIPOS>SUBSTRUCTURE
       1 MOL1            1 RESIDUE      1      MOL     
@<SCITEGIC>MOL_PROPERTY
VConf Rank
SciTegic.value.IntegerValue
10

@<SCITEGIC>MOL_PROPERTY
Conf_Id
SciTegic.value.IntegerValue
65

@<SCITEGIC>MOL_PROPERTY
Delta U+W
SciTegic.value.DoubleValue
1.775

@<SCITEGIC>MOL_PROPERTY
U+W
SciTegic.value.DoubleValue
17.114

@<SCITEGIC>MOL_PROPERTY
Grad RMS
SciTegic.value.DoubleValue
0.000000

@<SCITEGIC>MOL_PROPERTY
U
SciTegic.value.DoubleValue
71.726

@<SCITEGIC>MOL_PROPERTY
W
SciTegic.value.DoubleValue
-54.613

@<SCITEGIC>MOL_PROPERTY
W(PB)
SciTegic.value.DoubleValue
-56.495

@<SCITEGIC>MOL_PROPERTY
W(SA)
SciTegic.value.DoubleValue
1.883

@<SCITEGIC>MOL_PROPERTY
Valence
SciTegic.value.DoubleValue
2.885

@<SCITEGIC>MOL_PROPERTY
Coulomb
SciTegic.value.DoubleValue
68.822

@<SCITEGIC>MOL_PROPERTY
VdW
SciTegic.value.DoubleValue
0.019

@<SCITEGIC>MOL_PROPERTY
VdW6
SciTegic.value.DoubleValue
-4.600

@<SCITEGIC>MOL_PROPERTY
VdW12
SciTegic.value.DoubleValue
4.619

@<SCITEGIC>MOL_PROPERTY
Bond
SciTegic.value.DoubleValue
0.152

@<SCITEGIC>MOL_PROPERTY
Angle
SciTegic.value.DoubleValue
0.862

@<SCITEGIC>MOL_PROPERTY
Pdih
SciTegic.value.DoubleValue
1.871

@<SCITEGIC>MOL_PROPERTY
Idih
SciTegic.value.DoubleValue
0.000

@<SCITEGIC>MOL_PROPERTY
Tether
SciTegic.value.DoubleValue
0.000

@<TRIPOS>MOLECULE
guest-s9_confgen4.mol2 : confsearch ligand conformer 11
          20          19           1
SMALL
USER_CHARGES
 
@<TRIPOS>ATOM
       1    C1      20.564949   18.054516   19.803951 C.3        1 MOL1        -0.2224
       2    H1      21.015351   17.470566   20.616444 H          1 MOL1         0.1052
       3    H2      20.224289   17.346463   19.037406 H          1 MOL1         0.1052
       4    H3      21.348322   18.680081   19.356663 H          1 MOL1         0.1052
       5    C2      19.385088   18.917060   20.308048 C.3        1 MOL1        -0.1209
       6    H4      18.615641   18.269285   20.749577 H          1 MOL1         0.1041
       7    H5      18.909228   19.408703   19.447903 H          1 MOL1         0.1041
       8    C3      19.817419   20.002108   21.325771 C.3        1 MOL1        -0.1274
       9    H6      20.507874   20.701523   20.836021 H          1 MOL1         0.1041
      10    H7      18.941472   20.594568   21.621497 H          1 MOL1         0.1041
      11    C4      20.500307   19.440284   22.590280 C.3        1 MOL1         0.0313
      12    H8      20.800643   20.267943   23.237828 H          1 MOL1         0.1015
      13    H9      21.399648   18.887716   22.308108 H          1 MOL1         0.1015
      14    N1      19.619111   18.514169   23.406618 N.4        1 MOL1        -0.4809
      15    H10     19.308073   17.721252   22.826076 H          1 MOL1         0.3726
      16    H11     18.756487   19.003088   23.690759 H          1 MOL1         0.3726
      17    C5      20.379126   18.015864   24.628332 C.3        1 MOL1        -0.0677
      18    H12     20.670853   18.869851   25.243446 H          1 MOL1         0.1026
      19    H13     19.733803   17.349940   25.205458 H          1 MOL1         0.1026
      20    H14     21.269538   17.474137   24.302052 H          1 MOL1         0.1026
@<TRIPOS>BOND
    1     1     2    1
    2     1     3    1
    3     1     4    1
    4     1     5    1
    5     5     6    1
    6     5     7    1
    7     5     8    1
    8     8     9    1
    9     8    10    1
   10     8    11    1
   11    11    12    1
   12    11    13    1
   13    11    14    1
   14    14    15    1
   15    14    16    1
   16    14    17    1
   17    17    18    1
   18    17    19    1
   19    17    20    1
@<TRIPOS>SUBSTRUCTURE
       1 MOL1            1 RESIDUE      1      MOL     
@<SCITEGIC>MOL_PROPERTY
VConf Rank
SciTegic.value.IntegerValue
11

@<SCITEGIC>MOL_PROPERTY
Conf_Id
SciTegic.value.IntegerValue
23

@<SCITEGIC>MOL_PROPERTY
Delta U+W
SciTegic.value.DoubleValue
0.896

@<SCITEGIC>MOL_PROPERTY
U+W
SciTegic.value.DoubleValue
16.234

@<SCITEGIC>MOL_PROPERTY
Grad RMS
SciTegic.value.DoubleValue
0.000000

@<SCITEGIC>MOL_PROPERTY
U
SciTegic.value.DoubleValue
70.374

@<SCITEGIC>MOL_PROPERTY
W
SciTegic.value.DoubleValue
-54.140

@<SCITEGIC>MOL_PROPERTY
W(PB)
SciTegic.value.DoubleValue
-56.046

@<SCITEGIC>MOL_PROPERTY
W(SA)
SciTegic.value.DoubleValue
1.907

@<SCITEGIC>MOL_PROPERTY
Valence
SciTegic.value.DoubleValue
1.257

@<SCITEGIC>MOL_PROPERTY
Coulomb
SciTegic.value.DoubleValue
69.240

@<SCITEGIC>MOL_PROPERTY
VdW
SciTegic.value.DoubleValue
-0.123

@<SCITEGIC>MOL_PROPERTY
VdW6
SciTegic.value.DoubleValue
-4.336

@<SCITEGIC>MOL_PROPERTY
VdW12
SciTegic.value.DoubleValue
4.213

@<SCITEGIC>MOL_PROPERTY
Bond
SciTegic.value.DoubleValue
0.128

@<SCITEGIC>MOL_PROPERTY
Angle
SciTegic.value.DoubleValue
0.603

@<SCITEGIC>MOL_PROPERTY
Pdih
SciTegic.value.DoubleValue
0.526

@<SCITEGIC>MOL_PROPERTY
Idih
SciTegic.value.DoubleValue
0.000

@<SCITEGIC>MOL_PROPERTY
Tether
SciTegic.value.DoubleValue
0.000

@<TRIPOS>MOLECULE
guest-s9_confgen4.mol2 : confsearch ligand conformer 12
          20          19           1
SMALL
USER_CHARGES
 
@<TRIPOS>ATOM
       1    C1      20.901210   18.387126   19.818074 C.3        1 MOL1        -0.2224
       2    H1      20.287403   17.630417   19.312404 H          1 MOL1         0.1052
       3    H2      21.644317   18.751230   19.096824 H          1 MOL1         0.1052
       4    H3      21.445866   17.896464   20.634533 H          1 MOL1         0.1052
       5    C2      20.029813   19.554863   20.335015 C.3        1 MOL1        -0.1209
       6    H4      19.579685   20.071912   19.475917 H          1 MOL1         0.1041
       7    H5      20.665906   20.297616   20.835330 H          1 MOL1         0.1041
       8    C3      18.898500   19.093060   21.287310 C.3        1 MOL1        -0.1274
       9    H6      18.302758   19.962730   21.594735 H          1 MOL1         0.1041
      10    H7      18.213621   18.431869   20.740014 H          1 MOL1         0.1041
      11    C4      19.399587   18.351425   22.544234 C.3        1 MOL1         0.0313
      12    H8      19.954653   17.458273   22.247678 H          1 MOL1         0.1015
      13    H9      18.542364   18.033972   23.143342 H          1 MOL1         0.1015
      14    N1      20.299052   19.186870   23.435075 N.4        1 MOL1        -0.4809
      15    H10     19.807093   20.042467   23.734788 H          1 MOL1         0.3726
      16    H11     21.118790   19.512702   22.901827 H          1 MOL1         0.3726
      17    C5      20.737837   18.370656   24.643291 C.3        1 MOL1        -0.0677
      18    H12     21.284110   17.488478   24.302545 H          1 MOL1         0.1026
      19    H13     21.385088   18.983500   25.274527 H          1 MOL1         0.1026
      20    H14     19.855818   18.063333   25.209294 H          1 MOL1         0.1026
@<TRIPOS>BOND
    1     1     2    1
    2     1     3    1
    3     1     4    1
    4     1     5    1
    5     5     6    1
    6     5     7    1
    7     5     8    1
    8     8     9    1
    9     8    10    1
   10     8    11    1
   11    11    12    1
   12    11    13    1
   13    11    14    1
   14    14    15    1
   15    14    16    1
   16    14    17    1
   17    17    18    1
   18    17    19    1
   19    17    20    1
@<TRIPOS>SUBSTRUCTURE
       1 MOL1            1 RESIDUE      1      MOL     
@<SCITEGIC>MOL_PROPERTY
VConf Rank
SciTegic.value.IntegerValue
12

@<SCITEGIC>MOL_PROPERTY
Conf_Id
SciTegic.value.IntegerValue
24

@<SCITEGIC>MOL_PROPERTY
Delta U+W
SciTegic.value.DoubleValue
0.792

@<SCITEGIC>MOL_PROPERTY
U+W
SciTegic.value.DoubleValue
16.130

@<SCITEGIC>MOL_PROPERTY
Grad RMS
SciTegic.value.DoubleValue
0.000000

@<SCITEGIC>MOL_PROPERTY
U
SciTegic.value.DoubleValue
70.374

@<SCITEGIC>MOL_PROPERTY
W
SciTegic.value.DoubleValue
-54.243

@<SCITEGIC>MOL_PROPERTY
W(PB)
SciTegic.value.DoubleValue
-56.130

@<SCITEGIC>MOL_PROPERTY
W(SA)
SciTegic.value.DoubleValue
1.887

@<SCITEGIC>MOL_PROPERTY
Valence
SciTegic.value.DoubleValue
1.257

@<SCITEGIC>MOL_PROPERTY
Coulomb
SciTegic.value.DoubleValue
69.240

@<SCITEGIC>MOL_PROPERTY
VdW
SciTegic.value.DoubleValue
-0.123

@<SCITEGIC>MOL_PROPERTY
VdW6
SciTegic.value.DoubleValue
-4.336

@<SCITEGIC>MOL_PROPERTY
VdW12
SciTegic.value.DoubleValue
4.213

@<SCITEGIC>MOL_PROPERTY
Bond
SciTegic.value.DoubleValue
0.128

@<SCITEGIC>MOL_PROPERTY
Angle
SciTegic.value.DoubleValue
0.603

@<SCITEGIC>MOL_PROPERTY
Pdih
SciTegic.value.DoubleValue
0.526

@<SCITEGIC>MOL_PROPERTY
Idih
SciTegic.value.DoubleValue
0.000

@<SCITEGIC>MOL_PROPERTY
Tether
SciTegic.value.DoubleValue
0.000

@<TRIPOS>MOLECULE
guest-s9_confgen4.mol2 : confsearch ligand conformer 13
          20          19           1
SMALL
USER_CHARGES
 
@<TRIPOS>ATOM
       1    C1      18.921363   18.486995   20.152820 C.3        1 MOL1        -0.2224
       2    H1      18.576935   18.058782   19.202438 H          1 MOL1         0.1052
       3    H2      18.697294   17.752574   20.935423 H          1 MOL1         0.1052
       4    H3      18.334866   19.396098   20.339140 H          1 MOL1         0.1052
       5    C2      20.433835   18.798282   20.082168 C.3        1 MOL1        -0.1209
       6    H4      20.632880   19.362510   19.160162 H          1 MOL1         0.1041
       7    H5      20.996510   17.858580   19.990185 H          1 MOL1         0.1041
       8    C3      20.977845   19.615531   21.281749 C.3        1 MOL1        -0.1274
       9    H6      22.036651   19.834032   21.089381 H          1 MOL1         0.1041
      10    H7      20.475164   20.590035   21.339706 H          1 MOL1         0.1041
      11    C4      20.885442   18.891653   22.641803 C.3        1 MOL1         0.0313
      12    H8      21.598063   19.343841   23.336239 H          1 MOL1         0.1015
      13    H9      21.153202   17.839276   22.518958 H          1 MOL1         0.1015
      14    N1      19.520296   18.966585   23.298889 N.4        1 MOL1        -0.4809
      15    H10     18.800982   18.599347   22.659873 H          1 MOL1         0.3726
      16    H11     19.261333   19.950816   23.466924 H          1 MOL1         0.3726
      17    C5      19.527219   18.184954   24.605571 C.3        1 MOL1        -0.0677
      18    H12     19.771453   17.140702   24.399038 H          1 MOL1         0.1026
      19    H13     20.274613   18.613338   25.276879 H          1 MOL1         0.1026
      20    H14     18.539146   18.247840   25.066794 H          1 MOL1         0.1026
@<TRIPOS>BOND
    1     1     2    1
    2     1     3    1
    3     1     4    1
    4     1     5    1
    5     5     6    1
    6     5     7    1
    7     5     8    1
    8     8     9    1
    9     8    10    1
   10     8    11    1
   11    11    12    1
   12    11    13    1
   13    11    14    1
   14    14    15    1
   15    14    16    1
   16    14    17    1
   17    17    18    1
   18    17    19    1
   19    17    20    1
@<TRIPOS>SUBSTRUCTURE
       1 MOL1            1 RESIDUE      1      MOL     
@<SCITEGIC>MOL_PROPERTY
VConf Rank
SciTegic.value.IntegerValue
13

@<SCITEGIC>MOL_PROPERTY
Conf_Id
SciTegic.value.IntegerValue
26

@<SCITEGIC>MOL_PROPERTY
Delta U+W
SciTegic.value.DoubleValue
2.888

@<SCITEGIC>MOL_PROPERTY
U+W
SciTegic.value.DoubleValue
18.226

@<SCITEGIC>MOL_PROPERTY
Grad RMS
SciTegic.value.DoubleValue
0.000000

@<SCITEGIC>MOL_PROPERTY
U
SciTegic.value.DoubleValue
72.042

@<SCITEGIC>MOL_PROPERTY
W
SciTegic.value.DoubleValue
-53.816

@<SCITEGIC>MOL_PROPERTY
W(PB)
SciTegic.value.DoubleValue
-55.689

@<SCITEGIC>MOL_PROPERTY
W(SA)
SciTegic.value.DoubleValue
1.873

@<SCITEGIC>MOL_PROPERTY
Valence
SciTegic.value.DoubleValue
2.428

@<SCITEGIC>MOL_PROPERTY
Coulomb
SciTegic.value.DoubleValue
69.829

@<SCITEGIC>MOL_PROPERTY
VdW
SciTegic.value.DoubleValue
-0.215

@<SCITEGIC>MOL_PROPERTY
VdW6
SciTegic.value.DoubleValue
-4.563

@<SCITEGIC>MOL_PROPERTY
VdW12
SciTegic.value.DoubleValue
4.348

@<SCITEGIC>MOL_PROPERTY
Bond
SciTegic.value.DoubleValue
0.137

@<SCITEGIC>MOL_PROPERTY
Angle
SciTegic.value.DoubleValue
0.936

@<SCITEGIC>MOL_PROPERTY
Pdih
SciTegic.value.DoubleValue
1.356

@<SCITEGIC>MOL_PROPERTY
Idih
SciTegic.value.DoubleValue
0.000

@<SCITEGIC>MOL_PROPERTY
Tether
SciTegic.value.DoubleValue
0.000

@<TRIPOS>MOLECULE
guest-s9_confgen4.mol2 : confsearch ligand conformer 14
          20          19           1
SMALL
USER_CHARGES
 
@<TRIPOS>ATOM
       1    C1      20.469309   20.020177   20.217734 C.3        1 MOL1        -0.2224
       2    H1      20.940147   20.399659   19.301479 H          1 MOL1         0.1052
       3    H2      19.558308   20.607837   20.390648 H          1 MOL1         0.1052
       4    H3      21.172050   20.203510   21.039070 H          1 MOL1         0.1052
       5    C2      20.148118   18.515343   20.070181 C.3        1 MOL1        -0.1209
       6    H4      21.085931   17.947200   19.993841 H          1 MOL1         0.1041
       7    H5      19.621608   18.361046   19.117791 H          1 MOL1         0.1041
       8    C3      19.276247   17.930123   21.210441 C.3        1 MOL1        -0.1274
       9    H6      18.304547   18.440060   21.248770 H          1 MOL1         0.1041
      10    H7      19.056919   16.882635   20.964511 H          1 MOL1         0.1041
      11    C4      19.942795   17.957951   22.602283 C.3        1 MOL1         0.0313
      12    H8      20.997065   17.684609   22.512374 H          1 MOL1         0.1015
      13    H9      19.455518   17.221637   23.246447 H          1 MOL1         0.1015
      14    N1      19.851990   19.295101   23.312765 N.4        1 MOL1        -0.4809
      15    H10     18.863818   19.557080   23.450203 H          1 MOL1         0.3726
      16    H11     20.252168   20.036659   22.720676 H          1 MOL1         0.3726
      17    C5      20.577541   19.225307   24.649595 C.3        1 MOL1        -0.0677
      18    H12     21.627434   18.979014   24.476874 H          1 MOL1         0.1026
      19    H13     20.503783   20.193813   25.149122 H          1 MOL1         0.1026
      20    H14     20.114648   18.454993   25.270169 H          1 MOL1         0.1026
@<TRIPOS>BOND
    1     1     2    1
    2     1     3    1
    3     1     4    1
    4     1     5    1
    5     5     6    1
    6     5     7    1
    7     5     8    1
    8     8     9    1
    9     8    10    1
   10     8    11    1
   11    11    12    1
   12    11    13    1
   13    11    14    1
   14    14    15    1
   15    14    16    1
   16    14    17    1
   17    17    18    1
   18    17    19    1
   19    17    20    1
@<TRIPOS>SUBSTRUCTURE
       1 MOL1            1 RESIDUE      1      MOL     
@<SCITEGIC>MOL_PROPERTY
VConf Rank
SciTegic.value.IntegerValue
14

@<SCITEGIC>MOL_PROPERTY
Conf_Id
SciTegic.value.IntegerValue
5

@<SCITEGIC>MOL_PROPERTY
Delta U+W
SciTegic.value.DoubleValue
2.950

@<SCITEGIC>MOL_PROPERTY
U+W
SciTegic.value.DoubleValue
18.289

@<SCITEGIC>MOL_PROPERTY
Grad RMS
SciTegic.value.DoubleValue
0.000000

@<SCITEGIC>MOL_PROPERTY
U
SciTegic.value.DoubleValue
72.042

@<SCITEGIC>MOL_PROPERTY
W
SciTegic.value.DoubleValue
-53.753

@<SCITEGIC>MOL_PROPERTY
W(PB)
SciTegic.value.DoubleValue
-55.644

@<SCITEGIC>MOL_PROPERTY
W(SA)
SciTegic.value.DoubleValue
1.891

@<SCITEGIC>MOL_PROPERTY
Valence
SciTegic.value.DoubleValue
2.428

@<SCITEGIC>MOL_PROPERTY
Coulomb
SciTegic.value.DoubleValue
69.829

@<SCITEGIC>MOL_PROPERTY
VdW
SciTegic.value.DoubleValue
-0.215

@<SCITEGIC>MOL_PROPERTY
VdW6
SciTegic.value.DoubleValue
-4.563

@<SCITEGIC>MOL_PROPERTY
VdW12
SciTegic.value.DoubleValue
4.348

@<SCITEGIC>MOL_PROPERTY
Bond
SciTegic.value.DoubleValue
0.137

@<SCITEGIC>MOL_PROPERTY
Angle
SciTegic.value.DoubleValue
0.936

@<SCITEGIC>MOL_PROPERTY
Pdih
SciTegic.value.DoubleValue
1.356

@<SCITEGIC>MOL_PROPERTY
Idih
SciTegic.value.DoubleValue
0.000

@<SCITEGIC>MOL_PROPERTY
Tether
SciTegic.value.DoubleValue
0.000

@<TRIPOS>MOLECULE
guest-s9_confgen4.mol2 : confsearch ligand conformer 15
          20          19           1
SMALL
USER_CHARGES
 
@<TRIPOS>ATOM
       1    C1      20.036886   19.684529   19.711545 C.3        1 MOL1        -0.2224
       2    H1      19.213489   19.267183   19.117493 H          1 MOL1         0.1052
       3    H2      19.630024   20.479242   20.349254 H          1 MOL1         0.1052
       4    H3      20.748146   20.149466   19.016629 H          1 MOL1         0.1052
       5    C2      20.733511   18.584563   20.545171 C.3        1 MOL1        -0.1209
       6    H4      21.554768   19.024480   21.127213 H          1 MOL1         0.1041
       7    H5      21.200271   17.860836   19.862349 H          1 MOL1         0.1041
       8    C3      19.762017   17.828288   21.485141 C.3        1 MOL1        -0.1274
       9    H6      19.001914   17.315266   20.881332 H          1 MOL1         0.1041
      10    H7      20.309289   17.038225   22.015278 H          1 MOL1         0.1041
      11    C4      19.044859   18.736000   22.510458 C.3        1 MOL1         0.0313
      12    H8      18.382932   18.130325   23.134502 H          1 MOL1         0.1015
      13    H9      18.427043   19.459924   21.973507 H          1 MOL1         0.1015
      14    N1      19.963353   19.519397   23.435651 N.4        1 MOL1        -0.4809
      15    H10     19.408131   20.195209   23.983431 H          1 MOL1         0.3726
      16    H11     20.614401   20.094983   22.881629 H          1 MOL1         0.3726
      17    C5      20.725375   18.591223   24.375033 C.3        1 MOL1        -0.0677
      18    H12     21.356757   17.921246   23.788112 H          1 MOL1         0.1026
      19    H13     21.348112   19.190423   25.042914 H          1 MOL1         0.1026
      20    H14     20.011707   18.008625   24.961455 H          1 MOL1         0.1026
@<TRIPOS>BOND
    1     1     2    1
    2     1     3    1
    3     1     4    1
    4     1     5    1
    5     5     6    1
    6     5     7    1
    7     5     8    1
    8     8     9    1
    9     8    10    1
   10     8    11    1
   11    11    12    1
   12    11    13    1
   13    11    14    1
   14    14    15    1
   15    14    16    1
   16    14    17    1
   17    17    18    1
   18    17    19    1
   19    17    20    1
@<TRIPOS>SUBSTRUCTURE
       1 MOL1            1 RESIDUE      1      MOL     
@<SCITEGIC>MOL_PROPERTY
VConf Rank
SciTegic.value.IntegerValue
15

@<SCITEGIC>MOL_PROPERTY
Conf_Id
SciTegic.value.IntegerValue
52

@<SCITEGIC>MOL_PROPERTY
Delta U+W
SciTegic.value.DoubleValue
0.784

@<SCITEGIC>MOL_PROPERTY
U+W
SciTegic.value.DoubleValue
16.122

@<SCITEGIC>MOL_PROPERTY
Grad RMS
SciTegic.value.DoubleValue
0.000000

@<SCITEGIC>MOL_PROPERTY
U
SciTegic.value.DoubleValue
70.777

@<SCITEGIC>MOL_PROPERTY
W
SciTegic.value.DoubleValue
-54.655

@<SCITEGIC>MOL_PROPERTY
W(PB)
SciTegic.value.DoubleValue
-56.491

@<SCITEGIC>MOL_PROPERTY
W(SA)
SciTegic.value.DoubleValue
1.836

@<SCITEGIC>MOL_PROPERTY
Valence
SciTegic.value.DoubleValue
1.529

@<SCITEGIC>MOL_PROPERTY
Coulomb
SciTegic.value.DoubleValue
69.166

@<SCITEGIC>MOL_PROPERTY
VdW
SciTegic.value.DoubleValue
0.082

@<SCITEGIC>MOL_PROPERTY
VdW6
SciTegic.value.DoubleValue
-5.166

@<SCITEGIC>MOL_PROPERTY
VdW12
SciTegic.value.DoubleValue
5.248

@<SCITEGIC>MOL_PROPERTY
Bond
SciTegic.value.DoubleValue
0.171

@<SCITEGIC>MOL_PROPERTY
Angle
SciTegic.value.DoubleValue
0.752

@<SCITEGIC>MOL_PROPERTY
Pdih
SciTegic.value.DoubleValue
0.605

@<SCITEGIC>MOL_PROPERTY
Idih
SciTegic.value.DoubleValue
0.000

@<SCITEGIC>MOL_PROPERTY
Tether
SciTegic.value.DoubleValue
0.000

@<TRIPOS>MOLECULE
guest-s9_confgen4.mol2 : confsearch ligand conformer 16
          20          19           1
SMALL
USER_CHARGES
 
@<TRIPOS>ATOM
       1    C1      19.590016   19.979630   20.274341 C.3        1 MOL1        -0.2224
       2    H1      19.354241   20.374129   19.277370 H          1 MOL1         0.1052
       3    H2      18.645306   19.920124   20.826731 H          1 MOL1         0.1052
       4    H3      20.247399   20.704516   20.772032 H          1 MOL1         0.1052
       5    C2      20.267801   18.595483   20.155561 C.3        1 MOL1        -0.1209
       6    H4      21.070815   18.663460   19.408185 H          1 MOL1         0.1041
       7    H5      19.546817   17.866024   19.760479 H          1 MOL1         0.1041
       8    C3      20.878328   18.064363   21.477678 C.3        1 MOL1        -0.1274
       9    H6      21.408535   17.129866   21.251444 H          1 MOL1         0.1041
      10    H7      21.643988   18.757683   21.847778 H          1 MOL1         0.1041
      11    C4      19.844419   17.757592   22.586045 C.3        1 MOL1         0.0313
      12    H8      20.297935   17.094893   23.327377 H          1 MOL1         0.1015
      13    H9      18.994242   17.231348   22.144758 H          1 MOL1         0.1015
      14    N1      19.306514   18.963674   23.340058 N.4        1 MOL1        -0.4809
      15    H10     18.497337   18.679397   23.914146 H          1 MOL1         0.3726
      16    H11     18.936761   19.658710   22.676696 H          1 MOL1         0.3726
      17    C5      20.378922   19.583257   24.229317 C.3        1 MOL1        -0.0677
      18    H12     20.742164   18.830166   24.931848 H          1 MOL1         0.1026
      19    H13     21.203718   19.939518   23.609311 H          1 MOL1         0.1026
      20    H14     19.946460   20.421455   24.780057 H          1 MOL1         0.1026
@<TRIPOS>BOND
    1     1     2    1
    2     1     3    1
    3     1     4    1
    4     1     5    1
    5     5     6    1
    6     5     7    1
    7     5     8    1
    8     8     9    1
    9     8    10    1
   10     8    11    1
   11    11    12    1
   12    11    13    1
   13    11    14    1
   14    14    15    1
   15    14    16    1
   16    14    17    1
   17    17    18    1
   18    17    19    1
   19    17    20    1
@<TRIPOS>SUBSTRUCTURE
       1 MOL1            1 RESIDUE      1      MOL     
@<SCITEGIC>MOL_PROPERTY
VConf Rank
SciTegic.value.IntegerValue
16

@<SCITEGIC>MOL_PROPERTY
Conf_Id
SciTegic.value.IntegerValue
55

@<SCITEGIC>MOL_PROPERTY
Delta U+W
SciTegic.value.DoubleValue
2.745

@<SCITEGIC>MOL_PROPERTY
U+W
SciTegic.value.DoubleValue
18.083

@<SCITEGIC>MOL_PROPERTY
Grad RMS
SciTegic.value.DoubleValue
0.000000

@<SCITEGIC>MOL_PROPERTY
U
SciTegic.value.DoubleValue
72.490

@<SCITEGIC>MOL_PROPERTY
W
SciTegic.value.DoubleValue
-54.407

@<SCITEGIC>MOL_PROPERTY
W(PB)
SciTegic.value.DoubleValue
-56.269

@<SCITEGIC>MOL_PROPERTY
W(SA)
SciTegic.value.DoubleValue
1.861

@<SCITEGIC>MOL_PROPERTY
Valence
SciTegic.value.DoubleValue
2.738

@<SCITEGIC>MOL_PROPERTY
Coulomb
SciTegic.value.DoubleValue
69.795

@<SCITEGIC>MOL_PROPERTY
VdW
SciTegic.value.DoubleValue
-0.043

@<SCITEGIC>MOL_PROPERTY
VdW6
SciTegic.value.DoubleValue
-5.333

@<SCITEGIC>MOL_PROPERTY
VdW12
SciTegic.value.DoubleValue
5.290

@<SCITEGIC>MOL_PROPERTY
Bond
SciTegic.value.DoubleValue
0.182

@<SCITEGIC>MOL_PROPERTY
Angle
SciTegic.value.DoubleValue
1.135

@<SCITEGIC>MOL_PROPERTY
Pdih
SciTegic.value.DoubleValue
1.422

@<SCITEGIC>MOL_PROPERTY
Idih
SciTegic.value.DoubleValue
0.000

@<SCITEGIC>MOL_PROPERTY
Tether
SciTegic.value.DoubleValue
0.000

@<TRIPOS>MOLECULE
guest-s9_confgen4.mol2 : confsearch ligand conformer 17
          20          19           1
SMALL
USER_CHARGES
 
@<TRIPOS>ATOM
       1    C1      18.966878   19.362350   20.248381 C.3        1 MOL1        -0.2224
       2    H1      18.616783   19.643646   19.246645 H          1 MOL1         0.1052
       3    H2      18.216216   18.691993   20.687057 H          1 MOL1         0.1052
       4    H3      19.010801   20.282436   20.842235 H          1 MOL1         0.1052
       5    C2      20.349161   18.676286   20.159053 C.3        1 MOL1        -0.1209
       6    H4      21.100629   19.405885   19.825888 H          1 MOL1         0.1041
       7    H5      20.306222   17.906178   19.376037 H          1 MOL1         0.1041
       8    C3      20.818777   18.005295   21.475133 C.3        1 MOL1        -0.1274
       9    H6      20.103964   17.231923   21.783093 H          1 MOL1         0.1041
      10    H7      21.757447   17.475482   21.265888 H          1 MOL1         0.1041
      11    C4      21.087272   18.988477   22.638240 C.3        1 MOL1         0.0313
      12    H8      21.639163   19.850850   22.255884 H          1 MOL1         0.1015
      13    H9      21.713955   18.497296   23.386861 H          1 MOL1         0.1015
      14    N1      19.855040   19.506911   23.363042 N.4        1 MOL1        -0.4809
      15    H10     19.192059   19.911530   22.687337 H          1 MOL1         0.3726
      16    H11     20.121777   20.288201   23.982393 H          1 MOL1         0.3726
      17    C5      19.188872   18.404682   24.179151 C.3        1 MOL1        -0.0677
      18    H12     18.851983   17.610504   23.510268 H          1 MOL1         0.1026
      19    H13     19.908250   18.004268   24.896650 H          1 MOL1         0.1026
      20    H14     18.331905   18.822462   24.712048 H          1 MOL1         0.1026
@<TRIPOS>BOND
    1     1     2    1
    2     1     3    1
    3     1     4    1
    4     1     5    1
    5     5     6    1
    6     5     7    1
    7     5     8    1
    8     8     9    1
    9     8    10    1
   10     8    11    1
   11    11    12    1
   12    11    13    1
   13    11    14    1
   14    14    15    1
   15    14    16    1
   16    14    17    1
   17    17    18    1
   18    17    19    1
   19    17    20    1
@<TRIPOS>SUBSTRUCTURE
       1 MOL1            1 RESIDUE      1      MOL     
@<SCITEGIC>MOL_PROPERTY
VConf Rank
SciTegic.value.IntegerValue
17

@<SCITEGIC>MOL_PROPERTY
Conf_Id
SciTegic.value.IntegerValue
76

@<SCITEGIC>MOL_PROPERTY
Delta U+W
SciTegic.value.DoubleValue
2.799

@<SCITEGIC>MOL_PROPERTY
U+W
SciTegic.value.DoubleValue
18.137

@<SCITEGIC>MOL_PROPERTY
Grad RMS
SciTegic.value.DoubleValue
0.000000

@<SCITEGIC>MOL_PROPERTY
U
SciTegic.value.DoubleValue
72.490

@<SCITEGIC>MOL_PROPERTY
W
SciTegic.value.DoubleValue
-54.353

@<SCITEGIC>MOL_PROPERTY
W(PB)
SciTegic.value.DoubleValue
-56.201

@<SCITEGIC>MOL_PROPERTY
W(SA)
SciTegic.value.DoubleValue
1.848

@<SCITEGIC>MOL_PROPERTY
Valence
SciTegic.value.DoubleValue
2.738

@<SCITEGIC>MOL_PROPERTY
Coulomb
SciTegic.value.DoubleValue
69.795

@<SCITEGIC>MOL_PROPERTY
VdW
SciTegic.value.DoubleValue
-0.043

@<SCITEGIC>MOL_PROPERTY
VdW6
SciTegic.value.DoubleValue
-5.334

@<SCITEGIC>MOL_PROPERTY
VdW12
SciTegic.value.DoubleValue
5.290

@<SCITEGIC>MOL_PROPERTY
Bond
SciTegic.value.DoubleValue
0.182

@<SCITEGIC>MOL_PROPERTY
Angle
SciTegic.value.DoubleValue
1.135

@<SCITEGIC>MOL_PROPERTY
Pdih
SciTegic.value.DoubleValue
1.421

@<SCITEGIC>MOL_PROPERTY
Idih
SciTegic.value.DoubleValue
0.000

@<SCITEGIC>MOL_PROPERTY
Tether
SciTegic.value.DoubleValue
0.000

@<TRIPOS>MOLECULE
guest-s9_confgen4.mol2 : confsearch ligand conformer 18
          20          19           1
SMALL
USER_CHARGES
 
@<TRIPOS>ATOM
       1    C1      20.191145   17.788721   20.071146 C.3        1 MOL1        -0.2224
       2    H1      19.905568   17.123481   20.895132 H          1 MOL1         0.1052
       3    H2      19.318311   17.916168   19.417793 H          1 MOL1         0.1052
       4    H3      20.972119   17.280969   19.490532 H          1 MOL1         0.1052
       5    C2      20.700703   19.153765   20.588416 C.3        1 MOL1        -0.1209
       6    H4      21.039947   19.752688   19.731657 H          1 MOL1         0.1041
       7    H5      21.586242   19.011348   21.221109 H          1 MOL1         0.1041
       8    C3      19.619903   19.954579   21.355236 C.3        1 MOL1        -0.1274
       9    H6      20.032610   20.926662   21.655460 H          1 MOL1         0.1041
      10    H7      18.794556   20.178362   20.666491 H          1 MOL1         0.1041
      11    C4      19.031639   19.249325   22.599922 C.3        1 MOL1         0.0313
      12    H8      18.621512   18.273244   22.330426 H          1 MOL1         0.1015
      13    H9      18.206449   19.862085   22.971747 H          1 MOL1         0.1015
      14    N1      19.991395   19.064187   23.765913 N.4        1 MOL1        -0.4809
      15    H10     19.461489   19.101672   24.650557 H          1 MOL1         0.3726
      16    H11     20.648309   19.856798   23.819546 H          1 MOL1         0.3726
      17    C5      20.731216   17.733423   23.682366 C.3        1 MOL1        -0.0677
      18    H12     21.383162   17.632411   24.552820 H          1 MOL1         0.1026
      19    H13     20.003411   16.919291   23.673418 H          1 MOL1         0.1026
      20    H14     21.330287   17.700911   22.771829 H          1 MOL1         0.1026
@<TRIPOS>BOND
    1     1     2    1
    2     1     3    1
    3     1     4    1
    4     1     5    1
    5     5     6    1
    6     5     7    1
    7     5     8    1
    8     8     9    1
    9     8    10    1
   10     8    11    1
   11    11    12    1
   12    11    13    1
   13    11    14    1
   14    14    15    1
   15    14    16    1
   16    14    17    1
   17    17    18    1
   18    17    19    1
   19    17    20    1
@<TRIPOS>SUBSTRUCTURE
       1 MOL1            1 RESIDUE      1      MOL     
@<SCITEGIC>MOL_PROPERTY
VConf Rank
SciTegic.value.IntegerValue
18

@<SCITEGIC>MOL_PROPERTY
Conf_Id
SciTegic.value.IntegerValue
60

@<SCITEGIC>MOL_PROPERTY
Delta U+W
SciTegic.value.DoubleValue
1.788

@<SCITEGIC>MOL_PROPERTY
U+W
SciTegic.value.DoubleValue
17.127

@<SCITEGIC>MOL_PROPERTY
Grad RMS
SciTegic.value.DoubleValue
0.000000

@<SCITEGIC>MOL_PROPERTY
U
SciTegic.value.DoubleValue
72.122

@<SCITEGIC>MOL_PROPERTY
W
SciTegic.value.DoubleValue
-54.995

@<SCITEGIC>MOL_PROPERTY
W(PB)
SciTegic.value.DoubleValue
-56.810

@<SCITEGIC>MOL_PROPERTY
W(SA)
SciTegic.value.DoubleValue
1.815

@<SCITEGIC>MOL_PROPERTY
Valence
SciTegic.value.DoubleValue
3.197

@<SCITEGIC>MOL_PROPERTY
Coulomb
SciTegic.value.DoubleValue
69.115

@<SCITEGIC>MOL_PROPERTY
VdW
SciTegic.value.DoubleValue
-0.190

@<SCITEGIC>MOL_PROPERTY
VdW6
SciTegic.value.DoubleValue
-5.585

@<SCITEGIC>MOL_PROPERTY
VdW12
SciTegic.value.DoubleValue
5.395

@<SCITEGIC>MOL_PROPERTY
Bond
SciTegic.value.DoubleValue
0.177

@<SCITEGIC>MOL_PROPERTY
Angle
SciTegic.value.DoubleValue
1.207

@<SCITEGIC>MOL_PROPERTY
Pdih
SciTegic.value.DoubleValue
1.813

@<SCITEGIC>MOL_PROPERTY
Idih
SciTegic.value.DoubleValue
0.000

@<SCITEGIC>MOL_PROPERTY
Tether
SciTegic.value.DoubleValue
0.000

@<TRIPOS>MOLECULE
guest-s9_confgen4.mol2 : confsearch ligand conformer 19
          20          19           1
SMALL
USER_CHARGES
 
@<TRIPOS>ATOM
       1    C1      21.159321   18.747445   20.111747 C.3        1 MOL1        -0.2224
       2    H1      21.684168   17.986114   19.520345 H          1 MOL1         0.1052
       3    H2      21.067403   19.648219   19.491177 H          1 MOL1         0.1052
       4    H3      21.791661   18.991084   20.974207 H          1 MOL1         0.1052
       5    C2      19.769138   18.231283   20.549388 C.3        1 MOL1        -0.1209
       6    H4      19.876776   17.318556   21.149477 H          1 MOL1         0.1041
       7    H5      19.203982   17.934631   19.654722 H          1 MOL1         0.1041
       8    C3      18.946275   19.287523   21.327015 C.3        1 MOL1        -0.1274
       9    H6      18.759164   20.143317   20.665010 H          1 MOL1         0.1041
      10    H7      17.958734   18.873009   21.568569 H          1 MOL1         0.1041
      11    C4      19.603491   19.815616   22.623880 C.3        1 MOL1         0.0313
      12    H8      18.982924   20.631004   23.004284 H          1 MOL1         0.1015
      13    H9      20.593698   20.226232   22.413046 H          1 MOL1         0.1015
      14    N1      19.730648   18.805972   23.754982 N.4        1 MOL1        -0.4809
      15    H10     18.930671   18.155873   23.747578 H          1 MOL1         0.3726
      16    H11     19.660525   19.298749   24.658892 H          1 MOL1         0.3726
      17    C5      21.057127   18.056161   23.695987 C.3        1 MOL1        -0.0677
      18    H12     21.877342   18.774988   23.751889 H          1 MOL1         0.1026
      19    H13     21.115475   17.367302   24.541562 H          1 MOL1         0.1026
      20    H14     21.122758   17.495428   22.763093 H          1 MOL1         0.1026
@<TRIPOS>BOND
    1     1     2    1
    2     1     3    1
    3     1     4    1
    4     1     5    1
    5     5     6    1
    6     5     7    1
    7     5     8    1
    8     8     9    1
    9     8    10    1
   10     8    11    1
   11    11    12    1
   12    11    13    1
   13    11    14    1
   14    14    15    1
   15    14    16    1
   16    14    17    1
   17    17    18    1
   18    17    19    1
   19    17    20    1
@<TRIPOS>SUBSTRUCTURE
       1 MOL1            1 RESIDUE      1      MOL     
@<SCITEGIC>MOL_PROPERTY
VConf Rank
SciTegic.value.IntegerValue
19

@<SCITEGIC>MOL_PROPERTY
Conf_Id
SciTegic.value.IntegerValue
54

@<SCITEGIC>MOL_PROPERTY
Delta U+W
SciTegic.value.DoubleValue
1.880

@<SCITEGIC>MOL_PROPERTY
U+W
SciTegic.value.DoubleValue
17.218

@<SCITEGIC>MOL_PROPERTY
Grad RMS
SciTegic.value.DoubleValue
0.000000

@<SCITEGIC>MOL_PROPERTY
U
SciTegic.value.DoubleValue
72.122

@<SCITEGIC>MOL_PROPERTY
W
SciTegic.value.DoubleValue
-54.903

@<SCITEGIC>MOL_PROPERTY
W(PB)
SciTegic.value.DoubleValue
-56.724

@<SCITEGIC>MOL_PROPERTY
W(SA)
SciTegic.value.DoubleValue
1.821

@<SCITEGIC>MOL_PROPERTY
Valence
SciTegic.value.DoubleValue
3.197

@<SCITEGIC>MOL_PROPERTY
Coulomb
SciTegic.value.DoubleValue
69.115

@<SCITEGIC>MOL_PROPERTY
VdW
SciTegic.value.DoubleValue
-0.190

@<SCITEGIC>MOL_PROPERTY
VdW6
SciTegic.value.DoubleValue
-5.585

@<SCITEGIC>MOL_PROPERTY
VdW12
SciTegic.value.DoubleValue
5.395

@<SCITEGIC>MOL_PROPERTY
Bond
SciTegic.value.DoubleValue
0.177

@<SCITEGIC>MOL_PROPERTY
Angle
SciTegic.value.DoubleValue
1.207

@<SCITEGIC>MOL_PROPERTY
Pdih
SciTegic.value.DoubleValue
1.813

@<SCITEGIC>MOL_PROPERTY
Idih
SciTegic.value.DoubleValue
0.000

@<SCITEGIC>MOL_PROPERTY
Tether
SciTegic.value.DoubleValue
0.000

@<TRIPOS>MOLECULE
guest-s9_confgen4.mol2 : confsearch ligand conformer 20
          20          19           1
SMALL
USER_CHARGES
 
@<TRIPOS>ATOM
       1    C1      18.813053   21.010948   24.002002 C.3        1 MOL1        -0.2224
       2    H1      19.593576   20.949633   24.771549 H          1 MOL1         0.1052
       3    H2      18.492210   22.058383   23.931528 H          1 MOL1         0.1052
       4    H3      17.953076   20.418079   24.339820 H          1 MOL1         0.1052
       5    C2      19.334982   20.507296   22.638859 C.3        1 MOL1        -0.1209
       6    H4      20.171426   21.140935   22.311425 H          1 MOL1         0.1041
       7    H5      18.543816   20.613476   21.883125 H          1 MOL1         0.1041
       8    C3      19.794147   19.034161   22.708156 C.3        1 MOL1        -0.1274
       9    H6      20.586925   18.929589   23.460840 H          1 MOL1         0.1041
      10    H7      18.957097   18.401411   23.032099 H          1 MOL1         0.1041
      11    C4      20.313001   18.539421   21.345217 C.3        1 MOL1         0.0313
      12    H8      21.156330   19.157520   21.027039 H          1 MOL1         0.1015
      13    H9      19.521241   18.627495   20.596987 H          1 MOL1         0.1015
      14    N1      20.775744   17.095753   21.365122 N.4        1 MOL1        -0.4809
      15    H10     20.006855   16.478948   21.669293 H          1 MOL1         0.3726
      16    H11     21.520759   16.969700   22.067417 H          1 MOL1         0.3726
      17    C5      21.270763   16.689642   19.983381 C.3        1 MOL1        -0.0677
      18    H12     22.105787   17.332640   19.696861 H          1 MOL1         0.1026
      19    H13     21.600684   15.648806   20.012058 H          1 MOL1         0.1026
      20    H14     20.456843   16.798015   19.263243 H          1 MOL1         0.1026
@<TRIPOS>BOND
    1     1     2    1
    2     1     3    1
    3     1     4    1
    4     1     5    1
    5     5     6    1
    6     5     7    1
    7     5     8    1
    8     8     9    1
    9     8    10    1
   10     8    11    1
   11    11    12    1
   12    11    13    1
   13    11    14    1
   14    14    15    1
   15    14    16    1
   16    14    17    1
   17    17    18    1
   18    17    19    1
   19    17    20    1
@<TRIPOS>SUBSTRUCTURE
       1 MOL1            1 RESIDUE      1      MOL     
@<SCITEGIC>MOL_PROPERTY
VConf Rank
SciTegic.value.IntegerValue
20

@<SCITEGIC>MOL_PROPERTY
Conf_Id
SciTegic.value.IntegerValue
67

@<SCITEGIC>MOL_PROPERTY
Delta U+W
SciTegic.value.DoubleValue
0.000

@<SCITEGIC>MOL_PROPERTY
U+W
SciTegic.value.DoubleValue
15.338

@<SCITEGIC>MOL_PROPERTY
Grad RMS
SciTegic.value.DoubleValue
0.000000

@<SCITEGIC>MOL_PROPERTY
U
SciTegic.value.DoubleValue
69.277

@<SCITEGIC>MOL_PROPERTY
W
SciTegic.value.DoubleValue
-53.939

@<SCITEGIC>MOL_PROPERTY
W(PB)
SciTegic.value.DoubleValue
-55.889

@<SCITEGIC>MOL_PROPERTY
W(SA)
SciTegic.value.DoubleValue
1.950

@<SCITEGIC>MOL_PROPERTY
Valence
SciTegic.value.DoubleValue
0.846

@<SCITEGIC>MOL_PROPERTY
Coulomb
SciTegic.value.DoubleValue
68.557

@<SCITEGIC>MOL_PROPERTY
VdW
SciTegic.value.DoubleValue
-0.127

@<SCITEGIC>MOL_PROPERTY
VdW6
SciTegic.value.DoubleValue
-3.008

@<SCITEGIC>MOL_PROPERTY
VdW12
SciTegic.value.DoubleValue
2.882

@<SCITEGIC>MOL_PROPERTY
Bond
SciTegic.value.DoubleValue
0.088

@<SCITEGIC>MOL_PROPERTY
Angle
SciTegic.value.DoubleValue
0.332

@<SCITEGIC>MOL_PROPERTY
Pdih
SciTegic.value.DoubleValue
0.426

@<SCITEGIC>MOL_PROPERTY
Idih
SciTegic.value.DoubleValue
0.000

@<SCITEGIC>MOL_PROPERTY
Tether
SciTegic.value.DoubleValue
0.000

@<TRIPOS>MOLECULE
guest-s9_confgen4.mol2 : confsearch ligand conformer 21
          20          19           1
SMALL
USER_CHARGES
 
@<TRIPOS>ATOM
       1    C1      21.129994   18.067804   24.688302 C.3        1 MOL1        -0.2224
       2    H1      21.963504   17.535957   24.211259 H          1 MOL1         0.1052
       3    H2      21.496318   18.486822   25.634478 H          1 MOL1         0.1052
       4    H3      20.348242   17.334571   24.925791 H          1 MOL1         0.1052
       5    C2      20.585214   19.184601   23.771651 C.3        1 MOL1        -0.1209
       6    H4      21.379620   19.919846   23.580179 H          1 MOL1         0.1041
       7    H5      19.777232   19.720409   24.289709 H          1 MOL1         0.1041
       8    C3      20.061838   18.623534   22.431139 C.3        1 MOL1        -0.1274
       9    H6      20.871712   18.089524   21.917629 H          1 MOL1         0.1041
      10    H7      19.265411   17.892423   22.622977 H          1 MOL1         0.1041
      11    C4      19.518530   19.746258   21.523239 C.3        1 MOL1         0.0313
      12    H8      20.318323   20.452811   21.287664 H          1 MOL1         0.1015
      13    H9      18.735720   20.288508   22.059758 H          1 MOL1         0.1015
      14    N1      18.917444   19.265235   20.212485 N.4        1 MOL1        -0.4809
      15    H10     18.434870   20.049270   19.745905 H          1 MOL1         0.3726
      16    H11     18.177452   18.569706   20.392562 H          1 MOL1         0.3726
      17    C5      19.987139   18.692953   19.288493 C.3        1 MOL1        -0.0677
      18    H12     20.447443   17.823204   19.761297 H          1 MOL1         0.1026
      19    H13     19.523019   18.394339   18.345946 H          1 MOL1         0.1026
      20    H14     20.744908   19.456373   19.099597 H          1 MOL1         0.1026
@<TRIPOS>BOND
    1     1     2    1
    2     1     3    1
    3     1     4    1
    4     1     5    1
    5     5     6    1
    6     5     7    1
    7     5     8    1
    8     8     9    1
    9     8    10    1
   10     8    11    1
   11    11    12    1
   12    11    13    1
   13    11    14    1
   14    14    15    1
   15    14    16    1
   16    14    17    1
   17    17    18    1
   18    17    19    1
   19    17    20    1
@<TRIPOS>SUBSTRUCTURE
       1 MOL1            1 RESIDUE      1      MOL     
@<SCITEGIC>MOL_PROPERTY
VConf Rank
SciTegic.value.IntegerValue
21

@<SCITEGIC>MOL_PROPERTY
Conf_Id
SciTegic.value.IntegerValue
37

@<SCITEGIC>MOL_PROPERTY
Delta U+W
SciTegic.value.DoubleValue
-0.021

@<SCITEGIC>MOL_PROPERTY
U+W
SciTegic.value.DoubleValue
15.318

@<SCITEGIC>MOL_PROPERTY
Grad RMS
SciTegic.value.DoubleValue
0.000000

@<SCITEGIC>MOL_PROPERTY
U
SciTegic.value.DoubleValue
69.657

@<SCITEGIC>MOL_PROPERTY
W
SciTegic.value.DoubleValue
-54.340

@<SCITEGIC>MOL_PROPERTY
W(PB)
SciTegic.value.DoubleValue
-56.238

@<SCITEGIC>MOL_PROPERTY
W(SA)
SciTegic.value.DoubleValue
1.899

@<SCITEGIC>MOL_PROPERTY
Valence
SciTegic.value.DoubleValue
1.137

@<SCITEGIC>MOL_PROPERTY
Coulomb
SciTegic.value.DoubleValue
68.383

@<SCITEGIC>MOL_PROPERTY
VdW
SciTegic.value.DoubleValue
0.138

@<SCITEGIC>MOL_PROPERTY
VdW6
SciTegic.value.DoubleValue
-3.703

@<SCITEGIC>MOL_PROPERTY
VdW12
SciTegic.value.DoubleValue
3.841

@<SCITEGIC>MOL_PROPERTY
Bond
SciTegic.value.DoubleValue
0.125

@<SCITEGIC>MOL_PROPERTY
Angle
SciTegic.value.DoubleValue
0.468

@<SCITEGIC>MOL_PROPERTY
Pdih
SciTegic.value.DoubleValue
0.543

@<SCITEGIC>MOL_PROPERTY
Idih
SciTegic.value.DoubleValue
0.000

@<SCITEGIC>MOL_PROPERTY
Tether
SciTegic.value.DoubleValue
0.000

@<TRIPOS>MOLECULE
guest-s9_confgen4.mol2 : confsearch ligand conformer 22
          20          19           1
SMALL
USER_CHARGES
 
@<TRIPOS>ATOM
       1    C1      21.304201   19.238479   19.320552 C.3        1 MOL1        -0.2224
       2    H1      22.271798   19.153077   18.809199 H          1 MOL1         0.1052
       3    H2      20.612578   18.526095   18.852220 H          1 MOL1         0.1052
       4    H3      20.920288   20.252086   19.146248 H          1 MOL1         0.1052
       5    C2      21.458018   18.953899   20.830394 C.3        1 MOL1        -0.1209
       6    H4      22.181614   19.659301   21.262975 H          1 MOL1         0.1041
       7    H5      21.875622   17.946913   20.971507 H          1 MOL1         0.1041
       8    C3      20.110494   19.067319   21.576719 C.3        1 MOL1        -0.1274
       9    H6      19.696055   20.074726   21.438900 H          1 MOL1         0.1041
      10    H7      19.391407   18.361451   21.141496 H          1 MOL1         0.1041
      11    C4      20.274668   18.782921   23.084079 C.3        1 MOL1         0.0313
      12    H8      21.016312   19.471980   23.496196 H          1 MOL1         0.1015
      13    H9      20.641245   17.764008   23.231792 H          1 MOL1         0.1015
      14    N1      19.003312   18.946313   23.901217 N.4        1 MOL1        -0.4809
      15    H10     18.607759   19.888654   23.762276 H          1 MOL1         0.3726
      16    H11     19.231330   18.901400   24.906839 H          1 MOL1         0.3726
      17    C5      17.978981   17.871066   23.554655 C.3        1 MOL1        -0.0677
      18    H12     18.417800   16.886545   23.730331 H          1 MOL1         0.1026
      19    H13     17.097983   17.999234   24.187416 H          1 MOL1         0.1026
      20    H14     17.692927   17.967199   22.505456 H          1 MOL1         0.1026
@<TRIPOS>BOND
    1     1     2    1
    2     1     3    1
    3     1     4    1
    4     1     5    1
    5     5     6    1
    6     5     7    1
    7     5     8    1
    8     8     9    1
    9     8    10    1
   10     8    11    1
   11    11    12    1
   12    11    13    1
   13    11    14    1
   14    14    15    1
   15    14    16    1
   16    14    17    1
   17    17    18    1
   18    17    19    1
   19    17    20    1
@<TRIPOS>SUBSTRUCTURE
       1 MOL1            1 RESIDUE      1      MOL     
@<SCITEGIC>MOL_PROPERTY
VConf Rank
SciTegic.value.IntegerValue
22

@<SCITEGIC>MOL_PROPERTY
Conf_Id
SciTegic.value.IntegerValue
2

@<SCITEGIC>MOL_PROPERTY
Delta U+W
SciTegic.value.DoubleValue
0.069

@<SCITEGIC>MOL_PROPERTY
U+W
SciTegic.value.DoubleValue
15.407

@<SCITEGIC>MOL_PROPERTY
Grad RMS
SciTegic.value.DoubleValue
0.000000

@<SCITEGIC>MOL_PROPERTY
U
SciTegic.value.DoubleValue
69.657

@<SCITEGIC>MOL_PROPERTY
W
SciTegic.value.DoubleValue
-54.250

@<SCITEGIC>MOL_PROPERTY
W(PB)
SciTegic.value.DoubleValue
-56.176

@<SCITEGIC>MOL_PROPERTY
W(SA)
SciTegic.value.DoubleValue
1.926

@<SCITEGIC>MOL_PROPERTY
Valence
SciTegic.value.DoubleValue
1.137

@<SCITEGIC>MOL_PROPERTY
Coulomb
SciTegic.value.DoubleValue
68.383

@<SCITEGIC>MOL_PROPERTY
VdW
SciTegic.value.DoubleValue
0.138

@<SCITEGIC>MOL_PROPERTY
VdW6
SciTegic.value.DoubleValue
-3.703

@<SCITEGIC>MOL_PROPERTY
VdW12
SciTegic.value.DoubleValue
3.841

@<SCITEGIC>MOL_PROPERTY
Bond
SciTegic.value.DoubleValue
0.125

@<SCITEGIC>MOL_PROPERTY
Angle
SciTegic.value.DoubleValue
0.468

@<SCITEGIC>MOL_PROPERTY
Pdih
SciTegic.value.DoubleValue
0.543

@<SCITEGIC>MOL_PROPERTY
Idih
SciTegic.value.DoubleValue
0.000

@<SCITEGIC>MOL_PROPERTY
Tether
SciTegic.value.DoubleValue
0.000

@<TRIPOS>MOLECULE
guest-s9_confgen4.mol2 : confsearch ligand conformer 23
          20          19           1
SMALL
USER_CHARGES
 
@<TRIPOS>ATOM
       1    C1      19.391560   21.044546   23.224575 C.3        1 MOL1        -0.2224
       2    H1      19.295585   21.127079   22.134603 H          1 MOL1         0.1052
       3    H2      18.429334   20.704258   23.628832 H          1 MOL1         0.1052
       4    H3      19.581631   22.052017   23.616832 H          1 MOL1         0.1052
       5    C2      20.534449   20.082902   23.623744 C.3        1 MOL1        -0.1209
       6    H4      20.654893   20.103184   24.716033 H          1 MOL1         0.1041
       7    H5      21.483638   20.442543   23.201957 H          1 MOL1         0.1041
       8    C3      20.283079   18.624864   23.173057 C.3        1 MOL1        -0.1274
       9    H6      21.091971   17.988225   23.555470 H          1 MOL1         0.1041
      10    H7      19.352181   18.255688   23.623616 H          1 MOL1         0.1041
      11    C4      20.208766   18.481544   21.640353 C.3        1 MOL1         0.0313
      12    H8      21.136249   18.846773   21.192294 H          1 MOL1         0.1015
      13    H9      19.381038   19.081038   21.254037 H          1 MOL1         0.1015
      14    N1      19.999756   17.052607   21.178916 N.4        1 MOL1        -0.4809
      15    H10     19.135435   16.667974   21.590129 H          1 MOL1         0.3726
      16    H11     20.760231   16.449900   21.528951 H          1 MOL1         0.3726
      17    C5      19.935700   17.001918   19.658252 C.3        1 MOL1        -0.0677
      18    H12     20.873073   17.381298   19.245692 H          1 MOL1         0.1026
      19    H13     19.785143   15.968035   19.339784 H          1 MOL1         0.1026
      20    H14     19.103269   17.618504   19.312305 H          1 MOL1         0.1026
@<TRIPOS>BOND
    1     1     2    1
    2     1     3    1
    3     1     4    1
    4     1     5    1
    5     5     6    1
    6     5     7    1
    7     5     8    1
    8     8     9    1
    9     8    10    1
   10     8    11    1
   11    11    12    1
   12    11    13    1
   13    11    14    1
   14    14    15    1
   15    14    16    1
   16    14    17    1
   17    17    18    1
   18    17    19    1
   19    17    20    1
@<TRIPOS>SUBSTRUCTURE
       1 MOL1            1 RESIDUE      1      MOL     
@<SCITEGIC>MOL_PROPERTY
VConf Rank
SciTegic.value.IntegerValue
23

@<SCITEGIC>MOL_PROPERTY
Conf_Id
SciTegic.value.IntegerValue
34

@<SCITEGIC>MOL_PROPERTY
Delta U+W
SciTegic.value.DoubleValue
0.276

@<SCITEGIC>MOL_PROPERTY
U+W
SciTegic.value.DoubleValue
15.615

@<SCITEGIC>MOL_PROPERTY
Grad RMS
SciTegic.value.DoubleValue
0.000000

@<SCITEGIC>MOL_PROPERTY
U
SciTegic.value.DoubleValue
69.798

@<SCITEGIC>MOL_PROPERTY
W
SciTegic.value.DoubleValue
-54.184

@<SCITEGIC>MOL_PROPERTY
W(PB)
SciTegic.value.DoubleValue
-56.116

@<SCITEGIC>MOL_PROPERTY
W(SA)
SciTegic.value.DoubleValue
1.933

@<SCITEGIC>MOL_PROPERTY
Valence
SciTegic.value.DoubleValue
1.134

@<SCITEGIC>MOL_PROPERTY
Coulomb
SciTegic.value.DoubleValue
68.735

@<SCITEGIC>MOL_PROPERTY
VdW
SciTegic.value.DoubleValue
-0.070

@<SCITEGIC>MOL_PROPERTY
VdW6
SciTegic.value.DoubleValue
-3.565

@<SCITEGIC>MOL_PROPERTY
VdW12
SciTegic.value.DoubleValue
3.494

@<SCITEGIC>MOL_PROPERTY
Bond
SciTegic.value.DoubleValue
0.108

@<SCITEGIC>MOL_PROPERTY
Angle
SciTegic.value.DoubleValue
0.456

@<SCITEGIC>MOL_PROPERTY
Pdih
SciTegic.value.DoubleValue
0.569

@<SCITEGIC>MOL_PROPERTY
Idih
SciTegic.value.DoubleValue
0.000

@<SCITEGIC>MOL_PROPERTY
Tether
SciTegic.value.DoubleValue
0.000

@<TRIPOS>MOLECULE
guest-s9_confgen4.mol2 : confsearch ligand conformer 24
          20          19           1
SMALL
USER_CHARGES
 
@<TRIPOS>ATOM
       1    C1      18.835937   18.455831   19.234579 C.3        1 MOL1        -0.2224
       2    H1      17.741251   18.446539   19.316712 H          1 MOL1         0.1052
       3    H2      19.101618   19.057568   18.355745 H          1 MOL1         0.1052
       4    H3      19.173421   17.427234   19.052168 H          1 MOL1         0.1052
       5    C2      19.484969   19.036131   20.509740 C.3        1 MOL1        -0.1209
       6    H4      19.152753   20.074939   20.646986 H          1 MOL1         0.1041
       7    H5      20.574672   19.066953   20.375232 H          1 MOL1         0.1041
       8    C3      19.125935   18.204689   21.763926 C.3        1 MOL1        -0.1274
       9    H6      18.033597   18.150459   21.862619 H          1 MOL1         0.1041
      10    H7      19.480053   17.171996   21.645592 H          1 MOL1         0.1041
      11    C4      19.703042   18.802037   23.063027 C.3        1 MOL1         0.0313
      12    H8      19.342087   18.224270   23.917729 H          1 MOL1         0.1015
      13    H9      19.357354   19.832336   23.178857 H          1 MOL1         0.1015
      14    N1      21.219089   18.806704   23.121912 N.4        1 MOL1        -0.4809
      15    H10     21.603881   19.344685   22.331365 H          1 MOL1         0.3726
      16    H11     21.582307   17.848334   23.005095 H          1 MOL1         0.3726
      17    C5      21.685889   19.397185   24.445645 C.3        1 MOL1        -0.0677
      18    H12     21.317765   20.421752   24.532464 H          1 MOL1         0.1026
      19    H13     21.294486   18.793091   25.267022 H          1 MOL1         0.1026
      20    H14     22.777741   19.394566   24.474655 H          1 MOL1         0.1026
@<TRIPOS>BOND
    1     1     2    1
    2     1     3    1
    3     1     4    1
    4     1     5    1
    5     5     6    1
    6     5     7    1
    7     5     8    1
    8     8     9    1
    9     8    10    1
   10     8    11    1
   11    11    12    1
   12    11    13    1
   13    11    14    1
   14    14    15    1
   15    14    16    1
   16    14    17    1
   17    17    18    1
   18    17    19    1
   19    17    20    1
@<TRIPOS>SUBSTRUCTURE
       1 MOL1            1 RESIDUE      1      MOL     
@<SCITEGIC>MOL_PROPERTY
VConf Rank
SciTegic.value.IntegerValue
24

@<SCITEGIC>MOL_PROPERTY
Conf_Id
SciTegic.value.IntegerValue
50

@<SCITEGIC>MOL_PROPERTY
Delta U+W
SciTegic.value.DoubleValue
0.319

@<SCITEGIC>MOL_PROPERTY
U+W
SciTegic.value.DoubleValue
15.657

@<SCITEGIC>MOL_PROPERTY
Grad RMS
SciTegic.value.DoubleValue
0.000000

@<SCITEGIC>MOL_PROPERTY
U
SciTegic.value.DoubleValue
69.962

@<SCITEGIC>MOL_PROPERTY
W
SciTegic.value.DoubleValue
-54.305

@<SCITEGIC>MOL_PROPERTY
W(PB)
SciTegic.value.DoubleValue
-56.223

@<SCITEGIC>MOL_PROPERTY
W(SA)
SciTegic.value.DoubleValue
1.918

@<SCITEGIC>MOL_PROPERTY
Valence
SciTegic.value.DoubleValue
0.982

@<SCITEGIC>MOL_PROPERTY
Coulomb
SciTegic.value.DoubleValue
69.058

@<SCITEGIC>MOL_PROPERTY
VdW
SciTegic.value.DoubleValue
-0.078

@<SCITEGIC>MOL_PROPERTY
VdW6
SciTegic.value.DoubleValue
-3.548

@<SCITEGIC>MOL_PROPERTY
VdW12
SciTegic.value.DoubleValue
3.471

@<SCITEGIC>MOL_PROPERTY
Bond
SciTegic.value.DoubleValue
0.105

@<SCITEGIC>MOL_PROPERTY
Angle
SciTegic.value.DoubleValue
0.408

@<SCITEGIC>MOL_PROPERTY
Pdih
SciTegic.value.DoubleValue
0.469

@<SCITEGIC>MOL_PROPERTY
Idih
SciTegic.value.DoubleValue
0.000

@<SCITEGIC>MOL_PROPERTY
Tether
SciTegic.value.DoubleValue
0.000

@<TRIPOS>MOLECULE
guest-s9_confgen4.mol2 : confsearch ligand conformer 25
          20          19           1
SMALL
USER_CHARGES
 
@<TRIPOS>ATOM
       1    C1      22.024875   18.349572   19.735440 C.3        1 MOL1        -0.2224
       2    H1      22.456734   19.131109   19.096907 H          1 MOL1         0.1052
       3    H2      22.848096   17.722757   20.102292 H          1 MOL1         0.1052
       4    H3      21.373582   17.725839   19.109375 H          1 MOL1         0.1052
       5    C2      21.237037   18.975345   20.906655 C.3        1 MOL1        -0.1209
       6    H4      20.449518   19.625527   20.502215 H          1 MOL1         0.1041
       7    H5      21.907818   19.617666   21.494703 H          1 MOL1         0.1041
       8    C3      20.617126   17.893453   21.822301 C.3        1 MOL1        -0.1274
       9    H6      19.923844   17.265196   21.247402 H          1 MOL1         0.1041
      10    H7      21.411291   17.228496   22.187016 H          1 MOL1         0.1041
      11    C4      19.883549   18.489452   23.040576 C.3        1 MOL1         0.0313
      12    H8      20.570218   19.120734   23.610140 H          1 MOL1         0.1015
      13    H9      19.547551   17.678689   23.692028 H          1 MOL1         0.1015
      14    N1      18.667102   19.322950   22.683607 N.4        1 MOL1        -0.4809
      15    H10     17.999335   18.760259   22.134501 H          1 MOL1         0.3726
      16    H11     18.939381   20.103916   22.068456 H          1 MOL1         0.3726
      17    C5      18.007025   19.848414   23.951292 C.3        1 MOL1        -0.0677
      18    H12     17.133971   20.446087   23.680086 H          1 MOL1         0.1026
      19    H13     17.697123   19.004783   24.571802 H          1 MOL1         0.1026
      20    H14     18.721108   20.467247   24.498944 H          1 MOL1         0.1026
@<TRIPOS>BOND
    1     1     2    1
    2     1     3    1
    3     1     4    1
    4     1     5    1
    5     5     6    1
    6     5     7    1
    7     5     8    1
    8     8     9    1
    9     8    10    1
   10     8    11    1
   11    11    12    1
   12    11    13    1
   13    11    14    1
   14    14    15    1
   15    14    16    1
   16    14    17    1
   17    17    18    1
   18    17    19    1
   19    17    20    1
@<TRIPOS>SUBSTRUCTURE
       1 MOL1            1 RESIDUE      1      MOL     
@<SCITEGIC>MOL_PROPERTY
VConf Rank
SciTegic.value.IntegerValue
25

@<SCITEGIC>MOL_PROPERTY
Conf_Id
SciTegic.value.IntegerValue
35

@<SCITEGIC>MOL_PROPERTY
Delta U+W
SciTegic.value.DoubleValue
0.360

@<SCITEGIC>MOL_PROPERTY
U+W
SciTegic.value.DoubleValue
15.698

@<SCITEGIC>MOL_PROPERTY
Grad RMS
SciTegic.value.DoubleValue
0.000000

@<SCITEGIC>MOL_PROPERTY
U
SciTegic.value.DoubleValue
69.962

@<SCITEGIC>MOL_PROPERTY
W
SciTegic.value.DoubleValue
-54.264

@<SCITEGIC>MOL_PROPERTY
W(PB)
SciTegic.value.DoubleValue
-56.166

@<SCITEGIC>MOL_PROPERTY
W(SA)
SciTegic.value.DoubleValue
1.902

@<SCITEGIC>MOL_PROPERTY
Valence
SciTegic.value.DoubleValue
0.982

@<SCITEGIC>MOL_PROPERTY
Coulomb
SciTegic.value.DoubleValue
69.058

@<SCITEGIC>MOL_PROPERTY
VdW
SciTegic.value.DoubleValue
-0.078

@<SCITEGIC>MOL_PROPERTY
VdW6
SciTegic.value.DoubleValue
-3.548

@<SCITEGIC>MOL_PROPERTY
VdW12
SciTegic.value.DoubleValue
3.471

@<SCITEGIC>MOL_PROPERTY
Bond
SciTegic.value.DoubleValue
0.105

@<SCITEGIC>MOL_PROPERTY
Angle
SciTegic.value.DoubleValue
0.408

@<SCITEGIC>MOL_PROPERTY
Pdih
SciTegic.value.DoubleValue
0.469

@<SCITEGIC>MOL_PROPERTY
Idih
SciTegic.value.DoubleValue
0.000

@<SCITEGIC>MOL_PROPERTY
Tether
SciTegic.value.DoubleValue
0.000

@<TRIPOS>MOLECULE
guest-s9_confgen4.mol2 : confsearch ligand conformer 26
          20          19           1
SMALL
USER_CHARGES
 
@<TRIPOS>ATOM
       1    C1      18.004849   19.968176   22.977593 C.3        1 MOL1        -0.2224
       2    H1      17.898131   20.093207   21.892675 H          1 MOL1         0.1052
       3    H2      17.021122   20.149333   23.429742 H          1 MOL1         0.1052
       4    H3      18.690204   20.742502   23.346104 H          1 MOL1         0.1052
       5    C2      18.515940   18.554643   23.339424 C.3        1 MOL1        -0.1209
       6    H4      17.815790   17.799346   22.955386 H          1 MOL1         0.1041
       7    H5      18.520177   18.443818   24.432898 H          1 MOL1         0.1041
       8    C3      19.937188   18.270261   22.799930 C.3        1 MOL1        -0.1274
       9    H6      20.638294   19.004898   23.216426 H          1 MOL1         0.1041
      10    H7      20.264738   17.285084   23.157218 H          1 MOL1         0.1041
      11    C4      20.001526   18.295312   21.257627 C.3        1 MOL1         0.0313
      12    H8      19.742434   19.291270   20.890619 H          1 MOL1         0.1015
      13    H9      19.269590   17.587228   20.860820 H          1 MOL1         0.1015
      14    N1      21.354830   17.921726   20.675049 N.4        1 MOL1        -0.4809
      15    H10     21.270049   17.802562   19.653374 H          1 MOL1         0.3726
      16    H11     21.651900   16.998048   21.024746 H          1 MOL1         0.3726
      17    C5      22.404069   18.983439   20.986864 C.3        1 MOL1        -0.0677
      18    H12     22.535380   19.057013   22.068175 H          1 MOL1         0.1026
      19    H13     23.350352   18.698552   20.521730 H          1 MOL1         0.1026
      20    H14     22.072696   19.944461   20.587709 H          1 MOL1         0.1026
@<TRIPOS>BOND
    1     1     2    1
    2     1     3    1
    3     1     4    1
    4     1     5    1
    5     5     6    1
    6     5     7    1
    7     5     8    1
    8     8     9    1
    9     8    10    1
   10     8    11    1
   11    11    12    1
   12    11    13    1
   13    11    14    1
   14    14    15    1
   15    14    16    1
   16    14    17    1
   17    17    18    1
   18    17    19    1
   19    17    20    1
@<TRIPOS>SUBSTRUCTURE
       1 MOL1            1 RESIDUE      1      MOL     
@<SCITEGIC>MOL_PROPERTY
VConf Rank
SciTegic.value.IntegerValue
26

@<SCITEGIC>MOL_PROPERTY
Conf_Id
SciTegic.value.IntegerValue
33

@<SCITEGIC>MOL_PROPERTY
Delta U+W
SciTegic.value.DoubleValue
0.372

@<SCITEGIC>MOL_PROPERTY
U+W
SciTegic.value.DoubleValue
15.711

@<SCITEGIC>MOL_PROPERTY
Grad RMS
SciTegic.value.DoubleValue
0.000000

@<SCITEGIC>MOL_PROPERTY
U
SciTegic.value.DoubleValue
70.163

@<SCITEGIC>MOL_PROPERTY
W
SciTegic.value.DoubleValue
-54.452

@<SCITEGIC>MOL_PROPERTY
W(PB)
SciTegic.value.DoubleValue
-56.363

@<SCITEGIC>MOL_PROPERTY
W(SA)
SciTegic.value.DoubleValue
1.911

@<SCITEGIC>MOL_PROPERTY
Valence
SciTegic.value.DoubleValue
1.420

@<SCITEGIC>MOL_PROPERTY
Coulomb
SciTegic.value.DoubleValue
68.566

@<SCITEGIC>MOL_PROPERTY
VdW
SciTegic.value.DoubleValue
0.177

@<SCITEGIC>MOL_PROPERTY
VdW6
SciTegic.value.DoubleValue
-4.267

@<SCITEGIC>MOL_PROPERTY
VdW12
SciTegic.value.DoubleValue
4.445

@<SCITEGIC>MOL_PROPERTY
Bond
SciTegic.value.DoubleValue
0.146

@<SCITEGIC>MOL_PROPERTY
Angle
SciTegic.value.DoubleValue
0.581

@<SCITEGIC>MOL_PROPERTY
Pdih
SciTegic.value.DoubleValue
0.693

@<SCITEGIC>MOL_PROPERTY
Idih
SciTegic.value.DoubleValue
0.000

@<SCITEGIC>MOL_PROPERTY
Tether
SciTegic.value.DoubleValue
0.000

@<TRIPOS>MOLECULE
guest-s9_confgen4.mol2 : confsearch ligand conformer 27
          20          19           1
SMALL
USER_CHARGES
 
@<TRIPOS>ATOM
       1    C1      18.394438   20.138452   23.381328 C.3        1 MOL1        -0.2224
       2    H1      17.943750   20.914355   24.013649 H          1 MOL1         0.1052
       3    H2      18.141833   20.372976   22.339570 H          1 MOL1         0.1052
       4    H3      17.924641   19.180795   23.640708 H          1 MOL1         0.1052
       5    C2      19.924395   20.084239   23.596976 C.3        1 MOL1        -0.1209
       6    H4      20.130874   19.938431   24.666599 H          1 MOL1         0.1041
       7    H5      20.370018   21.051714   23.325722 H          1 MOL1         0.1041
       8    C3      20.607335   18.952271   22.794405 C.3        1 MOL1        -0.1274
       9    H6      21.673958   18.923753   23.053285 H          1 MOL1         0.1041
      10    H7      20.184403   17.985589   23.096670 H          1 MOL1         0.1041
      11    C4      20.462626   19.137285   21.268531 C.3        1 MOL1         0.0313
      12    H8      20.852538   20.120214   20.992150 H          1 MOL1         0.1015
      13    H9      19.407362   19.100574   20.987773 H          1 MOL1         0.1015
      14    N1      21.202954   18.105357   20.433402 N.4        1 MOL1        -0.4809
      15    H10     22.201052   18.085183   20.692463 H          1 MOL1         0.3726
      16    H11     21.193171   18.391965   19.441955 H          1 MOL1         0.3726
      17    C5      20.576317   16.722740   20.578536 C.3        1 MOL1        -0.0677
      18    H12     21.110901   16.018675   19.937074 H          1 MOL1         0.1026
      19    H13     20.649694   16.398630   21.618466 H          1 MOL1         0.1026
      20    H14     19.527319   16.770193   20.278452 H          1 MOL1         0.1026
@<TRIPOS>BOND
    1     1     2    1
    2     1     3    1
    3     1     4    1
    4     1     5    1
    5     5     6    1
    6     5     7    1
    7     5     8    1
    8     8     9    1
    9     8    10    1
   10     8    11    1
   11    11    12    1
   12    11    13    1
   13    11    14    1
   14    14    15    1
   15    14    16    1
   16    14    17    1
   17    17    18    1
   18    17    19    1
   19    17    20    1
@<TRIPOS>SUBSTRUCTURE
       1 MOL1            1 RESIDUE      1      MOL     
@<SCITEGIC>MOL_PROPERTY
VConf Rank
SciTegic.value.IntegerValue
27

@<SCITEGIC>MOL_PROPERTY
Conf_Id
SciTegic.value.IntegerValue
53

@<SCITEGIC>MOL_PROPERTY
Delta U+W
SciTegic.value.DoubleValue
0.379

@<SCITEGIC>MOL_PROPERTY
U+W
SciTegic.value.DoubleValue
15.717

@<SCITEGIC>MOL_PROPERTY
Grad RMS
SciTegic.value.DoubleValue
0.000000

@<SCITEGIC>MOL_PROPERTY
U
SciTegic.value.DoubleValue
70.163

@<SCITEGIC>MOL_PROPERTY
W
SciTegic.value.DoubleValue
-54.446

@<SCITEGIC>MOL_PROPERTY
W(PB)
SciTegic.value.DoubleValue
-56.322

@<SCITEGIC>MOL_PROPERTY
W(SA)
SciTegic.value.DoubleValue
1.876

@<SCITEGIC>MOL_PROPERTY
Valence
SciTegic.value.DoubleValue
1.420

@<SCITEGIC>MOL_PROPERTY
Coulomb
SciTegic.value.DoubleValue
68.566

@<SCITEGIC>MOL_PROPERTY
VdW
SciTegic.value.DoubleValue
0.177

@<SCITEGIC>MOL_PROPERTY
VdW6
SciTegic.value.DoubleValue
-4.267

@<SCITEGIC>MOL_PROPERTY
VdW12
SciTegic.value.DoubleValue
4.445

@<SCITEGIC>MOL_PROPERTY
Bond
SciTegic.value.DoubleValue
0.146

@<SCITEGIC>MOL_PROPERTY
Angle
SciTegic.value.DoubleValue
0.581

@<SCITEGIC>MOL_PROPERTY
Pdih
SciTegic.value.DoubleValue
0.693

@<SCITEGIC>MOL_PROPERTY
Idih
SciTegic.value.DoubleValue
0.000

@<SCITEGIC>MOL_PROPERTY
Tether
SciTegic.value.DoubleValue
0.000

@<TRIPOS>MOLECULE
guest-s9_confgen4.mol2 : confsearch ligand conformer 28
          20          19           1
SMALL
USER_CHARGES
 
@<TRIPOS>ATOM
       1    C1      21.639739   20.797360   23.282299 C.3        1 MOL1        -0.2224
       2    H1      22.638861   20.689935   23.724130 H          1 MOL1         0.1052
       3    H2      21.608582   21.757985   22.751850 H          1 MOL1         0.1052
       4    H3      20.911692   20.836614   24.103012 H          1 MOL1         0.1052
       5    C2      21.336817   19.623437   22.326210 C.3        1 MOL1        -0.1209
       6    H4      21.415004   18.679157   22.881979 H          1 MOL1         0.1041
       7    H5      22.099443   19.591313   21.535292 H          1 MOL1         0.1041
       8    C3      19.932058   19.750072   21.691120 C.3        1 MOL1        -0.1274
       9    H6      19.164294   19.755246   22.475501 H          1 MOL1         0.1041
      10    H7      19.852467   20.716693   21.176381 H          1 MOL1         0.1041
      11    C4      19.631440   18.630561   20.669854 C.3        1 MOL1         0.0313
      12    H8      20.370720   18.675873   19.866088 H          1 MOL1         0.1015
      13    H9      18.645828   18.796043   20.227498 H          1 MOL1         0.1015
      14    N1      19.653136   17.215494   21.228196 N.4        1 MOL1        -0.4809
      15    H10     20.567759   17.017239   21.659693 H          1 MOL1         0.3726
      16    H11     19.572559   16.537929   20.453834 H          1 MOL1         0.3726
      17    C5      18.523156   16.996473   22.228252 C.3        1 MOL1        -0.0677
      18    H12     17.566977   17.194403   21.739168 H          1 MOL1         0.1026
      19    H13     18.550347   15.962164   22.578103 H          1 MOL1         0.1026
      20    H14     18.653170   17.673113   23.075170 H          1 MOL1         0.1026
@<TRIPOS>BOND
    1     1     2    1
    2     1     3    1
    3     1     4    1
    4     1     5    1
    5     5     6    1
    6     5     7    1
    7     5     8    1
    8     8     9    1
    9     8    10    1
   10     8    11    1
   11    11    12    1
   12    11    13    1
   13    11    14    1
   14    14    15    1
   15    14    16    1
   16    14    17    1
   17    17    18    1
   18    17    19    1
   19    17    20    1
@<TRIPOS>SUBSTRUCTURE
       1 MOL1            1 RESIDUE      1      MOL     
@<SCITEGIC>MOL_PROPERTY
VConf Rank
SciTegic.value.IntegerValue
28

@<SCITEGIC>MOL_PROPERTY
Conf_Id
SciTegic.value.IntegerValue
49

@<SCITEGIC>MOL_PROPERTY
Delta U+W
SciTegic.value.DoubleValue
0.268

@<SCITEGIC>MOL_PROPERTY
U+W
SciTegic.value.DoubleValue
15.607

@<SCITEGIC>MOL_PROPERTY
Grad RMS
SciTegic.value.DoubleValue
0.000000

@<SCITEGIC>MOL_PROPERTY
U
SciTegic.value.DoubleValue
70.298

@<SCITEGIC>MOL_PROPERTY
W
SciTegic.value.DoubleValue
-54.692

@<SCITEGIC>MOL_PROPERTY
W(PB)
SciTegic.value.DoubleValue
-56.576

@<SCITEGIC>MOL_PROPERTY
W(SA)
SciTegic.value.DoubleValue
1.885

@<SCITEGIC>MOL_PROPERTY
Valence
SciTegic.value.DoubleValue
1.245

@<SCITEGIC>MOL_PROPERTY
Coulomb
SciTegic.value.DoubleValue
68.933

@<SCITEGIC>MOL_PROPERTY
VdW
SciTegic.value.DoubleValue
0.120

@<SCITEGIC>MOL_PROPERTY
VdW6
SciTegic.value.DoubleValue
-4.430

@<SCITEGIC>MOL_PROPERTY
VdW12
SciTegic.value.DoubleValue
4.550

@<SCITEGIC>MOL_PROPERTY
Bond
SciTegic.value.DoubleValue
0.148

@<SCITEGIC>MOL_PROPERTY
Angle
SciTegic.value.DoubleValue
0.587

@<SCITEGIC>MOL_PROPERTY
Pdih
SciTegic.value.DoubleValue
0.509

@<SCITEGIC>MOL_PROPERTY
Idih
SciTegic.value.DoubleValue
0.000

@<SCITEGIC>MOL_PROPERTY
Tether
SciTegic.value.DoubleValue
0.000

@<TRIPOS>MOLECULE
guest-s9_confgen4.mol2 : confsearch ligand conformer 29
          20          19           1
SMALL
USER_CHARGES
 
@<TRIPOS>ATOM
       1    C1      22.149099   19.967489   20.622477 C.3        1 MOL1        -0.2224
       2    H1      22.922911   19.190300   20.671068 H          1 MOL1         0.1052
       3    H2      21.889329   20.125405   19.567621 H          1 MOL1         0.1052
       4    H3      22.584796   20.900006   21.004027 H          1 MOL1         0.1052
       5    C2      20.907082   19.567758   21.448272 C.3        1 MOL1        -0.1209
       6    H4      20.163179   20.375593   21.403518 H          1 MOL1         0.1041
       7    H5      21.201542   19.458743   22.500392 H          1 MOL1         0.1041
       8    C3      20.279740   18.249701   20.937598 C.3        1 MOL1        -0.1274
       9    H6      20.098197   18.334076   19.857932 H          1 MOL1         0.1041
      10    H7      20.992837   17.424751   21.066074 H          1 MOL1         0.1041
      11    C4      18.941296   17.881755   21.617316 C.3        1 MOL1         0.0313
      12    H8      18.558387   16.976632   21.138904 H          1 MOL1         0.1015
      13    H9      18.205478   18.674669   21.461891 H          1 MOL1         0.1015
      14    N1      19.019208   17.588938   23.107769 N.4        1 MOL1        -0.4809
      15    H10     19.926088   17.158749   23.343026 H          1 MOL1         0.3726
      16    H11     18.316795   16.873093   23.351057 H          1 MOL1         0.3726
      17    C5      18.764123   18.843754   23.936633 C.3        1 MOL1        -0.0677
      18    H12     18.806135   18.585639   24.997090 H          1 MOL1         0.1026
      19    H13     19.522466   19.594899   23.713008 H          1 MOL1         0.1026
      20    H14     17.774548   19.237277   23.694621 H          1 MOL1         0.1026
@<TRIPOS>BOND
    1     1     2    1
    2     1     3    1
    3     1     4    1
    4     1     5    1
    5     5     6    1
    6     5     7    1
    7     5     8    1
    8     8     9    1
    9     8    10    1
   10     8    11    1
   11    11    12    1
   12    11    13    1
   13    11    14    1
   14    14    15    1
   15    14    16    1
   16    14    17    1
   17    17    18    1
   18    17    19    1
   19    17    20    1
@<TRIPOS>SUBSTRUCTURE
       1 MOL1            1 RESIDUE      1      MOL     
@<SCITEGIC>MOL_PROPERTY
VConf Rank
SciTegic.value.IntegerValue
29

@<SCITEGIC>MOL_PROPERTY
Conf_Id
SciTegic.value.IntegerValue
65

@<SCITEGIC>MOL_PROPERTY
Delta U+W
SciTegic.value.DoubleValue
1.775

@<SCITEGIC>MOL_PROPERTY
U+W
SciTegic.value.DoubleValue
17.114

@<SCITEGIC>MOL_PROPERTY
Grad RMS
SciTegic.value.DoubleValue
0.000000

@<SCITEGIC>MOL_PROPERTY
U
SciTegic.value.DoubleValue
71.726

@<SCITEGIC>MOL_PROPERTY
W
SciTegic.value.DoubleValue
-54.613

@<SCITEGIC>MOL_PROPERTY
W(PB)
SciTegic.value.DoubleValue
-56.495

@<SCITEGIC>MOL_PROPERTY
W(SA)
SciTegic.value.DoubleValue
1.883

@<SCITEGIC>MOL_PROPERTY
Valence
SciTegic.value.DoubleValue
2.885

@<SCITEGIC>MOL_PROPERTY
Coulomb
SciTegic.value.DoubleValue
68.822

@<SCITEGIC>MOL_PROPERTY
VdW
SciTegic.value.DoubleValue
0.019

@<SCITEGIC>MOL_PROPERTY
VdW6
SciTegic.value.DoubleValue
-4.600

@<SCITEGIC>MOL_PROPERTY
VdW12
SciTegic.value.DoubleValue
4.619

@<SCITEGIC>MOL_PROPERTY
Bond
SciTegic.value.DoubleValue
0.152

@<SCITEGIC>MOL_PROPERTY
Angle
SciTegic.value.DoubleValue
0.862

@<SCITEGIC>MOL_PROPERTY
Pdih
SciTegic.value.DoubleValue
1.871

@<SCITEGIC>MOL_PROPERTY
Idih
SciTegic.value.DoubleValue
0.000

@<SCITEGIC>MOL_PROPERTY
Tether
SciTegic.value.DoubleValue
0.000

@<TRIPOS>MOLECULE
guest-s9_confgen4.mol2 : confsearch ligand conformer 30
          20          19           1
SMALL
USER_CHARGES
 
@<TRIPOS>ATOM
       1    C1      21.523279   20.580708   21.537162 C.3        1 MOL1        -0.2224
       2    H1      21.967976   19.577910   21.511783 H          1 MOL1         0.1052
       3    H2      21.930984   21.144758   20.688278 H          1 MOL1         0.1052
       4    H3      21.852900   21.078401   22.458423 H          1 MOL1         0.1052
       5    C2      19.980373   20.522260   21.458459 C.3        1 MOL1        -0.1209
       6    H4      19.676216   20.021539   20.529279 H          1 MOL1         0.1041
       7    H5      19.587219   21.546517   21.392613 H          1 MOL1         0.1041
       8    C3      19.336259   19.818809   22.679226 C.3        1 MOL1        -0.1274
       9    H6      19.565227   20.391328   23.587830 H          1 MOL1         0.1041
      10    H7      18.243271   19.835574   22.575113 H          1 MOL1         0.1041
      11    C4      19.804136   18.362702   22.883697 C.3        1 MOL1         0.0313
      12    H8      19.329463   17.951968   23.778417 H          1 MOL1         0.1015
      13    H9      20.886067   18.341591   23.034514 H          1 MOL1         0.1015
      14    N1      19.475334   17.441298   21.724598 N.4        1 MOL1        -0.4809
      15    H10     19.901069   17.800385   20.857248 H          1 MOL1         0.3726
      16    H11     18.458534   17.436707   21.551408 H          1 MOL1         0.3726
      17    C5      19.974120   16.033583   22.021359 C.3        1 MOL1        -0.0677
      18    H12     19.486760   15.662462   22.925523 H          1 MOL1         0.1026
      19    H13     19.732019   15.382004   21.178862 H          1 MOL1         0.1026
      20    H14     21.056016   16.058613   22.168447 H          1 MOL1         0.1026
@<TRIPOS>BOND
    1     1     2    1
    2     1     3    1
    3     1     4    1
    4     1     5    1
    5     5     6    1
    6     5     7    1
    7     5     8    1
    8     8     9    1
    9     8    10    1
   10     8    11    1
   11    11    12    1
   12    11    13    1
   13    11    14    1
   14    14    15    1
   15    14    16    1
   16    14    17    1
   17    17    18    1
   18    17    19    1
   19    17    20    1
@<TRIPOS>SUBSTRUCTURE
       1 MOL1            1 RESIDUE      1      MOL     
@<SCITEGIC>MOL_PROPERTY
VConf Rank
SciTegic.value.IntegerValue
30

@<SCITEGIC>MOL_PROPERTY
Conf_Id
SciTegic.value.IntegerValue
23

@<SCITEGIC>MOL_PROPERTY
Delta U+W
SciTegic.value.DoubleValue
0.896

@<SCITEGIC>MOL_PROPERTY
U+W
SciTegic.value.DoubleValue
16.234

@<SCITEGIC>MOL_PROPERTY
Grad RMS
SciTegic.value.DoubleValue
0.000000

@<SCITEGIC>MOL_PROPERTY
U
SciTegic.value.DoubleValue
70.374

@<SCITEGIC>MOL_PROPERTY
W
SciTegic.value.DoubleValue
-54.140

@<SCITEGIC>MOL_PROPERTY
W(PB)
SciTegic.value.DoubleValue
-56.046

@<SCITEGIC>MOL_PROPERTY
W(SA)
SciTegic.value.DoubleValue
1.907

@<SCITEGIC>MOL_PROPERTY
Valence
SciTegic.value.DoubleValue
1.257

@<SCITEGIC>MOL_PROPERTY
Coulomb
SciTegic.value.DoubleValue
69.240

@<SCITEGIC>MOL_PROPERTY
VdW
SciTegic.value.DoubleValue
-0.123

@<SCITEGIC>MOL_PROPERTY
VdW6
SciTegic.value.DoubleValue
-4.336

@<SCITEGIC>MOL_PROPERTY
VdW12
SciTegic.value.DoubleValue
4.213

@<SCITEGIC>MOL_PROPERTY
Bond
SciTegic.value.DoubleValue
0.128

@<SCITEGIC>MOL_PROPERTY
Angle
SciTegic.value.DoubleValue
0.603

@<SCITEGIC>MOL_PROPERTY
Pdih
SciTegic.value.DoubleValue
0.526

@<SCITEGIC>MOL_PROPERTY
Idih
SciTegic.value.DoubleValue
0.000

@<SCITEGIC>MOL_PROPERTY
Tether
SciTegic.value.DoubleValue
0.000

@<TRIPOS>MOLECULE
guest-s9_confgen4.mol2 : confsearch ligand conformer 31
          20          19           1
SMALL
USER_CHARGES
 
@<TRIPOS>ATOM
       1    C1      18.379416   17.862107   23.366661 C.3        1 MOL1        -0.2224
       2    H1      17.617495   17.377591   22.742329 H          1 MOL1         0.1052
       3    H2      18.100897   17.704387   24.416676 H          1 MOL1         0.1052
       4    H3      18.344097   18.941747   23.173958 H          1 MOL1         0.1052
       5    C2      19.782840   17.278258   23.084367 C.3        1 MOL1        -0.1209
       6    H4      19.795022   16.219579   23.379418 H          1 MOL1         0.1041
       7    H5      20.525989   17.777818   23.720590 H          1 MOL1         0.1041
       8    C3      20.196844   17.385339   21.595363 C.3        1 MOL1        -0.1274
       9    H6      21.186579   16.929955   21.458276 H          1 MOL1         0.1041
      10    H7      19.501659   16.794612   20.984196 H          1 MOL1         0.1041
      11    C4      20.223562   18.829863   21.053510 C.3        1 MOL1         0.0313
      12    H8      19.229881   19.275106   21.143632 H          1 MOL1         0.1015
      13    H9      20.492933   18.814521   19.994386 H          1 MOL1         0.1015
      14    N1      21.208921   19.736935   21.765474 N.4        1 MOL1        -0.4809
      15    H10     22.161488   19.346419   21.702136 H          1 MOL1         0.3726
      16    H11     20.991684   19.771769   22.772491 H          1 MOL1         0.3726
      17    C5      21.161570   21.133355   21.160251 C.3        1 MOL1        -0.0677
      18    H12     20.153137   21.538486   21.268372 H          1 MOL1         0.1026
      19    H13     21.874267   21.775287   21.682703 H          1 MOL1         0.1026
      20    H14     21.425191   21.075826   20.101970 H          1 MOL1         0.1026
@<TRIPOS>BOND
    1     1     2    1
    2     1     3    1
    3     1     4    1
    4     1     5    1
    5     5     6    1
    6     5     7    1
    7     5     8    1
    8     8     9    1
    9     8    10    1
   10     8    11    1
   11    11    12    1
   12    11    13    1
   13    11    14    1
   14    14    15    1
   15    14    16    1
   16    14    17    1
   17    17    18    1
   18    17    19    1
   19    17    20    1
@<TRIPOS>SUBSTRUCTURE
       1 MOL1            1 RESIDUE      1      MOL     
@<SCITEGIC>MOL_PROPERTY
VConf Rank
SciTegic.value.IntegerValue
31

@<SCITEGIC>MOL_PROPERTY
Conf_Id
SciTegic.value.IntegerValue
24

@<SCITEGIC>MOL_PROPERTY
Delta U+W
SciTegic.value.DoubleValue
0.792

@<SCITEGIC>MOL_PROPERTY
U+W
SciTegic.value.DoubleValue
16.130

@<SCITEGIC>MOL_PROPERTY
Grad RMS
SciTegic.value.DoubleValue
0.000000

@<SCITEGIC>MOL_PROPERTY
U
SciTegic.value.DoubleValue
70.374

@<SCITEGIC>MOL_PROPERTY
W
SciTegic.value.DoubleValue
-54.243

@<SCITEGIC>MOL_PROPERTY
W(PB)
SciTegic.value.DoubleValue
-56.130

@<SCITEGIC>MOL_PROPERTY
W(SA)
SciTegic.value.DoubleValue
1.887

@<SCITEGIC>MOL_PROPERTY
Valence
SciTegic.value.DoubleValue
1.257

@<SCITEGIC>MOL_PROPERTY
Coulomb
SciTegic.value.DoubleValue
69.240

@<SCITEGIC>MOL_PROPERTY
VdW
SciTegic.value.DoubleValue
-0.123

@<SCITEGIC>MOL_PROPERTY
VdW6
SciTegic.value.DoubleValue
-4.336

@<SCITEGIC>MOL_PROPERTY
VdW12
SciTegic.value.DoubleValue
4.213

@<SCITEGIC>MOL_PROPERTY
Bond
SciTegic.value.DoubleValue
0.128

@<SCITEGIC>MOL_PROPERTY
Angle
SciTegic.value.DoubleValue
0.603

@<SCITEGIC>MOL_PROPERTY
Pdih
SciTegic.value.DoubleValue
0.526

@<SCITEGIC>MOL_PROPERTY
Idih
SciTegic.value.DoubleValue
0.000

@<SCITEGIC>MOL_PROPERTY
Tether
SciTegic.value.DoubleValue
0.000

@<TRIPOS>MOLECULE
guest-s9_confgen4.mol2 : confsearch ligand conformer 32
          20          19           1
SMALL
USER_CHARGES
 
@<TRIPOS>ATOM
       1    C1      19.299830   17.094341   23.256610 C.3        1 MOL1        -0.2224
       2    H1      19.294440   16.194706   23.885776 H          1 MOL1         0.1052
       3    H2      19.893586   17.850616   23.783442 H          1 MOL1         0.1052
       4    H3      18.263904   17.448364   23.174831 H          1 MOL1         0.1052
       5    C2      19.895037   16.771535   21.867011 C.3        1 MOL1        -0.1209
       6    H4      19.401621   15.871045   21.474934 H          1 MOL1         0.1041
       7    H5      20.957591   16.512201   21.975778 H          1 MOL1         0.1041
       8    C3      19.740466   17.906770   20.822890 C.3        1 MOL1        -0.1274
       9    H6      20.133273   17.540680   19.865028 H          1 MOL1         0.1041
      10    H7      18.678288   18.124268   20.649177 H          1 MOL1         0.1041
      11    C4      20.494950   19.206108   21.176101 C.3        1 MOL1         0.0313
      12    H8      20.647958   19.789349   20.264530 H          1 MOL1         0.1015
      13    H9      21.476086   18.962258   21.591061 H          1 MOL1         0.1015
      14    N1      19.767623   20.104562   22.158331 N.4        1 MOL1        -0.4809
      15    H10     19.551331   19.582912   23.019561 H          1 MOL1         0.3726
      16    H11     18.853876   20.386298   21.771422 H          1 MOL1         0.3726
      17    C5      20.616326   21.329368   22.471327 C.3        1 MOL1        -0.0677
      18    H12     21.563857   21.008306   22.909361 H          1 MOL1         0.1026
      19    H13     20.804486   21.881905   21.548254 H          1 MOL1         0.1026
      20    H14     20.080564   21.966180   23.178716 H          1 MOL1         0.1026
@<TRIPOS>BOND
    1     1     2    1
    2     1     3    1
    3     1     4    1
    4     1     5    1
    5     5     6    1
    6     5     7    1
    7     5     8    1
    8     8     9    1
    9     8    10    1
   10     8    11    1
   11    11    12    1
   12    11    13    1
   13    11    14    1
   14    14    15    1
   15    14    16    1
   16    14    17    1
   17    17    18    1
   18    17    19    1
   19    17    20    1
@<TRIPOS>SUBSTRUCTURE
       1 MOL1            1 RESIDUE      1      MOL     
@<SCITEGIC>MOL_PROPERTY
VConf Rank
SciTegic.value.IntegerValue
32

@<SCITEGIC>MOL_PROPERTY
Conf_Id
SciTegic.value.IntegerValue
26

@<SCITEGIC>MOL_PROPERTY
Delta U+W
SciTegic.value.DoubleValue
2.888

@<SCITEGIC>MOL_PROPERTY
U+W
SciTegic.value.DoubleValue
18.226

@<SCITEGIC>MOL_PROPERTY
Grad RMS
SciTegic.value.DoubleValue
0.000000

@<SCITEGIC>MOL_PROPERTY
U
SciTegic.value.DoubleValue
72.042

@<SCITEGIC>MOL_PROPERTY
W
SciTegic.value.DoubleValue
-53.816

@<SCITEGIC>MOL_PROPERTY
W(PB)
SciTegic.value.DoubleValue
-55.689

@<SCITEGIC>MOL_PROPERTY
W(SA)
SciTegic.value.DoubleValue
1.873

@<SCITEGIC>MOL_PROPERTY
Valence
SciTegic.value.DoubleValue
2.428

@<SCITEGIC>MOL_PROPERTY
Coulomb
SciTegic.value.DoubleValue
69.829

@<SCITEGIC>MOL_PROPERTY
VdW
SciTegic.value.DoubleValue
-0.215

@<SCITEGIC>MOL_PROPERTY
VdW6
SciTegic.value.DoubleValue
-4.563

@<SCITEGIC>MOL_PROPERTY
VdW12
SciTegic.value.DoubleValue
4.348

@<SCITEGIC>MOL_PROPERTY
Bond
SciTegic.value.DoubleValue
0.137

@<SCITEGIC>MOL_PROPERTY
Angle
SciTegic.value.DoubleValue
0.936

@<SCITEGIC>MOL_PROPERTY
Pdih
SciTegic.value.DoubleValue
1.356

@<SCITEGIC>MOL_PROPERTY
Idih
SciTegic.value.DoubleValue
0.000

@<SCITEGIC>MOL_PROPERTY
Tether
SciTegic.value.DoubleValue
0.000

@<TRIPOS>MOLECULE
guest-s9_confgen4.mol2 : confsearch ligand conformer 33
          20          19           1
SMALL
USER_CHARGES
 
@<TRIPOS>ATOM
       1    C1      19.656724   17.373878   23.547322 C.3        1 MOL1        -0.2224
       2    H1      19.136367   16.757105   24.291660 H          1 MOL1         0.1052
       3    H2      20.707362   17.056091   23.528977 H          1 MOL1         0.1052
       4    H3      19.605049   18.411417   23.897880 H          1 MOL1         0.1052
       5    C2      18.995271   17.209445   22.159914 C.3        1 MOL1        -0.1209
       6    H4      17.977451   17.623340   22.188871 H          1 MOL1         0.1041
       7    H5      18.880556   16.136429   21.951242 H          1 MOL1         0.1041
       8    C3      19.785626   17.852264   20.991599 C.3        1 MOL1        -0.1274
       9    H6      20.779438   17.393530   20.904384 H          1 MOL1         0.1041
      10    H7      19.260918   17.613589   20.056969 H          1 MOL1         0.1041
      11    C4      19.918202   19.387542   21.078952 C.3        1 MOL1         0.0313
      12    H8      18.973421   19.821202   21.416013 H          1 MOL1         0.1015
      13    H9      20.137518   19.784269   20.084441 H          1 MOL1         0.1015
      14    N1      21.023381   19.868624   21.999897 N.4        1 MOL1        -0.4809
      15    H10     21.934841   19.508556   21.678033 H          1 MOL1         0.3726
      16    H11     20.891661   19.476739   22.943135 H          1 MOL1         0.3726
      17    C5      21.036381   21.390448   22.047778 C.3        1 MOL1        -0.0677
      18    H12     20.074224   21.747022   22.421777 H          1 MOL1         0.1026
      19    H13     21.836147   21.721886   22.713732 H          1 MOL1         0.1026
      20    H14     21.209407   21.780375   21.042400 H          1 MOL1         0.1026
@<TRIPOS>BOND
    1     1     2    1
    2     1     3    1
    3     1     4    1
    4     1     5    1
    5     5     6    1
    6     5     7    1
    7     5     8    1
    8     8     9    1
    9     8    10    1
   10     8    11    1
   11    11    12    1
   12    11    13    1
   13    11    14    1
   14    14    15    1
   15    14    16    1
   16    14    17    1
   17    17    18    1
   18    17    19    1
   19    17    20    1
@<TRIPOS>SUBSTRUCTURE
       1 MOL1            1 RESIDUE      1      MOL     
@<SCITEGIC>MOL_PROPERTY
VConf Rank
SciTegic.value.IntegerValue
33

@<SCITEGIC>MOL_PROPERTY
Conf_Id
SciTegic.value.IntegerValue
5

@<SCITEGIC>MOL_PROPERTY
Delta U+W
SciTegic.value.DoubleValue
2.950

@<SCITEGIC>MOL_PROPERTY
U+W
SciTegic.value.DoubleValue
18.289

@<SCITEGIC>MOL_PROPERTY
Grad RMS
SciTegic.value.DoubleValue
0.000000

@<SCITEGIC>MOL_PROPERTY
U
SciTegic.value.DoubleValue
72.042

@<SCITEGIC>MOL_PROPERTY
W
SciTegic.value.DoubleValue
-53.753

@<SCITEGIC>MOL_PROPERTY
W(PB)
SciTegic.value.DoubleValue
-55.644

@<SCITEGIC>MOL_PROPERTY
W(SA)
SciTegic.value.DoubleValue
1.891

@<SCITEGIC>MOL_PROPERTY
Valence
SciTegic.value.DoubleValue
2.428

@<SCITEGIC>MOL_PROPERTY
Coulomb
SciTegic.value.DoubleValue
69.829

@<SCITEGIC>MOL_PROPERTY
VdW
SciTegic.value.DoubleValue
-0.215

@<SCITEGIC>MOL_PROPERTY
VdW6
SciTegic.value.DoubleValue
-4.563

@<SCITEGIC>MOL_PROPERTY
VdW12
SciTegic.value.DoubleValue
4.348

@<SCITEGIC>MOL_PROPERTY
Bond
SciTegic.value.DoubleValue
0.137

@<SCITEGIC>MOL_PROPERTY
Angle
SciTegic.value.DoubleValue
0.936

@<SCITEGIC>MOL_PROPERTY
Pdih
SciTegic.value.DoubleValue
1.356

@<SCITEGIC>MOL_PROPERTY
Idih
SciTegic.value.DoubleValue
0.000

@<SCITEGIC>MOL_PROPERTY
Tether
SciTegic.value.DoubleValue
0.000

@<TRIPOS>MOLECULE
guest-s9_confgen4.mol2 : confsearch ligand conformer 34
          20          19           1
SMALL
USER_CHARGES
 
@<TRIPOS>ATOM
       1    C1      20.103594   18.626876   24.443249 C.3        1 MOL1        -0.2224
       2    H1      19.099324   18.625064   24.886527 H          1 MOL1         0.1052
       3    H2      20.293823   17.631367   24.023069 H          1 MOL1         0.1052
       4    H3      20.826331   18.787607   25.253671 H          1 MOL1         0.1052
       5    C2      20.235704   19.733268   23.371528 C.3        1 MOL1        -0.1209
       6    H4      21.248205   19.718112   22.945646 H          1 MOL1         0.1041
       7    H5      20.125484   20.713948   23.855276 H          1 MOL1         0.1041
       8    C3      19.182567   19.613325   22.242010 C.3        1 MOL1        -0.1274
       9    H6      18.178392   19.725822   22.671558 H          1 MOL1         0.1041
      10    H7      19.305046   20.447921   21.539729 H          1 MOL1         0.1041
      11    C4      19.239383   18.276039   21.468725 C.3        1 MOL1         0.0313
      12    H8      18.471061   18.270496   20.691506 H          1 MOL1         0.1015
      13    H9      19.022021   17.456904   22.158545 H          1 MOL1         0.1015
      14    N1      20.572128   17.968904   20.803306 N.4        1 MOL1        -0.4809
      15    H10     20.561011   17.004858   20.435138 H          1 MOL1         0.3726
      16    H11     21.327028   17.978549   21.504830 H          1 MOL1         0.3726
      17    C5      20.867413   18.951856   19.675816 C.3        1 MOL1        -0.0677
      18    H12     20.938403   19.961443   20.085308 H          1 MOL1         0.1026
      19    H13     21.813921   18.680567   19.203130 H          1 MOL1         0.1026
      20    H14     20.062143   18.906507   18.939530 H          1 MOL1         0.1026
@<TRIPOS>BOND
    1     1     2    1
    2     1     3    1
    3     1     4    1
    4     1     5    1
    5     5     6    1
    6     5     7    1
    7     5     8    1
    8     8     9    1
    9     8    10    1
   10     8    11    1
   11    11    12    1
   12    11    13    1
   13    11    14    1
   14    14    15    1
   15    14    16    1
   16    14    17    1
   17    17    18    1
   18    17    19    1
   19    17    20    1
@<TRIPOS>SUBSTRUCTURE
       1 MOL1            1 RESIDUE      1      MOL     
@<SCITEGIC>MOL_PROPERTY
VConf Rank
SciTegic.value.IntegerValue
34

@<SCITEGIC>MOL_PROPERTY
Conf_Id
SciTegic.value.IntegerValue
52

@<SCITEGIC>MOL_PROPERTY
Delta U+W
SciTegic.value.DoubleValue
0.784

@<SCITEGIC>MOL_PROPERTY
U+W
SciTegic.value.DoubleValue
16.122

@<SCITEGIC>MOL_PROPERTY
Grad RMS
SciTegic.value.DoubleValue
0.000000

@<SCITEGIC>MOL_PROPERTY
U
SciTegic.value.DoubleValue
70.777

@<SCITEGIC>MOL_PROPERTY
W
SciTegic.value.DoubleValue
-54.655

@<SCITEGIC>MOL_PROPERTY
W(PB)
SciTegic.value.DoubleValue
-56.491

@<SCITEGIC>MOL_PROPERTY
W(SA)
SciTegic.value.DoubleValue
1.836

@<SCITEGIC>MOL_PROPERTY
Valence
SciTegic.value.DoubleValue
1.529

@<SCITEGIC>MOL_PROPERTY
Coulomb
SciTegic.value.DoubleValue
69.166

@<SCITEGIC>MOL_PROPERTY
VdW
SciTegic.value.DoubleValue
0.082

@<SCITEGIC>MOL_PROPERTY
VdW6
SciTegic.value.DoubleValue
-5.166

@<SCITEGIC>MOL_PROPERTY
VdW12
SciTegic.value.DoubleValue
5.248

@<SCITEGIC>MOL_PROPERTY
Bond
SciTegic.value.DoubleValue
0.171

@<SCITEGIC>MOL_PROPERTY
Angle
SciTegic.value.DoubleValue
0.752

@<SCITEGIC>MOL_PROPERTY
Pdih
SciTegic.value.DoubleValue
0.605

@<SCITEGIC>MOL_PROPERTY
Idih
SciTegic.value.DoubleValue
0.000

@<SCITEGIC>MOL_PROPERTY
Tether
SciTegic.value.DoubleValue
0.000

@<TRIPOS>MOLECULE
guest-s9_confgen4.mol2 : confsearch ligand conformer 35
          20          19           1
SMALL
USER_CHARGES
 
@<TRIPOS>ATOM
       1    C1      20.520088   19.023414   24.074736 C.3        1 MOL1        -0.2224
       2    H1      20.603405   19.014872   25.169338 H          1 MOL1         0.1052
       3    H2      21.026996   18.123559   23.708051 H          1 MOL1         0.1052
       4    H3      21.056532   19.907960   23.707159 H          1 MOL1         0.1052
       5    C2      19.033687   19.051537   23.651434 C.3        1 MOL1        -0.1209
       6    H4      18.521486   19.834068   24.228774 H          1 MOL1         0.1041
       7    H5      18.553532   18.103757   23.932827 H          1 MOL1         0.1041
       8    C3      18.800840   19.328789   22.144205 C.3        1 MOL1        -0.1274
       9    H6      17.718582   19.418807   21.982339 H          1 MOL1         0.1041
      10    H7      19.224145   20.302504   21.867449 H          1 MOL1         0.1041
      11    C4      19.323610   18.222560   21.198415 C.3        1 MOL1         0.0313
      12    H8      18.838226   18.323253   20.224410 H          1 MOL1         0.1015
      13    H9      19.051166   17.246157   21.606926 H          1 MOL1         0.1015
      14    N1      20.823548   18.221717   20.948019 N.4        1 MOL1        -0.4809
      15    H10     21.093388   17.347945   20.469618 H          1 MOL1         0.3726
      16    H11     21.331049   18.207648   21.843612 H          1 MOL1         0.3726
      17    C5      21.244584   19.422268   20.107704 C.3        1 MOL1        -0.0677
      18    H12     20.703578   19.404298   19.159215 H          1 MOL1         0.1026
      19    H13     21.014276   20.342490   20.647858 H          1 MOL1         0.1026
      20    H14     22.319000   19.367685   19.919121 H          1 MOL1         0.1026
@<TRIPOS>BOND
    1     1     2    1
    2     1     3    1
    3     1     4    1
    4     1     5    1
    5     5     6    1
    6     5     7    1
    7     5     8    1
    8     8     9    1
    9     8    10    1
   10     8    11    1
   11    11    12    1
   12    11    13    1
   13    11    14    1
   14    14    15    1
   15    14    16    1
   16    14    17    1
   17    17    18    1
   18    17    19    1
   19    17    20    1
@<TRIPOS>SUBSTRUCTURE
       1 MOL1            1 RESIDUE      1      MOL     
@<SCITEGIC>MOL_PROPERTY
VConf Rank
SciTegic.value.IntegerValue
35

@<SCITEGIC>MOL_PROPERTY
Conf_Id
SciTegic.value.IntegerValue
55

@<SCITEGIC>MOL_PROPERTY
Delta U+W
SciTegic.value.DoubleValue
2.745

@<SCITEGIC>MOL_PROPERTY
U+W
SciTegic.value.DoubleValue
18.083

@<SCITEGIC>MOL_PROPERTY
Grad RMS
SciTegic.value.DoubleValue
0.000000

@<SCITEGIC>MOL_PROPERTY
U
SciTegic.value.DoubleValue
72.490

@<SCITEGIC>MOL_PROPERTY
W
SciTegic.value.DoubleValue
-54.407

@<SCITEGIC>MOL_PROPERTY
W(PB)
SciTegic.value.DoubleValue
-56.269

@<SCITEGIC>MOL_PROPERTY
W(SA)
SciTegic.value.DoubleValue
1.861

@<SCITEGIC>MOL_PROPERTY
Valence
SciTegic.value.DoubleValue
2.738

@<SCITEGIC>MOL_PROPERTY
Coulomb
SciTegic.value.DoubleValue
69.795

@<SCITEGIC>MOL_PROPERTY
VdW
SciTegic.value.DoubleValue
-0.043

@<SCITEGIC>MOL_PROPERTY
VdW6
SciTegic.value.DoubleValue
-5.333

@<SCITEGIC>MOL_PROPERTY
VdW12
SciTegic.value.DoubleValue
5.290

@<SCITEGIC>MOL_PROPERTY
Bond
SciTegic.value.DoubleValue
0.182

@<SCITEGIC>MOL_PROPERTY
Angle
SciTegic.value.DoubleValue
1.135

@<SCITEGIC>MOL_PROPERTY
Pdih
SciTegic.value.DoubleValue
1.422

@<SCITEGIC>MOL_PROPERTY
Idih
SciTegic.value.DoubleValue
0.000

@<SCITEGIC>MOL_PROPERTY
Tether
SciTegic.value.DoubleValue
0.000

@<TRIPOS>MOLECULE
guest-s9_confgen4.mol2 : confsearch ligand conformer 36
          20          19           1
SMALL
USER_CHARGES
 
@<TRIPOS>ATOM
       1    C1      18.956640   17.002053   21.726631 C.3        1 MOL1        -0.2224
       2    H1      18.299349   16.151443   21.503924 H          1 MOL1         0.1052
       3    H2      19.989256   16.684703   21.530925 H          1 MOL1         0.1052
       4    H3      18.848843   17.218654   22.795562 H          1 MOL1         0.1052
       5    C2      18.568771   18.219965   20.857367 C.3        1 MOL1        -0.1209
       6    H4      17.576080   18.584186   21.157245 H          1 MOL1         0.1041
       7    H5      18.467182   17.886219   19.815101 H          1 MOL1         0.1041
       8    C3      19.588184   19.387051   20.896580 C.3        1 MOL1        -0.1274
       9    H6      20.568663   19.046881   20.540422 H          1 MOL1         0.1041
      10    H7      19.257602   20.146379   20.175662 H          1 MOL1         0.1041
      11    C4      19.722195   20.078103   22.273548 C.3        1 MOL1         0.0313
      12    H8      18.725210   20.229885   22.694797 H          1 MOL1         0.1015
      13    H9      20.180249   21.061267   22.139388 H          1 MOL1         0.1015
      14    N1      20.557371   19.337350   23.306154 N.4        1 MOL1        -0.4809
      15    H10     20.213358   18.372893   23.412534 H          1 MOL1         0.3726
      16    H11     20.429282   19.774681   24.232164 H          1 MOL1         0.3726
      17    C5      22.035151   19.345107   22.930888 C.3        1 MOL1        -0.0677
      18    H12     22.171508   18.824679   21.981056 H          1 MOL1         0.1026
      19    H13     22.377143   20.378227   22.839547 H          1 MOL1         0.1026
      20    H14     22.605117   18.836927   23.711787 H          1 MOL1         0.1026
@<TRIPOS>BOND
    1     1     2    1
    2     1     3    1
    3     1     4    1
    4     1     5    1
    5     5     6    1
    6     5     7    1
    7     5     8    1
    8     8     9    1
    9     8    10    1
   10     8    11    1
   11    11    12    1
   12    11    13    1
   13    11    14    1
   14    14    15    1
   15    14    16    1
   16    14    17    1
   17    17    18    1
   18    17    19    1
   19    17    20    1
@<TRIPOS>SUBSTRUCTURE
       1 MOL1            1 RESIDUE      1      MOL     
@<SCITEGIC>MOL_PROPERTY
VConf Rank
SciTegic.value.IntegerValue
36

@<SCITEGIC>MOL_PROPERTY
Conf_Id
SciTegic.value.IntegerValue
76

@<SCITEGIC>MOL_PROPERTY
Delta U+W
SciTegic.value.DoubleValue
2.799

@<SCITEGIC>MOL_PROPERTY
U+W
SciTegic.value.DoubleValue
18.137

@<SCITEGIC>MOL_PROPERTY
Grad RMS
SciTegic.value.DoubleValue
0.000000

@<SCITEGIC>MOL_PROPERTY
U
SciTegic.value.DoubleValue
72.490

@<SCITEGIC>MOL_PROPERTY
W
SciTegic.value.DoubleValue
-54.353

@<SCITEGIC>MOL_PROPERTY
W(PB)
SciTegic.value.DoubleValue
-56.201

@<SCITEGIC>MOL_PROPERTY
W(SA)
SciTegic.value.DoubleValue
1.848

@<SCITEGIC>MOL_PROPERTY
Valence
SciTegic.value.DoubleValue
2.738

@<SCITEGIC>MOL_PROPERTY
Coulomb
SciTegic.value.DoubleValue
69.795

@<SCITEGIC>MOL_PROPERTY
VdW
SciTegic.value.DoubleValue
-0.043

@<SCITEGIC>MOL_PROPERTY
VdW6
SciTegic.value.DoubleValue
-5.334

@<SCITEGIC>MOL_PROPERTY
VdW12
SciTegic.value.DoubleValue
5.290

@<SCITEGIC>MOL_PROPERTY
Bond
SciTegic.value.DoubleValue
0.182

@<SCITEGIC>MOL_PROPERTY
Angle
SciTegic.value.DoubleValue
1.135

@<SCITEGIC>MOL_PROPERTY
Pdih
SciTegic.value.DoubleValue
1.421

@<SCITEGIC>MOL_PROPERTY
Idih
SciTegic.value.DoubleValue
0.000

@<SCITEGIC>MOL_PROPERTY
Tether
SciTegic.value.DoubleValue
0.000

@<TRIPOS>MOLECULE
guest-s9_confgen4.mol2 : confsearch ligand conformer 37
          20          19           1
SMALL
USER_CHARGES
 
@<TRIPOS>ATOM
       1    C1      18.056874   18.978218   22.658361 C.3        1 MOL1        -0.2224
       2    H1      18.186074   18.925369   21.570443 H          1 MOL1         0.1052
       3    H2      17.535043   18.069118   22.984213 H          1 MOL1         0.1052
       4    H3      17.403891   19.833883   22.873527 H          1 MOL1         0.1052
       5    C2      19.411100   19.132162   23.388385 C.3        1 MOL1        -0.1209
       6    H4      19.221566   19.252581   24.464214 H          1 MOL1         0.1041
       7    H5      19.909605   20.056369   23.068858 H          1 MOL1         0.1041
       8    C3      20.352393   17.919833   23.184250 C.3        1 MOL1        -0.1274
       9    H6      21.273521   18.073742   23.761521 H          1 MOL1         0.1041
      10    H7      19.874685   17.028810   23.612643 H          1 MOL1         0.1041
      11    C4      20.722960   17.609088   21.714965 C.3        1 MOL1         0.0313
      12    H8      19.822246   17.460386   21.114826 H          1 MOL1         0.1015
      13    H9      21.284792   16.671600   21.703690 H          1 MOL1         0.1015
      14    N1      21.597516   18.644862   21.024119 N.4        1 MOL1        -0.4809
      15    H10     22.200355   18.172662   20.332445 H          1 MOL1         0.3726
      16    H11     22.252793   19.068350   21.697849 H          1 MOL1         0.3726
      17    C5      20.762918   19.707343   20.317134 C.3        1 MOL1        -0.0677
      18    H12     21.431203   20.408550   19.812524 H          1 MOL1         0.1026
      19    H13     20.116405   19.223793   19.581749 H          1 MOL1         0.1026
      20    H14     20.154031   20.243372   21.045797 H          1 MOL1         0.1026
@<TRIPOS>BOND
    1     1     2    1
    2     1     3    1
    3     1     4    1
    4     1     5    1
    5     5     6    1
    6     5     7    1
    7     5     8    1
    8     8     9    1
    9     8    10    1
   10     8    11    1
   11    11    12    1
   12    11    13    1
   13    11    14    1
   14    14    15    1
   15    14    16    1
   16    14    17    1
   17    17    18    1
   18    17    19    1
   19    17    20    1
@<TRIPOS>SUBSTRUCTURE
       1 MOL1            1 RESIDUE      1      MOL     
@<SCITEGIC>MOL_PROPERTY
VConf Rank
SciTegic.value.IntegerValue
37

@<SCITEGIC>MOL_PROPERTY
Conf_Id
SciTegic.value.IntegerValue
60

@<SCITEGIC>MOL_PROPERTY
Delta U+W
SciTegic.value.DoubleValue
1.788

@<SCITEGIC>MOL_PROPERTY
U+W
SciTegic.value.DoubleValue
17.127

@<SCITEGIC>MOL_PROPERTY
Grad RMS
SciTegic.value.DoubleValue
0.000000

@<SCITEGIC>MOL_PROPERTY
U
SciTegic.value.DoubleValue
72.122

@<SCITEGIC>MOL_PROPERTY
W
SciTegic.value.DoubleValue
-54.995

@<SCITEGIC>MOL_PROPERTY
W(PB)
SciTegic.value.DoubleValue
-56.810

@<SCITEGIC>MOL_PROPERTY
W(SA)
SciTegic.value.DoubleValue
1.815

@<SCITEGIC>MOL_PROPERTY
Valence
SciTegic.value.DoubleValue
3.197

@<SCITEGIC>MOL_PROPERTY
Coulomb
SciTegic.value.DoubleValue
69.115

@<SCITEGIC>MOL_PROPERTY
VdW
SciTegic.value.DoubleValue
-0.190

@<SCITEGIC>MOL_PROPERTY
VdW6
SciTegic.value.DoubleValue
-5.585

@<SCITEGIC>MOL_PROPERTY
VdW12
SciTegic.value.DoubleValue
5.395

@<SCITEGIC>MOL_PROPERTY
Bond
SciTegic.value.DoubleValue
0.177

@<SCITEGIC>MOL_PROPERTY
Angle
SciTegic.value.DoubleValue
1.207

@<SCITEGIC>MOL_PROPERTY
Pdih
SciTegic.value.DoubleValue
1.813

@<SCITEGIC>MOL_PROPERTY
Idih
SciTegic.value.DoubleValue
0.000

@<SCITEGIC>MOL_PROPERTY
Tether
SciTegic.value.DoubleValue
0.000

@<TRIPOS>MOLECULE
guest-s9_confgen4.mol2 : confsearch ligand conformer 38
          20          19           1
SMALL
USER_CHARGES
 
@<TRIPOS>ATOM
       1    C1      19.543278   18.713069   19.943261 C.3        1 MOL1        -0.2224
       2    H1      19.459214   19.437941   19.123298 H          1 MOL1         0.1052
       3    H2      19.374680   17.712759   19.523851 H          1 MOL1         0.1052
       4    H3      18.736634   18.923980   20.655927 H          1 MOL1         0.1052
       5    C2      20.934973   18.807421   20.610227 C.3        1 MOL1        -0.1209
       6    H4      21.097265   19.818937   21.004256 H          1 MOL1         0.1041
       7    H5      21.706545   18.659796   19.841646 H          1 MOL1         0.1041
       8    C3      21.144345   17.758430   21.729705 C.3        1 MOL1        -0.1274
       9    H6      21.086248   16.755690   21.286102 H          1 MOL1         0.1041
      10    H7      22.162741   17.851669   22.129183 H          1 MOL1         0.1041
      11    C4      20.134538   17.827592   22.899399 C.3        1 MOL1         0.0313
      12    H8      20.318124   16.968629   23.549895 H          1 MOL1         0.1015
      13    H9      19.110321   17.746383   22.527982 H          1 MOL1         0.1015
      14    N1      20.231821   19.064581   23.779931 N.4        1 MOL1        -0.4809
      15    H10     21.211969   19.374554   23.856573 H          1 MOL1         0.3726
      16    H11     19.958262   18.817198   24.743657 H          1 MOL1         0.3726
      17    C5      19.331080   20.187638   23.277285 C.3        1 MOL1        -0.0677
      18    H12     18.297997   19.834409   23.253672 H          1 MOL1         0.1026
      19    H13     19.411375   21.039998   23.955490 H          1 MOL1         0.1026
      20    H14     19.639870   20.487835   22.275511 H          1 MOL1         0.1026
@<TRIPOS>BOND
    1     1     2    1
    2     1     3    1
    3     1     4    1
    4     1     5    1
    5     5     6    1
    6     5     7    1
    7     5     8    1
    8     8     9    1
    9     8    10    1
   10     8    11    1
   11    11    12    1
   12    11    13    1
   13    11    14    1
   14    14    15    1
   15    14    16    1
   16    14    17    1
   17    17    18    1
   18    17    19    1
   19    17    20    1
@<TRIPOS>SUBSTRUCTURE
       1 MOL1            1 RESIDUE      1      MOL     
@<SCITEGIC>MOL_PROPERTY
VConf Rank
SciTegic.value.IntegerValue
38

@<SCITEGIC>MOL_PROPERTY
Conf_Id
SciTegic.value.IntegerValue
54

@<SCITEGIC>MOL_PROPERTY
Delta U+W
SciTegic.value.DoubleValue
1.880

@<SCITEGIC>MOL_PROPERTY
U+W
SciTegic.value.DoubleValue
17.218

@<SCITEGIC>MOL_PROPERTY
Grad RMS
SciTegic.value.DoubleValue
0.000000

@<SCITEGIC>MOL_PROPERTY
U
SciTegic.value.DoubleValue
72.122

@<SCITEGIC>MOL_PROPERTY
W
SciTegic.value.DoubleValue
-54.903

@<SCITEGIC>MOL_PROPERTY
W(PB)
SciTegic.value.DoubleValue
-56.724

@<SCITEGIC>MOL_PROPERTY
W(SA)
SciTegic.value.DoubleValue
1.821

@<SCITEGIC>MOL_PROPERTY
Valence
SciTegic.value.DoubleValue
3.197

@<SCITEGIC>MOL_PROPERTY
Coulomb
SciTegic.value.DoubleValue
69.115

@<SCITEGIC>MOL_PROPERTY
VdW
SciTegic.value.DoubleValue
-0.190

@<SCITEGIC>MOL_PROPERTY
VdW6
SciTegic.value.DoubleValue
-5.585

@<SCITEGIC>MOL_PROPERTY
VdW12
SciTegic.value.DoubleValue
5.395

@<SCITEGIC>MOL_PROPERTY
Bond
SciTegic.value.DoubleValue
0.177

@<SCITEGIC>MOL_PROPERTY
Angle
SciTegic.value.DoubleValue
1.207

@<SCITEGIC>MOL_PROPERTY
Pdih
SciTegic.value.DoubleValue
1.813

@<SCITEGIC>MOL_PROPERTY
Idih
SciTegic.value.DoubleValue
0.000

@<SCITEGIC>MOL_PROPERTY
Tether
SciTegic.value.DoubleValue
0.000

@<TRIPOS>MOLECULE
guest-s9_confgen4.mol2 : confsearch ligand conformer 39
          20          19           1
SMALL
USER_CHARGES
 
@<TRIPOS>ATOM
       1    C1      18.414691   20.138554   19.575201 C.3        1 MOL1        -0.2224
       2    H1      17.470754   20.293780   20.113779 H          1 MOL1         0.1052
       3    H2      18.554579   20.985736   18.891286 H          1 MOL1         0.1052
       4    H3      18.315916   19.229287   18.968034 H          1 MOL1         0.1052
       5    C2      19.602556   20.026699   20.555353 C.3        1 MOL1        -0.1209
       6    H4      19.696936   20.963275   21.123040 H          1 MOL1         0.1041
       7    H5      20.535424   19.907067   19.986320 H          1 MOL1         0.1041
       8    C3      19.432585   18.841540   21.531196 C.3        1 MOL1        -0.1274
       9    H6      18.502232   18.963603   22.101732 H          1 MOL1         0.1041
      10    H7      19.341724   17.905938   20.963430 H          1 MOL1         0.1041
      11    C4      20.620953   18.736673   22.505036 C.3        1 MOL1         0.0313
      12    H8      20.704778   19.660575   23.082848 H          1 MOL1         0.1015
      13    H9      21.546911   18.599358   21.940911 H          1 MOL1         0.1015
      14    N1      20.497479   17.585424   23.483854 N.4        1 MOL1        -0.4809
      15    H10     20.408002   16.692613   22.974895 H          1 MOL1         0.3726
      16    H11     19.628337   17.675192   24.032205 H          1 MOL1         0.3726
      17    C5      21.709234   17.554932   24.405751 C.3        1 MOL1        -0.0677
      18    H12     21.764353   18.495004   24.958954 H          1 MOL1         0.1026
      19    H13     21.607325   16.721917   25.104829 H          1 MOL1         0.1026
      20    H14     22.613546   17.424686   23.807366 H          1 MOL1         0.1026
@<TRIPOS>BOND
    1     1     2    1
    2     1     3    1
    3     1     4    1
    4     1     5    1
    5     5     6    1
    6     5     7    1
    7     5     8    1
    8     8     9    1
    9     8    10    1
   10     8    11    1
   11    11    12    1
   12    11    13    1
   13    11    14    1
   14    14    15    1
   15    14    16    1
   16    14    17    1
   17    17    18    1
   18    17    19    1
   19    17    20    1
@<TRIPOS>SUBSTRUCTURE
       1 MOL1            1 RESIDUE      1      MOL     
@<SCITEGIC>MOL_PROPERTY
VConf Rank
SciTegic.value.IntegerValue
39

@<SCITEGIC>MOL_PROPERTY
Conf_Id
SciTegic.value.IntegerValue
67

@<SCITEGIC>MOL_PROPERTY
Delta U+W
SciTegic.value.DoubleValue
0.000

@<SCITEGIC>MOL_PROPERTY
U+W
SciTegic.value.DoubleValue
15.338

@<SCITEGIC>MOL_PROPERTY
Grad RMS
SciTegic.value.DoubleValue
0.000000

@<SCITEGIC>MOL_PROPERTY
U
SciTegic.value.DoubleValue
69.277

@<SCITEGIC>MOL_PROPERTY
W
SciTegic.value.DoubleValue
-53.939

@<SCITEGIC>MOL_PROPERTY
W(PB)
SciTegic.value.DoubleValue
-55.889

@<SCITEGIC>MOL_PROPERTY
W(SA)
SciTegic.value.DoubleValue
1.950

@<SCITEGIC>MOL_PROPERTY
Valence
SciTegic.value.DoubleValue
0.846

@<SCITEGIC>MOL_PROPERTY
Coulomb
SciTegic.value.DoubleValue
68.557

@<SCITEGIC>MOL_PROPERTY
VdW
SciTegic.value.DoubleValue
-0.127

@<SCITEGIC>MOL_PROPERTY
VdW6
SciTegic.value.DoubleValue
-3.008

@<SCITEGIC>MOL_PROPERTY
VdW12
SciTegic.value.DoubleValue
2.882

@<SCITEGIC>MOL_PROPERTY
Bond
SciTegic.value.DoubleValue
0.088

@<SCITEGIC>MOL_PROPERTY
Angle
SciTegic.value.DoubleValue
0.332

@<SCITEGIC>MOL_PROPERTY
Pdih
SciTegic.value.DoubleValue
0.426

@<SCITEGIC>MOL_PROPERTY
Idih
SciTegic.value.DoubleValue
0.000

@<SCITEGIC>MOL_PROPERTY
Tether
SciTegic.value.DoubleValue
0.000

@<TRIPOS>MOLECULE
guest-s9_confgen4.mol2 : confsearch ligand conformer 40
          20          19           1
SMALL
USER_CHARGES
 
@<TRIPOS>ATOM
       1    C1      21.235915   21.529340   21.159208 C.3        1 MOL1        -0.2224
       2    H1      22.105677   21.360457   21.807406 H          1 MOL1         0.1052
       3    H2      21.577931   22.083719   20.275631 H          1 MOL1         0.1052
       4    H3      20.524701   22.166304   21.701073 H          1 MOL1         0.1052
       5    C2      20.582463   20.192862   20.745564 C.3        1 MOL1        -0.1209
       6    H4      21.306773   19.592942   20.176532 H          1 MOL1         0.1041
       7    H5      19.738377   20.392768   20.070387 H          1 MOL1         0.1041
       8    C3      20.090699   19.390348   21.970239 C.3        1 MOL1        -0.1274
       9    H6      20.936578   19.193214   22.641344 H          1 MOL1         0.1041
      10    H7      19.364019   19.988497   22.535727 H          1 MOL1         0.1041
      11    C4      19.438322   18.058020   21.546823 C.3        1 MOL1         0.0313
      12    H8      20.169864   17.435810   21.025206 H          1 MOL1         0.1015
      13    H9      18.619015   18.268602   20.854675 H          1 MOL1         0.1015
      14    N1      18.862594   17.242607   22.693297 N.4        1 MOL1        -0.4809
      15    H10     18.306687   16.459678   22.314780 H          1 MOL1         0.3726
      16    H11     18.188852   17.808555   23.231396 H          1 MOL1         0.3726
      17    C5      19.964665   16.703882   23.599239 C.3        1 MOL1        -0.0677
      18    H12     20.505965   17.539007   24.048067 H          1 MOL1         0.1026
      19    H13     19.514777   16.094239   24.385946 H          1 MOL1         0.1026
      20    H14     20.650059   16.093298   23.007522 H          1 MOL1         0.1026
@<TRIPOS>BOND
    1     1     2    1
    2     1     3    1
    3     1     4    1
    4     1     5    1
    5     5     6    1
    6     5     7    1
    7     5     8    1
    8     8     9    1
    9     8    10    1
   10     8    11    1
   11    11    12    1
   12    11    13    1
   13    11    14    1
   14    14    15    1
   15    14    16    1
   16    14    17    1
   17    17    18    1
   18    17    19    1
   19    17    20    1
@<TRIPOS>SUBSTRUCTURE
       1 MOL1            1 RESIDUE      1      MOL     
@<SCITEGIC>MOL_PROPERTY
VConf Rank
SciTegic.value.IntegerValue
40

@<SCITEGIC>MOL_PROPERTY
Conf_Id
SciTegic.value.IntegerValue
37

@<SCITEGIC>MOL_PROPERTY
Delta U+W
SciTegic.value.DoubleValue
-0.021

@<SCITEGIC>MOL_PROPERTY
U+W
SciTegic.value.DoubleValue
15.318

@<SCITEGIC>MOL_PROPERTY
Grad RMS
SciTegic.value.DoubleValue
0.000000

@<SCITEGIC>MOL_PROPERTY
U
SciTegic.value.DoubleValue
69.657

@<SCITEGIC>MOL_PROPERTY
W
SciTegic.value.DoubleValue
-54.340

@<SCITEGIC>MOL_PROPERTY
W(PB)
SciTegic.value.DoubleValue
-56.238

@<SCITEGIC>MOL_PROPERTY
W(SA)
SciTegic.value.DoubleValue
1.899

@<SCITEGIC>MOL_PROPERTY
Valence
SciTegic.value.DoubleValue
1.137

@<SCITEGIC>MOL_PROPERTY
Coulomb
SciTegic.value.DoubleValue
68.383

@<SCITEGIC>MOL_PROPERTY
VdW
SciTegic.value.DoubleValue
0.138

@<SCITEGIC>MOL_PROPERTY
VdW6
SciTegic.value.DoubleValue
-3.703

@<SCITEGIC>MOL_PROPERTY
VdW12
SciTegic.value.DoubleValue
3.841

@<SCITEGIC>MOL_PROPERTY
Bond
SciTegic.value.DoubleValue
0.125

@<SCITEGIC>MOL_PROPERTY
Angle
SciTegic.value.DoubleValue
0.468

@<SCITEGIC>MOL_PROPERTY
Pdih
SciTegic.value.DoubleValue
0.543

@<SCITEGIC>MOL_PROPERTY
Idih
SciTegic.value.DoubleValue
0.000

@<SCITEGIC>MOL_PROPERTY
Tether
SciTegic.value.DoubleValue
0.000

@<TRIPOS>MOLECULE
guest-s9_confgen4.mol2 : confsearch ligand conformer 41
          20          19           1
SMALL
USER_CHARGES
 
@<TRIPOS>ATOM
       1    C1      21.061450   21.574279   22.317326 C.3        1 MOL1        -0.2224
       2    H1      20.846318   22.618958   22.057744 H          1 MOL1         0.1052
       3    H2      20.990110   21.477618   23.408534 H          1 MOL1         0.1052
       4    H3      22.097261   21.361219   22.022587 H          1 MOL1         0.1052
       5    C2      20.074284   20.621597   21.608688 C.3        1 MOL1        -0.1209
       6    H4      20.143974   20.766549   20.521286 H          1 MOL1         0.1041
       7    H5      19.045717   20.881365   21.896606 H          1 MOL1         0.1041
       8    C3      20.353654   19.142665   21.955668 C.3        1 MOL1        -0.1274
       9    H6      21.379767   18.882714   21.663878 H          1 MOL1         0.1041
      10    H7      20.283029   19.002771   23.042036 H          1 MOL1         0.1041
      11    C4      19.363664   18.198950   21.242021 C.3        1 MOL1         0.0313
      12    H8      19.422738   18.372227   20.164448 H          1 MOL1         0.1015
      13    H9      18.342891   18.419331   21.564256 H          1 MOL1         0.1015
      14    N1      19.619421   16.718893   21.476066 N.4        1 MOL1        -0.4809
      15    H10     20.587048   16.477416   21.213077 H          1 MOL1         0.3726
      16    H11     19.026443   16.161643   20.841137 H          1 MOL1         0.3726
      17    C5      19.336720   16.328994   22.922985 C.3        1 MOL1        -0.0677
      18    H12     18.301452   16.577243   23.166499 H          1 MOL1         0.1026
      19    H13     19.494904   15.254774   23.041313 H          1 MOL1         0.1026
      20    H14     20.013545   16.873459   23.584311 H          1 MOL1         0.1026
@<TRIPOS>BOND
    1     1     2    1
    2     1     3    1
    3     1     4    1
    4     1     5    1
    5     5     6    1
    6     5     7    1
    7     5     8    1
    8     8     9    1
    9     8    10    1
   10     8    11    1
   11    11    12    1
   12    11    13    1
   13    11    14    1
   14    14    15    1
   15    14    16    1
   16    14    17    1
   17    17    18    1
   18    17    19    1
   19    17    20    1
@<TRIPOS>SUBSTRUCTURE
       1 MOL1            1 RESIDUE      1      MOL     
@<SCITEGIC>MOL_PROPERTY
VConf Rank
SciTegic.value.IntegerValue
41

@<SCITEGIC>MOL_PROPERTY
Conf_Id
SciTegic.value.IntegerValue
2

@<SCITEGIC>MOL_PROPERTY
Delta U+W
SciTegic.value.DoubleValue
0.069

@<SCITEGIC>MOL_PROPERTY
U+W
SciTegic.value.DoubleValue
15.407

@<SCITEGIC>MOL_PROPERTY
Grad RMS
SciTegic.value.DoubleValue
0.000000

@<SCITEGIC>MOL_PROPERTY
U
SciTegic.value.DoubleValue
69.657

@<SCITEGIC>MOL_PROPERTY
W
SciTegic.value.DoubleValue
-54.250

@<SCITEGIC>MOL_PROPERTY
W(PB)
SciTegic.value.DoubleValue
-56.176

@<SCITEGIC>MOL_PROPERTY
W(SA)
SciTegic.value.DoubleValue
1.926

@<SCITEGIC>MOL_PROPERTY
Valence
SciTegic.value.DoubleValue
1.137

@<SCITEGIC>MOL_PROPERTY
Coulomb
SciTegic.value.DoubleValue
68.383

@<SCITEGIC>MOL_PROPERTY
VdW
SciTegic.value.DoubleValue
0.138

@<SCITEGIC>MOL_PROPERTY
VdW6
SciTegic.value.DoubleValue
-3.703

@<SCITEGIC>MOL_PROPERTY
VdW12
SciTegic.value.DoubleValue
3.841

@<SCITEGIC>MOL_PROPERTY
Bond
SciTegic.value.DoubleValue
0.125

@<SCITEGIC>MOL_PROPERTY
Angle
SciTegic.value.DoubleValue
0.468

@<SCITEGIC>MOL_PROPERTY
Pdih
SciTegic.value.DoubleValue
0.543

@<SCITEGIC>MOL_PROPERTY
Idih
SciTegic.value.DoubleValue
0.000

@<SCITEGIC>MOL_PROPERTY
Tether
SciTegic.value.DoubleValue
0.000

@<TRIPOS>MOLECULE
guest-s9_confgen4.mol2 : confsearch ligand conformer 42
          20          19           1
SMALL
USER_CHARGES
 
@<TRIPOS>ATOM
       1    C1      17.506851   18.082706   22.612879 C.3        1 MOL1        -0.2224
       2    H1      18.110634   17.195063   22.385725 H          1 MOL1         0.1052
       3    H2      17.583297   18.283201   23.689474 H          1 MOL1         0.1052
       4    H3      16.460274   17.835848   22.392138 H          1 MOL1         0.1052
       5    C2      17.961274   19.306806   21.785010 C.3        1 MOL1        -0.1209
       6    H4      17.273371   20.142864   21.974246 H          1 MOL1         0.1041
       7    H5      17.880913   19.077750   20.712964 H          1 MOL1         0.1041
       8    C3      19.403344   19.758287   22.114822 C.3        1 MOL1        -0.1274
       9    H6      19.629338   20.672698   21.550343 H          1 MOL1         0.1041
      10    H7      19.472714   20.020070   23.179023 H          1 MOL1         0.1041
      11    C4      20.454243   18.682875   21.776670 C.3        1 MOL1         0.0313
      12    H8      20.386664   18.424219   20.716999 H          1 MOL1         0.1015
      13    H9      20.261063   17.781698   22.363465 H          1 MOL1         0.1015
      14    N1      21.877485   19.122384   22.058955 N.4        1 MOL1        -0.4809
      15    H10     21.979352   19.384982   23.051303 H          1 MOL1         0.3726
      16    H11     22.099032   19.977498   21.526225 H          1 MOL1         0.3726
      17    C5      22.847188   18.004191   21.700611 C.3        1 MOL1        -0.0677
      18    H12     22.746246   17.766577   20.639407 H          1 MOL1         0.1026
      19    H13     23.867537   18.333823   21.908538 H          1 MOL1         0.1026
      20    H14     22.616161   17.121356   22.300636 H          1 MOL1         0.1026
@<TRIPOS>BOND
    1     1     2    1
    2     1     3    1
    3     1     4    1
    4     1     5    1
    5     5     6    1
    6     5     7    1
    7     5     8    1
    8     8     9    1
    9     8    10    1
   10     8    11    1
   11    11    12    1
   12    11    13    1
   13    11    14    1
   14    14    15    1
   15    14    16    1
   16    14    17    1
   17    17    18    1
   18    17    19    1
   19    17    20    1
@<TRIPOS>SUBSTRUCTURE
       1 MOL1            1 RESIDUE      1      MOL     
@<SCITEGIC>MOL_PROPERTY
VConf Rank
SciTegic.value.IntegerValue
42

@<SCITEGIC>MOL_PROPERTY
Conf_Id
SciTegic.value.IntegerValue
34

@<SCITEGIC>MOL_PROPERTY
Delta U+W
SciTegic.value.DoubleValue
0.276

@<SCITEGIC>MOL_PROPERTY
U+W
SciTegic.value.DoubleValue
15.615

@<SCITEGIC>MOL_PROPERTY
Grad RMS
SciTegic.value.DoubleValue
0.000000

@<SCITEGIC>MOL_PROPERTY
U
SciTegic.value.DoubleValue
69.798

@<SCITEGIC>MOL_PROPERTY
W
SciTegic.value.DoubleValue
-54.184

@<SCITEGIC>MOL_PROPERTY
W(PB)
SciTegic.value.DoubleValue
-56.116

@<SCITEGIC>MOL_PROPERTY
W(SA)
SciTegic.value.DoubleValue
1.933

@<SCITEGIC>MOL_PROPERTY
Valence
SciTegic.value.DoubleValue
1.134

@<SCITEGIC>MOL_PROPERTY
Coulomb
SciTegic.value.DoubleValue
68.735

@<SCITEGIC>MOL_PROPERTY
VdW
SciTegic.value.DoubleValue
-0.070

@<SCITEGIC>MOL_PROPERTY
VdW6
SciTegic.value.DoubleValue
-3.565

@<SCITEGIC>MOL_PROPERTY
VdW12
SciTegic.value.DoubleValue
3.494

@<SCITEGIC>MOL_PROPERTY
Bond
SciTegic.value.DoubleValue
0.108

@<SCITEGIC>MOL_PROPERTY
Angle
SciTegic.value.DoubleValue
0.456

@<SCITEGIC>MOL_PROPERTY
Pdih
SciTegic.value.DoubleValue
0.569

@<SCITEGIC>MOL_PROPERTY
Idih
SciTegic.value.DoubleValue
0.000

@<SCITEGIC>MOL_PROPERTY
Tether
SciTegic.value.DoubleValue
0.000

@<TRIPOS>MOLECULE
guest-s9_confgen4.mol2 : confsearch ligand conformer 43
          20          19           1
SMALL
USER_CHARGES
 
@<TRIPOS>ATOM
       1    C1      19.069554   16.091351   21.019993 C.3        1 MOL1        -0.2224
       2    H1      18.024290   16.180018   20.696373 H          1 MOL1         0.1052
       3    H2      19.595638   15.464743   20.288130 H          1 MOL1         0.1052
       4    H3      19.085137   15.566951   21.984329 H          1 MOL1         0.1052
       5    C2      19.737659   17.478939   21.130721 C.3        1 MOL1        -0.1209
       6    H4      19.734720   17.964233   20.144412 H          1 MOL1         0.1041
       7    H5      20.790132   17.348352   21.416629 H          1 MOL1         0.1041
       8    C3      19.014421   18.382147   22.157526 C.3        1 MOL1        -0.1274
       9    H6      17.955695   18.471147   21.879925 H          1 MOL1         0.1041
      10    H7      19.038088   17.916426   23.151709 H          1 MOL1         0.1041
      11    C4      19.617527   19.798987   22.237327 C.3        1 MOL1         0.0313
      12    H8      19.011312   20.412272   22.908896 H          1 MOL1         0.1015
      13    H9      19.601324   20.261430   21.247217 H          1 MOL1         0.1015
      14    N1      21.045459   19.835831   22.748737 N.4        1 MOL1        -0.4809
      15    H10     21.655408   19.269116   22.141077 H          1 MOL1         0.3726
      16    H11     21.100793   19.396583   23.680427 H          1 MOL1         0.3726
      17    C5      21.539764   21.274985   22.806492 C.3        1 MOL1        -0.0677
      18    H12     21.503448   21.708490   21.804721 H          1 MOL1         0.1026
      19    H13     20.899860   21.848406   23.480656 H          1 MOL1         0.1026
      20    H14     22.567616   21.286889   23.175774 H          1 MOL1         0.1026
@<TRIPOS>BOND
    1     1     2    1
    2     1     3    1
    3     1     4    1
    4     1     5    1
    5     5     6    1
    6     5     7    1
    7     5     8    1
    8     8     9    1
    9     8    10    1
   10     8    11    1
   11    11    12    1
   12    11    13    1
   13    11    14    1
   14    14    15    1
   15    14    16    1
   16    14    17    1
   17    17    18    1
   18    17    19    1
   19    17    20    1
@<TRIPOS>SUBSTRUCTURE
       1 MOL1            1 RESIDUE      1      MOL     
@<SCITEGIC>MOL_PROPERTY
VConf Rank
SciTegic.value.IntegerValue
43

@<SCITEGIC>MOL_PROPERTY
Conf_Id
SciTegic.value.IntegerValue
50

@<SCITEGIC>MOL_PROPERTY
Delta U+W
SciTegic.value.DoubleValue
0.319

@<SCITEGIC>MOL_PROPERTY
U+W
SciTegic.value.DoubleValue
15.657

@<SCITEGIC>MOL_PROPERTY
Grad RMS
SciTegic.value.DoubleValue
0.000000

@<SCITEGIC>MOL_PROPERTY
U
SciTegic.value.DoubleValue
69.962

@<SCITEGIC>MOL_PROPERTY
W
SciTegic.value.DoubleValue
-54.305

@<SCITEGIC>MOL_PROPERTY
W(PB)
SciTegic.value.DoubleValue
-56.223

@<SCITEGIC>MOL_PROPERTY
W(SA)
SciTegic.value.DoubleValue
1.918

@<SCITEGIC>MOL_PROPERTY
Valence
SciTegic.value.DoubleValue
0.982

@<SCITEGIC>MOL_PROPERTY
Coulomb
SciTegic.value.DoubleValue
69.058

@<SCITEGIC>MOL_PROPERTY
VdW
SciTegic.value.DoubleValue
-0.078

@<SCITEGIC>MOL_PROPERTY
VdW6
SciTegic.value.DoubleValue
-3.548

@<SCITEGIC>MOL_PROPERTY
VdW12
SciTegic.value.DoubleValue
3.471

@<SCITEGIC>MOL_PROPERTY
Bond
SciTegic.value.DoubleValue
0.105

@<SCITEGIC>MOL_PROPERTY
Angle
SciTegic.value.DoubleValue
0.408

@<SCITEGIC>MOL_PROPERTY
Pdih
SciTegic.value.DoubleValue
0.469

@<SCITEGIC>MOL_PROPERTY
Idih
SciTegic.value.DoubleValue
0.000

@<SCITEGIC>MOL_PROPERTY
Tether
SciTegic.value.DoubleValue
0.000

@<TRIPOS>MOLECULE
guest-s9_confgen4.mol2 : confsearch ligand conformer 44
          20          19           1
SMALL
USER_CHARGES
 
@<TRIPOS>ATOM
       1    C1      17.556422   17.137834   21.973886 C.3        1 MOL1        -0.2224
       2    H1      17.025261   16.781813   22.866154 H          1 MOL1         0.1052
       3    H2      16.818951   17.604678   21.308031 H          1 MOL1         0.1052
       4    H3      17.974574   16.262471   21.460009 H          1 MOL1         0.1052
       5    C2      18.667045   18.137564   22.362577 C.3        1 MOL1        -0.1209
       6    H4      19.361816   17.648767   23.058900 H          1 MOL1         0.1041
       7    H5      18.221350   18.985345   22.901972 H          1 MOL1         0.1041
       8    C3      19.431979   18.654436   21.121245 C.3        1 MOL1        -0.1274
       9    H6      19.903759   17.815335   20.592860 H          1 MOL1         0.1041
      10    H7      18.719289   19.104932   20.417677 H          1 MOL1         0.1041
      11    C4      20.500839   19.708549   21.473279 C.3        1 MOL1         0.0313
      12    H8      20.034213   20.541299   22.005465 H          1 MOL1         0.1015
      13    H9      20.941219   20.098045   20.551879 H          1 MOL1         0.1015
      14    N1      21.633267   19.178520   22.332678 N.4        1 MOL1        -0.4809
      15    H10     22.091806   18.381815   21.864648 H          1 MOL1         0.3726
      16    H11     21.261756   18.801039   23.216952 H          1 MOL1         0.3726
      17    C5      22.639699   20.287650   22.607935 C.3        1 MOL1        -0.0677
      18    H12     23.448442   19.892938   23.226908 H          1 MOL1         0.1026
      19    H13     23.044543   20.649434   21.660307 H          1 MOL1         0.1026
      20    H14     22.140053   21.105028   23.132376 H          1 MOL1         0.1026
@<TRIPOS>BOND
    1     1     2    1
    2     1     3    1
    3     1     4    1
    4     1     5    1
    5     5     6    1
    6     5     7    1
    7     5     8    1
    8     8     9    1
    9     8    10    1
   10     8    11    1
   11    11    12    1
   12    11    13    1
   13    11    14    1
   14    14    15    1
   15    14    16    1
   16    14    17    1
   17    17    18    1
   18    17    19    1
   19    17    20    1
@<TRIPOS>SUBSTRUCTURE
       1 MOL1            1 RESIDUE      1      MOL     
@<SCITEGIC>MOL_PROPERTY
VConf Rank
SciTegic.value.IntegerValue
44

@<SCITEGIC>MOL_PROPERTY
Conf_Id
SciTegic.value.IntegerValue
35

@<SCITEGIC>MOL_PROPERTY
Delta U+W
SciTegic.value.DoubleValue
0.360

@<SCITEGIC>MOL_PROPERTY
U+W
SciTegic.value.DoubleValue
15.698

@<SCITEGIC>MOL_PROPERTY
Grad RMS
SciTegic.value.DoubleValue
0.000000

@<SCITEGIC>MOL_PROPERTY
U
SciTegic.value.DoubleValue
69.962

@<SCITEGIC>MOL_PROPERTY
W
SciTegic.value.DoubleValue
-54.264

@<SCITEGIC>MOL_PROPERTY
W(PB)
SciTegic.value.DoubleValue
-56.166

@<SCITEGIC>MOL_PROPERTY
W(SA)
SciTegic.value.DoubleValue
1.902

@<SCITEGIC>MOL_PROPERTY
Valence
SciTegic.value.DoubleValue
0.982

@<SCITEGIC>MOL_PROPERTY
Coulomb
SciTegic.value.DoubleValue
69.058

@<SCITEGIC>MOL_PROPERTY
VdW
SciTegic.value.DoubleValue
-0.078

@<SCITEGIC>MOL_PROPERTY
VdW6
SciTegic.value.DoubleValue
-3.548

@<SCITEGIC>MOL_PROPERTY
VdW12
SciTegic.value.DoubleValue
3.471

@<SCITEGIC>MOL_PROPERTY
Bond
SciTegic.value.DoubleValue
0.105

@<SCITEGIC>MOL_PROPERTY
Angle
SciTegic.value.DoubleValue
0.408

@<SCITEGIC>MOL_PROPERTY
Pdih
SciTegic.value.DoubleValue
0.469

@<SCITEGIC>MOL_PROPERTY
Idih
SciTegic.value.DoubleValue
0.000

@<SCITEGIC>MOL_PROPERTY
Tether
SciTegic.value.DoubleValue
0.000

@<TRIPOS>MOLECULE
guest-s9_confgen4.mol2 : confsearch ligand conformer 45
          20          19           1
SMALL
USER_CHARGES
 
@<TRIPOS>ATOM
       1    C1      17.922868   18.761590   23.454129 C.3        1 MOL1        -0.2224
       2    H1      18.381493   19.740604   23.641917 H          1 MOL1         0.1052
       3    H2      16.867796   18.828469   23.749635 H          1 MOL1         0.1052
       4    H3      18.407462   18.024955   24.108064 H          1 MOL1         0.1052
       5    C2      18.044937   18.352202   21.968293 C.3        1 MOL1        -0.1209
       6    H4      17.557161   19.107436   21.335945 H          1 MOL1         0.1041
       7    H5      17.495068   17.414080   21.808424 H          1 MOL1         0.1041
       8    C3      19.510585   18.159403   21.513783 C.3        1 MOL1        -0.1274
       9    H6      19.981043   17.377797   22.124088 H          1 MOL1         0.1041
      10    H7      19.518783   17.796889   20.477428 H          1 MOL1         0.1041
      11    C4      20.333875   19.462586   21.599641 C.3        1 MOL1         0.0313
      12    H8      20.390613   19.799064   22.637582 H          1 MOL1         0.1015
      13    H9      19.829668   20.239245   21.018998 H          1 MOL1         0.1015
      14    N1      21.753507   19.349841   21.068294 N.4        1 MOL1        -0.4809
      15    H10     22.175616   20.289771   21.008592 H          1 MOL1         0.3726
      16    H11     21.745239   19.002081   20.097360 H          1 MOL1         0.3726
      17    C5      22.608426   18.454275   21.958485 C.3        1 MOL1        -0.0677
      18    H12     22.192370   17.444940   21.963908 H          1 MOL1         0.1026
      19    H13     23.627426   18.428088   21.566163 H          1 MOL1         0.1026
      20    H14     22.615326   18.857561   22.973379 H          1 MOL1         0.1026
@<TRIPOS>BOND
    1     1     2    1
    2     1     3    1
    3     1     4    1
    4     1     5    1
    5     5     6    1
    6     5     7    1
    7     5     8    1
    8     8     9    1
    9     8    10    1
   10     8    11    1
   11    11    12    1
   12    11    13    1
   13    11    14    1
   14    14    15    1
   15    14    16    1
   16    14    17    1
   17    17    18    1
   18    17    19    1
   19    17    20    1
@<TRIPOS>SUBSTRUCTURE
       1 MOL1            1 RESIDUE      1      MOL     
@<SCITEGIC>MOL_PROPERTY
VConf Rank
SciTegic.value.IntegerValue
45

@<SCITEGIC>MOL_PROPERTY
Conf_Id
SciTegic.value.IntegerValue
33

@<SCITEGIC>MOL_PROPERTY
Delta U+W
SciTegic.value.DoubleValue
0.372

@<SCITEGIC>MOL_PROPERTY
U+W
SciTegic.value.DoubleValue
15.711

@<SCITEGIC>MOL_PROPERTY
Grad RMS
SciTegic.value.DoubleValue
0.000000

@<SCITEGIC>MOL_PROPERTY
U
SciTegic.value.DoubleValue
70.163

@<SCITEGIC>MOL_PROPERTY
W
SciTegic.value.DoubleValue
-54.452

@<SCITEGIC>MOL_PROPERTY
W(PB)
SciTegic.value.DoubleValue
-56.363

@<SCITEGIC>MOL_PROPERTY
W(SA)
SciTegic.value.DoubleValue
1.911

@<SCITEGIC>MOL_PROPERTY
Valence
SciTegic.value.DoubleValue
1.420

@<SCITEGIC>MOL_PROPERTY
Coulomb
SciTegic.value.DoubleValue
68.566

@<SCITEGIC>MOL_PROPERTY
VdW
SciTegic.value.DoubleValue
0.177

@<SCITEGIC>MOL_PROPERTY
VdW6
SciTegic.value.DoubleValue
-4.267

@<SCITEGIC>MOL_PROPERTY
VdW12
SciTegic.value.DoubleValue
4.445

@<SCITEGIC>MOL_PROPERTY
Bond
SciTegic.value.DoubleValue
0.146

@<SCITEGIC>MOL_PROPERTY
Angle
SciTegic.value.DoubleValue
0.581

@<SCITEGIC>MOL_PROPERTY
Pdih
SciTegic.value.DoubleValue
0.693

@<SCITEGIC>MOL_PROPERTY
Idih
SciTegic.value.DoubleValue
0.000

@<SCITEGIC>MOL_PROPERTY
Tether
SciTegic.value.DoubleValue
0.000

@<TRIPOS>MOLECULE
guest-s9_confgen4.mol2 : confsearch ligand conformer 46
          20          19           1
SMALL
USER_CHARGES
 
@<TRIPOS>ATOM
       1    C1      21.202015   16.640708   22.849236 C.3        1 MOL1        -0.2224
       2    H1      21.370164   15.574099   23.046837 H          1 MOL1         0.1052
       3    H2      21.801950   16.912966   21.971726 H          1 MOL1         0.1052
       4    H3      21.580660   17.204545   23.711680 H          1 MOL1         0.1052
       5    C2      19.698813   16.919113   22.618831 C.3        1 MOL1        -0.1209
       6    H4      19.128935   16.548475   23.482458 H          1 MOL1         0.1041
       7    H5      19.346638   16.347659   21.748440 H          1 MOL1         0.1041
       8    C3      19.386919   18.420502   22.417753 C.3        1 MOL1        -0.1274
       9    H6      18.299853   18.552212   22.337414 H          1 MOL1         0.1041
      10    H7      19.706810   18.980751   23.305729 H          1 MOL1         0.1041
      11    C4      20.060811   19.001892   21.156278 C.3        1 MOL1         0.0313
      12    H8      19.761935   18.407678   20.289012 H          1 MOL1         0.1015
      13    H9      21.147328   18.938178   21.252067 H          1 MOL1         0.1015
      14    N1      19.703556   20.448987   20.858474 N.4        1 MOL1        -0.4809
      15    H10     18.680097   20.558336   20.792945 H          1 MOL1         0.3726
      16    H11     20.057089   20.706678   19.923692 H          1 MOL1         0.3726
      17    C5      20.283974   21.390013   21.908689 C.3        1 MOL1        -0.0677
      18    H12     20.038323   22.420000   21.640839 H          1 MOL1         0.1026
      19    H13     19.855048   21.153420   22.884360 H          1 MOL1         0.1026
      20    H14     21.368663   21.267178   21.941252 H          1 MOL1         0.1026
@<TRIPOS>BOND
    1     1     2    1
    2     1     3    1
    3     1     4    1
    4     1     5    1
    5     5     6    1
    6     5     7    1
    7     5     8    1
    8     8     9    1
    9     8    10    1
   10     8    11    1
   11    11    12    1
   12    11    13    1
   13    11    14    1
   14    14    15    1
   15    14    16    1
   16    14    17    1
   17    17    18    1
   18    17    19    1
   19    17    20    1
@<TRIPOS>SUBSTRUCTURE
       1 MOL1            1 RESIDUE      1      MOL     
@<SCITEGIC>MOL_PROPERTY
VConf Rank
SciTegic.value.IntegerValue
46

@<SCITEGIC>MOL_PROPERTY
Conf_Id
SciTegic.value.IntegerValue
53

@<SCITEGIC>MOL_PROPERTY
Delta U+W
SciTegic.value.DoubleValue
0.379

@<SCITEGIC>MOL_PROPERTY
U+W
SciTegic.value.DoubleValue
15.717

@<SCITEGIC>MOL_PROPERTY
Grad RMS
SciTegic.value.DoubleValue
0.000000

@<SCITEGIC>MOL_PROPERTY
U
SciTegic.value.DoubleValue
70.163

@<SCITEGIC>MOL_PROPERTY
W
SciTegic.value.DoubleValue
-54.446

@<SCITEGIC>MOL_PROPERTY
W(PB)
SciTegic.value.DoubleValue
-56.322

@<SCITEGIC>MOL_PROPERTY
W(SA)
SciTegic.value.DoubleValue
1.876

@<SCITEGIC>MOL_PROPERTY
Valence
SciTegic.value.DoubleValue
1.420

@<SCITEGIC>MOL_PROPERTY
Coulomb
SciTegic.value.DoubleValue
68.566

@<SCITEGIC>MOL_PROPERTY
VdW
SciTegic.value.DoubleValue
0.177

@<SCITEGIC>MOL_PROPERTY
VdW6
SciTegic.value.DoubleValue
-4.267

@<SCITEGIC>MOL_PROPERTY
VdW12
SciTegic.value.DoubleValue
4.445

@<SCITEGIC>MOL_PROPERTY
Bond
SciTegic.value.DoubleValue
0.146

@<SCITEGIC>MOL_PROPERTY
Angle
SciTegic.value.DoubleValue
0.581

@<SCITEGIC>MOL_PROPERTY
Pdih
SciTegic.value.DoubleValue
0.693

@<SCITEGIC>MOL_PROPERTY
Idih
SciTegic.value.DoubleValue
0.000

@<SCITEGIC>MOL_PROPERTY
Tether
SciTegic.value.DoubleValue
0.000

@<TRIPOS>MOLECULE
guest-s9_confgen4.mol2 : confsearch ligand conformer 47
          20          19           1
SMALL
USER_CHARGES
 
@<TRIPOS>ATOM
       1    C1      19.617952   16.209096   22.772567 C.3        1 MOL1        -0.2224
       2    H1      19.849554   15.286068   22.225409 H          1 MOL1         0.1052
       3    H2      19.868906   16.045451   23.828686 H          1 MOL1         0.1052
       4    H3      18.535851   16.379721   22.701104 H          1 MOL1         0.1052
       5    C2      20.408248   17.401153   22.190852 C.3        1 MOL1        -0.1209
       6    H4      20.161029   17.509741   21.126076 H          1 MOL1         0.1041
       7    H5      21.484904   17.187147   22.247388 H          1 MOL1         0.1041
       8    C3      20.097809   18.716124   22.943981 C.3        1 MOL1        -0.1274
       9    H6      19.027926   18.949090   22.867695 H          1 MOL1         0.1041
      10    H7      20.307521   18.579995   24.013157 H          1 MOL1         0.1041
      11    C4      20.932918   19.911745   22.434330 C.3        1 MOL1         0.0313
      12    H8      21.993850   19.687010   22.570515 H          1 MOL1         0.1015
      13    H9      20.699875   20.798682   23.028911 H          1 MOL1         0.1015
      14    N1      20.728984   20.272842   20.970550 N.4        1 MOL1        -0.4809
      15    H10     20.935700   19.460188   20.371475 H          1 MOL1         0.3726
      16    H11     21.417980   20.989361   20.692866 H          1 MOL1         0.3726
      17    C5      19.315954   20.787048   20.717819 C.3        1 MOL1        -0.0677
      18    H12     19.131956   21.658056   21.350392 H          1 MOL1         0.1026
      19    H13     19.220244   21.068728   19.666902 H          1 MOL1         0.1026
      20    H14     18.596889   19.999856   20.952955 H          1 MOL1         0.1026
@<TRIPOS>BOND
    1     1     2    1
    2     1     3    1
    3     1     4    1
    4     1     5    1
    5     5     6    1
    6     5     7    1
    7     5     8    1
    8     8     9    1
    9     8    10    1
   10     8    11    1
   11    11    12    1
   12    11    13    1
   13    11    14    1
   14    14    15    1
   15    14    16    1
   16    14    17    1
   17    17    18    1
   18    17    19    1
   19    17    20    1
@<TRIPOS>SUBSTRUCTURE
       1 MOL1            1 RESIDUE      1      MOL     
@<SCITEGIC>MOL_PROPERTY
VConf Rank
SciTegic.value.IntegerValue
47

@<SCITEGIC>MOL_PROPERTY
Conf_Id
SciTegic.value.IntegerValue
49

@<SCITEGIC>MOL_PROPERTY
Delta U+W
SciTegic.value.DoubleValue
0.268

@<SCITEGIC>MOL_PROPERTY
U+W
SciTegic.value.DoubleValue
15.607

@<SCITEGIC>MOL_PROPERTY
Grad RMS
SciTegic.value.DoubleValue
0.000000

@<SCITEGIC>MOL_PROPERTY
U
SciTegic.value.DoubleValue
70.298

@<SCITEGIC>MOL_PROPERTY
W
SciTegic.value.DoubleValue
-54.692

@<SCITEGIC>MOL_PROPERTY
W(PB)
SciTegic.value.DoubleValue
-56.576

@<SCITEGIC>MOL_PROPERTY
W(SA)
SciTegic.value.DoubleValue
1.885

@<SCITEGIC>MOL_PROPERTY
Valence
SciTegic.value.DoubleValue
1.245

@<SCITEGIC>MOL_PROPERTY
Coulomb
SciTegic.value.DoubleValue
68.933

@<SCITEGIC>MOL_PROPERTY
VdW
SciTegic.value.DoubleValue
0.120

@<SCITEGIC>MOL_PROPERTY
VdW6
SciTegic.value.DoubleValue
-4.430

@<SCITEGIC>MOL_PROPERTY
VdW12
SciTegic.value.DoubleValue
4.550

@<SCITEGIC>MOL_PROPERTY
Bond
SciTegic.value.DoubleValue
0.148

@<SCITEGIC>MOL_PROPERTY
Angle
SciTegic.value.DoubleValue
0.587

@<SCITEGIC>MOL_PROPERTY
Pdih
SciTegic.value.DoubleValue
0.509

@<SCITEGIC>MOL_PROPERTY
Idih
SciTegic.value.DoubleValue
0.000

@<SCITEGIC>MOL_PROPERTY
Tether
SciTegic.value.DoubleValue
0.000

@<TRIPOS>MOLECULE
guest-s9_confgen4.mol2 : confsearch ligand conformer 48
          20          19           1
SMALL
USER_CHARGES
 
@<TRIPOS>ATOM
       1    C1      17.549553   18.377336   20.829001 C.3        1 MOL1        -0.2224
       2    H1      17.561025   19.124353   20.024635 H          1 MOL1         0.1052
       3    H2      17.479514   17.382454   20.370258 H          1 MOL1         0.1052
       4    H3      16.640785   18.537457   21.423560 H          1 MOL1         0.1052
       5    C2      18.808797   18.494925   21.714894 C.3        1 MOL1        -0.1209
       6    H4      18.755400   17.754883   22.525743 H          1 MOL1         0.1041
       7    H5      18.819868   19.487328   22.184534 H          1 MOL1         0.1041
       8    C3      20.105153   18.284093   20.898417 C.3        1 MOL1        -0.1274
       9    H6      20.028777   17.340361   20.342274 H          1 MOL1         0.1041
      10    H7      20.203277   19.077551   20.145854 H          1 MOL1         0.1041
      11    C4      21.389994   18.227984   21.755660 C.3        1 MOL1         0.0313
      12    H8      22.229694   18.012244   21.089999 H          1 MOL1         0.1015
      13    H9      21.326664   17.414461   22.482618 H          1 MOL1         0.1015
      14    N1      21.740039   19.506991   22.500557 N.4        1 MOL1        -0.4809
      15    H10     21.439624   20.331882   21.960053 H          1 MOL1         0.3726
      16    H11     22.766410   19.593315   22.564740 H          1 MOL1         0.3726
      17    C5      21.147454   19.513678   23.906062 C.3        1 MOL1        -0.0677
      18    H12     21.440861   20.435737   24.412695 H          1 MOL1         0.1026
      19    H13     20.059809   19.458299   23.848859 H          1 MOL1         0.1026
      20    H14     21.530537   18.653895   24.459876 H          1 MOL1         0.1026
@<TRIPOS>BOND
    1     1     2    1
    2     1     3    1
    3     1     4    1
    4     1     5    1
    5     5     6    1
    6     5     7    1
    7     5     8    1
    8     8     9    1
    9     8    10    1
   10     8    11    1
   11    11    12    1
   12    11    13    1
   13    11    14    1
   14    14    15    1
   15    14    16    1
   16    14    17    1
   17    17    18    1
   18    17    19    1
   19    17    20    1
@<TRIPOS>SUBSTRUCTURE
       1 MOL1            1 RESIDUE      1      MOL     
@<SCITEGIC>MOL_PROPERTY
VConf Rank
SciTegic.value.IntegerValue
48

@<SCITEGIC>MOL_PROPERTY
Conf_Id
SciTegic.value.IntegerValue
65

@<SCITEGIC>MOL_PROPERTY
Delta U+W
SciTegic.value.DoubleValue
1.775

@<SCITEGIC>MOL_PROPERTY
U+W
SciTegic.value.DoubleValue
17.114

@<SCITEGIC>MOL_PROPERTY
Grad RMS
SciTegic.value.DoubleValue
0.000000

@<SCITEGIC>MOL_PROPERTY
U
SciTegic.value.DoubleValue
71.726

@<SCITEGIC>MOL_PROPERTY
W
SciTegic.value.DoubleValue
-54.613

@<SCITEGIC>MOL_PROPERTY
W(PB)
SciTegic.value.DoubleValue
-56.495

@<SCITEGIC>MOL_PROPERTY
W(SA)
SciTegic.value.DoubleValue
1.883

@<SCITEGIC>MOL_PROPERTY
Valence
SciTegic.value.DoubleValue
2.885

@<SCITEGIC>MOL_PROPERTY
Coulomb
SciTegic.value.DoubleValue
68.822

@<SCITEGIC>MOL_PROPERTY
VdW
SciTegic.value.DoubleValue
0.019

@<SCITEGIC>MOL_PROPERTY
VdW6
SciTegic.value.DoubleValue
-4.600

@<SCITEGIC>MOL_PROPERTY
VdW12
SciTegic.value.DoubleValue
4.619

@<SCITEGIC>MOL_PROPERTY
Bond
SciTegic.value.DoubleValue
0.152

@<SCITEGIC>MOL_PROPERTY
Angle
SciTegic.value.DoubleValue
0.862

@<SCITEGIC>MOL_PROPERTY
Pdih
SciTegic.value.DoubleValue
1.871

@<SCITEGIC>MOL_PROPERTY
Idih
SciTegic.value.DoubleValue
0.000

@<SCITEGIC>MOL_PROPERTY
Tether
SciTegic.value.DoubleValue
0.000

@<TRIPOS>MOLECULE
guest-s9_confgen4.mol2 : confsearch ligand conformer 49
          20          19           1
SMALL
USER_CHARGES
 
@<TRIPOS>ATOM
       1    C1      19.165161   16.696866   21.260886 C.3        1 MOL1        -0.2224
       2    H1      19.001046   16.955042   22.314648 H          1 MOL1         0.1052
       3    H2      18.229947   16.270523   20.875419 H          1 MOL1         0.1052
       4    H3      19.933148   15.913783   21.215645 H          1 MOL1         0.1052
       5    C2      19.581187   17.932095   20.429439 C.3        1 MOL1        -0.1209
       6    H4      18.797599   18.699521   20.489905 H          1 MOL1         0.1041
       7    H5      19.642394   17.645300   19.370190 H          1 MOL1         0.1041
       8    C3      20.944339   18.525866   20.864470 C.3        1 MOL1        -0.1274
       9    H6      21.732228   17.778886   20.700104 H          1 MOL1         0.1041
      10    H7      21.193120   19.379012   20.219494 H          1 MOL1         0.1041
      11    C4      20.991380   18.974698   22.340038 C.3        1 MOL1         0.0313
      12    H8      21.991140   19.349987   22.572800 H          1 MOL1         0.1015
      13    H9      20.790400   18.120554   22.991047 H          1 MOL1         0.1015
      14    N1      19.998203   20.068460   22.683382 N.4        1 MOL1        -0.4809
      15    H10     19.040021   19.754052   22.470018 H          1 MOL1         0.3726
      16    H11     20.157297   20.893701   22.085414 H          1 MOL1         0.3726
      17    C5      20.122853   20.441325   24.154419 C.3        1 MOL1        -0.0677
      18    H12     21.135548   20.800511   24.349863 H          1 MOL1         0.1026
      19    H13     19.401921   21.228001   24.387589 H          1 MOL1         0.1026
      20    H14     19.918287   19.560935   24.767467 H          1 MOL1         0.1026
@<TRIPOS>BOND
    1     1     2    1
    2     1     3    1
    3     1     4    1
    4     1     5    1
    5     5     6    1
    6     5     7    1
    7     5     8    1
    8     8     9    1
    9     8    10    1
   10     8    11    1
   11    11    12    1
   12    11    13    1
   13    11    14    1
   14    14    15    1
   15    14    16    1
   16    14    17    1
   17    17    18    1
   18    17    19    1
   19    17    20    1
@<TRIPOS>SUBSTRUCTURE
       1 MOL1            1 RESIDUE      1      MOL     
@<SCITEGIC>MOL_PROPERTY
VConf Rank
SciTegic.value.IntegerValue
49

@<SCITEGIC>MOL_PROPERTY
Conf_Id
SciTegic.value.IntegerValue
23

@<SCITEGIC>MOL_PROPERTY
Delta U+W
SciTegic.value.DoubleValue
0.896

@<SCITEGIC>MOL_PROPERTY
U+W
SciTegic.value.DoubleValue
16.234

@<SCITEGIC>MOL_PROPERTY
Grad RMS
SciTegic.value.DoubleValue
0.000000

@<SCITEGIC>MOL_PROPERTY
U
SciTegic.value.DoubleValue
70.374

@<SCITEGIC>MOL_PROPERTY
W
SciTegic.value.DoubleValue
-54.140

@<SCITEGIC>MOL_PROPERTY
W(PB)
SciTegic.value.DoubleValue
-56.046

@<SCITEGIC>MOL_PROPERTY
W(SA)
SciTegic.value.DoubleValue
1.907

@<SCITEGIC>MOL_PROPERTY
Valence
SciTegic.value.DoubleValue
1.257

@<SCITEGIC>MOL_PROPERTY
Coulomb
SciTegic.value.DoubleValue
69.240

@<SCITEGIC>MOL_PROPERTY
VdW
SciTegic.value.DoubleValue
-0.123

@<SCITEGIC>MOL_PROPERTY
VdW6
SciTegic.value.DoubleValue
-4.336

@<SCITEGIC>MOL_PROPERTY
VdW12
SciTegic.value.DoubleValue
4.213

@<SCITEGIC>MOL_PROPERTY
Bond
SciTegic.value.DoubleValue
0.128

@<SCITEGIC>MOL_PROPERTY
Angle
SciTegic.value.DoubleValue
0.603

@<SCITEGIC>MOL_PROPERTY
Pdih
SciTegic.value.DoubleValue
0.526

@<SCITEGIC>MOL_PROPERTY
Idih
SciTegic.value.DoubleValue
0.000

@<SCITEGIC>MOL_PROPERTY
Tether
SciTegic.value.DoubleValue
0.000

@<TRIPOS>MOLECULE
guest-s9_confgen4.mol2 : confsearch ligand conformer 50
          20          19           1
SMALL
USER_CHARGES
 
@<TRIPOS>ATOM
       1    C1      19.218486   16.616269   22.439158 C.3        1 MOL1        -0.2224
       2    H1      19.875934   16.037077   23.100498 H          1 MOL1         0.1052
       3    H2      18.327523   16.007720   22.237090 H          1 MOL1         0.1052
       4    H3      19.739159   16.766903   21.485107 H          1 MOL1         0.1052
       5    C2      18.820469   17.960995   23.089899 C.3        1 MOL1        -0.1209
       6    H4      18.222974   17.758993   23.990010 H          1 MOL1         0.1041
       7    H5      18.163386   18.520496   22.410332 H          1 MOL1         0.1041
       8    C3      20.041153   18.828558   23.486460 C.3        1 MOL1        -0.1274
       9    H6      19.691659   19.752541   23.965890 H          1 MOL1         0.1041
      10    H7      20.631496   18.296017   24.243865 H          1 MOL1         0.1041
      11    C4      20.965917   19.188533   22.304852 C.3        1 MOL1         0.0313
      12    H8      21.355342   18.274329   21.850601 H          1 MOL1         0.1015
      13    H9      21.813932   19.771458   22.673101 H          1 MOL1         0.1015
      14    N1      20.288271   19.999534   21.216881 N.4        1 MOL1        -0.4809
      15    H10     19.905792   20.872877   21.610427 H          1 MOL1         0.3726
      16    H11     19.475374   19.484277   20.847829 H          1 MOL1         0.3726
      17    C5      21.279014   20.303923   20.101399 C.3        1 MOL1        -0.0677
      18    H12     21.644793   19.365588   19.678915 H          1 MOL1         0.1026
      19    H13     20.777791   20.886547   19.325322 H          1 MOL1         0.1026
      20    H14     22.115006   20.876325   20.509122 H          1 MOL1         0.1026
@<TRIPOS>BOND
    1     1     2    1
    2     1     3    1
    3     1     4    1
    4     1     5    1
    5     5     6    1
    6     5     7    1
    7     5     8    1
    8     8     9    1
    9     8    10    1
   10     8    11    1
   11    11    12    1
   12    11    13    1
   13    11    14    1
   14    14    15    1
   15    14    16    1
   16    14    17    1
   17    17    18    1
   18    17    19    1
   19    17    20    1
@<TRIPOS>SUBSTRUCTURE
       1 MOL1            1 RESIDUE      1      MOL     
@<SCITEGIC>MOL_PROPERTY
VConf Rank
SciTegic.value.IntegerValue
50

@<SCITEGIC>MOL_PROPERTY
Conf_Id
SciTegic.value.IntegerValue
24

@<SCITEGIC>MOL_PROPERTY
Delta U+W
SciTegic.value.DoubleValue
0.792

@<SCITEGIC>MOL_PROPERTY
U+W
SciTegic.value.DoubleValue
16.130

@<SCITEGIC>MOL_PROPERTY
Grad RMS
SciTegic.value.DoubleValue
0.000000

@<SCITEGIC>MOL_PROPERTY
U
SciTegic.value.DoubleValue
70.374

@<SCITEGIC>MOL_PROPERTY
W
SciTegic.value.DoubleValue
-54.243

@<SCITEGIC>MOL_PROPERTY
W(PB)
SciTegic.value.DoubleValue
-56.130

@<SCITEGIC>MOL_PROPERTY
W(SA)
SciTegic.value.DoubleValue
1.887

@<SCITEGIC>MOL_PROPERTY
Valence
SciTegic.value.DoubleValue
1.257

@<SCITEGIC>MOL_PROPERTY
Coulomb
SciTegic.value.DoubleValue
69.240

@<SCITEGIC>MOL_PROPERTY
VdW
SciTegic.value.DoubleValue
-0.123

@<SCITEGIC>MOL_PROPERTY
VdW6
SciTegic.value.DoubleValue
-4.336

@<SCITEGIC>MOL_PROPERTY
VdW12
SciTegic.value.DoubleValue
4.213

@<SCITEGIC>MOL_PROPERTY
Bond
SciTegic.value.DoubleValue
0.128

@<SCITEGIC>MOL_PROPERTY
Angle
SciTegic.value.DoubleValue
0.603

@<SCITEGIC>MOL_PROPERTY
Pdih
SciTegic.value.DoubleValue
0.526

@<SCITEGIC>MOL_PROPERTY
Idih
SciTegic.value.DoubleValue
0.000

@<SCITEGIC>MOL_PROPERTY
Tether
SciTegic.value.DoubleValue
0.000

@<TRIPOS>MOLECULE
guest-s9_confgen4.mol2 : confsearch ligand conformer 51
          20          19           1
SMALL
USER_CHARGES
 
@<TRIPOS>ATOM
       1    C1      22.074672   18.278309   21.759148 C.3        1 MOL1        -0.2224
       2    H1      23.169298   18.274761   21.842824 H          1 MOL1         0.1052
       3    H2      21.675648   18.091884   22.763177 H          1 MOL1         0.1052
       4    H3      21.789318   17.446212   21.102375 H          1 MOL1         0.1052
       5    C2      21.585776   19.632282   21.195944 C.3        1 MOL1        -0.1209
       6    H4      22.172381   19.870555   20.297507 H          1 MOL1         0.1041
       7    H5      21.803390   20.429574   21.920564 H          1 MOL1         0.1041
       8    C3      20.082200   19.666190   20.820511 C.3        1 MOL1        -0.1274
       9    H6      19.868112   20.644972   20.371100 H          1 MOL1         0.1041
      10    H7      19.865994   18.923456   20.041212 H          1 MOL1         0.1041
      11    C4      19.121802   19.475063   22.013570 C.3        1 MOL1         0.0313
      12    H8      18.139298   19.873862   21.748636 H          1 MOL1         0.1015
      13    H9      19.491603   20.031809   22.878189 H          1 MOL1         0.1015
      14    N1      18.915388   18.029741   22.425197 N.4        1 MOL1        -0.4809
      15    H10     19.822714   17.590121   22.635227 H          1 MOL1         0.3726
      16    H11     18.524353   17.489462   21.638305 H          1 MOL1         0.3726
      17    C5      17.991876   17.958823   23.633712 C.3        1 MOL1        -0.0677
      18    H12     18.441250   18.509520   24.462906 H          1 MOL1         0.1026
      19    H13     17.027432   18.401621   23.375750 H          1 MOL1         0.1026
      20    H14     17.852588   16.913555   23.918289 H          1 MOL1         0.1026
@<TRIPOS>BOND
    1     1     2    1
    2     1     3    1
    3     1     4    1
    4     1     5    1
    5     5     6    1
    6     5     7    1
    7     5     8    1
    8     8     9    1
    9     8    10    1
   10     8    11    1
   11    11    12    1
   12    11    13    1
   13    11    14    1
   14    14    15    1
   15    14    16    1
   16    14    17    1
   17    17    18    1
   18    17    19    1
   19    17    20    1
@<TRIPOS>SUBSTRUCTURE
       1 MOL1            1 RESIDUE      1      MOL     
@<SCITEGIC>MOL_PROPERTY
VConf Rank
SciTegic.value.IntegerValue
51

@<SCITEGIC>MOL_PROPERTY
Conf_Id
SciTegic.value.IntegerValue
26

@<SCITEGIC>MOL_PROPERTY
Delta U+W
SciTegic.value.DoubleValue
2.888

@<SCITEGIC>MOL_PROPERTY
U+W
SciTegic.value.DoubleValue
18.226

@<SCITEGIC>MOL_PROPERTY
Grad RMS
SciTegic.value.DoubleValue
0.000000

@<SCITEGIC>MOL_PROPERTY
U
SciTegic.value.DoubleValue
72.042

@<SCITEGIC>MOL_PROPERTY
W
SciTegic.value.DoubleValue
-53.816

@<SCITEGIC>MOL_PROPERTY
W(PB)
SciTegic.value.DoubleValue
-55.689

@<SCITEGIC>MOL_PROPERTY
W(SA)
SciTegic.value.DoubleValue
1.873

@<SCITEGIC>MOL_PROPERTY
Valence
SciTegic.value.DoubleValue
2.428

@<SCITEGIC>MOL_PROPERTY
Coulomb
SciTegic.value.DoubleValue
69.829

@<SCITEGIC>MOL_PROPERTY
VdW
SciTegic.value.DoubleValue
-0.215

@<SCITEGIC>MOL_PROPERTY
VdW6
SciTegic.value.DoubleValue
-4.563

@<SCITEGIC>MOL_PROPERTY
VdW12
SciTegic.value.DoubleValue
4.348

@<SCITEGIC>MOL_PROPERTY
Bond
SciTegic.value.DoubleValue
0.137

@<SCITEGIC>MOL_PROPERTY
Angle
SciTegic.value.DoubleValue
0.936

@<SCITEGIC>MOL_PROPERTY
Pdih
SciTegic.value.DoubleValue
1.356

@<SCITEGIC>MOL_PROPERTY
Idih
SciTegic.value.DoubleValue
0.000

@<SCITEGIC>MOL_PROPERTY
Tether
SciTegic.value.DoubleValue
0.000

@<TRIPOS>MOLECULE
guest-s9_confgen4.mol2 : confsearch ligand conformer 52
          20          19           1
SMALL
USER_CHARGES
 
@<TRIPOS>ATOM
       1    C1      22.126344   19.468670   21.514545 C.3        1 MOL1        -0.2224
       2    H1      23.187983   19.422402   21.238865 H          1 MOL1         0.1052
       3    H2      21.868198   20.525055   21.664805 H          1 MOL1         0.1052
       4    H3      22.018987   18.937285   22.467516 H          1 MOL1         0.1052
       5    C2      21.257861   18.829699   20.406883 C.3        1 MOL1        -0.1209
       6    H4      21.474338   17.753712   20.347759 H          1 MOL1         0.1041
       7    H5      21.558044   19.253183   19.438061 H          1 MOL1         0.1041
       8    C3      19.732849   19.045039   20.582393 C.3        1 MOL1        -0.1274
       9    H6      19.493966   20.116684   20.567624 H          1 MOL1         0.1041
      10    H7      19.227688   18.612029   19.708818 H          1 MOL1         0.1041
      11    C4      19.136513   18.388153   21.845392 C.3        1 MOL1         0.0313
      12    H8      19.578778   17.399521   21.991311 H          1 MOL1         0.1015
      13    H9      18.059838   18.260744   21.707258 H          1 MOL1         0.1015
      14    N1      19.326432   19.192046   23.117668 N.4        1 MOL1        -0.4809
      15    H10     18.878895   20.116568   23.022927 H          1 MOL1         0.3726
      16    H11     20.326947   19.385951   23.265963 H          1 MOL1         0.3726
      17    C5      18.744590   18.435414   24.303998 C.3        1 MOL1        -0.0677
      18    H12     19.255414   17.475312   24.404152 H          1 MOL1         0.1026
      19    H13     18.888389   19.025582   25.211740 H          1 MOL1         0.1026
      20    H14     17.677891   18.270703   24.137297 H          1 MOL1         0.1026
@<TRIPOS>BOND
    1     1     2    1
    2     1     3    1
    3     1     4    1
    4     1     5    1
    5     5     6    1
    6     5     7    1
    7     5     8    1
    8     8     9    1
    9     8    10    1
   10     8    11    1
   11    11    12    1
   12    11    13    1
   13    11    14    1
   14    14    15    1
   15    14    16    1
   16    14    17    1
   17    17    18    1
   18    17    19    1
   19    17    20    1
@<TRIPOS>SUBSTRUCTURE
       1 MOL1            1 RESIDUE      1      MOL     
@<SCITEGIC>MOL_PROPERTY
VConf Rank
SciTegic.value.IntegerValue
52

@<SCITEGIC>MOL_PROPERTY
Conf_Id
SciTegic.value.IntegerValue
5

@<SCITEGIC>MOL_PROPERTY
Delta U+W
SciTegic.value.DoubleValue
2.950

@<SCITEGIC>MOL_PROPERTY
U+W
SciTegic.value.DoubleValue
18.289

@<SCITEGIC>MOL_PROPERTY
Grad RMS
SciTegic.value.DoubleValue
0.000000

@<SCITEGIC>MOL_PROPERTY
U
SciTegic.value.DoubleValue
72.042

@<SCITEGIC>MOL_PROPERTY
W
SciTegic.value.DoubleValue
-53.753

@<SCITEGIC>MOL_PROPERTY
W(PB)
SciTegic.value.DoubleValue
-55.644

@<SCITEGIC>MOL_PROPERTY
W(SA)
SciTegic.value.DoubleValue
1.891

@<SCITEGIC>MOL_PROPERTY
Valence
SciTegic.value.DoubleValue
2.428

@<SCITEGIC>MOL_PROPERTY
Coulomb
SciTegic.value.DoubleValue
69.829

@<SCITEGIC>MOL_PROPERTY
VdW
SciTegic.value.DoubleValue
-0.215

@<SCITEGIC>MOL_PROPERTY
VdW6
SciTegic.value.DoubleValue
-4.563

@<SCITEGIC>MOL_PROPERTY
VdW12
SciTegic.value.DoubleValue
4.348

@<SCITEGIC>MOL_PROPERTY
Bond
SciTegic.value.DoubleValue
0.137

@<SCITEGIC>MOL_PROPERTY
Angle
SciTegic.value.DoubleValue
0.936

@<SCITEGIC>MOL_PROPERTY
Pdih
SciTegic.value.DoubleValue
1.356

@<SCITEGIC>MOL_PROPERTY
Idih
SciTegic.value.DoubleValue
0.000

@<SCITEGIC>MOL_PROPERTY
Tether
SciTegic.value.DoubleValue
0.000

@<TRIPOS>MOLECULE
guest-s9_confgen4.mol2 : confsearch ligand conformer 53
          20          19           1
SMALL
USER_CHARGES
 
@<TRIPOS>ATOM
       1    C1      20.534088   19.214422   24.383026 C.3        1 MOL1        -0.2224
       2    H1      20.956882   20.205600   24.592474 H          1 MOL1         0.1052
       3    H2      19.451753   19.326903   24.242761 H          1 MOL1         0.1052
       4    H3      20.689371   18.590101   25.272451 H          1 MOL1         0.1052
       5    C2      21.206078   18.573830   23.146817 C.3        1 MOL1        -0.1209
       6    H4      20.770169   17.583059   22.959416 H          1 MOL1         0.1041
       7    H5      22.268564   18.400142   23.367838 H          1 MOL1         0.1041
       8    C3      21.098371   19.450743   21.874528 C.3        1 MOL1        -0.1274
       9    H6      21.621630   20.400704   22.045728 H          1 MOL1         0.1041
      10    H7      21.627956   18.959819   21.047918 H          1 MOL1         0.1041
      11    C4      19.645970   19.760059   21.445125 C.3        1 MOL1         0.0313
      12    H8      19.655207   20.377547   20.543436 H          1 MOL1         0.1015
      13    H9      19.155485   20.332321   22.236340 H          1 MOL1         0.1015
      14    N1      18.780967   18.541494   21.161944 N.4        1 MOL1        -0.4809
      15    H10     17.802190   18.837035   21.021562 H          1 MOL1         0.3726
      16    H11     18.758450   17.925431   21.987815 H          1 MOL1         0.3726
      17    C5      19.275868   17.784553   19.934453 C.3        1 MOL1        -0.0677
      18    H12     20.289738   17.422900   20.116837 H          1 MOL1         0.1026
      19    H13     18.613004   16.937435   19.744954 H          1 MOL1         0.1026
      20    H14     19.271244   18.455335   19.072673 H          1 MOL1         0.1026
@<TRIPOS>BOND
    1     1     2    1
    2     1     3    1
    3     1     4    1
    4     1     5    1
    5     5     6    1
    6     5     7    1
    7     5     8    1
    8     8     9    1
    9     8    10    1
   10     8    11    1
   11    11    12    1
   12    11    13    1
   13    11    14    1
   14    14    15    1
   15    14    16    1
   16    14    17    1
   17    17    18    1
   18    17    19    1
   19    17    20    1
@<TRIPOS>SUBSTRUCTURE
       1 MOL1            1 RESIDUE      1      MOL     
@<SCITEGIC>MOL_PROPERTY
VConf Rank
SciTegic.value.IntegerValue
53

@<SCITEGIC>MOL_PROPERTY
Conf_Id
SciTegic.value.IntegerValue
52

@<SCITEGIC>MOL_PROPERTY
Delta U+W
SciTegic.value.DoubleValue
0.784

@<SCITEGIC>MOL_PROPERTY
U+W
SciTegic.value.DoubleValue
16.122

@<SCITEGIC>MOL_PROPERTY
Grad RMS
SciTegic.value.DoubleValue
0.000000

@<SCITEGIC>MOL_PROPERTY
U
SciTegic.value.DoubleValue
70.777

@<SCITEGIC>MOL_PROPERTY
W
SciTegic.value.DoubleValue
-54.655

@<SCITEGIC>MOL_PROPERTY
W(PB)
SciTegic.value.DoubleValue
-56.491

@<SCITEGIC>MOL_PROPERTY
W(SA)
SciTegic.value.DoubleValue
1.836

@<SCITEGIC>MOL_PROPERTY
Valence
SciTegic.value.DoubleValue
1.529

@<SCITEGIC>MOL_PROPERTY
Coulomb
SciTegic.value.DoubleValue
69.166

@<SCITEGIC>MOL_PROPERTY
VdW
SciTegic.value.DoubleValue
0.082

@<SCITEGIC>MOL_PROPERTY
VdW6
SciTegic.value.DoubleValue
-5.166

@<SCITEGIC>MOL_PROPERTY
VdW12
SciTegic.value.DoubleValue
5.248

@<SCITEGIC>MOL_PROPERTY
Bond
SciTegic.value.DoubleValue
0.171

@<SCITEGIC>MOL_PROPERTY
Angle
SciTegic.value.DoubleValue
0.752

@<SCITEGIC>MOL_PROPERTY
Pdih
SciTegic.value.DoubleValue
0.605

@<SCITEGIC>MOL_PROPERTY
Idih
SciTegic.value.DoubleValue
0.000

@<SCITEGIC>MOL_PROPERTY
Tether
SciTegic.value.DoubleValue
0.000

@<TRIPOS>MOLECULE
guest-s9_confgen4.mol2 : confsearch ligand conformer 54
          20          19           1
SMALL
USER_CHARGES
 
@<TRIPOS>ATOM
       1    C1      19.315055   17.152254   21.130781 C.3        1 MOL1        -0.2224
       2    H1      18.862464   16.346386   20.538407 H          1 MOL1         0.1052
       3    H2      20.367705   17.216430   20.832518 H          1 MOL1         0.1052
       4    H3      19.262541   16.858338   22.187268 H          1 MOL1         0.1052
       5    C2      18.570529   18.483518   20.880217 C.3        1 MOL1        -0.1209
       6    H4      17.490384   18.301181   20.970031 H          1 MOL1         0.1041
       7    H5      18.737996   18.808714   19.843771 H          1 MOL1         0.1041
       8    C3      18.953081   19.626101   21.855400 C.3        1 MOL1        -0.1274
       9    H6      18.299033   20.482124   21.643191 H          1 MOL1         0.1041
      10    H7      18.731780   19.332867   22.889296 H          1 MOL1         0.1041
      11    C4      20.415272   20.114338   21.732219 C.3        1 MOL1         0.0313
      12    H8      20.503732   21.103473   22.188520 H          1 MOL1         0.1015
      13    H9      20.670681   20.211685   20.674033 H          1 MOL1         0.1015
      14    N1      21.464772   19.229238   22.386175 N.4        1 MOL1        -0.4809
      15    H10     22.405659   19.531888   22.089033 H          1 MOL1         0.3726
      16    H11     21.372015   18.261762   22.046724 H          1 MOL1         0.3726
      17    C5      21.361636   19.280168   23.906534 C.3        1 MOL1        -0.0677
      18    H12     21.478381   20.313498   24.240064 H          1 MOL1         0.1026
      19    H13     20.387306   18.898632   24.217545 H          1 MOL1         0.1026
      20    H14     22.151696   18.662695   24.339484 H          1 MOL1         0.1026
@<TRIPOS>BOND
    1     1     2    1
    2     1     3    1
    3     1     4    1
    4     1     5    1
    5     5     6    1
    6     5     7    1
    7     5     8    1
    8     8     9    1
    9     8    10    1
   10     8    11    1
   11    11    12    1
   12    11    13    1
   13    11    14    1
   14    14    15    1
   15    14    16    1
   16    14    17    1
   17    17    18    1
   18    17    19    1
   19    17    20    1
@<TRIPOS>SUBSTRUCTURE
       1 MOL1            1 RESIDUE      1      MOL     
@<SCITEGIC>MOL_PROPERTY
VConf Rank
SciTegic.value.IntegerValue
54

@<SCITEGIC>MOL_PROPERTY
Conf_Id
SciTegic.value.IntegerValue
55

@<SCITEGIC>MOL_PROPERTY
Delta U+W
SciTegic.value.DoubleValue
2.745

@<SCITEGIC>MOL_PROPERTY
U+W
SciTegic.value.DoubleValue
18.083

@<SCITEGIC>MOL_PROPERTY
Grad RMS
SciTegic.value.DoubleValue
0.000000

@<SCITEGIC>MOL_PROPERTY
U
SciTegic.value.DoubleValue
72.490

@<SCITEGIC>MOL_PROPERTY
W
SciTegic.value.DoubleValue
-54.407

@<SCITEGIC>MOL_PROPERTY
W(PB)
SciTegic.value.DoubleValue
-56.269

@<SCITEGIC>MOL_PROPERTY
W(SA)
SciTegic.value.DoubleValue
1.861

@<SCITEGIC>MOL_PROPERTY
Valence
SciTegic.value.DoubleValue
2.738

@<SCITEGIC>MOL_PROPERTY
Coulomb
SciTegic.value.DoubleValue
69.795

@<SCITEGIC>MOL_PROPERTY
VdW
SciTegic.value.DoubleValue
-0.043

@<SCITEGIC>MOL_PROPERTY
VdW6
SciTegic.value.DoubleValue
-5.333

@<SCITEGIC>MOL_PROPERTY
VdW12
SciTegic.value.DoubleValue
5.290

@<SCITEGIC>MOL_PROPERTY
Bond
SciTegic.value.DoubleValue
0.182

@<SCITEGIC>MOL_PROPERTY
Angle
SciTegic.value.DoubleValue
1.135

@<SCITEGIC>MOL_PROPERTY
Pdih
SciTegic.value.DoubleValue
1.422

@<SCITEGIC>MOL_PROPERTY
Idih
SciTegic.value.DoubleValue
0.000

@<SCITEGIC>MOL_PROPERTY
Tether
SciTegic.value.DoubleValue
0.000

@<TRIPOS>MOLECULE
guest-s9_confgen4.mol2 : confsearch ligand conformer 55
          20          19           1
SMALL
USER_CHARGES
 
@<TRIPOS>ATOM
       1    C1      20.244621   19.461000   20.040537 C.3        1 MOL1        -0.2224
       2    H1      20.527863   19.895204   19.072855 H          1 MOL1         0.1052
       3    H2      19.954930   18.416764   19.864590 H          1 MOL1         0.1052
       4    H3      19.369606   20.016469   20.396844 H          1 MOL1         0.1052
       5    C2      21.423482   19.557048   21.035742 C.3        1 MOL1        -0.1209
       6    H4      21.613521   20.611786   21.279527 H          1 MOL1         0.1041
       7    H5      22.332161   19.192851   20.536054 H          1 MOL1         0.1041
       8    C3      21.228576   18.745040   22.341686 C.3        1 MOL1        -0.1274
       9    H6      21.098742   17.680247   22.110904 H          1 MOL1         0.1041
      10    H7      22.158907   18.811896   22.920996 H          1 MOL1         0.1041
      11    C4      20.078858   19.247207   23.245860 C.3        1 MOL1         0.0313
      12    H8      20.118424   20.338061   23.300085 H          1 MOL1         0.1015
      13    H9      20.220669   18.858140   24.257265 H          1 MOL1         0.1015
      14    N1      18.676040   18.852046   22.811742 N.4        1 MOL1        -0.4809
      15    H10     18.518672   19.127729   21.832419 H          1 MOL1         0.3726
      16    H11     17.982104   19.385544   23.358543 H          1 MOL1         0.3726
      17    C5      18.440628   17.356963   22.996210 C.3        1 MOL1        -0.0677
      18    H12     19.135924   16.799242   22.366028 H          1 MOL1         0.1026
      19    H13     18.599178   17.095018   24.044487 H          1 MOL1         0.1026
      20    H14     17.414248   17.118399   22.708907 H          1 MOL1         0.1026
@<TRIPOS>BOND
    1     1     2    1
    2     1     3    1
    3     1     4    1
    4     1     5    1
    5     5     6    1
    6     5     7    1
    7     5     8    1
    8     8     9    1
    9     8    10    1
   10     8    11    1
   11    11    12    1
   12    11    13    1
   13    11    14    1
   14    14    15    1
   15    14    16    1
   16    14    17    1
   17    17    18    1
   18    17    19    1
   19    17    20    1
@<TRIPOS>SUBSTRUCTURE
       1 MOL1            1 RESIDUE      1      MOL     
@<SCITEGIC>MOL_PROPERTY
VConf Rank
SciTegic.value.IntegerValue
55

@<SCITEGIC>MOL_PROPERTY
Conf_Id
SciTegic.value.IntegerValue
76

@<SCITEGIC>MOL_PROPERTY
Delta U+W
SciTegic.value.DoubleValue
2.799

@<SCITEGIC>MOL_PROPERTY
U+W
SciTegic.value.DoubleValue
18.137

@<SCITEGIC>MOL_PROPERTY
Grad RMS
SciTegic.value.DoubleValue
0.000000

@<SCITEGIC>MOL_PROPERTY
U
SciTegic.value.DoubleValue
72.490

@<SCITEGIC>MOL_PROPERTY
W
SciTegic.value.DoubleValue
-54.353

@<SCITEGIC>MOL_PROPERTY
W(PB)
SciTegic.value.DoubleValue
-56.201

@<SCITEGIC>MOL_PROPERTY
W(SA)
SciTegic.value.DoubleValue
1.848

@<SCITEGIC>MOL_PROPERTY
Valence
SciTegic.value.DoubleValue
2.738

@<SCITEGIC>MOL_PROPERTY
Coulomb
SciTegic.value.DoubleValue
69.795

@<SCITEGIC>MOL_PROPERTY
VdW
SciTegic.value.DoubleValue
-0.043

@<SCITEGIC>MOL_PROPERTY
VdW6
SciTegic.value.DoubleValue
-5.334

@<SCITEGIC>MOL_PROPERTY
VdW12
SciTegic.value.DoubleValue
5.290

@<SCITEGIC>MOL_PROPERTY
Bond
SciTegic.value.DoubleValue
0.182

@<SCITEGIC>MOL_PROPERTY
Angle
SciTegic.value.DoubleValue
1.135

@<SCITEGIC>MOL_PROPERTY
Pdih
SciTegic.value.DoubleValue
1.421

@<SCITEGIC>MOL_PROPERTY
Idih
SciTegic.value.DoubleValue
0.000

@<SCITEGIC>MOL_PROPERTY
Tether
SciTegic.value.DoubleValue
0.000

@<TRIPOS>MOLECULE
guest-s9_confgen4.mol2 : confsearch ligand conformer 56
          20          19           1
SMALL
USER_CHARGES
 
@<TRIPOS>ATOM
       1    C1      20.785231   20.166315   20.577428 C.3        1 MOL1        -0.2224
       2    H1      21.257792   20.216408   21.565976 H          1 MOL1         0.1052
       3    H2      21.535550   19.812673   19.858463 H          1 MOL1         0.1052
       4    H3      20.504308   21.188316   20.292048 H          1 MOL1         0.1052
       5    C2      19.544296   19.244028   20.582730 C.3        1 MOL1        -0.1209
       6    H4      19.068431   19.285256   19.592939 H          1 MOL1         0.1041
       7    H5      18.794752   19.623279   21.289209 H          1 MOL1         0.1041
       8    C3      19.885293   17.768887   20.906962 C.3        1 MOL1        -0.1274
       9    H6      18.970760   17.163924   20.851658 H          1 MOL1         0.1041
      10    H7      20.549405   17.381890   20.122849 H          1 MOL1         0.1041
      11    C4      20.565805   17.531871   22.275687 C.3        1 MOL1         0.0313
      12    H8      21.475726   18.130469   22.361076 H          1 MOL1         0.1015
      13    H9      20.857779   16.479755   22.325385 H          1 MOL1         0.1015
      14    N1      19.697445   17.797069   23.496573 N.4        1 MOL1        -0.4809
      15    H10     19.980623   17.161568   24.258642 H          1 MOL1         0.3726
      16    H11     18.716169   17.550105   23.299720 H          1 MOL1         0.3726
      17    C5      19.822531   19.239247   23.975868 C.3        1 MOL1        -0.0677
      18    H12     19.207344   19.373220   24.868349 H          1 MOL1         0.1026
      19    H13     20.867267   19.447035   24.216579 H          1 MOL1         0.1026
      20    H14     19.483466   19.918776   23.193374 H          1 MOL1         0.1026
@<TRIPOS>BOND
    1     1     2    1
    2     1     3    1
    3     1     4    1
    4     1     5    1
    5     5     6    1
    6     5     7    1
    7     5     8    1
    8     8     9    1
    9     8    10    1
   10     8    11    1
   11    11    12    1
   12    11    13    1
   13    11    14    1
   14    14    15    1
   15    14    16    1
   16    14    17    1
   17    17    18    1
   18    17    19    1
   19    17    20    1
@<TRIPOS>SUBSTRUCTURE
       1 MOL1            1 RESIDUE      1      MOL     
@<SCITEGIC>MOL_PROPERTY
VConf Rank
SciTegic.value.IntegerValue
56

@<SCITEGIC>MOL_PROPERTY
Conf_Id
SciTegic.value.IntegerValue
60

@<SCITEGIC>MOL_PROPERTY
Delta U+W
SciTegic.value.DoubleValue
1.788

@<SCITEGIC>MOL_PROPERTY
U+W
SciTegic.value.DoubleValue
17.127

@<SCITEGIC>MOL_PROPERTY
Grad RMS
SciTegic.value.DoubleValue
0.000000

@<SCITEGIC>MOL_PROPERTY
U
SciTegic.value.DoubleValue
72.122

@<SCITEGIC>MOL_PROPERTY
W
SciTegic.value.DoubleValue
-54.995

@<SCITEGIC>MOL_PROPERTY
W(PB)
SciTegic.value.DoubleValue
-56.810

@<SCITEGIC>MOL_PROPERTY
W(SA)
SciTegic.value.DoubleValue
1.815

@<SCITEGIC>MOL_PROPERTY
Valence
SciTegic.value.DoubleValue
3.197

@<SCITEGIC>MOL_PROPERTY
Coulomb
SciTegic.value.DoubleValue
69.115

@<SCITEGIC>MOL_PROPERTY
VdW
SciTegic.value.DoubleValue
-0.190

@<SCITEGIC>MOL_PROPERTY
VdW6
SciTegic.value.DoubleValue
-5.585

@<SCITEGIC>MOL_PROPERTY
VdW12
SciTegic.value.DoubleValue
5.395

@<SCITEGIC>MOL_PROPERTY
Bond
SciTegic.value.DoubleValue
0.177

@<SCITEGIC>MOL_PROPERTY
Angle
SciTegic.value.DoubleValue
1.207

@<SCITEGIC>MOL_PROPERTY
Pdih
SciTegic.value.DoubleValue
1.813

@<SCITEGIC>MOL_PROPERTY
Idih
SciTegic.value.DoubleValue
0.000

@<SCITEGIC>MOL_PROPERTY
Tether
SciTegic.value.DoubleValue
0.000

@<TRIPOS>MOLECULE
guest-s9_confgen4.mol2 : confsearch ligand conformer 57
          20          19           1
SMALL
USER_CHARGES
 
@<TRIPOS>ATOM
       1    C1      21.654836   17.842069   23.186757 C.3        1 MOL1        -0.2224
       2    H1      22.311759   16.970359   23.070920 H          1 MOL1         0.1052
       3    H2      21.968194   18.379037   24.091425 H          1 MOL1         0.1052
       4    H3      20.635670   17.469863   23.347423 H          1 MOL1         0.1052
       5    C2      21.740686   18.755288   21.942080 C.3        1 MOL1        -0.1209
       6    H4      21.446184   18.197916   21.043543 H          1 MOL1         0.1041
       7    H5      22.790093   19.041258   21.784607 H          1 MOL1         0.1041
       8    C3      20.891141   20.043060   22.073859 C.3        1 MOL1        -0.1274
       9    H6      21.279110   20.634820   22.913469 H          1 MOL1         0.1041
      10    H7      21.030820   20.663674   21.179021 H          1 MOL1         0.1041
      11    C4      19.377794   19.817751   22.301223 C.3        1 MOL1         0.0313
      12    H8      18.920973   20.791536   22.495450 H          1 MOL1         0.1015
      13    H9      19.210411   19.193913   23.182344 H          1 MOL1         0.1015
      14    N1      18.619864   19.211288   21.129606 N.4        1 MOL1        -0.4809
      15    H10     19.017603   19.538538   20.236657 H          1 MOL1         0.3726
      16    H11     17.651156   19.566817   21.131849 H          1 MOL1         0.3726
      17    C5      18.593586   17.688348   21.201760 C.3        1 MOL1        -0.0677
      18    H12     18.125069   17.382536   22.139609 H          1 MOL1         0.1026
      19    H13     18.015187   17.301226   20.360026 H          1 MOL1         0.1026
      20    H14     19.611145   17.299209   21.155220 H          1 MOL1         0.1026
@<TRIPOS>BOND
    1     1     2    1
    2     1     3    1
    3     1     4    1
    4     1     5    1
    5     5     6    1
    6     5     7    1
    7     5     8    1
    8     8     9    1
    9     8    10    1
   10     8    11    1
   11    11    12    1
   12    11    13    1
   13    11    14    1
   14    14    15    1
   15    14    16    1
   16    14    17    1
   17    17    18    1
   18    17    19    1
   19    17    20    1
@<TRIPOS>SUBSTRUCTURE
       1 MOL1            1 RESIDUE      1      MOL     
@<SCITEGIC>MOL_PROPERTY
VConf Rank
SciTegic.value.IntegerValue
57

@<SCITEGIC>MOL_PROPERTY
Conf_Id
SciTegic.value.IntegerValue
54

@<SCITEGIC>MOL_PROPERTY
Delta U+W
SciTegic.value.DoubleValue
1.880

@<SCITEGIC>MOL_PROPERTY
U+W
SciTegic.value.DoubleValue
17.218

@<SCITEGIC>MOL_PROPERTY
Grad RMS
SciTegic.value.DoubleValue
0.000000

@<SCITEGIC>MOL_PROPERTY
U
SciTegic.value.DoubleValue
72.122

@<SCITEGIC>MOL_PROPERTY
W
SciTegic.value.DoubleValue
-54.903

@<SCITEGIC>MOL_PROPERTY
W(PB)
SciTegic.value.DoubleValue
-56.724

@<SCITEGIC>MOL_PROPERTY
W(SA)
SciTegic.value.DoubleValue
1.821

@<SCITEGIC>MOL_PROPERTY
Valence
SciTegic.value.DoubleValue
3.197

@<SCITEGIC>MOL_PROPERTY
Coulomb
SciTegic.value.DoubleValue
69.115

@<SCITEGIC>MOL_PROPERTY
VdW
SciTegic.value.DoubleValue
-0.190

@<SCITEGIC>MOL_PROPERTY
VdW6
SciTegic.value.DoubleValue
-5.585

@<SCITEGIC>MOL_PROPERTY
VdW12
SciTegic.value.DoubleValue
5.395

@<SCITEGIC>MOL_PROPERTY
Bond
SciTegic.value.DoubleValue
0.177

@<SCITEGIC>MOL_PROPERTY
Angle
SciTegic.value.DoubleValue
1.207

@<SCITEGIC>MOL_PROPERTY
Pdih
SciTegic.value.DoubleValue
1.813

@<SCITEGIC>MOL_PROPERTY
Idih
SciTegic.value.DoubleValue
0.000

@<SCITEGIC>MOL_PROPERTY
Tether
SciTegic.value.DoubleValue
0.000

@<TRIPOS>MOLECULE
guest-s9_confgen4.mol2 : confsearch ligand conformer 58
          20          19           1
SMALL
USER_CHARGES
 
@<TRIPOS>ATOM
       1    C1      19.415552   15.926821   23.246772 C.3        1 MOL1        -0.2224
       2    H1      19.048662   16.273932   24.221494 H          1 MOL1         0.1052
       3    H2      18.821090   15.050809   22.956524 H          1 MOL1         0.1052
       4    H3      20.456504   15.600658   23.370107 H          1 MOL1         0.1052
       5    C2      19.303596   17.039332   22.181869 C.3        1 MOL1        -0.1209
       6    H4      18.248125   17.319587   22.056208 H          1 MOL1         0.1041
       7    H5      19.644972   16.651644   21.211554 H          1 MOL1         0.1041
       8    C3      20.131120   18.286184   22.564394 C.3        1 MOL1        -0.1274
       9    H6      19.787137   18.674916   23.532139 H          1 MOL1         0.1041
      10    H7      21.185904   18.006018   22.686469 H          1 MOL1         0.1041
      11    C4      20.014420   19.390751   21.497673 C.3        1 MOL1         0.0313
      12    H8      18.967350   19.682941   21.384722 H          1 MOL1         0.1015
      13    H9      20.370748   19.011953   20.536408 H          1 MOL1         0.1015
      14    N1      20.811639   20.636507   21.831198 N.4        1 MOL1        -0.4809
      15    H10     21.808222   20.399971   21.953796 H          1 MOL1         0.3726
      16    H11     20.508824   21.021238   22.739184 H          1 MOL1         0.3726
      17    C5      20.641025   21.673256   20.728829 C.3        1 MOL1        -0.0677
      18    H12     19.584108   21.933797   20.640219 H          1 MOL1         0.1026
      19    H13     21.219828   22.564364   20.981661 H          1 MOL1         0.1026
      20    H14     20.999489   21.257169   19.784803 H          1 MOL1         0.1026
@<TRIPOS>BOND
    1     1     2    1
    2     1     3    1
    3     1     4    1
    4     1     5    1
    5     5     6    1
    6     5     7    1
    7     5     8    1
    8     8     9    1
    9     8    10    1
   10     8    11    1
   11    11    12    1
   12    11    13    1
   13    11    14    1
   14    14    15    1
   15    14    16    1
   16    14    17    1
   17    17    18    1
   18    17    19    1
   19    17    20    1
@<TRIPOS>SUBSTRUCTURE
       1 MOL1            1 RESIDUE      1      MOL     
@<SCITEGIC>MOL_PROPERTY
VConf Rank
SciTegic.value.IntegerValue
58

@<SCITEGIC>MOL_PROPERTY
Conf_Id
SciTegic.value.IntegerValue
67

@<SCITEGIC>MOL_PROPERTY
Delta U+W
SciTegic.value.DoubleValue
0.000

@<SCITEGIC>MOL_PROPERTY
U+W
SciTegic.value.DoubleValue
15.338

@<SCITEGIC>MOL_PROPERTY
Grad RMS
SciTegic.value.DoubleValue
0.000000

@<SCITEGIC>MOL_PROPERTY
U
SciTegic.value.DoubleValue
69.277

@<SCITEGIC>MOL_PROPERTY
W
SciTegic.value.DoubleValue
-53.939

@<SCITEGIC>MOL_PROPERTY
W(PB)
SciTegic.value.DoubleValue
-55.889

@<SCITEGIC>MOL_PROPERTY
W(SA)
SciTegic.value.DoubleValue
1.950

@<SCITEGIC>MOL_PROPERTY
Valence
SciTegic.value.DoubleValue
0.846

@<SCITEGIC>MOL_PROPERTY
Coulomb
SciTegic.value.DoubleValue
68.557

@<SCITEGIC>MOL_PROPERTY
VdW
SciTegic.value.DoubleValue
-0.127

@<SCITEGIC>MOL_PROPERTY
VdW6
SciTegic.value.DoubleValue
-3.008

@<SCITEGIC>MOL_PROPERTY
VdW12
SciTegic.value.DoubleValue
2.882

@<SCITEGIC>MOL_PROPERTY
Bond
SciTegic.value.DoubleValue
0.088

@<SCITEGIC>MOL_PROPERTY
Angle
SciTegic.value.DoubleValue
0.332

@<SCITEGIC>MOL_PROPERTY
Pdih
SciTegic.value.DoubleValue
0.426

@<SCITEGIC>MOL_PROPERTY
Idih
SciTegic.value.DoubleValue
0.000

@<SCITEGIC>MOL_PROPERTY
Tether
SciTegic.value.DoubleValue
0.000

@<TRIPOS>MOLECULE
guest-s9_confgen4.mol2 : confsearch ligand conformer 59
          20          19           1
SMALL
USER_CHARGES
 
@<TRIPOS>ATOM
       1    C1      22.706816   17.895193   20.899091 C.3        1 MOL1        -0.2224
       2    H1      22.669975   17.031430   21.575645 H          1 MOL1         0.1052
       3    H2      23.187778   17.571597   19.966900 H          1 MOL1         0.1052
       4    H3      23.344969   18.661530   21.358064 H          1 MOL1         0.1052
       5    C2      21.290838   18.444369   20.620370 C.3        1 MOL1        -0.1209
       6    H4      20.687492   17.666897   20.130637 H          1 MOL1         0.1041
       7    H5      21.357433   19.284037   19.914090 H          1 MOL1         0.1041
       8    C3      20.589095   18.908188   21.915792 C.3        1 MOL1        -0.1274
       9    H6      20.524947   18.066827   22.617755 H          1 MOL1         0.1041
      10    H7      21.190140   19.687815   22.402154 H          1 MOL1         0.1041
      11    C4      19.176277   19.456347   21.626929 C.3        1 MOL1         0.0313
      12    H8      18.556351   18.671241   21.186835 H          1 MOL1         0.1015
      13    H9      19.253441   20.271641   20.903037 H          1 MOL1         0.1015
      14    N1      18.447478   20.001154   22.844631 N.4        1 MOL1        -0.4809
      15    H10     17.591211   20.492278   22.543151 H          1 MOL1         0.3726
      16    H11     19.017476   20.725103   23.308069 H          1 MOL1         0.3726
      17    C5      18.087654   18.886165   23.820768 C.3        1 MOL1        -0.0677
      18    H12     19.002074   18.414897   24.186322 H          1 MOL1         0.1026
      19    H13     17.533934   19.311212   24.660827 H          1 MOL1         0.1026
      20    H14     17.468553   18.146227   23.308994 H          1 MOL1         0.1026
@<TRIPOS>BOND
    1     1     2    1
    2     1     3    1
    3     1     4    1
    4     1     5    1
    5     5     6    1
    6     5     7    1
    7     5     8    1
    8     8     9    1
    9     8    10    1
   10     8    11    1
   11    11    12    1
   12    11    13    1
   13    11    14    1
   14    14    15    1
   15    14    16    1
   16    14    17    1
   17    17    18    1
   18    17    19    1
   19    17    20    1
@<TRIPOS>SUBSTRUCTURE
       1 MOL1            1 RESIDUE      1      MOL     
@<SCITEGIC>MOL_PROPERTY
VConf Rank
SciTegic.value.IntegerValue
59

@<SCITEGIC>MOL_PROPERTY
Conf_Id
SciTegic.value.IntegerValue
37

@<SCITEGIC>MOL_PROPERTY
Delta U+W
SciTegic.value.DoubleValue
-0.021

@<SCITEGIC>MOL_PROPERTY
U+W
SciTegic.value.DoubleValue
15.318

@<SCITEGIC>MOL_PROPERTY
Grad RMS
SciTegic.value.DoubleValue
0.000000

@<SCITEGIC>MOL_PROPERTY
U
SciTegic.value.DoubleValue
69.657

@<SCITEGIC>MOL_PROPERTY
W
SciTegic.value.DoubleValue
-54.340

@<SCITEGIC>MOL_PROPERTY
W(PB)
SciTegic.value.DoubleValue
-56.238

@<SCITEGIC>MOL_PROPERTY
W(SA)
SciTegic.value.DoubleValue
1.899

@<SCITEGIC>MOL_PROPERTY
Valence
SciTegic.value.DoubleValue
1.137

@<SCITEGIC>MOL_PROPERTY
Coulomb
SciTegic.value.DoubleValue
68.383

@<SCITEGIC>MOL_PROPERTY
VdW
SciTegic.value.DoubleValue
0.138

@<SCITEGIC>MOL_PROPERTY
VdW6
SciTegic.value.DoubleValue
-3.703

@<SCITEGIC>MOL_PROPERTY
VdW12
SciTegic.value.DoubleValue
3.841

@<SCITEGIC>MOL_PROPERTY
Bond
SciTegic.value.DoubleValue
0.125

@<SCITEGIC>MOL_PROPERTY
Angle
SciTegic.value.DoubleValue
0.468

@<SCITEGIC>MOL_PROPERTY
Pdih
SciTegic.value.DoubleValue
0.543

@<SCITEGIC>MOL_PROPERTY
Idih
SciTegic.value.DoubleValue
0.000

@<SCITEGIC>MOL_PROPERTY
Tether
SciTegic.value.DoubleValue
0.000

@<TRIPOS>MOLECULE
guest-s9_confgen4.mol2 : confsearch ligand conformer 60
          20          19           1
SMALL
USER_CHARGES
 
@<TRIPOS>ATOM
       1    C1      21.648355   18.670874   19.481444 C.3        1 MOL1        -0.2224
       2    H1      21.632121   18.953531   18.420849 H          1 MOL1         0.1052
       3    H2      22.439120   19.253037   19.972306 H          1 MOL1         0.1052
       4    H3      21.918671   17.608599   19.542030 H          1 MOL1         0.1052
       5    C2      20.275368   18.933769   20.137232 C.3        1 MOL1        -0.1209
       6    H4      19.500797   18.365597   19.602882 H          1 MOL1         0.1041
       7    H5      20.017274   19.996934   20.030489 H          1 MOL1         0.1041
       8    C3      20.268510   18.544507   21.631927 C.3        1 MOL1        -0.1274
       9    H6      20.522170   17.481429   21.737496 H          1 MOL1         0.1041
      10    H7      21.043237   19.114070   22.161221 H          1 MOL1         0.1041
      11    C4      18.892665   18.809262   22.277624 C.3        1 MOL1         0.0313
      12    H8      18.128308   18.261169   21.720821 H          1 MOL1         0.1015
      13    H9      18.654294   19.874261   22.219843 H          1 MOL1         0.1015
      14    N1      18.783833   18.383259   23.732764 N.4        1 MOL1        -0.4809
      15    H10     19.033670   17.387651   23.833363 H          1 MOL1         0.3726
      16    H11     17.798973   18.440222   24.036229 H          1 MOL1         0.3726
      17    C5      19.653486   19.254797   24.632566 C.3        1 MOL1        -0.0677
      18    H12     19.353470   20.298894   24.520501 H          1 MOL1         0.1026
      19    H13     19.519028   18.942921   25.670654 H          1 MOL1         0.1026
      20    H14     20.701039   19.137881   24.348225 H          1 MOL1         0.1026
@<TRIPOS>BOND
    1     1     2    1
    2     1     3    1
    3     1     4    1
    4     1     5    1
    5     5     6    1
    6     5     7    1
    7     5     8    1
    8     8     9    1
    9     8    10    1
   10     8    11    1
   11    11    12    1
   12    11    13    1
   13    11    14    1
   14    14    15    1
   15    14    16    1
   16    14    17    1
   17    17    18    1
   18    17    19    1
   19    17    20    1
@<TRIPOS>SUBSTRUCTURE
       1 MOL1            1 RESIDUE      1      MOL     
@<SCITEGIC>MOL_PROPERTY
VConf Rank
SciTegic.value.IntegerValue
60

@<SCITEGIC>MOL_PROPERTY
Conf_Id
SciTegic.value.IntegerValue
2

@<SCITEGIC>MOL_PROPERTY
Delta U+W
SciTegic.value.DoubleValue
0.069

@<SCITEGIC>MOL_PROPERTY
U+W
SciTegic.value.DoubleValue
15.407

@<SCITEGIC>MOL_PROPERTY
Grad RMS
SciTegic.value.DoubleValue
0.000000

@<SCITEGIC>MOL_PROPERTY
U
SciTegic.value.DoubleValue
69.657

@<SCITEGIC>MOL_PROPERTY
W
SciTegic.value.DoubleValue
-54.250

@<SCITEGIC>MOL_PROPERTY
W(PB)
SciTegic.value.DoubleValue
-56.176

@<SCITEGIC>MOL_PROPERTY
W(SA)
SciTegic.value.DoubleValue
1.926

@<SCITEGIC>MOL_PROPERTY
Valence
SciTegic.value.DoubleValue
1.137

@<SCITEGIC>MOL_PROPERTY
Coulomb
SciTegic.value.DoubleValue
68.383

@<SCITEGIC>MOL_PROPERTY
VdW
SciTegic.value.DoubleValue
0.138

@<SCITEGIC>MOL_PROPERTY
VdW6
SciTegic.value.DoubleValue
-3.703

@<SCITEGIC>MOL_PROPERTY
VdW12
SciTegic.value.DoubleValue
3.841

@<SCITEGIC>MOL_PROPERTY
Bond
SciTegic.value.DoubleValue
0.125

@<SCITEGIC>MOL_PROPERTY
Angle
SciTegic.value.DoubleValue
0.468

@<SCITEGIC>MOL_PROPERTY
Pdih
SciTegic.value.DoubleValue
0.543

@<SCITEGIC>MOL_PROPERTY
Idih
SciTegic.value.DoubleValue
0.000

@<SCITEGIC>MOL_PROPERTY
Tether
SciTegic.value.DoubleValue
0.000

@<TRIPOS>MOLECULE
guest-s9_confgen4.mol2 : confsearch ligand conformer 61
          20          19           1
SMALL
USER_CHARGES
 
@<TRIPOS>ATOM
       1    C1      17.961550   20.013171   23.150456 C.3        1 MOL1        -0.2224
       2    H1      17.626263   19.344725   22.347445 H          1 MOL1         0.1052
       3    H2      17.974631   19.442902   24.088391 H          1 MOL1         0.1052
       4    H3      17.211917   20.808483   23.253020 H          1 MOL1         0.1052
       5    C2      19.352496   20.615373   22.845645 C.3        1 MOL1        -0.1209
       6    H4      19.605517   21.346377   23.626432 H          1 MOL1         0.1041
       7    H5      19.313360   21.174795   21.900277 H          1 MOL1         0.1041
       8    C3      20.470649   19.549148   22.774397 C.3        1 MOL1        -0.1274
       9    H6      21.436144   20.052859   22.633147 H          1 MOL1         0.1041
      10    H7      20.531387   19.015001   23.731927 H          1 MOL1         0.1041
      11    C4      20.255648   18.538731   21.630685 C.3        1 MOL1         0.0313
      12    H8      20.197635   19.070294   20.677559 H          1 MOL1         0.1015
      13    H9      19.315347   18.003766   21.783700 H          1 MOL1         0.1015
      14    N1      21.361997   17.507836   21.522434 N.4        1 MOL1        -0.4809
      15    H10     21.454503   16.989636   22.409565 H          1 MOL1         0.3726
      16    H11     22.271501   17.974038   21.382565 H          1 MOL1         0.3726
      17    C5      21.070323   16.551523   20.373747 C.3        1 MOL1        -0.0677
      18    H12     21.010754   17.116771   19.441144 H          1 MOL1         0.1026
      19    H13     21.874226   15.815112   20.307087 H          1 MOL1         0.1026
      20    H14     20.121132   16.044357   20.559809 H          1 MOL1         0.1026
@<TRIPOS>BOND
    1     1     2    1
    2     1     3    1
    3     1     4    1
    4     1     5    1
    5     5     6    1
    6     5     7    1
    7     5     8    1
    8     8     9    1
    9     8    10    1
   10     8    11    1
   11    11    12    1
   12    11    13    1
   13    11    14    1
   14    14    15    1
   15    14    16    1
   16    14    17    1
   17    17    18    1
   18    17    19    1
   19    17    20    1
@<TRIPOS>SUBSTRUCTURE
       1 MOL1            1 RESIDUE      1      MOL     
@<SCITEGIC>MOL_PROPERTY
VConf Rank
SciTegic.value.IntegerValue
61

@<SCITEGIC>MOL_PROPERTY
Conf_Id
SciTegic.value.IntegerValue
34

@<SCITEGIC>MOL_PROPERTY
Delta U+W
SciTegic.value.DoubleValue
0.276

@<SCITEGIC>MOL_PROPERTY
U+W
SciTegic.value.DoubleValue
15.615

@<SCITEGIC>MOL_PROPERTY
Grad RMS
SciTegic.value.DoubleValue
0.000000

@<SCITEGIC>MOL_PROPERTY
U
SciTegic.value.DoubleValue
69.798

@<SCITEGIC>MOL_PROPERTY
W
SciTegic.value.DoubleValue
-54.184

@<SCITEGIC>MOL_PROPERTY
W(PB)
SciTegic.value.DoubleValue
-56.116

@<SCITEGIC>MOL_PROPERTY
W(SA)
SciTegic.value.DoubleValue
1.933

@<SCITEGIC>MOL_PROPERTY
Valence
SciTegic.value.DoubleValue
1.134

@<SCITEGIC>MOL_PROPERTY
Coulomb
SciTegic.value.DoubleValue
68.735

@<SCITEGIC>MOL_PROPERTY
VdW
SciTegic.value.DoubleValue
-0.070

@<SCITEGIC>MOL_PROPERTY
VdW6
SciTegic.value.DoubleValue
-3.565

@<SCITEGIC>MOL_PROPERTY
VdW12
SciTegic.value.DoubleValue
3.494

@<SCITEGIC>MOL_PROPERTY
Bond
SciTegic.value.DoubleValue
0.108

@<SCITEGIC>MOL_PROPERTY
Angle
SciTegic.value.DoubleValue
0.456

@<SCITEGIC>MOL_PROPERTY
Pdih
SciTegic.value.DoubleValue
0.569

@<SCITEGIC>MOL_PROPERTY
Idih
SciTegic.value.DoubleValue
0.000

@<SCITEGIC>MOL_PROPERTY
Tether
SciTegic.value.DoubleValue
0.000

@<TRIPOS>MOLECULE
guest-s9_confgen4.mol2 : confsearch ligand conformer 62
          20          19           1
SMALL
USER_CHARGES
 
@<TRIPOS>ATOM
       1    C1      18.068167   16.836729   23.239716 C.3        1 MOL1        -0.2224
       2    H1      17.995282   17.035959   24.316825 H          1 MOL1         0.1052
       3    H2      17.055270   16.639183   22.865494 H          1 MOL1         0.1052
       4    H3      18.661840   15.923814   23.100719 H          1 MOL1         0.1052
       5    C2      18.702031   18.031124   22.494288 C.3        1 MOL1        -0.1209
       6    H4      18.069025   18.920076   22.626168 H          1 MOL1         0.1041
       7    H5      18.721440   17.812627   21.418008 H          1 MOL1         0.1041
       8    C3      20.131926   18.329997   23.003463 C.3        1 MOL1        -0.1274
       9    H6      20.101434   18.507672   24.086692 H          1 MOL1         0.1041
      10    H7      20.777557   17.455274   22.848935 H          1 MOL1         0.1041
      11    C4      20.762880   19.562805   22.325510 C.3        1 MOL1         0.0313
      12    H8      21.729938   19.774385   22.788815 H          1 MOL1         0.1015
      13    H9      20.118075   20.432945   22.472204 H          1 MOL1         0.1015
      14    N1      20.996200   19.397980   20.835449 N.4        1 MOL1        -0.4809
      15    H10     20.105834   19.197877   20.356220 H          1 MOL1         0.3726
      16    H11     21.594624   18.576719   20.658064 H          1 MOL1         0.3726
      17    C5      21.635782   20.657668   20.267153 C.3        1 MOL1        -0.0677
      18    H12     20.970607   21.507082   20.436942 H          1 MOL1         0.1026
      19    H13     22.591987   20.831823   20.765277 H          1 MOL1         0.1026
      20    H14     21.797949   20.525559   19.195128 H          1 MOL1         0.1026
@<TRIPOS>BOND
    1     1     2    1
    2     1     3    1
    3     1     4    1
    4     1     5    1
    5     5     6    1
    6     5     7    1
    7     5     8    1
    8     8     9    1
    9     8    10    1
   10     8    11    1
   11    11    12    1
   12    11    13    1
   13    11    14    1
   14    14    15    1
   15    14    16    1
   16    14    17    1
   17    17    18    1
   18    17    19    1
   19    17    20    1
@<TRIPOS>SUBSTRUCTURE
       1 MOL1            1 RESIDUE      1      MOL     
@<SCITEGIC>MOL_PROPERTY
VConf Rank
SciTegic.value.IntegerValue
62

@<SCITEGIC>MOL_PROPERTY
Conf_Id
SciTegic.value.IntegerValue
50

@<SCITEGIC>MOL_PROPERTY
Delta U+W
SciTegic.value.DoubleValue
0.319

@<SCITEGIC>MOL_PROPERTY
U+W
SciTegic.value.DoubleValue
15.657

@<SCITEGIC>MOL_PROPERTY
Grad RMS
SciTegic.value.DoubleValue
0.000000

@<SCITEGIC>MOL_PROPERTY
U
SciTegic.value.DoubleValue
69.962

@<SCITEGIC>MOL_PROPERTY
W
SciTegic.value.DoubleValue
-54.305

@<SCITEGIC>MOL_PROPERTY
W(PB)
SciTegic.value.DoubleValue
-56.223

@<SCITEGIC>MOL_PROPERTY
W(SA)
SciTegic.value.DoubleValue
1.918

@<SCITEGIC>MOL_PROPERTY
Valence
SciTegic.value.DoubleValue
0.982

@<SCITEGIC>MOL_PROPERTY
Coulomb
SciTegic.value.DoubleValue
69.058

@<SCITEGIC>MOL_PROPERTY
VdW
SciTegic.value.DoubleValue
-0.078

@<SCITEGIC>MOL_PROPERTY
VdW6
SciTegic.value.DoubleValue
-3.548

@<SCITEGIC>MOL_PROPERTY
VdW12
SciTegic.value.DoubleValue
3.471

@<SCITEGIC>MOL_PROPERTY
Bond
SciTegic.value.DoubleValue
0.105

@<SCITEGIC>MOL_PROPERTY
Angle
SciTegic.value.DoubleValue
0.408

@<SCITEGIC>MOL_PROPERTY
Pdih
SciTegic.value.DoubleValue
0.469

@<SCITEGIC>MOL_PROPERTY
Idih
SciTegic.value.DoubleValue
0.000

@<SCITEGIC>MOL_PROPERTY
Tether
SciTegic.value.DoubleValue
0.000

@<TRIPOS>MOLECULE
guest-s9_confgen4.mol2 : confsearch ligand conformer 63
          20          19           1
SMALL
USER_CHARGES
 
@<TRIPOS>ATOM
       1    C1      17.175264   19.693242   22.327149 C.3        1 MOL1        -0.2224
       2    H1      16.826838   20.506332   22.977157 H          1 MOL1         0.1052
       3    H2      16.736946   19.847225   21.332494 H          1 MOL1         0.1052
       4    H3      16.784505   18.749811   22.730173 H          1 MOL1         0.1052
       5    C2      18.717628   19.672210   22.258645 C.3        1 MOL1        -0.1209
       6    H4      19.120104   19.557134   23.274157 H          1 MOL1         0.1041
       7    H5      19.078611   20.639794   21.882088 H          1 MOL1         0.1041
       8    C3      19.234667   18.533472   21.348076 C.3        1 MOL1        -0.1274
       9    H6      18.901237   17.561134   21.734392 H          1 MOL1         0.1041
      10    H7      18.793213   18.639843   20.348233 H          1 MOL1         0.1041
      11    C4      20.769922   18.532433   21.204772 C.3        1 MOL1         0.0313
      12    H8      21.104244   19.501933   20.826970 H          1 MOL1         0.1015
      13    H9      21.064792   17.766347   20.483119 H          1 MOL1         0.1015
      14    N1      21.511996   18.251944   22.498039 N.4        1 MOL1        -0.4809
      15    H10     21.212886   17.345964   22.890192 H          1 MOL1         0.3726
      16    H11     21.263853   18.954893   23.209896 H          1 MOL1         0.3726
      17    C5      23.013871   18.255452   22.246643 C.3        1 MOL1        -0.0677
      18    H12     23.535272   18.052697   23.184738 H          1 MOL1         0.1026
      19    H13     23.258049   17.481968   21.515284 H          1 MOL1         0.1026
      20    H14     23.312383   19.233663   21.863518 H          1 MOL1         0.1026
@<TRIPOS>BOND
    1     1     2    1
    2     1     3    1
    3     1     4    1
    4     1     5    1
    5     5     6    1
    6     5     7    1
    7     5     8    1
    8     8     9    1
    9     8    10    1
   10     8    11    1
   11    11    12    1
   12    11    13    1
   13    11    14    1
   14    14    15    1
   15    14    16    1
   16    14    17    1
   17    17    18    1
   18    17    19    1
   19    17    20    1
@<TRIPOS>SUBSTRUCTURE
       1 MOL1            1 RESIDUE      1      MOL     
@<SCITEGIC>MOL_PROPERTY
VConf Rank
SciTegic.value.IntegerValue
63

@<SCITEGIC>MOL_PROPERTY
Conf_Id
SciTegic.value.IntegerValue
35

@<SCITEGIC>MOL_PROPERTY
Delta U+W
SciTegic.value.DoubleValue
0.360

@<SCITEGIC>MOL_PROPERTY
U+W
SciTegic.value.DoubleValue
15.698

@<SCITEGIC>MOL_PROPERTY
Grad RMS
SciTegic.value.DoubleValue
0.000000

@<SCITEGIC>MOL_PROPERTY
U
SciTegic.value.DoubleValue
69.962

@<SCITEGIC>MOL_PROPERTY
W
SciTegic.value.DoubleValue
-54.264

@<SCITEGIC>MOL_PROPERTY
W(PB)
SciTegic.value.DoubleValue
-56.166

@<SCITEGIC>MOL_PROPERTY
W(SA)
SciTegic.value.DoubleValue
1.902

@<SCITEGIC>MOL_PROPERTY
Valence
SciTegic.value.DoubleValue
0.982

@<SCITEGIC>MOL_PROPERTY
Coulomb
SciTegic.value.DoubleValue
69.058

@<SCITEGIC>MOL_PROPERTY
VdW
SciTegic.value.DoubleValue
-0.078

@<SCITEGIC>MOL_PROPERTY
VdW6
SciTegic.value.DoubleValue
-3.548

@<SCITEGIC>MOL_PROPERTY
VdW12
SciTegic.value.DoubleValue
3.471

@<SCITEGIC>MOL_PROPERTY
Bond
SciTegic.value.DoubleValue
0.105

@<SCITEGIC>MOL_PROPERTY
Angle
SciTegic.value.DoubleValue
0.408

@<SCITEGIC>MOL_PROPERTY
Pdih
SciTegic.value.DoubleValue
0.469

@<SCITEGIC>MOL_PROPERTY
Idih
SciTegic.value.DoubleValue
0.000

@<SCITEGIC>MOL_PROPERTY
Tether
SciTegic.value.DoubleValue
0.000

@<TRIPOS>MOLECULE
guest-s9_confgen4.mol2 : confsearch ligand conformer 64
          20          19           1
SMALL
USER_CHARGES
 
@<TRIPOS>ATOM
       1    C1      19.667263   17.664539   19.699642 C.3        1 MOL1        -0.2224
       2    H1      18.934845   18.480837   19.735574 H          1 MOL1         0.1052
       3    H2      19.805355   17.390246   18.645760 H          1 MOL1         0.1052
       4    H3      19.239034   16.796726   20.217923 H          1 MOL1         0.1052
       5    C2      21.014791   18.081521   20.332495 C.3        1 MOL1        -0.1209
       6    H4      21.418831   18.953764   19.799474 H          1 MOL1         0.1041
       7    H5      21.742884   17.270105   20.192956 H          1 MOL1         0.1041
       8    C3      20.900064   18.399818   21.841600 C.3        1 MOL1        -0.1274
       9    H6      20.531718   17.513219   22.373553 H          1 MOL1         0.1041
      10    H7      21.901204   18.611997   22.239362 H          1 MOL1         0.1041
      11    C4      19.978146   19.605440   22.124458 C.3        1 MOL1         0.0313
      12    H8      18.961103   19.381659   21.793850 H          1 MOL1         0.1015
      13    H9      20.337096   20.467147   21.555963 H          1 MOL1         0.1015
      14    N1      19.912145   20.022088   23.584748 N.4        1 MOL1        -0.4809
      15    H10     19.414380   20.922659   23.664811 H          1 MOL1         0.3726
      16    H11     20.859594   20.211205   23.945711 H          1 MOL1         0.3726
      17    C5      19.209697   18.965606   24.430785 C.3        1 MOL1        -0.0677
      18    H12     19.778271   18.034351   24.393669 H          1 MOL1         0.1026
      19    H13     19.149032   19.316577   25.463307 H          1 MOL1         0.1026
      20    H14     18.203809   18.801373   24.038467 H          1 MOL1         0.1026
@<TRIPOS>BOND
    1     1     2    1
    2     1     3    1
    3     1     4    1
    4     1     5    1
    5     5     6    1
    6     5     7    1
    7     5     8    1
    8     8     9    1
    9     8    10    1
   10     8    11    1
   11    11    12    1
   12    11    13    1
   13    11    14    1
   14    14    15    1
   15    14    16    1
   16    14    17    1
   17    17    18    1
   18    17    19    1
   19    17    20    1
@<TRIPOS>SUBSTRUCTURE
       1 MOL1            1 RESIDUE      1      MOL     
@<SCITEGIC>MOL_PROPERTY
VConf Rank
SciTegic.value.IntegerValue
64

@<SCITEGIC>MOL_PROPERTY
Conf_Id
SciTegic.value.IntegerValue
33

@<SCITEGIC>MOL_PROPERTY
Delta U+W
SciTegic.value.DoubleValue
0.372

@<SCITEGIC>MOL_PROPERTY
U+W
SciTegic.value.DoubleValue
15.711

@<SCITEGIC>MOL_PROPERTY
Grad RMS
SciTegic.value.DoubleValue
0.000000

@<SCITEGIC>MOL_PROPERTY
U
SciTegic.value.DoubleValue
70.163

@<SCITEGIC>MOL_PROPERTY
W
SciTegic.value.DoubleValue
-54.452

@<SCITEGIC>MOL_PROPERTY
W(PB)
SciTegic.value.DoubleValue
-56.363

@<SCITEGIC>MOL_PROPERTY
W(SA)
SciTegic.value.DoubleValue
1.911

@<SCITEGIC>MOL_PROPERTY
Valence
SciTegic.value.DoubleValue
1.420

@<SCITEGIC>MOL_PROPERTY
Coulomb
SciTegic.value.DoubleValue
68.566

@<SCITEGIC>MOL_PROPERTY
VdW
SciTegic.value.DoubleValue
0.177

@<SCITEGIC>MOL_PROPERTY
VdW6
SciTegic.value.DoubleValue
-4.267

@<SCITEGIC>MOL_PROPERTY
VdW12
SciTegic.value.DoubleValue
4.445

@<SCITEGIC>MOL_PROPERTY
Bond
SciTegic.value.DoubleValue
0.146

@<SCITEGIC>MOL_PROPERTY
Angle
SciTegic.value.DoubleValue
0.581

@<SCITEGIC>MOL_PROPERTY
Pdih
SciTegic.value.DoubleValue
0.693

@<SCITEGIC>MOL_PROPERTY
Idih
SciTegic.value.DoubleValue
0.000

@<SCITEGIC>MOL_PROPERTY
Tether
SciTegic.value.DoubleValue
0.000

@<TRIPOS>MOLECULE
guest-s9_confgen4.mol2 : confsearch ligand conformer 65
          20          19           1
SMALL
USER_CHARGES
 
@<TRIPOS>ATOM
       1    C1      20.385585   21.290037   22.676540 C.3        1 MOL1        -0.2224
       2    H1      20.664306   22.188873   23.241678 H          1 MOL1         0.1052
       3    H2      21.139980   21.144990   21.893009 H          1 MOL1         0.1052
       4    H3      19.420572   21.485774   22.191223 H          1 MOL1         0.1052
       5    C2      20.298027   20.064740   23.615259 C.3        1 MOL1        -0.1209
       6    H4      19.600130   20.289398   24.434072 H          1 MOL1         0.1041
       7    H5      21.276547   19.887737   24.083592 H          1 MOL1         0.1041
       8    C3      19.826913   18.781992   22.891044 C.3        1 MOL1        -0.1274
       9    H6      19.714111   17.976159   23.628218 H          1 MOL1         0.1041
      10    H7      18.833181   18.952971   22.457487 H          1 MOL1         0.1041
      11    C4      20.810745   18.326926   21.791748 C.3        1 MOL1         0.0313
      12    H8      21.802212   18.200059   22.233863 H          1 MOL1         0.1015
      13    H9      20.881651   19.092778   21.015733 H          1 MOL1         0.1015
      14    N1      20.443848   17.014395   21.118657 N.4        1 MOL1        -0.4809
      15    H10     20.334510   16.269479   21.823542 H          1 MOL1         0.3726
      16    H11     21.226193   16.701328   20.522727 H          1 MOL1         0.3726
      17    C5      19.178912   17.157305   20.279084 C.3        1 MOL1        -0.0677
      18    H12     18.969339   16.206826   19.783474 H          1 MOL1         0.1026
      19    H13     18.341833   17.424510   20.926995 H          1 MOL1         0.1026
      20    H14     19.330987   17.937114   19.529770 H          1 MOL1         0.1026
@<TRIPOS>BOND
    1     1     2    1
    2     1     3    1
    3     1     4    1
    4     1     5    1
    5     5     6    1
    6     5     7    1
    7     5     8    1
    8     8     9    1
    9     8    10    1
   10     8    11    1
   11    11    12    1
   12    11    13    1
   13    11    14    1
   14    14    15    1
   15    14    16    1
   16    14    17    1
   17    17    18    1
   18    17    19    1
   19    17    20    1
@<TRIPOS>SUBSTRUCTURE
       1 MOL1            1 RESIDUE      1      MOL     
@<SCITEGIC>MOL_PROPERTY
VConf Rank
SciTegic.value.IntegerValue
65

@<SCITEGIC>MOL_PROPERTY
Conf_Id
SciTegic.value.IntegerValue
53

@<SCITEGIC>MOL_PROPERTY
Delta U+W
SciTegic.value.DoubleValue
0.379

@<SCITEGIC>MOL_PROPERTY
U+W
SciTegic.value.DoubleValue
15.717

@<SCITEGIC>MOL_PROPERTY
Grad RMS
SciTegic.value.DoubleValue
0.000000

@<SCITEGIC>MOL_PROPERTY
U
SciTegic.value.DoubleValue
70.163

@<SCITEGIC>MOL_PROPERTY
W
SciTegic.value.DoubleValue
-54.446

@<SCITEGIC>MOL_PROPERTY
W(PB)
SciTegic.value.DoubleValue
-56.322

@<SCITEGIC>MOL_PROPERTY
W(SA)
SciTegic.value.DoubleValue
1.876

@<SCITEGIC>MOL_PROPERTY
Valence
SciTegic.value.DoubleValue
1.420

@<SCITEGIC>MOL_PROPERTY
Coulomb
SciTegic.value.DoubleValue
68.566

@<SCITEGIC>MOL_PROPERTY
VdW
SciTegic.value.DoubleValue
0.177

@<SCITEGIC>MOL_PROPERTY
VdW6
SciTegic.value.DoubleValue
-4.267

@<SCITEGIC>MOL_PROPERTY
VdW12
SciTegic.value.DoubleValue
4.445

@<SCITEGIC>MOL_PROPERTY
Bond
SciTegic.value.DoubleValue
0.146

@<SCITEGIC>MOL_PROPERTY
Angle
SciTegic.value.DoubleValue
0.581

@<SCITEGIC>MOL_PROPERTY
Pdih
SciTegic.value.DoubleValue
0.693

@<SCITEGIC>MOL_PROPERTY
Idih
SciTegic.value.DoubleValue
0.000

@<SCITEGIC>MOL_PROPERTY
Tether
SciTegic.value.DoubleValue
0.000

@<TRIPOS>MOLECULE
guest-s9_confgen4.mol2 : confsearch ligand conformer 66
          20          19           1
SMALL
USER_CHARGES
 
@<TRIPOS>ATOM
       1    C1      19.019718   17.260386   19.957749 C.3        1 MOL1        -0.2224
       2    H1      18.279545   16.455837   20.056972 H          1 MOL1         0.1052
       3    H2      18.752750   17.855339   19.074627 H          1 MOL1         0.1052
       4    H3      19.997711   16.796672   19.774278 H          1 MOL1         0.1052
       5    C2      19.049038   18.134799   21.229954 C.3        1 MOL1        -0.1209
       6    H4      19.280796   17.500000   22.095965 H          1 MOL1         0.1041
       7    H5      18.049887   18.558488   21.404216 H          1 MOL1         0.1041
       8    C3      20.086815   19.276224   21.116427 C.3        1 MOL1        -0.1274
       9    H6      21.090833   18.857793   20.969442 H          1 MOL1         0.1041
      10    H7      19.869780   19.876271   20.222845 H          1 MOL1         0.1041
      11    C4      20.083903   20.214912   22.343422 C.3        1 MOL1         0.0313
      12    H8      19.093774   20.667295   22.441515 H          1 MOL1         0.1015
      13    H9      20.805784   21.020555   22.187473 H          1 MOL1         0.1015
      14    N1      20.414542   19.552113   23.672334 N.4        1 MOL1        -0.4809
      15    H10     19.757008   18.780748   23.858545 H          1 MOL1         0.3726
      16    H11     20.260100   20.223793   24.440591 H          1 MOL1         0.3726
      17    C5      21.855609   19.054659   23.700628 C.3        1 MOL1        -0.0677
      18    H12     22.529476   19.894896   23.520177 H          1 MOL1         0.1026
      19    H13     22.064692   18.619116   24.680178 H          1 MOL1         0.1026
      20    H14     21.992290   18.297208   22.926289 H          1 MOL1         0.1026
@<TRIPOS>BOND
    1     1     2    1
    2     1     3    1
    3     1     4    1
    4     1     5    1
    5     5     6    1
    6     5     7    1
    7     5     8    1
    8     8     9    1
    9     8    10    1
   10     8    11    1
   11    11    12    1
   12    11    13    1
   13    11    14    1
   14    14    15    1
   15    14    16    1
   16    14    17    1
   17    17    18    1
   18    17    19    1
   19    17    20    1
@<TRIPOS>SUBSTRUCTURE
       1 MOL1            1 RESIDUE      1      MOL     
@<SCITEGIC>MOL_PROPERTY
VConf Rank
SciTegic.value.IntegerValue
66

@<SCITEGIC>MOL_PROPERTY
Conf_Id
SciTegic.value.IntegerValue
49

@<SCITEGIC>MOL_PROPERTY
Delta U+W
SciTegic.value.DoubleValue
0.268

@<SCITEGIC>MOL_PROPERTY
U+W
SciTegic.value.DoubleValue
15.607

@<SCITEGIC>MOL_PROPERTY
Grad RMS
SciTegic.value.DoubleValue
0.000000

@<SCITEGIC>MOL_PROPERTY
U
SciTegic.value.DoubleValue
70.298

@<SCITEGIC>MOL_PROPERTY
W
SciTegic.value.DoubleValue
-54.692

@<SCITEGIC>MOL_PROPERTY
W(PB)
SciTegic.value.DoubleValue
-56.576

@<SCITEGIC>MOL_PROPERTY
W(SA)
SciTegic.value.DoubleValue
1.885

@<SCITEGIC>MOL_PROPERTY
Valence
SciTegic.value.DoubleValue
1.245

@<SCITEGIC>MOL_PROPERTY
Coulomb
SciTegic.value.DoubleValue
68.933

@<SCITEGIC>MOL_PROPERTY
VdW
SciTegic.value.DoubleValue
0.120

@<SCITEGIC>MOL_PROPERTY
VdW6
SciTegic.value.DoubleValue
-4.430

@<SCITEGIC>MOL_PROPERTY
VdW12
SciTegic.value.DoubleValue
4.550

@<SCITEGIC>MOL_PROPERTY
Bond
SciTegic.value.DoubleValue
0.148

@<SCITEGIC>MOL_PROPERTY
Angle
SciTegic.value.DoubleValue
0.587

@<SCITEGIC>MOL_PROPERTY
Pdih
SciTegic.value.DoubleValue
0.509

@<SCITEGIC>MOL_PROPERTY
Idih
SciTegic.value.DoubleValue
0.000

@<SCITEGIC>MOL_PROPERTY
Tether
SciTegic.value.DoubleValue
0.000

@<TRIPOS>MOLECULE
guest-s9_confgen4.mol2 : confsearch ligand conformer 67
          20          19           1
SMALL
USER_CHARGES
 
@<TRIPOS>ATOM
       1    C1      17.436228   18.990101   21.072880 C.3        1 MOL1        -0.2224
       2    H1      17.423164   18.275332   20.239750 H          1 MOL1         0.1052
       3    H2      16.731624   18.636924   21.837039 H          1 MOL1         0.1052
       4    H3      17.067490   19.952792   20.695711 H          1 MOL1         0.1052
       5    C2      18.858914   19.140655   21.653938 C.3        1 MOL1        -0.1209
       6    H4      18.845479   19.881606   22.465604 H          1 MOL1         0.1041
       7    H5      19.521520   19.532350   20.870946 H          1 MOL1         0.1041
       8    C3      19.406869   17.794733   22.182958 C.3        1 MOL1        -0.1274
       9    H6      18.677051   17.359271   22.878295 H          1 MOL1         0.1041
      10    H7      19.504849   17.081898   21.353608 H          1 MOL1         0.1041
      11    C4      20.758715   17.909809   22.923296 C.3        1 MOL1         0.0313
      12    H8      21.017353   16.919842   23.307765 H          1 MOL1         0.1015
      13    H9      20.667337   18.583477   23.778935 H          1 MOL1         0.1015
      14    N1      21.935063   18.371042   22.076695 N.4        1 MOL1        -0.4809
      15    H10     21.832302   18.038467   21.106296 H          1 MOL1         0.3726
      16    H11     22.798183   17.921106   22.419608 H          1 MOL1         0.3726
      17    C5      22.102808   19.886063   22.133422 C.3        1 MOL1        -0.0677
      18    H12     22.969200   20.171935   21.532923 H          1 MOL1         0.1026
      19    H13     21.209164   20.371845   21.740070 H          1 MOL1         0.1026
      20    H14     22.259923   20.189980   23.170552 H          1 MOL1         0.1026
@<TRIPOS>BOND
    1     1     2    1
    2     1     3    1
    3     1     4    1
    4     1     5    1
    5     5     6    1
    6     5     7    1
    7     5     8    1
    8     8     9    1
    9     8    10    1
   10     8    11    1
   11    11    12    1
   12    11    13    1
   13    11    14    1
   14    14    15    1
   15    14    16    1
   16    14    17    1
   17    17    18    1
   18    17    19    1
   19    17    20    1
@<TRIPOS>SUBSTRUCTURE
       1 MOL1            1 RESIDUE      1      MOL     
@<SCITEGIC>MOL_PROPERTY
VConf Rank
SciTegic.value.IntegerValue
67

@<SCITEGIC>MOL_PROPERTY
Conf_Id
SciTegic.value.IntegerValue
65

@<SCITEGIC>MOL_PROPERTY
Delta U+W
SciTegic.value.DoubleValue
1.775

@<SCITEGIC>MOL_PROPERTY
U+W
SciTegic.value.DoubleValue
17.114

@<SCITEGIC>MOL_PROPERTY
Grad RMS
SciTegic.value.DoubleValue
0.000000

@<SCITEGIC>MOL_PROPERTY
U
SciTegic.value.DoubleValue
71.726

@<SCITEGIC>MOL_PROPERTY
W
SciTegic.value.DoubleValue
-54.613

@<SCITEGIC>MOL_PROPERTY
W(PB)
SciTegic.value.DoubleValue
-56.495

@<SCITEGIC>MOL_PROPERTY
W(SA)
SciTegic.value.DoubleValue
1.883

@<SCITEGIC>MOL_PROPERTY
Valence
SciTegic.value.DoubleValue
2.885

@<SCITEGIC>MOL_PROPERTY
Coulomb
SciTegic.value.DoubleValue
68.822

@<SCITEGIC>MOL_PROPERTY
VdW
SciTegic.value.DoubleValue
0.019

@<SCITEGIC>MOL_PROPERTY
VdW6
SciTegic.value.DoubleValue
-4.600

@<SCITEGIC>MOL_PROPERTY
VdW12
SciTegic.value.DoubleValue
4.619

@<SCITEGIC>MOL_PROPERTY
Bond
SciTegic.value.DoubleValue
0.152

@<SCITEGIC>MOL_PROPERTY
Angle
SciTegic.value.DoubleValue
0.862

@<SCITEGIC>MOL_PROPERTY
Pdih
SciTegic.value.DoubleValue
1.871

@<SCITEGIC>MOL_PROPERTY
Idih
SciTegic.value.DoubleValue
0.000

@<SCITEGIC>MOL_PROPERTY
Tether
SciTegic.value.DoubleValue
0.000

@<TRIPOS>MOLECULE
guest-s9_confgen4.mol2 : confsearch ligand conformer 68
          20          19           1
SMALL
USER_CHARGES
 
@<TRIPOS>ATOM
       1    C1      18.875214   19.940832   20.365360 C.3        1 MOL1        -0.2224
       2    H1      18.940419   18.851548   20.250413 H          1 MOL1         0.1052
       3    H2      17.852265   20.240332   20.102957 H          1 MOL1         0.1052
       4    H3      19.555729   20.403326   19.638675 H          1 MOL1         0.1052
       5    C2      19.216925   20.383435   21.806715 C.3        1 MOL1        -0.1209
       6    H4      18.522896   19.908852   22.513612 H          1 MOL1         0.1041
       7    H5      19.047793   21.465644   21.897408 H          1 MOL1         0.1041
       8    C3      20.681068   20.072705   22.206380 C.3        1 MOL1        -0.1274
       9    H6      21.360659   20.636978   21.554064 H          1 MOL1         0.1041
      10    H7      20.865601   20.435345   23.226275 H          1 MOL1         0.1041
      11    C4      21.049900   18.576586   22.125399 C.3        1 MOL1         0.0313
      12    H8      22.102181   18.448022   22.391323 H          1 MOL1         0.1015
      13    H9      20.913198   18.218766   21.102147 H          1 MOL1         0.1015
      14    N1      20.231725   17.689618   23.044355 N.4        1 MOL1        -0.4809
      15    H10     19.228656   17.788889   22.828744 H          1 MOL1         0.3726
      16    H11     20.335543   17.999439   24.022686 H          1 MOL1         0.3726
      17    C5      20.669583   16.239149   22.892902 C.3        1 MOL1        -0.0677
      18    H12     21.725972   16.152964   23.156298 H          1 MOL1         0.1026
      19    H13     20.071982   15.612493   23.558593 H          1 MOL1         0.1026
      20    H14     20.519915   15.924193   21.857932 H          1 MOL1         0.1026
@<TRIPOS>BOND
    1     1     2    1
    2     1     3    1
    3     1     4    1
    4     1     5    1
    5     5     6    1
    6     5     7    1
    7     5     8    1
    8     8     9    1
    9     8    10    1
   10     8    11    1
   11    11    12    1
   12    11    13    1
   13    11    14    1
   14    14    15    1
   15    14    16    1
   16    14    17    1
   17    17    18    1
   18    17    19    1
   19    17    20    1
@<TRIPOS>SUBSTRUCTURE
       1 MOL1            1 RESIDUE      1      MOL     
@<SCITEGIC>MOL_PROPERTY
VConf Rank
SciTegic.value.IntegerValue
68

@<SCITEGIC>MOL_PROPERTY
Conf_Id
SciTegic.value.IntegerValue
23

@<SCITEGIC>MOL_PROPERTY
Delta U+W
SciTegic.value.DoubleValue
0.896

@<SCITEGIC>MOL_PROPERTY
U+W
SciTegic.value.DoubleValue
16.234

@<SCITEGIC>MOL_PROPERTY
Grad RMS
SciTegic.value.DoubleValue
0.000000

@<SCITEGIC>MOL_PROPERTY
U
SciTegic.value.DoubleValue
70.374

@<SCITEGIC>MOL_PROPERTY
W
SciTegic.value.DoubleValue
-54.140

@<SCITEGIC>MOL_PROPERTY
W(PB)
SciTegic.value.DoubleValue
-56.046

@<SCITEGIC>MOL_PROPERTY
W(SA)
SciTegic.value.DoubleValue
1.907

@<SCITEGIC>MOL_PROPERTY
Valence
SciTegic.value.DoubleValue
1.257

@<SCITEGIC>MOL_PROPERTY
Coulomb
SciTegic.value.DoubleValue
69.240

@<SCITEGIC>MOL_PROPERTY
VdW
SciTegic.value.DoubleValue
-0.123

@<SCITEGIC>MOL_PROPERTY
VdW6
SciTegic.value.DoubleValue
-4.336

@<SCITEGIC>MOL_PROPERTY
VdW12
SciTegic.value.DoubleValue
4.213

@<SCITEGIC>MOL_PROPERTY
Bond
SciTegic.value.DoubleValue
0.128

@<SCITEGIC>MOL_PROPERTY
Angle
SciTegic.value.DoubleValue
0.603

@<SCITEGIC>MOL_PROPERTY
Pdih
SciTegic.value.DoubleValue
0.526

@<SCITEGIC>MOL_PROPERTY
Idih
SciTegic.value.DoubleValue
0.000

@<SCITEGIC>MOL_PROPERTY
Tether
SciTegic.value.DoubleValue
0.000

@<TRIPOS>MOLECULE
guest-s9_confgen4.mol2 : confsearch ligand conformer 69
          20          19           1
SMALL
USER_CHARGES
 
@<TRIPOS>ATOM
       1    C1      20.937204   18.429703   24.232669 C.3        1 MOL1        -0.2224
       2    H1      20.449221   19.108017   24.944592 H          1 MOL1         0.1052
       3    H2      21.606642   17.772319   24.802473 H          1 MOL1         0.1052
       4    H3      21.559806   19.031143   23.558398 H          1 MOL1         0.1052
       5    C2      19.893351   17.596865   23.453617 C.3        1 MOL1        -0.1209
       6    H4      19.359480   16.944011   24.158435 H          1 MOL1         0.1041
       7    H5      20.405531   16.926866   22.749782 H          1 MOL1         0.1041
       8    C3      18.858216   18.470390   22.701655 C.3        1 MOL1        -0.1274
       9    H6      18.132758   17.820818   22.194201 H          1 MOL1         0.1041
      10    H7      18.284419   19.057860   23.430629 H          1 MOL1         0.1041
      11    C4      19.481491   19.436154   21.672190 C.3        1 MOL1         0.0313
      12    H8      20.170661   20.117349   22.176951 H          1 MOL1         0.1015
      13    H9      18.691001   20.034093   21.211611 H          1 MOL1         0.1015
      14    N1      20.241661   18.742404   20.557983 N.4        1 MOL1        -0.4809
      15    H10     19.620837   18.087842   20.057959 H          1 MOL1         0.3726
      16    H11     20.994305   18.160191   20.954271 H          1 MOL1         0.3726
      17    C5      20.815067   19.775608   19.597660 C.3        1 MOL1        -0.0677
      18    H12     21.493460   20.435809   20.142341 H          1 MOL1         0.1026
      19    H13     21.360133   19.262659   18.802200 H          1 MOL1         0.1026
      20    H14     19.998225   20.358861   19.167137 H          1 MOL1         0.1026
@<TRIPOS>BOND
    1     1     2    1
    2     1     3    1
    3     1     4    1
    4     1     5    1
    5     5     6    1
    6     5     7    1
    7     5     8    1
    8     8     9    1
    9     8    10    1
   10     8    11    1
   11    11    12    1
   12    11    13    1
   13    11    14    1
   14    14    15    1
   15    14    16    1
   16    14    17    1
   17    17    18    1
   18    17    19    1
   19    17    20    1
@<TRIPOS>SUBSTRUCTURE
       1 MOL1            1 RESIDUE      1      MOL     
@<SCITEGIC>MOL_PROPERTY
VConf Rank
SciTegic.value.IntegerValue
69

@<SCITEGIC>MOL_PROPERTY
Conf_Id
SciTegic.value.IntegerValue
24

@<SCITEGIC>MOL_PROPERTY
Delta U+W
SciTegic.value.DoubleValue
0.792

@<SCITEGIC>MOL_PROPERTY
U+W
SciTegic.value.DoubleValue
16.130

@<SCITEGIC>MOL_PROPERTY
Grad RMS
SciTegic.value.DoubleValue
0.000000

@<SCITEGIC>MOL_PROPERTY
U
SciTegic.value.DoubleValue
70.374

@<SCITEGIC>MOL_PROPERTY
W
SciTegic.value.DoubleValue
-54.243

@<SCITEGIC>MOL_PROPERTY
W(PB)
SciTegic.value.DoubleValue
-56.130

@<SCITEGIC>MOL_PROPERTY
W(SA)
SciTegic.value.DoubleValue
1.887

@<SCITEGIC>MOL_PROPERTY
Valence
SciTegic.value.DoubleValue
1.257

@<SCITEGIC>MOL_PROPERTY
Coulomb
SciTegic.value.DoubleValue
69.240

@<SCITEGIC>MOL_PROPERTY
VdW
SciTegic.value.DoubleValue
-0.123

@<SCITEGIC>MOL_PROPERTY
VdW6
SciTegic.value.DoubleValue
-4.336

@<SCITEGIC>MOL_PROPERTY
VdW12
SciTegic.value.DoubleValue
4.213

@<SCITEGIC>MOL_PROPERTY
Bond
SciTegic.value.DoubleValue
0.128

@<SCITEGIC>MOL_PROPERTY
Angle
SciTegic.value.DoubleValue
0.603

@<SCITEGIC>MOL_PROPERTY
Pdih
SciTegic.value.DoubleValue
0.526

@<SCITEGIC>MOL_PROPERTY
Idih
SciTegic.value.DoubleValue
0.000

@<SCITEGIC>MOL_PROPERTY
Tether
SciTegic.value.DoubleValue
0.000

@<TRIPOS>MOLECULE
guest-s9_confgen4.mol2 : confsearch ligand conformer 70
          20          19           1
SMALL
USER_CHARGES
 
@<TRIPOS>ATOM
       1    C1      20.125795   18.998351   19.878494 C.3        1 MOL1        -0.2224
       2    H1      20.509524   19.223171   18.874786 H          1 MOL1         0.1052
       3    H2      20.813565   18.273613   20.329909 H          1 MOL1         0.1052
       4    H3      19.140839   18.528346   19.759670 H          1 MOL1         0.1052
       5    C2      20.033399   20.292968   20.718071 C.3        1 MOL1        -0.1209
       6    H4      19.511826   21.058189   20.126070 H          1 MOL1         0.1041
       7    H5      21.044376   20.685181   20.897514 H          1 MOL1         0.1041
       8    C3      19.290659   20.130512   22.068917 C.3        1 MOL1        -0.1274
       9    H6      19.226732   21.120108   22.540543 H          1 MOL1         0.1041
      10    H7      18.254084   19.810553   21.899087 H          1 MOL1         0.1041
      11    C4      19.981333   19.176590   23.066558 C.3        1 MOL1         0.0313
      12    H8      19.628612   19.399705   24.076682 H          1 MOL1         0.1015
      13    H9      21.062189   19.336076   23.042094 H          1 MOL1         0.1015
      14    N1      19.706932   17.705589   22.817847 N.4        1 MOL1        -0.4809
      15    H10     19.974101   17.455093   21.855303 H          1 MOL1         0.3726
      16    H11     18.694356   17.518613   22.878994 H          1 MOL1         0.3726
      17    C5      20.469389   16.855609   23.825123 C.3        1 MOL1        -0.0677
      18    H12     21.539638   17.045905   23.719656 H          1 MOL1         0.1026
      19    H13     20.145390   17.117266   24.834739 H          1 MOL1         0.1026
      20    H14     20.262353   15.800332   23.634084 H          1 MOL1         0.1026
@<TRIPOS>BOND
    1     1     2    1
    2     1     3    1
    3     1     4    1
    4     1     5    1
    5     5     6    1
    6     5     7    1
    7     5     8    1
    8     8     9    1
    9     8    10    1
   10     8    11    1
   11    11    12    1
   12    11    13    1
   13    11    14    1
   14    14    15    1
   15    14    16    1
   16    14    17    1
   17    17    18    1
   18    17    19    1
   19    17    20    1
@<TRIPOS>SUBSTRUCTURE
       1 MOL1            1 RESIDUE      1      MOL     
@<SCITEGIC>MOL_PROPERTY
VConf Rank
SciTegic.value.IntegerValue
70

@<SCITEGIC>MOL_PROPERTY
Conf_Id
SciTegic.value.IntegerValue
26

@<SCITEGIC>MOL_PROPERTY
Delta U+W
SciTegic.value.DoubleValue
2.888

@<SCITEGIC>MOL_PROPERTY
U+W
SciTegic.value.DoubleValue
18.226

@<SCITEGIC>MOL_PROPERTY
Grad RMS
SciTegic.value.DoubleValue
0.000000

@<SCITEGIC>MOL_PROPERTY
U
SciTegic.value.DoubleValue
72.042

@<SCITEGIC>MOL_PROPERTY
W
SciTegic.value.DoubleValue
-53.816

@<SCITEGIC>MOL_PROPERTY
W(PB)
SciTegic.value.DoubleValue
-55.689

@<SCITEGIC>MOL_PROPERTY
W(SA)
SciTegic.value.DoubleValue
1.873

@<SCITEGIC>MOL_PROPERTY
Valence
SciTegic.value.DoubleValue
2.428

@<SCITEGIC>MOL_PROPERTY
Coulomb
SciTegic.value.DoubleValue
69.829

@<SCITEGIC>MOL_PROPERTY
VdW
SciTegic.value.DoubleValue
-0.215

@<SCITEGIC>MOL_PROPERTY
VdW6
SciTegic.value.DoubleValue
-4.563

@<SCITEGIC>MOL_PROPERTY
VdW12
SciTegic.value.DoubleValue
4.348

@<SCITEGIC>MOL_PROPERTY
Bond
SciTegic.value.DoubleValue
0.137

@<SCITEGIC>MOL_PROPERTY
Angle
SciTegic.value.DoubleValue
0.936

@<SCITEGIC>MOL_PROPERTY
Pdih
SciTegic.value.DoubleValue
1.356

@<SCITEGIC>MOL_PROPERTY
Idih
SciTegic.value.DoubleValue
0.000

@<SCITEGIC>MOL_PROPERTY
Tether
SciTegic.value.DoubleValue
0.000

@<TRIPOS>MOLECULE
guest-s9_confgen4.mol2 : confsearch ligand conformer 71
          20          19           1
SMALL
USER_CHARGES
 
@<TRIPOS>ATOM
       1    C1      20.016014   20.737343   23.212324 C.3        1 MOL1        -0.2224
       2    H1      20.311696   21.616653   23.799355 H          1 MOL1         0.1052
       3    H2      18.918866   20.704727   23.193123 H          1 MOL1         0.1052
       4    H3      20.388765   19.855204   23.746120 H          1 MOL1         0.1052
       5    C2      20.600947   20.826363   21.784252 C.3        1 MOL1        -0.1209
       6    H4      21.697058   20.761403   21.833523 H          1 MOL1         0.1041
       7    H5      20.374141   21.820467   21.373908 H          1 MOL1         0.1041
       8    C3      20.059746   19.757202   20.800976 C.3        1 MOL1        -0.1274
       9    H6      18.972707   19.860054   20.684901 H          1 MOL1         0.1041
      10    H7      20.488729   19.960726   19.810840 H          1 MOL1         0.1041
      11    C4      20.415533   18.303694   21.179148 C.3        1 MOL1         0.0313
      12    H8      21.446598   18.257402   21.538377 H          1 MOL1         0.1015
      13    H9      20.338093   17.673921   20.289242 H          1 MOL1         0.1015
      14    N1      19.511683   17.692301   22.232834 N.4        1 MOL1        -0.4809
      15    H10     18.535272   17.683323   21.900350 H          1 MOL1         0.3726
      16    H11     19.507800   18.280545   23.078159 H          1 MOL1         0.3726
      17    C5      19.977013   16.280658   22.563202 C.3        1 MOL1        -0.0677
      18    H12     21.000134   16.318663   22.943394 H          1 MOL1         0.1026
      19    H13     19.317697   15.853674   23.322121 H          1 MOL1         0.1026
      20    H14     19.941451   15.669428   21.658824 H          1 MOL1         0.1026
@<TRIPOS>BOND
    1     1     2    1
    2     1     3    1
    3     1     4    1
    4     1     5    1
    5     5     6    1
    6     5     7    1
    7     5     8    1
    8     8     9    1
    9     8    10    1
   10     8    11    1
   11    11    12    1
   12    11    13    1
   13    11    14    1
   14    14    15    1
   15    14    16    1
   16    14    17    1
   17    17    18    1
   18    17    19    1
   19    17    20    1
@<TRIPOS>SUBSTRUCTURE
       1 MOL1            1 RESIDUE      1      MOL     
@<SCITEGIC>MOL_PROPERTY
VConf Rank
SciTegic.value.IntegerValue
71

@<SCITEGIC>MOL_PROPERTY
Conf_Id
SciTegic.value.IntegerValue
5

@<SCITEGIC>MOL_PROPERTY
Delta U+W
SciTegic.value.DoubleValue
2.950

@<SCITEGIC>MOL_PROPERTY
U+W
SciTegic.value.DoubleValue
18.289

@<SCITEGIC>MOL_PROPERTY
Grad RMS
SciTegic.value.DoubleValue
0.000000

@<SCITEGIC>MOL_PROPERTY
U
SciTegic.value.DoubleValue
72.042

@<SCITEGIC>MOL_PROPERTY
W
SciTegic.value.DoubleValue
-53.753

@<SCITEGIC>MOL_PROPERTY
W(PB)
SciTegic.value.DoubleValue
-55.644

@<SCITEGIC>MOL_PROPERTY
W(SA)
SciTegic.value.DoubleValue
1.891

@<SCITEGIC>MOL_PROPERTY
Valence
SciTegic.value.DoubleValue
2.428

@<SCITEGIC>MOL_PROPERTY
Coulomb
SciTegic.value.DoubleValue
69.829

@<SCITEGIC>MOL_PROPERTY
VdW
SciTegic.value.DoubleValue
-0.215

@<SCITEGIC>MOL_PROPERTY
VdW6
SciTegic.value.DoubleValue
-4.563

@<SCITEGIC>MOL_PROPERTY
VdW12
SciTegic.value.DoubleValue
4.348

@<SCITEGIC>MOL_PROPERTY
Bond
SciTegic.value.DoubleValue
0.137

@<SCITEGIC>MOL_PROPERTY
Angle
SciTegic.value.DoubleValue
0.936

@<SCITEGIC>MOL_PROPERTY
Pdih
SciTegic.value.DoubleValue
1.356

@<SCITEGIC>MOL_PROPERTY
Idih
SciTegic.value.DoubleValue
0.000

@<SCITEGIC>MOL_PROPERTY
Tether
SciTegic.value.DoubleValue
0.000

@<TRIPOS>MOLECULE
guest-s9_confgen4.mol2 : confsearch ligand conformer 72
          20          19           1
SMALL
USER_CHARGES
 
@<TRIPOS>ATOM
       1    C1      18.787160   20.236634   20.458511 C.3        1 MOL1        -0.2224
       2    H1      17.957952   20.767928   20.943482 H          1 MOL1         0.1052
       3    H2      19.715861   20.777271   20.679877 H          1 MOL1         0.1052
       4    H3      18.626410   20.285419   19.373732 H          1 MOL1         0.1052
       5    C2      18.856568   18.766172   20.930810 C.3        1 MOL1        -0.1209
       6    H4      19.689957   18.254742   20.430147 H          1 MOL1         0.1041
       7    H5      17.944269   18.244432   20.609264 H          1 MOL1         0.1041
       8    C3      18.994715   18.627862   22.467391 C.3        1 MOL1        -0.1274
       9    H6      18.107828   19.059551   22.949687 H          1 MOL1         0.1041
      10    H7      18.997430   17.564277   22.738557 H          1 MOL1         0.1041
      11    C4      20.252765   19.311772   23.049721 C.3        1 MOL1         0.0313
      12    H8      20.278753   19.167594   24.132752 H          1 MOL1         0.1015
      13    H9      20.194734   20.385899   22.857462 H          1 MOL1         0.1015
      14    N1      21.576915   18.819604   22.486053 N.4        1 MOL1        -0.4809
      15    H10     22.342767   19.422639   22.824985 H          1 MOL1         0.3726
      16    H11     21.585576   18.927027   21.461120 H          1 MOL1         0.3726
      17    C5      21.842725   17.371293   22.881483 C.3        1 MOL1        -0.0677
      18    H12     21.060214   16.733338   22.465938 H          1 MOL1         0.1026
      19    H13     22.813808   17.064846   22.486519 H          1 MOL1         0.1026
      20    H14     21.846576   17.291131   23.970608 H          1 MOL1         0.1026
@<TRIPOS>BOND
    1     1     2    1
    2     1     3    1
    3     1     4    1
    4     1     5    1
    5     5     6    1
    6     5     7    1
    7     5     8    1
    8     8     9    1
    9     8    10    1
   10     8    11    1
   11    11    12    1
   12    11    13    1
   13    11    14    1
   14    14    15    1
   15    14    16    1
   16    14    17    1
   17    17    18    1
   18    17    19    1
   19    17    20    1
@<TRIPOS>SUBSTRUCTURE
       1 MOL1            1 RESIDUE      1      MOL     
@<SCITEGIC>MOL_PROPERTY
VConf Rank
SciTegic.value.IntegerValue
72

@<SCITEGIC>MOL_PROPERTY
Conf_Id
SciTegic.value.IntegerValue
52

@<SCITEGIC>MOL_PROPERTY
Delta U+W
SciTegic.value.DoubleValue
0.784

@<SCITEGIC>MOL_PROPERTY
U+W
SciTegic.value.DoubleValue
16.122

@<SCITEGIC>MOL_PROPERTY
Grad RMS
SciTegic.value.DoubleValue
0.000000

@<SCITEGIC>MOL_PROPERTY
U
SciTegic.value.DoubleValue
70.777

@<SCITEGIC>MOL_PROPERTY
W
SciTegic.value.DoubleValue
-54.655

@<SCITEGIC>MOL_PROPERTY
W(PB)
SciTegic.value.DoubleValue
-56.491

@<SCITEGIC>MOL_PROPERTY
W(SA)
SciTegic.value.DoubleValue
1.836

@<SCITEGIC>MOL_PROPERTY
Valence
SciTegic.value.DoubleValue
1.529

@<SCITEGIC>MOL_PROPERTY
Coulomb
SciTegic.value.DoubleValue
69.166

@<SCITEGIC>MOL_PROPERTY
VdW
SciTegic.value.DoubleValue
0.082

@<SCITEGIC>MOL_PROPERTY
VdW6
SciTegic.value.DoubleValue
-5.166

@<SCITEGIC>MOL_PROPERTY
VdW12
SciTegic.value.DoubleValue
5.248

@<SCITEGIC>MOL_PROPERTY
Bond
SciTegic.value.DoubleValue
0.171

@<SCITEGIC>MOL_PROPERTY
Angle
SciTegic.value.DoubleValue
0.752

@<SCITEGIC>MOL_PROPERTY
Pdih
SciTegic.value.DoubleValue
0.605

@<SCITEGIC>MOL_PROPERTY
Idih
SciTegic.value.DoubleValue
0.000

@<SCITEGIC>MOL_PROPERTY
Tether
SciTegic.value.DoubleValue
0.000

@<TRIPOS>MOLECULE
guest-s9_confgen4.mol2 : confsearch ligand conformer 73
          20          19           1
SMALL
USER_CHARGES
 
@<TRIPOS>ATOM
       1    C1      18.120439   19.572829   22.579523 C.3        1 MOL1        -0.2224
       2    H1      17.194217   20.084105   22.872575 H          1 MOL1         0.1052
       3    H2      18.075820   19.426642   21.494262 H          1 MOL1         0.1052
       4    H3      18.127863   18.590734   23.070179 H          1 MOL1         0.1052
       5    C2      19.349641   20.415375   22.990062 C.3        1 MOL1        -0.1209
       6    H4      19.224296   20.728155   24.036237 H          1 MOL1         0.1041
       7    H5      19.375067   21.340919   22.397831 H          1 MOL1         0.1041
       8    C3      20.705955   19.675662   22.863328 C.3        1 MOL1        -0.1274
       9    H6      21.486512   20.333288   23.268106 H          1 MOL1         0.1041
      10    H7      20.711835   18.781801   23.499629 H          1 MOL1         0.1041
      11    C4      21.107340   19.311849   21.414853 C.3        1 MOL1         0.0313
      12    H8      22.181169   19.111823   21.378760 H          1 MOL1         0.1015
      13    H9      20.905648   20.166166   20.763753 H          1 MOL1         0.1015
      14    N1      20.410273   18.097708   20.821161 N.4        1 MOL1        -0.4809
      15    H10     20.597914   18.053123   19.807276 H          1 MOL1         0.3726
      16    H11     19.389316   18.201557   20.903036 H          1 MOL1         0.3726
      17    C5      20.877314   16.809753   21.490316 C.3        1 MOL1        -0.0677
      18    H12     21.959413   16.717319   21.375601 H          1 MOL1         0.1026
      19    H13     20.618394   16.836582   22.550438 H          1 MOL1         0.1026
      20    H14     20.383293   15.959899   21.014286 H          1 MOL1         0.1026
@<TRIPOS>BOND
    1     1     2    1
    2     1     3    1
    3     1     4    1
    4     1     5    1
    5     5     6    1
    6     5     7    1
    7     5     8    1
    8     8     9    1
    9     8    10    1
   10     8    11    1
   11    11    12    1
   12    11    13    1
   13    11    14    1
   14    14    15    1
   15    14    16    1
   16    14    17    1
   17    17    18    1
   18    17    19    1
   19    17    20    1
@<TRIPOS>SUBSTRUCTURE
       1 MOL1            1 RESIDUE      1      MOL     
@<SCITEGIC>MOL_PROPERTY
VConf Rank
SciTegic.value.IntegerValue
73

@<SCITEGIC>MOL_PROPERTY
Conf_Id
SciTegic.value.IntegerValue
55

@<SCITEGIC>MOL_PROPERTY
Delta U+W
SciTegic.value.DoubleValue
2.745

@<SCITEGIC>MOL_PROPERTY
U+W
SciTegic.value.DoubleValue
18.083

@<SCITEGIC>MOL_PROPERTY
Grad RMS
SciTegic.value.DoubleValue
0.000000

@<SCITEGIC>MOL_PROPERTY
U
SciTegic.value.DoubleValue
72.490

@<SCITEGIC>MOL_PROPERTY
W
SciTegic.value.DoubleValue
-54.407

@<SCITEGIC>MOL_PROPERTY
W(PB)
SciTegic.value.DoubleValue
-56.269

@<SCITEGIC>MOL_PROPERTY
W(SA)
SciTegic.value.DoubleValue
1.861

@<SCITEGIC>MOL_PROPERTY
Valence
SciTegic.value.DoubleValue
2.738

@<SCITEGIC>MOL_PROPERTY
Coulomb
SciTegic.value.DoubleValue
69.795

@<SCITEGIC>MOL_PROPERTY
VdW
SciTegic.value.DoubleValue
-0.043

@<SCITEGIC>MOL_PROPERTY
VdW6
SciTegic.value.DoubleValue
-5.333

@<SCITEGIC>MOL_PROPERTY
VdW12
SciTegic.value.DoubleValue
5.290

@<SCITEGIC>MOL_PROPERTY
Bond
SciTegic.value.DoubleValue
0.182

@<SCITEGIC>MOL_PROPERTY
Angle
SciTegic.value.DoubleValue
1.135

@<SCITEGIC>MOL_PROPERTY
Pdih
SciTegic.value.DoubleValue
1.422

@<SCITEGIC>MOL_PROPERTY
Idih
SciTegic.value.DoubleValue
0.000

@<SCITEGIC>MOL_PROPERTY
Tether
SciTegic.value.DoubleValue
0.000

@<TRIPOS>MOLECULE
guest-s9_confgen4.mol2 : confsearch ligand conformer 74
          20          19           1
SMALL
USER_CHARGES
 
@<TRIPOS>ATOM
       1    C1      19.815371   17.106186   20.826237 C.3        1 MOL1        -0.2224
       2    H1      19.922114   16.223985   20.181648 H          1 MOL1         0.1052
       3    H2      19.028418   16.888661   21.560196 H          1 MOL1         0.1052
       4    H3      19.484784   17.932181   20.186241 H          1 MOL1         0.1052
       5    C2      21.158467   17.427021   21.520881 C.3        1 MOL1        -0.1209
       6    H4      21.892197   17.751861   20.769790 H          1 MOL1         0.1041
       7    H5      21.557827   16.498811   21.953274 H          1 MOL1         0.1041
       8    C3      21.060686   18.485678   22.648940 C.3        1 MOL1        -0.1274
       9    H6      20.375679   18.141763   23.434045 H          1 MOL1         0.1041
      10    H7      22.046510   18.559722   23.126698 H          1 MOL1         0.1041
      11    C4      20.667100   19.902236   22.169346 C.3        1 MOL1         0.0313
      12    H8      21.230941   20.141664   21.264236 H          1 MOL1         0.1015
      13    H9      20.942675   20.630871   22.935879 H          1 MOL1         0.1015
      14    N1      19.191182   20.111844   21.868951 N.4        1 MOL1        -0.4809
      15    H10     18.860474   19.396179   21.206913 H          1 MOL1         0.3726
      16    H11     19.062386   21.012398   21.381536 H          1 MOL1         0.3726
      17    C5      18.358597   20.091717   23.146103 C.3        1 MOL1        -0.0677
      18    H12     18.448819   19.114047   23.623218 H          1 MOL1         0.1026
      19    H13     18.720123   20.868852   23.822860 H          1 MOL1         0.1026
      20    H14     17.312805   20.280979   22.894289 H          1 MOL1         0.1026
@<TRIPOS>BOND
    1     1     2    1
    2     1     3    1
    3     1     4    1
    4     1     5    1
    5     5     6    1
    6     5     7    1
    7     5     8    1
    8     8     9    1
    9     8    10    1
   10     8    11    1
   11    11    12    1
   12    11    13    1
   13    11    14    1
   14    14    15    1
   15    14    16    1
   16    14    17    1
   17    17    18    1
   18    17    19    1
   19    17    20    1
@<TRIPOS>SUBSTRUCTURE
       1 MOL1            1 RESIDUE      1      MOL     
@<SCITEGIC>MOL_PROPERTY
VConf Rank
SciTegic.value.IntegerValue
74

@<SCITEGIC>MOL_PROPERTY
Conf_Id
SciTegic.value.IntegerValue
76

@<SCITEGIC>MOL_PROPERTY
Delta U+W
SciTegic.value.DoubleValue
2.799

@<SCITEGIC>MOL_PROPERTY
U+W
SciTegic.value.DoubleValue
18.137

@<SCITEGIC>MOL_PROPERTY
Grad RMS
SciTegic.value.DoubleValue
0.000000

@<SCITEGIC>MOL_PROPERTY
U
SciTegic.value.DoubleValue
72.490

@<SCITEGIC>MOL_PROPERTY
W
SciTegic.value.DoubleValue
-54.353

@<SCITEGIC>MOL_PROPERTY
W(PB)
SciTegic.value.DoubleValue
-56.201

@<SCITEGIC>MOL_PROPERTY
W(SA)
SciTegic.value.DoubleValue
1.848

@<SCITEGIC>MOL_PROPERTY
Valence
SciTegic.value.DoubleValue
2.738

@<SCITEGIC>MOL_PROPERTY
Coulomb
SciTegic.value.DoubleValue
69.795

@<SCITEGIC>MOL_PROPERTY
VdW
SciTegic.value.DoubleValue
-0.043

@<SCITEGIC>MOL_PROPERTY
VdW6
SciTegic.value.DoubleValue
-5.334

@<SCITEGIC>MOL_PROPERTY
VdW12
SciTegic.value.DoubleValue
5.290

@<SCITEGIC>MOL_PROPERTY
Bond
SciTegic.value.DoubleValue
0.182

@<SCITEGIC>MOL_PROPERTY
Angle
SciTegic.value.DoubleValue
1.135

@<SCITEGIC>MOL_PROPERTY
Pdih
SciTegic.value.DoubleValue
1.421

@<SCITEGIC>MOL_PROPERTY
Idih
SciTegic.value.DoubleValue
0.000

@<SCITEGIC>MOL_PROPERTY
Tether
SciTegic.value.DoubleValue
0.000

@<TRIPOS>MOLECULE
guest-s9_confgen4.mol2 : confsearch ligand conformer 75
          20          19           1
SMALL
USER_CHARGES
 
@<TRIPOS>ATOM
       1    C1      19.461024   20.568352   22.894453 C.3        1 MOL1        -0.2224
       2    H1      19.004959   19.667264   23.322351 H          1 MOL1         0.1052
       3    H2      20.140930   20.994775   23.643348 H          1 MOL1         0.1052
       4    H3      18.657622   21.295568   22.719676 H          1 MOL1         0.1052
       5    C2      20.209793   20.260146   21.577291 C.3        1 MOL1        -0.1209
       6    H4      20.584580   21.202727   21.154316 H          1 MOL1         0.1041
       7    H5      19.512587   19.856079   20.832044 H          1 MOL1         0.1041
       8    C3      21.404557   19.294216   21.769553 C.3        1 MOL1        -0.1274
       9    H6      21.915877   19.152876   20.808313 H          1 MOL1         0.1041
      10    H7      22.138131   19.771332   22.432784 H          1 MOL1         0.1041
      11    C4      21.048524   17.909870   22.360745 C.3        1 MOL1         0.0313
      12    H8      20.529255   18.021878   23.315407 H          1 MOL1         0.1015
      13    H9      21.984212   17.379370   22.554968 H          1 MOL1         0.1015
      14    N1      20.217701   17.005233   21.462798 N.4        1 MOL1        -0.4809
      15    H10     20.463941   16.021135   21.651789 H          1 MOL1         0.3726
      16    H11     20.467942   17.153240   20.473799 H          1 MOL1         0.3726
      17    C5      18.722941   17.199650   21.693319 C.3        1 MOL1        -0.0677
      18    H12     18.170296   16.510441   21.051058 H          1 MOL1         0.1026
      19    H13     18.491985   16.990002   22.739884 H          1 MOL1         0.1026
      20    H14     18.443116   18.225937   21.453622 H          1 MOL1         0.1026
@<TRIPOS>BOND
    1     1     2    1
    2     1     3    1
    3     1     4    1
    4     1     5    1
    5     5     6    1
    6     5     7    1
    7     5     8    1
    8     8     9    1
    9     8    10    1
   10     8    11    1
   11    11    12    1
   12    11    13    1
   13    11    14    1
   14    14    15    1
   15    14    16    1
   16    14    17    1
   17    17    18    1
   18    17    19    1
   19    17    20    1
@<TRIPOS>SUBSTRUCTURE
       1 MOL1            1 RESIDUE      1      MOL     
@<SCITEGIC>MOL_PROPERTY
VConf Rank
SciTegic.value.IntegerValue
75

@<SCITEGIC>MOL_PROPERTY
Conf_Id
SciTegic.value.IntegerValue
60

@<SCITEGIC>MOL_PROPERTY
Delta U+W
SciTegic.value.DoubleValue
1.788

@<SCITEGIC>MOL_PROPERTY
U+W
SciTegic.value.DoubleValue
17.127

@<SCITEGIC>MOL_PROPERTY
Grad RMS
SciTegic.value.DoubleValue
0.000000

@<SCITEGIC>MOL_PROPERTY
U
SciTegic.value.DoubleValue
72.122

@<SCITEGIC>MOL_PROPERTY
W
SciTegic.value.DoubleValue
-54.995

@<SCITEGIC>MOL_PROPERTY
W(PB)
SciTegic.value.DoubleValue
-56.810

@<SCITEGIC>MOL_PROPERTY
W(SA)
SciTegic.value.DoubleValue
1.815

@<SCITEGIC>MOL_PROPERTY
Valence
SciTegic.value.DoubleValue
3.197

@<SCITEGIC>MOL_PROPERTY
Coulomb
SciTegic.value.DoubleValue
69.115

@<SCITEGIC>MOL_PROPERTY
VdW
SciTegic.value.DoubleValue
-0.190

@<SCITEGIC>MOL_PROPERTY
VdW6
SciTegic.value.DoubleValue
-5.585

@<SCITEGIC>MOL_PROPERTY
VdW12
SciTegic.value.DoubleValue
5.395

@<SCITEGIC>MOL_PROPERTY
Bond
SciTegic.value.DoubleValue
0.177

@<SCITEGIC>MOL_PROPERTY
Angle
SciTegic.value.DoubleValue
1.207

@<SCITEGIC>MOL_PROPERTY
Pdih
SciTegic.value.DoubleValue
1.813

@<SCITEGIC>MOL_PROPERTY
Idih
SciTegic.value.DoubleValue
0.000

@<SCITEGIC>MOL_PROPERTY
Tether
SciTegic.value.DoubleValue
0.000

@<TRIPOS>MOLECULE
guest-s9_confgen4.mol2 : confsearch ligand conformer 76
          20          19           1
SMALL
USER_CHARGES
 
@<TRIPOS>ATOM
       1    C1      18.471977   20.120458   22.145113 C.3        1 MOL1        -0.2224
       2    H1      17.480503   20.188349   21.679051 H          1 MOL1         0.1052
       3    H2      18.517053   20.869905   22.945892 H          1 MOL1         0.1052
       4    H3      19.214813   20.389755   21.384373 H          1 MOL1         0.1052
       5    C2      18.713368   18.698486   22.702148 C.3        1 MOL1        -0.1209
       6    H4      18.642741   17.959139   21.893978 H          1 MOL1         0.1041
       7    H5      17.904374   18.451124   23.403698 H          1 MOL1         0.1041
       8    C3      20.067924   18.556565   23.438683 C.3        1 MOL1        -0.1274
       9    H6      20.066883   19.228147   24.307373 H          1 MOL1         0.1041
      10    H7      20.156022   17.540308   23.844723 H          1 MOL1         0.1041
      11    C4      21.320706   18.870900   22.587561 C.3        1 MOL1         0.0313
      12    H8      22.188782   18.850522   23.251410 H          1 MOL1         0.1015
      13    H9      21.254477   19.875305   22.162884 H          1 MOL1         0.1015
      14    N1      21.614502   17.889724   21.462430 N.4        1 MOL1        -0.4809
      15    H10     21.339628   16.935078   21.737640 H          1 MOL1         0.3726
      16    H11     22.634577   17.837538   21.315718 H          1 MOL1         0.3726
      17    C5      20.942736   18.307865   20.158922 C.3        1 MOL1        -0.0677
      18    H12     21.293757   19.303274   19.878680 H          1 MOL1         0.1026
      19    H13     21.206114   17.592808   19.376457 H          1 MOL1         0.1026
      20    H14     19.860344   18.323255   20.290115 H          1 MOL1         0.1026
@<TRIPOS>BOND
    1     1     2    1
    2     1     3    1
    3     1     4    1
    4     1     5    1
    5     5     6    1
    6     5     7    1
    7     5     8    1
    8     8     9    1
    9     8    10    1
   10     8    11    1
   11    11    12    1
   12    11    13    1
   13    11    14    1
   14    14    15    1
   15    14    16    1
   16    14    17    1
   17    17    18    1
   18    17    19    1
   19    17    20    1
@<TRIPOS>SUBSTRUCTURE
       1 MOL1            1 RESIDUE      1      MOL     
@<SCITEGIC>MOL_PROPERTY
VConf Rank
SciTegic.value.IntegerValue
76

@<SCITEGIC>MOL_PROPERTY
Conf_Id
SciTegic.value.IntegerValue
54

@<SCITEGIC>MOL_PROPERTY
Delta U+W
SciTegic.value.DoubleValue
1.880

@<SCITEGIC>MOL_PROPERTY
U+W
SciTegic.value.DoubleValue
17.218

@<SCITEGIC>MOL_PROPERTY
Grad RMS
SciTegic.value.DoubleValue
0.000000

@<SCITEGIC>MOL_PROPERTY
U
SciTegic.value.DoubleValue
72.122

@<SCITEGIC>MOL_PROPERTY
W
SciTegic.value.DoubleValue
-54.903

@<SCITEGIC>MOL_PROPERTY
W(PB)
SciTegic.value.DoubleValue
-56.724

@<SCITEGIC>MOL_PROPERTY
W(SA)
SciTegic.value.DoubleValue
1.821

@<SCITEGIC>MOL_PROPERTY
Valence
SciTegic.value.DoubleValue
3.197

@<SCITEGIC>MOL_PROPERTY
Coulomb
SciTegic.value.DoubleValue
69.115

@<SCITEGIC>MOL_PROPERTY
VdW
SciTegic.value.DoubleValue
-0.190

@<SCITEGIC>MOL_PROPERTY
VdW6
SciTegic.value.DoubleValue
-5.585

@<SCITEGIC>MOL_PROPERTY
VdW12
SciTegic.value.DoubleValue
5.395

@<SCITEGIC>MOL_PROPERTY
Bond
SciTegic.value.DoubleValue
0.177

@<SCITEGIC>MOL_PROPERTY
Angle
SciTegic.value.DoubleValue
1.207

@<SCITEGIC>MOL_PROPERTY
Pdih
SciTegic.value.DoubleValue
1.813

@<SCITEGIC>MOL_PROPERTY
Idih
SciTegic.value.DoubleValue
0.000

@<SCITEGIC>MOL_PROPERTY
Tether
SciTegic.value.DoubleValue
0.000

@<TRIPOS>MOLECULE
guest-s9_confgen4.mol2 : confsearch ligand conformer 77
          20          19           1
SMALL
USER_CHARGES
 
@<TRIPOS>ATOM
       1    C1      17.711068   16.631173   22.246586 C.3        1 MOL1        -0.2224
       2    H1      18.330702   15.747354   22.046350 H          1 MOL1         0.1052
       3    H2      16.959082   16.351590   22.995836 H          1 MOL1         0.1052
       4    H3      17.181969   16.894051   21.321315 H          1 MOL1         0.1052
       5    C2      18.570747   17.810812   22.750209 C.3        1 MOL1        -0.1209
       6    H4      19.059209   17.529811   23.694027 H          1 MOL1         0.1041
       7    H5      17.919534   18.667503   22.974607 H          1 MOL1         0.1041
       8    C3      19.639056   18.226307   21.714911 C.3        1 MOL1        -0.1274
       9    H6      20.291335   17.370935   21.493921 H          1 MOL1         0.1041
      10    H7      19.150090   18.510058   20.773443 H          1 MOL1         0.1041
      11    C4      20.491933   19.403012   22.224368 C.3        1 MOL1         0.0313
      12    H8      20.992400   19.118559   23.153404 H          1 MOL1         0.1015
      13    H9      19.847527   20.261358   22.430451 H          1 MOL1         0.1015
      14    N1      21.556102   19.846068   21.239507 N.4        1 MOL1        -0.4809
      15    H10     21.122370   20.116388   20.343426 H          1 MOL1         0.3726
      16    H11     22.182392   19.058328   21.012834 H          1 MOL1         0.3726
      17    C5      22.349869   21.008743   21.820280 C.3        1 MOL1        -0.0677
      18    H12     22.827707   20.689953   22.749178 H          1 MOL1         0.1026
      19    H13     23.112052   21.317430   21.101393 H          1 MOL1         0.1026
      20    H14     21.673171   21.842417   22.019972 H          1 MOL1         0.1026
@<TRIPOS>BOND
    1     1     2    1
    2     1     3    1
    3     1     4    1
    4     1     5    1
    5     5     6    1
    6     5     7    1
    7     5     8    1
    8     8     9    1
    9     8    10    1
   10     8    11    1
   11    11    12    1
   12    11    13    1
   13    11    14    1
   14    14    15    1
   15    14    16    1
   16    14    17    1
   17    17    18    1
   18    17    19    1
   19    17    20    1
@<TRIPOS>SUBSTRUCTURE
       1 MOL1            1 RESIDUE      1      MOL     
@<SCITEGIC>MOL_PROPERTY
VConf Rank
SciTegic.value.IntegerValue
77

@<SCITEGIC>MOL_PROPERTY
Conf_Id
SciTegic.value.IntegerValue
67

@<SCITEGIC>MOL_PROPERTY
Delta U+W
SciTegic.value.DoubleValue
0.000

@<SCITEGIC>MOL_PROPERTY
U+W
SciTegic.value.DoubleValue
15.338

@<SCITEGIC>MOL_PROPERTY
Grad RMS
SciTegic.value.DoubleValue
0.000000

@<SCITEGIC>MOL_PROPERTY
U
SciTegic.value.DoubleValue
69.277

@<SCITEGIC>MOL_PROPERTY
W
SciTegic.value.DoubleValue
-53.939

@<SCITEGIC>MOL_PROPERTY
W(PB)
SciTegic.value.DoubleValue
-55.889

@<SCITEGIC>MOL_PROPERTY
W(SA)
SciTegic.value.DoubleValue
1.950

@<SCITEGIC>MOL_PROPERTY
Valence
SciTegic.value.DoubleValue
0.846

@<SCITEGIC>MOL_PROPERTY
Coulomb
SciTegic.value.DoubleValue
68.557

@<SCITEGIC>MOL_PROPERTY
VdW
SciTegic.value.DoubleValue
-0.127

@<SCITEGIC>MOL_PROPERTY
VdW6
SciTegic.value.DoubleValue
-3.008

@<SCITEGIC>MOL_PROPERTY
VdW12
SciTegic.value.DoubleValue
2.882

@<SCITEGIC>MOL_PROPERTY
Bond
SciTegic.value.DoubleValue
0.088

@<SCITEGIC>MOL_PROPERTY
Angle
SciTegic.value.DoubleValue
0.332

@<SCITEGIC>MOL_PROPERTY
Pdih
SciTegic.value.DoubleValue
0.426

@<SCITEGIC>MOL_PROPERTY
Idih
SciTegic.value.DoubleValue
0.000

@<SCITEGIC>MOL_PROPERTY
Tether
SciTegic.value.DoubleValue
0.000

@<TRIPOS>MOLECULE
guest-s9_confgen4.mol2 : confsearch ligand conformer 78
          20          19           1
SMALL
USER_CHARGES
 
@<TRIPOS>ATOM
       1    C1      19.409790   20.706596   24.279492 C.3        1 MOL1        -0.2224
       2    H1      20.459146   20.698604   24.601914 H          1 MOL1         0.1052
       3    H2      18.998245   21.700214   24.499431 H          1 MOL1         0.1052
       4    H3      18.860810   19.973863   24.885207 H          1 MOL1         0.1052
       5    C2      19.287946   20.386647   22.773816 C.3        1 MOL1        -0.1209
       6    H4      19.817610   21.155166   22.193161 H          1 MOL1         0.1041
       7    H5      18.231502   20.436776   22.474283 H          1 MOL1         0.1041
       8    C3      19.859634   18.992471   22.434501 C.3        1 MOL1        -0.1274
       9    H6      20.914253   18.947093   22.735293 H          1 MOL1         0.1041
      10    H7      19.327204   18.224941   23.011596 H          1 MOL1         0.1041
      11    C4      19.732040   18.681510   20.928846 C.3        1 MOL1         0.0313
      12    H8      20.299978   19.413542   20.349227 H          1 MOL1         0.1015
      13    H9      18.681490   18.761732   20.638008 H          1 MOL1         0.1015
      14    N1      20.207372   17.294850   20.526359 N.4        1 MOL1        -0.4809
      15    H10     19.938116   17.108403   19.547572 H          1 MOL1         0.3726
      16    H11     19.715577   16.574622   21.076982 H          1 MOL1         0.3726
      17    C5      21.718330   17.159412   20.681855 C.3        1 MOL1        -0.0677
      18    H12     21.988390   17.292120   21.731304 H          1 MOL1         0.1026
      19    H13     22.024516   16.165545   20.348013 H          1 MOL1         0.1026
      20    H14     22.211984   17.920041   20.073204 H          1 MOL1         0.1026
@<TRIPOS>BOND
    1     1     2    1
    2     1     3    1
    3     1     4    1
    4     1     5    1
    5     5     6    1
    6     5     7    1
    7     5     8    1
    8     8     9    1
    9     8    10    1
   10     8    11    1
   11    11    12    1
   12    11    13    1
   13    11    14    1
   14    14    15    1
   15    14    16    1
   16    14    17    1
   17    17    18    1
   18    17    19    1
   19    17    20    1
@<TRIPOS>SUBSTRUCTURE
       1 MOL1            1 RESIDUE      1      MOL     
@<SCITEGIC>MOL_PROPERTY
VConf Rank
SciTegic.value.IntegerValue
78

@<SCITEGIC>MOL_PROPERTY
Conf_Id
SciTegic.value.IntegerValue
37

@<SCITEGIC>MOL_PROPERTY
Delta U+W
SciTegic.value.DoubleValue
-0.021

@<SCITEGIC>MOL_PROPERTY
U+W
SciTegic.value.DoubleValue
15.318

@<SCITEGIC>MOL_PROPERTY
Grad RMS
SciTegic.value.DoubleValue
0.000000

@<SCITEGIC>MOL_PROPERTY
U
SciTegic.value.DoubleValue
69.657

@<SCITEGIC>MOL_PROPERTY
W
SciTegic.value.DoubleValue
-54.340

@<SCITEGIC>MOL_PROPERTY
W(PB)
SciTegic.value.DoubleValue
-56.238

@<SCITEGIC>MOL_PROPERTY
W(SA)
SciTegic.value.DoubleValue
1.899

@<SCITEGIC>MOL_PROPERTY
Valence
SciTegic.value.DoubleValue
1.137

@<SCITEGIC>MOL_PROPERTY
Coulomb
SciTegic.value.DoubleValue
68.383

@<SCITEGIC>MOL_PROPERTY
VdW
SciTegic.value.DoubleValue
0.138

@<SCITEGIC>MOL_PROPERTY
VdW6
SciTegic.value.DoubleValue
-3.703

@<SCITEGIC>MOL_PROPERTY
VdW12
SciTegic.value.DoubleValue
3.841

@<SCITEGIC>MOL_PROPERTY
Bond
SciTegic.value.DoubleValue
0.125

@<SCITEGIC>MOL_PROPERTY
Angle
SciTegic.value.DoubleValue
0.468

@<SCITEGIC>MOL_PROPERTY
Pdih
SciTegic.value.DoubleValue
0.543

@<SCITEGIC>MOL_PROPERTY
Idih
SciTegic.value.DoubleValue
0.000

@<SCITEGIC>MOL_PROPERTY
Tether
SciTegic.value.DoubleValue
0.000

@<TRIPOS>MOLECULE
guest-s9_confgen4.mol2 : confsearch ligand conformer 79
          20          19           1
SMALL
USER_CHARGES
 
@<TRIPOS>ATOM
       1    C1      22.561188   17.734438   23.132817 C.3        1 MOL1        -0.2224
       2    H1      22.964731   16.912249   23.737943 H          1 MOL1         0.1052
       3    H2      22.981932   17.646168   22.122692 H          1 MOL1         0.1052
       4    H3      22.914982   18.677739   23.568915 H          1 MOL1         0.1052
       5    C2      21.018361   17.681116   23.099487 C.3        1 MOL1        -0.1209
       6    H4      20.628924   17.736185   24.125944 H          1 MOL1         0.1041
       7    H5      20.695171   16.713278   22.690628 H          1 MOL1         0.1041
       8    C3      20.421882   18.828013   22.254191 C.3        1 MOL1        -0.1274
       9    H6      20.741601   19.794476   22.665715 H          1 MOL1         0.1041
      10    H7      20.813446   18.769024   21.230495 H          1 MOL1         0.1041
      11    C4      18.880587   18.767151   22.228227 C.3        1 MOL1         0.0313
      12    H8      18.507299   18.794822   23.255148 H          1 MOL1         0.1015
      13    H9      18.553794   17.827869   21.775083 H          1 MOL1         0.1015
      14    N1      18.214683   19.907209   21.474837 N.4        1 MOL1        -0.4809
      15    H10     18.524343   20.815098   21.853813 H          1 MOL1         0.3726
      16    H11     17.196696   19.884147   21.643525 H          1 MOL1         0.3726
      17    C5      18.492964   19.820387   19.977995 C.3        1 MOL1        -0.0677
      18    H12     18.137058   18.859052   19.601335 H          1 MOL1         0.1026
      19    H13     17.968155   20.631872   19.469036 H          1 MOL1         0.1026
      20    H14     19.566592   19.912371   19.802641 H          1 MOL1         0.1026
@<TRIPOS>BOND
    1     1     2    1
    2     1     3    1
    3     1     4    1
    4     1     5    1
    5     5     6    1
    6     5     7    1
    7     5     8    1
    8     8     9    1
    9     8    10    1
   10     8    11    1
   11    11    12    1
   12    11    13    1
   13    11    14    1
   14    14    15    1
   15    14    16    1
   16    14    17    1
   17    17    18    1
   18    17    19    1
   19    17    20    1
@<TRIPOS>SUBSTRUCTURE
       1 MOL1            1 RESIDUE      1      MOL     
@<SCITEGIC>MOL_PROPERTY
VConf Rank
SciTegic.value.IntegerValue
79

@<SCITEGIC>MOL_PROPERTY
Conf_Id
SciTegic.value.IntegerValue
2

@<SCITEGIC>MOL_PROPERTY
Delta U+W
SciTegic.value.DoubleValue
0.069

@<SCITEGIC>MOL_PROPERTY
U+W
SciTegic.value.DoubleValue
15.407

@<SCITEGIC>MOL_PROPERTY
Grad RMS
SciTegic.value.DoubleValue
0.000000

@<SCITEGIC>MOL_PROPERTY
U
SciTegic.value.DoubleValue
69.657

@<SCITEGIC>MOL_PROPERTY
W
SciTegic.value.DoubleValue
-54.250

@<SCITEGIC>MOL_PROPERTY
W(PB)
SciTegic.value.DoubleValue
-56.176

@<SCITEGIC>MOL_PROPERTY
W(SA)
SciTegic.value.DoubleValue
1.926

@<SCITEGIC>MOL_PROPERTY
Valence
SciTegic.value.DoubleValue
1.137

@<SCITEGIC>MOL_PROPERTY
Coulomb
SciTegic.value.DoubleValue
68.383

@<SCITEGIC>MOL_PROPERTY
VdW
SciTegic.value.DoubleValue
0.138

@<SCITEGIC>MOL_PROPERTY
VdW6
SciTegic.value.DoubleValue
-3.703

@<SCITEGIC>MOL_PROPERTY
VdW12
SciTegic.value.DoubleValue
3.841

@<SCITEGIC>MOL_PROPERTY
Bond
SciTegic.value.DoubleValue
0.125

@<SCITEGIC>MOL_PROPERTY
Angle
SciTegic.value.DoubleValue
0.468

@<SCITEGIC>MOL_PROPERTY
Pdih
SciTegic.value.DoubleValue
0.543

@<SCITEGIC>MOL_PROPERTY
Idih
SciTegic.value.DoubleValue
0.000

@<SCITEGIC>MOL_PROPERTY
Tether
SciTegic.value.DoubleValue
0.000

@<TRIPOS>MOLECULE
guest-s9_confgen4.mol2 : confsearch ligand conformer 80
          20          19           1
SMALL
USER_CHARGES
 
@<TRIPOS>ATOM
       1    C1      20.159843   21.270692   21.165569 C.3        1 MOL1        -0.2224
       2    H1      21.157819   20.867446   21.378877 H          1 MOL1         0.1052
       3    H2      19.918048   21.051210   20.117493 H          1 MOL1         0.1052
       4    H3      20.213886   22.361611   21.274954 H          1 MOL1         0.1052
       5    C2      19.093271   20.682610   22.117867 C.3        1 MOL1        -0.1209
       6    H4      18.131870   21.181434   21.931058 H          1 MOL1         0.1041
       7    H5      19.362053   20.910751   23.158978 H          1 MOL1         0.1041
       8    C3      18.908270   19.156267   21.949846 C.3        1 MOL1        -0.1274
       9    H6      18.086830   18.822497   22.597682 H          1 MOL1         0.1041
      10    H7      18.605752   18.933598   20.917971 H          1 MOL1         0.1041
      11    C4      20.181942   18.361768   22.298811 C.3        1 MOL1         0.0313
      12    H8      20.481486   18.581656   23.326574 H          1 MOL1         0.1015
      13    H9      20.995446   18.658778   21.632656 H          1 MOL1         0.1015
      14    N1      20.007718   16.860800   22.175476 N.4        1 MOL1        -0.4809
      15    H10     19.714617   16.613393   21.217889 H          1 MOL1         0.3726
      16    H11     19.241769   16.539179   22.787019 H          1 MOL1         0.3726
      17    C5      21.308910   16.155617   22.534235 C.3        1 MOL1        -0.0677
      18    H12     21.581538   16.404380   23.562143 H          1 MOL1         0.1026
      19    H13     21.169448   15.076298   22.441367 H          1 MOL1         0.1026
      20    H14     22.096464   16.484910   21.852968 H          1 MOL1         0.1026
@<TRIPOS>BOND
    1     1     2    1
    2     1     3    1
    3     1     4    1
    4     1     5    1
    5     5     6    1
    6     5     7    1
    7     5     8    1
    8     8     9    1
    9     8    10    1
   10     8    11    1
   11    11    12    1
   12    11    13    1
   13    11    14    1
   14    14    15    1
   15    14    16    1
   16    14    17    1
   17    17    18    1
   18    17    19    1
   19    17    20    1
@<TRIPOS>SUBSTRUCTURE
       1 MOL1            1 RESIDUE      1      MOL     
@<SCITEGIC>MOL_PROPERTY
VConf Rank
SciTegic.value.IntegerValue
80

@<SCITEGIC>MOL_PROPERTY
Conf_Id
SciTegic.value.IntegerValue
34

@<SCITEGIC>MOL_PROPERTY
Delta U+W
SciTegic.value.DoubleValue
0.276

@<SCITEGIC>MOL_PROPERTY
U+W
SciTegic.value.DoubleValue
15.615

@<SCITEGIC>MOL_PROPERTY
Grad RMS
SciTegic.value.DoubleValue
0.000000

@<SCITEGIC>MOL_PROPERTY
U
SciTegic.value.DoubleValue
69.798

@<SCITEGIC>MOL_PROPERTY
W
SciTegic.value.DoubleValue
-54.184

@<SCITEGIC>MOL_PROPERTY
W(PB)
SciTegic.value.DoubleValue
-56.116

@<SCITEGIC>MOL_PROPERTY
W(SA)
SciTegic.value.DoubleValue
1.933

@<SCITEGIC>MOL_PROPERTY
Valence
SciTegic.value.DoubleValue
1.134

@<SCITEGIC>MOL_PROPERTY
Coulomb
SciTegic.value.DoubleValue
68.735

@<SCITEGIC>MOL_PROPERTY
VdW
SciTegic.value.DoubleValue
-0.070

@<SCITEGIC>MOL_PROPERTY
VdW6
SciTegic.value.DoubleValue
-3.565

@<SCITEGIC>MOL_PROPERTY
VdW12
SciTegic.value.DoubleValue
3.494

@<SCITEGIC>MOL_PROPERTY
Bond
SciTegic.value.DoubleValue
0.108

@<SCITEGIC>MOL_PROPERTY
Angle
SciTegic.value.DoubleValue
0.456

@<SCITEGIC>MOL_PROPERTY
Pdih
SciTegic.value.DoubleValue
0.569

@<SCITEGIC>MOL_PROPERTY
Idih
SciTegic.value.DoubleValue
0.000

@<SCITEGIC>MOL_PROPERTY
Tether
SciTegic.value.DoubleValue
0.000

@<TRIPOS>MOLECULE
guest-s9_confgen4.mol2 : confsearch ligand conformer 81
          20          19           1
SMALL
USER_CHARGES
 
@<TRIPOS>ATOM
       1    C1      18.913737   21.621366   22.002269 C.3        1 MOL1        -0.2224
       2    H1      18.409019   21.804235   21.044674 H          1 MOL1         0.1052
       3    H2      18.292421   22.053784   22.797257 H          1 MOL1         0.1052
       4    H3      19.870156   22.160206   21.992536 H          1 MOL1         0.1052
       5    C2      19.128920   20.110778   22.238589 C.3        1 MOL1        -0.1209
       6    H4      18.153467   19.605296   22.274721 H          1 MOL1         0.1041
       7    H5      19.598176   19.964810   23.220927 H          1 MOL1         0.1041
       8    C3      20.003049   19.476927   21.130745 C.3        1 MOL1        -0.1274
       9    H6      19.541227   19.664929   20.152349 H          1 MOL1         0.1041
      10    H7      20.989754   19.958313   21.107556 H          1 MOL1         0.1041
      11    C4      20.176005   17.954438   21.302939 C.3        1 MOL1         0.0313
      12    H8      20.723886   17.553988   20.446151 H          1 MOL1         0.1015
      13    H9      19.194661   17.474362   21.333380 H          1 MOL1         0.1015
      14    N1      20.932305   17.555355   22.556186 N.4        1 MOL1        -0.4809
      15    H10     20.447565   17.912528   23.392791 H          1 MOL1         0.3726
      16    H11     21.862895   18.000262   22.566602 H          1 MOL1         0.3726
      17    C5      21.064063   16.039771   22.623134 C.3        1 MOL1        -0.0677
      18    H12     20.067933   15.592487   22.644416 H          1 MOL1         0.1026
      19    H13     21.608875   15.686846   21.744835 H          1 MOL1         0.1026
      20    H14     21.609733   15.766616   23.529015 H          1 MOL1         0.1026
@<TRIPOS>BOND
    1     1     2    1
    2     1     3    1
    3     1     4    1
    4     1     5    1
    5     5     6    1
    6     5     7    1
    7     5     8    1
    8     8     9    1
    9     8    10    1
   10     8    11    1
   11    11    12    1
   12    11    13    1
   13    11    14    1
   14    14    15    1
   15    14    16    1
   16    14    17    1
   17    17    18    1
   18    17    19    1
   19    17    20    1
@<TRIPOS>SUBSTRUCTURE
       1 MOL1            1 RESIDUE      1      MOL     
@<SCITEGIC>MOL_PROPERTY
VConf Rank
SciTegic.value.IntegerValue
81

@<SCITEGIC>MOL_PROPERTY
Conf_Id
SciTegic.value.IntegerValue
50

@<SCITEGIC>MOL_PROPERTY
Delta U+W
SciTegic.value.DoubleValue
0.319

@<SCITEGIC>MOL_PROPERTY
U+W
SciTegic.value.DoubleValue
15.657

@<SCITEGIC>MOL_PROPERTY
Grad RMS
SciTegic.value.DoubleValue
0.000000

@<SCITEGIC>MOL_PROPERTY
U
SciTegic.value.DoubleValue
69.962

@<SCITEGIC>MOL_PROPERTY
W
SciTegic.value.DoubleValue
-54.305

@<SCITEGIC>MOL_PROPERTY
W(PB)
SciTegic.value.DoubleValue
-56.223

@<SCITEGIC>MOL_PROPERTY
W(SA)
SciTegic.value.DoubleValue
1.918

@<SCITEGIC>MOL_PROPERTY
Valence
SciTegic.value.DoubleValue
0.982

@<SCITEGIC>MOL_PROPERTY
Coulomb
SciTegic.value.DoubleValue
69.058

@<SCITEGIC>MOL_PROPERTY
VdW
SciTegic.value.DoubleValue
-0.078

@<SCITEGIC>MOL_PROPERTY
VdW6
SciTegic.value.DoubleValue
-3.548

@<SCITEGIC>MOL_PROPERTY
VdW12
SciTegic.value.DoubleValue
3.471

@<SCITEGIC>MOL_PROPERTY
Bond
SciTegic.value.DoubleValue
0.105

@<SCITEGIC>MOL_PROPERTY
Angle
SciTegic.value.DoubleValue
0.408

@<SCITEGIC>MOL_PROPERTY
Pdih
SciTegic.value.DoubleValue
0.469

@<SCITEGIC>MOL_PROPERTY
Idih
SciTegic.value.DoubleValue
0.000

@<SCITEGIC>MOL_PROPERTY
Tether
SciTegic.value.DoubleValue
0.000

@<TRIPOS>MOLECULE
guest-s9_confgen4.mol2 : confsearch ligand conformer 82
          20          19           1
SMALL
USER_CHARGES
 
@<TRIPOS>ATOM
       1    C1      18.901840   21.368526   20.802151 C.3        1 MOL1        -0.2224
       2    H1      19.427000   22.329233   20.722920 H          1 MOL1         0.1052
       3    H2      18.482597   21.132632   19.815359 H          1 MOL1         0.1052
       4    H3      18.068600   21.497916   21.505109 H          1 MOL1         0.1052
       5    C2      19.863702   20.258466   21.278188 C.3        1 MOL1        -0.1209
       6    H4      20.293164   20.547333   22.247008 H          1 MOL1         0.1041
       7    H5      20.701807   20.175283   20.571799 H          1 MOL1         0.1041
       8    C3      19.146891   18.892872   21.398706 C.3        1 MOL1        -0.1274
       9    H6      18.325543   18.961072   22.124373 H          1 MOL1         0.1041
      10    H7      18.689920   18.636719   20.433591 H          1 MOL1         0.1041
      11    C4      20.099969   17.750709   21.804475 C.3        1 MOL1         0.0313
      12    H8      20.921964   17.685878   21.087148 H          1 MOL1         0.1015
      13    H9      19.556398   16.802670   21.785161 H          1 MOL1         0.1015
      14    N1      20.698027   17.906553   23.190089 N.4        1 MOL1        -0.4809
      15    H10     19.948216   17.981560   23.894510 H          1 MOL1         0.3726
      16    H11     21.223641   18.790991   23.252970 H          1 MOL1         0.3726
      17    C5      21.605923   16.724020   23.500215 C.3        1 MOL1        -0.0677
      18    H12     22.029366   16.848951   24.499254 H          1 MOL1         0.1026
      19    H13     21.021912   15.801981   23.460722 H          1 MOL1         0.1026
      20    H14     22.409805   16.684126   22.761991 H          1 MOL1         0.1026
@<TRIPOS>BOND
    1     1     2    1
    2     1     3    1
    3     1     4    1
    4     1     5    1
    5     5     6    1
    6     5     7    1
    7     5     8    1
    8     8     9    1
    9     8    10    1
   10     8    11    1
   11    11    12    1
   12    11    13    1
   13    11    14    1
   14    14    15    1
   15    14    16    1
   16    14    17    1
   17    17    18    1
   18    17    19    1
   19    17    20    1
@<TRIPOS>SUBSTRUCTURE
       1 MOL1            1 RESIDUE      1      MOL     
@<SCITEGIC>MOL_PROPERTY
VConf Rank
SciTegic.value.IntegerValue
82

@<SCITEGIC>MOL_PROPERTY
Conf_Id
SciTegic.value.IntegerValue
35

@<SCITEGIC>MOL_PROPERTY
Delta U+W
SciTegic.value.DoubleValue
0.360

@<SCITEGIC>MOL_PROPERTY
U+W
SciTegic.value.DoubleValue
15.698

@<SCITEGIC>MOL_PROPERTY
Grad RMS
SciTegic.value.DoubleValue
0.000000

@<SCITEGIC>MOL_PROPERTY
U
SciTegic.value.DoubleValue
69.962

@<SCITEGIC>MOL_PROPERTY
W
SciTegic.value.DoubleValue
-54.264

@<SCITEGIC>MOL_PROPERTY
W(PB)
SciTegic.value.DoubleValue
-56.166

@<SCITEGIC>MOL_PROPERTY
W(SA)
SciTegic.value.DoubleValue
1.902

@<SCITEGIC>MOL_PROPERTY
Valence
SciTegic.value.DoubleValue
0.982

@<SCITEGIC>MOL_PROPERTY
Coulomb
SciTegic.value.DoubleValue
69.058

@<SCITEGIC>MOL_PROPERTY
VdW
SciTegic.value.DoubleValue
-0.078

@<SCITEGIC>MOL_PROPERTY
VdW6
SciTegic.value.DoubleValue
-3.548

@<SCITEGIC>MOL_PROPERTY
VdW12
SciTegic.value.DoubleValue
3.471

@<SCITEGIC>MOL_PROPERTY
Bond
SciTegic.value.DoubleValue
0.105

@<SCITEGIC>MOL_PROPERTY
Angle
SciTegic.value.DoubleValue
0.408

@<SCITEGIC>MOL_PROPERTY
Pdih
SciTegic.value.DoubleValue
0.469

@<SCITEGIC>MOL_PROPERTY
Idih
SciTegic.value.DoubleValue
0.000

@<SCITEGIC>MOL_PROPERTY
Tether
SciTegic.value.DoubleValue
0.000

@<TRIPOS>MOLECULE
guest-s9_confgen4.mol2 : confsearch ligand conformer 83
          20          19           1
SMALL
USER_CHARGES
 
@<TRIPOS>ATOM
       1    C1      18.993483   20.554209   20.509305 C.3        1 MOL1        -0.2224
       2    H1      18.307501   19.702375   20.420561 H          1 MOL1         0.1052
       3    H2      18.447051   21.452997   20.195352 H          1 MOL1         0.1052
       4    H3      19.821267   20.402581   19.804410 H          1 MOL1         0.1052
       5    C2      19.516280   20.714893   21.955359 C.3        1 MOL1        -0.1209
       6    H4      18.668963   20.859904   22.640336 H          1 MOL1         0.1041
       7    H5      20.123441   21.628924   22.017722 H          1 MOL1         0.1041
       8    C3      20.367742   19.512817   22.426420 C.3        1 MOL1        -0.1274
       9    H6      21.232519   19.396239   21.760626 H          1 MOL1         0.1041
      10    H7      20.767233   19.727627   23.426310 H          1 MOL1         0.1041
      11    C4      19.559991   18.198108   22.476876 C.3        1 MOL1         0.0313
      12    H8      19.212370   17.936381   21.474671 H          1 MOL1         0.1015
      13    H9      18.682677   18.345307   23.111874 H          1 MOL1         0.1015
      14    N1      20.324830   17.006901   23.030449 N.4        1 MOL1        -0.4809
      15    H10     19.674776   16.220053   23.183775 H          1 MOL1         0.3726
      16    H11     20.699327   17.226017   23.966109 H          1 MOL1         0.3726
      17    C5      21.442067   16.578415   22.085172 C.3        1 MOL1        -0.0677
      18    H12     22.160624   17.393569   21.979866 H          1 MOL1         0.1026
      19    H13     21.942855   15.700052   22.498271 H          1 MOL1         0.1026
      20    H14     21.014262   16.333506   21.110646 H          1 MOL1         0.1026
@<TRIPOS>BOND
    1     1     2    1
    2     1     3    1
    3     1     4    1
    4     1     5    1
    5     5     6    1
    6     5     7    1
    7     5     8    1
    8     8     9    1
    9     8    10    1
   10     8    11    1
   11    11    12    1
   12    11    13    1
   13    11    14    1
   14    14    15    1
   15    14    16    1
   16    14    17    1
   17    17    18    1
   18    17    19    1
   19    17    20    1
@<TRIPOS>SUBSTRUCTURE
       1 MOL1            1 RESIDUE      1      MOL     
@<SCITEGIC>MOL_PROPERTY
VConf Rank
SciTegic.value.IntegerValue
83

@<SCITEGIC>MOL_PROPERTY
Conf_Id
SciTegic.value.IntegerValue
33

@<SCITEGIC>MOL_PROPERTY
Delta U+W
SciTegic.value.DoubleValue
0.372

@<SCITEGIC>MOL_PROPERTY
U+W
SciTegic.value.DoubleValue
15.711

@<SCITEGIC>MOL_PROPERTY
Grad RMS
SciTegic.value.DoubleValue
0.000000

@<SCITEGIC>MOL_PROPERTY
U
SciTegic.value.DoubleValue
70.163

@<SCITEGIC>MOL_PROPERTY
W
SciTegic.value.DoubleValue
-54.452

@<SCITEGIC>MOL_PROPERTY
W(PB)
SciTegic.value.DoubleValue
-56.363

@<SCITEGIC>MOL_PROPERTY
W(SA)
SciTegic.value.DoubleValue
1.911

@<SCITEGIC>MOL_PROPERTY
Valence
SciTegic.value.DoubleValue
1.420

@<SCITEGIC>MOL_PROPERTY
Coulomb
SciTegic.value.DoubleValue
68.566

@<SCITEGIC>MOL_PROPERTY
VdW
SciTegic.value.DoubleValue
0.177

@<SCITEGIC>MOL_PROPERTY
VdW6
SciTegic.value.DoubleValue
-4.267

@<SCITEGIC>MOL_PROPERTY
VdW12
SciTegic.value.DoubleValue
4.445

@<SCITEGIC>MOL_PROPERTY
Bond
SciTegic.value.DoubleValue
0.146

@<SCITEGIC>MOL_PROPERTY
Angle
SciTegic.value.DoubleValue
0.581

@<SCITEGIC>MOL_PROPERTY
Pdih
SciTegic.value.DoubleValue
0.693

@<SCITEGIC>MOL_PROPERTY
Idih
SciTegic.value.DoubleValue
0.000

@<SCITEGIC>MOL_PROPERTY
Tether
SciTegic.value.DoubleValue
0.000

@<TRIPOS>MOLECULE
guest-s9_confgen4.mol2 : confsearch ligand conformer 84
          20          19           1
SMALL
USER_CHARGES
 
@<TRIPOS>ATOM
       1    C1      20.665705   17.383654   24.071827 C.3        1 MOL1        -0.2224
       2    H1      21.218370   16.763731   24.789623 H          1 MOL1         0.1052
       3    H2      20.664562   18.411839   24.455106 H          1 MOL1         0.1052
       4    H3      19.628381   17.025130   24.049159 H          1 MOL1         0.1052
       5    C2      21.314213   17.299866   22.670888 C.3        1 MOL1        -0.1209
       6    H4      21.376730   16.245450   22.367106 H          1 MOL1         0.1041
       7    H5      22.348481   17.668689   22.720134 H          1 MOL1         0.1041
       8    C3      20.530525   18.087271   21.594920 C.3        1 MOL1        -0.1274
       9    H6      21.001190   17.921523   20.616903 H          1 MOL1         0.1041
      10    H7      19.509933   17.689653   21.524205 H          1 MOL1         0.1041
      11    C4      20.487088   19.603146   21.884226 C.3        1 MOL1         0.0313
      12    H8      21.510023   19.973148   21.990383 H          1 MOL1         0.1015
      13    H9      19.961194   19.787588   22.823999 H          1 MOL1         0.1015
      14    N1      19.814921   20.434162   20.803483 N.4        1 MOL1        -0.4809
      15    H10     20.262747   20.262751   19.890363 H          1 MOL1         0.3726
      16    H11     19.972356   21.436828   20.990784 H          1 MOL1         0.3726
      17    C5      18.318397   20.149085   20.736281 C.3        1 MOL1        -0.0677
      18    H12     17.866034   20.789906   19.976231 H          1 MOL1         0.1026
      19    H13     18.160219   19.101454   20.472961 H          1 MOL1         0.1026
      20    H14     17.868513   20.358518   21.709132 H          1 MOL1         0.1026
@<TRIPOS>BOND
    1     1     2    1
    2     1     3    1
    3     1     4    1
    4     1     5    1
    5     5     6    1
    6     5     7    1
    7     5     8    1
    8     8     9    1
    9     8    10    1
   10     8    11    1
   11    11    12    1
   12    11    13    1
   13    11    14    1
   14    14    15    1
   15    14    16    1
   16    14    17    1
   17    17    18    1
   18    17    19    1
   19    17    20    1
@<TRIPOS>SUBSTRUCTURE
       1 MOL1            1 RESIDUE      1      MOL     
@<SCITEGIC>MOL_PROPERTY
VConf Rank
SciTegic.value.IntegerValue
84

@<SCITEGIC>MOL_PROPERTY
Conf_Id
SciTegic.value.IntegerValue
53

@<SCITEGIC>MOL_PROPERTY
Delta U+W
SciTegic.value.DoubleValue
0.379

@<SCITEGIC>MOL_PROPERTY
U+W
SciTegic.value.DoubleValue
15.717

@<SCITEGIC>MOL_PROPERTY
Grad RMS
SciTegic.value.DoubleValue
0.000000

@<SCITEGIC>MOL_PROPERTY
U
SciTegic.value.DoubleValue
70.163

@<SCITEGIC>MOL_PROPERTY
W
SciTegic.value.DoubleValue
-54.446

@<SCITEGIC>MOL_PROPERTY
W(PB)
SciTegic.value.DoubleValue
-56.322

@<SCITEGIC>MOL_PROPERTY
W(SA)
SciTegic.value.DoubleValue
1.876

@<SCITEGIC>MOL_PROPERTY
Valence
SciTegic.value.DoubleValue
1.420

@<SCITEGIC>MOL_PROPERTY
Coulomb
SciTegic.value.DoubleValue
68.566

@<SCITEGIC>MOL_PROPERTY
VdW
SciTegic.value.DoubleValue
0.177

@<SCITEGIC>MOL_PROPERTY
VdW6
SciTegic.value.DoubleValue
-4.267

@<SCITEGIC>MOL_PROPERTY
VdW12
SciTegic.value.DoubleValue
4.445

@<SCITEGIC>MOL_PROPERTY
Bond
SciTegic.value.DoubleValue
0.146

@<SCITEGIC>MOL_PROPERTY
Angle
SciTegic.value.DoubleValue
0.581

@<SCITEGIC>MOL_PROPERTY
Pdih
SciTegic.value.DoubleValue
0.693

@<SCITEGIC>MOL_PROPERTY
Idih
SciTegic.value.DoubleValue
0.000

@<SCITEGIC>MOL_PROPERTY
Tether
SciTegic.value.DoubleValue
0.000

@<TRIPOS>MOLECULE
guest-s9_confgen4.mol2 : confsearch ligand conformer 85
          20          19           1
SMALL
USER_CHARGES
 
@<TRIPOS>ATOM
       1    C1      20.297811   21.253523   23.392170 C.3        1 MOL1        -0.2224
       2    H1      20.974892   22.096466   23.202412 H          1 MOL1         0.1052
       3    H2      19.306989   21.664542   23.625582 H          1 MOL1         0.1052
       4    H3      20.664379   20.721061   24.279455 H          1 MOL1         0.1052
       5    C2      20.237013   20.315958   22.166920 C.3        1 MOL1        -0.1209
       6    H4      21.249784   19.955821   21.940529 H          1 MOL1         0.1041
       7    H5      19.897781   20.884358   21.289410 H          1 MOL1         0.1041
       8    C3      19.289975   19.117236   22.409631 C.3        1 MOL1        -0.1274
       9    H6      19.639607   18.530241   23.268663 H          1 MOL1         0.1041
      10    H7      18.293001   19.491089   22.677819 H          1 MOL1         0.1041
      11    C4      19.148528   18.203326   21.172125 C.3        1 MOL1         0.0313
      12    H8      18.745310   18.789625   20.342489 H          1 MOL1         0.1015
      13    H9      18.439059   17.401243   21.390781 H          1 MOL1         0.1015
      14    N1      20.437964   17.557277   20.687763 N.4        1 MOL1        -0.4809
      15    H10     21.139324   18.280898   20.472126 H          1 MOL1         0.3726
      16    H11     20.267225   17.077314   19.790151 H          1 MOL1         0.3726
      17    C5      20.979727   16.565244   21.711139 C.3        1 MOL1        -0.0677
      18    H12     20.224488   15.800662   21.905271 H          1 MOL1         0.1026
      19    H13     21.882858   16.097587   21.312914 H          1 MOL1         0.1026
      20    H14     21.218335   17.093633   22.636279 H          1 MOL1         0.1026
@<TRIPOS>BOND
    1     1     2    1
    2     1     3    1
    3     1     4    1
    4     1     5    1
    5     5     6    1
    6     5     7    1
    7     5     8    1
    8     8     9    1
    9     8    10    1
   10     8    11    1
   11    11    12    1
   12    11    13    1
   13    11    14    1
   14    14    15    1
   15    14    16    1
   16    14    17    1
   17    17    18    1
   18    17    19    1
   19    17    20    1
@<TRIPOS>SUBSTRUCTURE
       1 MOL1            1 RESIDUE      1      MOL     
@<SCITEGIC>MOL_PROPERTY
VConf Rank
SciTegic.value.IntegerValue
85

@<SCITEGIC>MOL_PROPERTY
Conf_Id
SciTegic.value.IntegerValue
49

@<SCITEGIC>MOL_PROPERTY
Delta U+W
SciTegic.value.DoubleValue
0.268

@<SCITEGIC>MOL_PROPERTY
U+W
SciTegic.value.DoubleValue
15.607

@<SCITEGIC>MOL_PROPERTY
Grad RMS
SciTegic.value.DoubleValue
0.000000

@<SCITEGIC>MOL_PROPERTY
U
SciTegic.value.DoubleValue
70.298

@<SCITEGIC>MOL_PROPERTY
W
SciTegic.value.DoubleValue
-54.692

@<SCITEGIC>MOL_PROPERTY
W(PB)
SciTegic.value.DoubleValue
-56.576

@<SCITEGIC>MOL_PROPERTY
W(SA)
SciTegic.value.DoubleValue
1.885

@<SCITEGIC>MOL_PROPERTY
Valence
SciTegic.value.DoubleValue
1.245

@<SCITEGIC>MOL_PROPERTY
Coulomb
SciTegic.value.DoubleValue
68.933

@<SCITEGIC>MOL_PROPERTY
VdW
SciTegic.value.DoubleValue
0.120

@<SCITEGIC>MOL_PROPERTY
VdW6
SciTegic.value.DoubleValue
-4.430

@<SCITEGIC>MOL_PROPERTY
VdW12
SciTegic.value.DoubleValue
4.550

@<SCITEGIC>MOL_PROPERTY
Bond
SciTegic.value.DoubleValue
0.148

@<SCITEGIC>MOL_PROPERTY
Angle
SciTegic.value.DoubleValue
0.587

@<SCITEGIC>MOL_PROPERTY
Pdih
SciTegic.value.DoubleValue
0.509

@<SCITEGIC>MOL_PROPERTY
Idih
SciTegic.value.DoubleValue
0.000

@<SCITEGIC>MOL_PROPERTY
Tether
SciTegic.value.DoubleValue
0.000

@<TRIPOS>MOLECULE
guest-s9_confgen4.mol2 : confsearch ligand conformer 86
          20          19           1
SMALL
USER_CHARGES
 
@<TRIPOS>ATOM
       1    C1      19.941143   21.003931   20.355376 C.3        1 MOL1        -0.2224
       2    H1      20.680410   20.756977   19.582286 H          1 MOL1         0.1052
       3    H2      18.957897   21.085800   19.874062 H          1 MOL1         0.1052
       4    H3      20.198141   21.990023   20.763511 H          1 MOL1         0.1052
       5    C2      19.927593   19.937883   21.472376 C.3        1 MOL1        -0.1209
       6    H4      19.199712   20.226260   22.243750 H          1 MOL1         0.1041
       7    H5      20.914638   19.915906   21.952800 H          1 MOL1         0.1041
       8    C3      19.578561   18.535610   20.921531 C.3        1 MOL1        -0.1274
       9    H6      18.646563   18.599204   20.344390 H          1 MOL1         0.1041
      10    H7      20.355004   18.209505   20.217012 H          1 MOL1         0.1041
      11    C4      19.389498   17.457078   22.012336 C.3        1 MOL1         0.0313
      12    H8      19.084284   16.530161   21.519982 H          1 MOL1         0.1015
      13    H9      18.589352   17.746323   22.698194 H          1 MOL1         0.1015
      14    N1      20.626524   17.128792   22.834075 N.4        1 MOL1        -0.4809
      15    H10     21.476959   17.229618   22.260112 H          1 MOL1         0.3726
      16    H11     20.604090   16.131707   23.099265 H          1 MOL1         0.3726
      17    C5      20.699906   17.981828   24.096451 C.3        1 MOL1        -0.0677
      18    H12     21.587274   17.699169   24.667099 H          1 MOL1         0.1026
      19    H13     20.759607   19.036800   23.826676 H          1 MOL1         0.1026
      20    H14     19.806078   17.806651   24.699007 H          1 MOL1         0.1026
@<TRIPOS>BOND
    1     1     2    1
    2     1     3    1
    3     1     4    1
    4     1     5    1
    5     5     6    1
    6     5     7    1
    7     5     8    1
    8     8     9    1
    9     8    10    1
   10     8    11    1
   11    11    12    1
   12    11    13    1
   13    11    14    1
   14    14    15    1
   15    14    16    1
   16    14    17    1
   17    17    18    1
   18    17    19    1
   19    17    20    1
@<TRIPOS>SUBSTRUCTURE
       1 MOL1            1 RESIDUE      1      MOL     
@<SCITEGIC>MOL_PROPERTY
VConf Rank
SciTegic.value.IntegerValue
86

@<SCITEGIC>MOL_PROPERTY
Conf_Id
SciTegic.value.IntegerValue
65

@<SCITEGIC>MOL_PROPERTY
Delta U+W
SciTegic.value.DoubleValue
1.775

@<SCITEGIC>MOL_PROPERTY
U+W
SciTegic.value.DoubleValue
17.114

@<SCITEGIC>MOL_PROPERTY
Grad RMS
SciTegic.value.DoubleValue
0.000000

@<SCITEGIC>MOL_PROPERTY
U
SciTegic.value.DoubleValue
71.726

@<SCITEGIC>MOL_PROPERTY
W
SciTegic.value.DoubleValue
-54.613

@<SCITEGIC>MOL_PROPERTY
W(PB)
SciTegic.value.DoubleValue
-56.495

@<SCITEGIC>MOL_PROPERTY
W(SA)
SciTegic.value.DoubleValue
1.883

@<SCITEGIC>MOL_PROPERTY
Valence
SciTegic.value.DoubleValue
2.885

@<SCITEGIC>MOL_PROPERTY
Coulomb
SciTegic.value.DoubleValue
68.822

@<SCITEGIC>MOL_PROPERTY
VdW
SciTegic.value.DoubleValue
0.019

@<SCITEGIC>MOL_PROPERTY
VdW6
SciTegic.value.DoubleValue
-4.600

@<SCITEGIC>MOL_PROPERTY
VdW12
SciTegic.value.DoubleValue
4.619

@<SCITEGIC>MOL_PROPERTY
Bond
SciTegic.value.DoubleValue
0.152

@<SCITEGIC>MOL_PROPERTY
Angle
SciTegic.value.DoubleValue
0.862

@<SCITEGIC>MOL_PROPERTY
Pdih
SciTegic.value.DoubleValue
1.871

@<SCITEGIC>MOL_PROPERTY
Idih
SciTegic.value.DoubleValue
0.000

@<SCITEGIC>MOL_PROPERTY
Tether
SciTegic.value.DoubleValue
0.000

@<TRIPOS>MOLECULE
guest-s9_confgen4.mol2 : confsearch ligand conformer 87
          20          19           1
SMALL
USER_CHARGES
 
@<TRIPOS>ATOM
       1    C1      21.928594   20.186252   21.578021 C.3        1 MOL1        -0.2224
       2    H1      20.925019   20.624310   21.507710 H          1 MOL1         0.1052
       3    H2      22.577629   20.923642   22.067907 H          1 MOL1         0.1052
       4    H3      22.307265   20.032183   20.559227 H          1 MOL1         0.1052
       5    C2      21.917484   18.860510   22.373292 C.3        1 MOL1        -0.1209
       6    H4      21.536106   19.040885   23.387504 H          1 MOL1         0.1041
       7    H5      22.951741   18.509820   22.497126 H          1 MOL1         0.1041
       8    C3      21.092465   17.745425   21.683418 C.3        1 MOL1        -0.1274
       9    H6      21.549367   17.505786   20.714099 H          1 MOL1         0.1041
      10    H7      21.147987   16.826889   22.282544 H          1 MOL1         0.1041
      11    C4      19.611441   18.111830   21.452586 C.3        1 MOL1         0.0313
      12    H8      19.110925   17.288823   20.936171 H          1 MOL1         0.1015
      13    H9      19.546430   18.998975   20.818146 H          1 MOL1         0.1015
      14    N1      18.839788   18.391364   22.728131 N.4        1 MOL1        -0.4809
      15    H10     19.287030   19.160047   23.249274 H          1 MOL1         0.3726
      16    H11     18.880297   17.573079   23.354763 H          1 MOL1         0.3726
      17    C5      17.395295   18.740515   22.396390 C.3        1 MOL1        -0.0677
      18    H12     16.933319   17.900586   21.873073 H          1 MOL1         0.1026
      19    H13     16.852510   18.940348   23.322900 H          1 MOL1         0.1026
      20    H14     17.376531   19.627848   21.759956 H          1 MOL1         0.1026
@<TRIPOS>BOND
    1     1     2    1
    2     1     3    1
    3     1     4    1
    4     1     5    1
    5     5     6    1
    6     5     7    1
    7     5     8    1
    8     8     9    1
    9     8    10    1
   10     8    11    1
   11    11    12    1
   12    11    13    1
   13    11    14    1
   14    14    15    1
   15    14    16    1
   16    14    17    1
   17    17    18    1
   18    17    19    1
   19    17    20    1
@<TRIPOS>SUBSTRUCTURE
       1 MOL1            1 RESIDUE      1      MOL     
@<SCITEGIC>MOL_PROPERTY
VConf Rank
SciTegic.value.IntegerValue
87

@<SCITEGIC>MOL_PROPERTY
Conf_Id
SciTegic.value.IntegerValue
23

@<SCITEGIC>MOL_PROPERTY
Delta U+W
SciTegic.value.DoubleValue
0.896

@<SCITEGIC>MOL_PROPERTY
U+W
SciTegic.value.DoubleValue
16.234

@<SCITEGIC>MOL_PROPERTY
Grad RMS
SciTegic.value.DoubleValue
0.000000

@<SCITEGIC>MOL_PROPERTY
U
SciTegic.value.DoubleValue
70.374

@<SCITEGIC>MOL_PROPERTY
W
SciTegic.value.DoubleValue
-54.140

@<SCITEGIC>MOL_PROPERTY
W(PB)
SciTegic.value.DoubleValue
-56.046

@<SCITEGIC>MOL_PROPERTY
W(SA)
SciTegic.value.DoubleValue
1.907

@<SCITEGIC>MOL_PROPERTY
Valence
SciTegic.value.DoubleValue
1.257

@<SCITEGIC>MOL_PROPERTY
Coulomb
SciTegic.value.DoubleValue
69.240

@<SCITEGIC>MOL_PROPERTY
VdW
SciTegic.value.DoubleValue
-0.123

@<SCITEGIC>MOL_PROPERTY
VdW6
SciTegic.value.DoubleValue
-4.336

@<SCITEGIC>MOL_PROPERTY
VdW12
SciTegic.value.DoubleValue
4.213

@<SCITEGIC>MOL_PROPERTY
Bond
SciTegic.value.DoubleValue
0.128

@<SCITEGIC>MOL_PROPERTY
Angle
SciTegic.value.DoubleValue
0.603

@<SCITEGIC>MOL_PROPERTY
Pdih
SciTegic.value.DoubleValue
0.526

@<SCITEGIC>MOL_PROPERTY
Idih
SciTegic.value.DoubleValue
0.000

@<SCITEGIC>MOL_PROPERTY
Tether
SciTegic.value.DoubleValue
0.000

@<TRIPOS>MOLECULE
guest-s9_confgen4.mol2 : confsearch ligand conformer 88
          20          19           1
SMALL
USER_CHARGES
 
@<TRIPOS>ATOM
       1    C1      19.305118   21.005953   21.854262 C.3        1 MOL1        -0.2224
       2    H1      18.573124   21.094158   21.040951 H          1 MOL1         0.1052
       3    H2      19.369057   21.981398   22.353660 H          1 MOL1         0.1052
       4    H3      20.286602   20.796940   21.410408 H          1 MOL1         0.1052
       5    C2      18.888861   19.908108   22.860064 C.3        1 MOL1        -0.1209
       6    H4      17.949014   20.206485   23.345516 H          1 MOL1         0.1041
       7    H5      19.635337   19.839982   23.663023 H          1 MOL1         0.1041
       8    C3      18.689416   18.521861   22.197842 C.3        1 MOL1        -0.1274
       9    H6      18.369246   17.797098   22.958074 H          1 MOL1         0.1041
      10    H7      17.869008   18.584067   21.470637 H          1 MOL1         0.1041
      11    C4      19.944250   17.982831   21.479644 C.3        1 MOL1         0.0313
      12    H8      20.242614   18.676364   20.689862 H          1 MOL1         0.1015
      13    H9      19.710952   17.021222   21.015512 H          1 MOL1         0.1015
      14    N1      21.136146   17.774775   22.394359 N.4        1 MOL1        -0.4809
      15    H10     20.890542   17.123947   23.155936 H          1 MOL1         0.3726
      16    H11     21.383230   18.661398   22.858404 H          1 MOL1         0.3726
      17    C5      22.318204   17.242426   21.595694 C.3        1 MOL1        -0.0677
      18    H12     22.580330   17.962472   20.817502 H          1 MOL1         0.1026
      19    H13     23.168580   17.098665   22.265892 H          1 MOL1         0.1026
      20    H14     22.043842   16.288807   21.139516 H          1 MOL1         0.1026
@<TRIPOS>BOND
    1     1     2    1
    2     1     3    1
    3     1     4    1
    4     1     5    1
    5     5     6    1
    6     5     7    1
    7     5     8    1
    8     8     9    1
    9     8    10    1
   10     8    11    1
   11    11    12    1
   12    11    13    1
   13    11    14    1
   14    14    15    1
   15    14    16    1
   16    14    17    1
   17    17    18    1
   18    17    19    1
   19    17    20    1
@<TRIPOS>SUBSTRUCTURE
       1 MOL1            1 RESIDUE      1      MOL     
@<SCITEGIC>MOL_PROPERTY
VConf Rank
SciTegic.value.IntegerValue
88

@<SCITEGIC>MOL_PROPERTY
Conf_Id
SciTegic.value.IntegerValue
24

@<SCITEGIC>MOL_PROPERTY
Delta U+W
SciTegic.value.DoubleValue
0.792

@<SCITEGIC>MOL_PROPERTY
U+W
SciTegic.value.DoubleValue
16.130

@<SCITEGIC>MOL_PROPERTY
Grad RMS
SciTegic.value.DoubleValue
0.000000

@<SCITEGIC>MOL_PROPERTY
U
SciTegic.value.DoubleValue
70.374

@<SCITEGIC>MOL_PROPERTY
W
SciTegic.value.DoubleValue
-54.243

@<SCITEGIC>MOL_PROPERTY
W(PB)
SciTegic.value.DoubleValue
-56.130

@<SCITEGIC>MOL_PROPERTY
W(SA)
SciTegic.value.DoubleValue
1.887

@<SCITEGIC>MOL_PROPERTY
Valence
SciTegic.value.DoubleValue
1.257

@<SCITEGIC>MOL_PROPERTY
Coulomb
SciTegic.value.DoubleValue
69.240

@<SCITEGIC>MOL_PROPERTY
VdW
SciTegic.value.DoubleValue
-0.123

@<SCITEGIC>MOL_PROPERTY
VdW6
SciTegic.value.DoubleValue
-4.336

@<SCITEGIC>MOL_PROPERTY
VdW12
SciTegic.value.DoubleValue
4.213

@<SCITEGIC>MOL_PROPERTY
Bond
SciTegic.value.DoubleValue
0.128

@<SCITEGIC>MOL_PROPERTY
Angle
SciTegic.value.DoubleValue
0.603

@<SCITEGIC>MOL_PROPERTY
Pdih
SciTegic.value.DoubleValue
0.526

@<SCITEGIC>MOL_PROPERTY
Idih
SciTegic.value.DoubleValue
0.000

@<SCITEGIC>MOL_PROPERTY
Tether
SciTegic.value.DoubleValue
0.000

@<TRIPOS>MOLECULE
guest-s9_confgen4.mol2 : confsearch ligand conformer 89
          20          19           1
SMALL
USER_CHARGES
 
@<TRIPOS>ATOM
       1    C1      21.078243   16.933136   22.402795 C.3        1 MOL1        -0.2224
       2    H1      21.387986   15.961172   22.808462 H          1 MOL1         0.1052
       3    H2      20.065531   16.805619   22.002543 H          1 MOL1         0.1052
       4    H3      21.758756   17.180474   21.577635 H          1 MOL1         0.1052
       5    C2      21.120215   18.012172   23.508861 C.3        1 MOL1        -0.1209
       6    H4      22.091427   17.952590   24.020001 H          1 MOL1         0.1041
       7    H5      20.361818   17.784042   24.271025 H          1 MOL1         0.1041
       8    C3      20.925342   19.462780   22.998374 C.3        1 MOL1        -0.1274
       9    H6      21.043159   20.140828   23.854054 H          1 MOL1         0.1041
      10    H7      21.721955   19.729377   22.291239 H          1 MOL1         0.1041
      11    C4      19.544204   19.737023   22.366287 C.3        1 MOL1         0.0313
      12    H8      19.351693   20.812780   22.381492 H          1 MOL1         0.1015
      13    H9      18.764997   19.244993   22.953676 H          1 MOL1         0.1015
      14    N1      19.415657   19.285751   20.923780 N.4        1 MOL1        -0.4809
      15    H10     19.640667   18.283736   20.846618 H          1 MOL1         0.3726
      16    H11     20.113052   19.769480   20.337559 H          1 MOL1         0.3726
      17    C5      18.006940   19.560380   20.415341 C.3        1 MOL1        -0.0677
      18    H12     17.289287   19.012785   21.030062 H          1 MOL1         0.1026
      19    H13     17.804742   20.631839   20.477432 H          1 MOL1         0.1026
      20    H14     17.929419   19.230816   19.376906 H          1 MOL1         0.1026
@<TRIPOS>BOND
    1     1     2    1
    2     1     3    1
    3     1     4    1
    4     1     5    1
    5     5     6    1
    6     5     7    1
    7     5     8    1
    8     8     9    1
    9     8    10    1
   10     8    11    1
   11    11    12    1
   12    11    13    1
   13    11    14    1
   14    14    15    1
   15    14    16    1
   16    14    17    1
   17    17    18    1
   18    17    19    1
   19    17    20    1
@<TRIPOS>SUBSTRUCTURE
       1 MOL1            1 RESIDUE      1      MOL     
@<SCITEGIC>MOL_PROPERTY
VConf Rank
SciTegic.value.IntegerValue
89

@<SCITEGIC>MOL_PROPERTY
Conf_Id
SciTegic.value.IntegerValue
26

@<SCITEGIC>MOL_PROPERTY
Delta U+W
SciTegic.value.DoubleValue
2.888

@<SCITEGIC>MOL_PROPERTY
U+W
SciTegic.value.DoubleValue
18.226

@<SCITEGIC>MOL_PROPERTY
Grad RMS
SciTegic.value.DoubleValue
0.000000

@<SCITEGIC>MOL_PROPERTY
U
SciTegic.value.DoubleValue
72.042

@<SCITEGIC>MOL_PROPERTY
W
SciTegic.value.DoubleValue
-53.816

@<SCITEGIC>MOL_PROPERTY
W(PB)
SciTegic.value.DoubleValue
-55.689

@<SCITEGIC>MOL_PROPERTY
W(SA)
SciTegic.value.DoubleValue
1.873

@<SCITEGIC>MOL_PROPERTY
Valence
SciTegic.value.DoubleValue
2.428

@<SCITEGIC>MOL_PROPERTY
Coulomb
SciTegic.value.DoubleValue
69.829

@<SCITEGIC>MOL_PROPERTY
VdW
SciTegic.value.DoubleValue
-0.215

@<SCITEGIC>MOL_PROPERTY
VdW6
SciTegic.value.DoubleValue
-4.563

@<SCITEGIC>MOL_PROPERTY
VdW12
SciTegic.value.DoubleValue
4.348

@<SCITEGIC>MOL_PROPERTY
Bond
SciTegic.value.DoubleValue
0.137

@<SCITEGIC>MOL_PROPERTY
Angle
SciTegic.value.DoubleValue
0.936

@<SCITEGIC>MOL_PROPERTY
Pdih
SciTegic.value.DoubleValue
1.356

@<SCITEGIC>MOL_PROPERTY
Idih
SciTegic.value.DoubleValue
0.000

@<SCITEGIC>MOL_PROPERTY
Tether
SciTegic.value.DoubleValue
0.000

@<TRIPOS>MOLECULE
guest-s9_confgen4.mol2 : confsearch ligand conformer 90
          20          19           1
SMALL
USER_CHARGES
 
@<TRIPOS>ATOM
       1    C1      20.674433   20.757805   23.020306 C.3        1 MOL1        -0.2224
       2    H1      20.777511   21.823321   23.263760 H          1 MOL1         0.1052
       3    H2      21.325657   20.196816   23.703214 H          1 MOL1         0.1052
       4    H3      21.037851   20.626630   21.994261 H          1 MOL1         0.1052
       5    C2      19.199445   20.317318   23.161172 C.3        1 MOL1        -0.1209
       6    H4      18.591398   20.827564   22.400887 H          1 MOL1         0.1041
       7    H5      18.821750   20.663002   24.133754 H          1 MOL1         0.1041
       8    C3      18.974675   18.786535   23.066214 C.3        1 MOL1        -0.1274
       9    H6      19.518060   18.269943   23.868444 H          1 MOL1         0.1041
      10    H7      17.909919   18.589381   23.248538 H          1 MOL1         0.1041
      11    C4      19.340647   18.171129   21.698872 C.3        1 MOL1         0.0313
      12    H8      19.008013   18.832765   20.895207 H          1 MOL1         0.1015
      13    H9      18.822558   17.215272   21.587228 H          1 MOL1         0.1015
      14    N1      20.820674   17.895597   21.512853 N.4        1 MOL1        -0.4809
      15    H10     21.152071   17.237136   22.234387 H          1 MOL1         0.3726
      16    H11     21.361340   18.759465   21.661288 H          1 MOL1         0.3726
      17    C5      21.075501   17.335346   20.120161 C.3        1 MOL1        -0.0677
      18    H12     20.747226   18.062299   19.374144 H          1 MOL1         0.1026
      19    H13     22.143852   17.142036   20.000877 H          1 MOL1         0.1026
      20    H14     20.517366   16.404395   19.999407 H          1 MOL1         0.1026
@<TRIPOS>BOND
    1     1     2    1
    2     1     3    1
    3     1     4    1
    4     1     5    1
    5     5     6    1
    6     5     7    1
    7     5     8    1
    8     8     9    1
    9     8    10    1
   10     8    11    1
   11    11    12    1
   12    11    13    1
   13    11    14    1
   14    14    15    1
   15    14    16    1
   16    14    17    1
   17    17    18    1
   18    17    19    1
   19    17    20    1
@<TRIPOS>SUBSTRUCTURE
       1 MOL1            1 RESIDUE      1      MOL     
@<SCITEGIC>MOL_PROPERTY
VConf Rank
SciTegic.value.IntegerValue
90

@<SCITEGIC>MOL_PROPERTY
Conf_Id
SciTegic.value.IntegerValue
5

@<SCITEGIC>MOL_PROPERTY
Delta U+W
SciTegic.value.DoubleValue
2.950

@<SCITEGIC>MOL_PROPERTY
U+W
SciTegic.value.DoubleValue
18.289

@<SCITEGIC>MOL_PROPERTY
Grad RMS
SciTegic.value.DoubleValue
0.000000

@<SCITEGIC>MOL_PROPERTY
U
SciTegic.value.DoubleValue
72.042

@<SCITEGIC>MOL_PROPERTY
W
SciTegic.value.DoubleValue
-53.753

@<SCITEGIC>MOL_PROPERTY
W(PB)
SciTegic.value.DoubleValue
-55.644

@<SCITEGIC>MOL_PROPERTY
W(SA)
SciTegic.value.DoubleValue
1.891

@<SCITEGIC>MOL_PROPERTY
Valence
SciTegic.value.DoubleValue
2.428

@<SCITEGIC>MOL_PROPERTY
Coulomb
SciTegic.value.DoubleValue
69.829

@<SCITEGIC>MOL_PROPERTY
VdW
SciTegic.value.DoubleValue
-0.215

@<SCITEGIC>MOL_PROPERTY
VdW6
SciTegic.value.DoubleValue
-4.563

@<SCITEGIC>MOL_PROPERTY
VdW12
SciTegic.value.DoubleValue
4.348

@<SCITEGIC>MOL_PROPERTY
Bond
SciTegic.value.DoubleValue
0.137

@<SCITEGIC>MOL_PROPERTY
Angle
SciTegic.value.DoubleValue
0.936

@<SCITEGIC>MOL_PROPERTY
Pdih
SciTegic.value.DoubleValue
1.356

@<SCITEGIC>MOL_PROPERTY
Idih
SciTegic.value.DoubleValue
0.000

@<SCITEGIC>MOL_PROPERTY
Tether
SciTegic.value.DoubleValue
0.000

@<TRIPOS>MOLECULE
guest-s9_confgen4.mol2 : confsearch ligand conformer 91
          20          19           1
SMALL
USER_CHARGES
 
@<TRIPOS>ATOM
       1    C1      18.318499   17.160985   21.845954 C.3        1 MOL1        -0.2224
       2    H1      17.573943   17.235490   22.649162 H          1 MOL1         0.1052
       3    H2      18.094307   17.932768   21.099050 H          1 MOL1         0.1052
       4    H3      18.190664   16.184401   21.361282 H          1 MOL1         0.1052
       5    C2      19.753226   17.306070   22.403315 C.3        1 MOL1        -0.1209
       6    H4      20.479689   17.224523   21.583337 H          1 MOL1         0.1041
       7    H5      19.961464   16.463138   23.077108 H          1 MOL1         0.1041
       8    C3      19.972807   18.629431   23.177779 C.3        1 MOL1        -0.1274
       9    H6      19.305344   18.652466   24.049270 H          1 MOL1         0.1041
      10    H7      20.993939   18.651060   23.579741 H          1 MOL1         0.1041
      11    C4      19.723633   19.900519   22.334109 C.3        1 MOL1         0.0313
      12    H8      19.901028   20.787106   22.948041 H          1 MOL1         0.1015
      13    H9      18.677916   19.917779   22.017473 H          1 MOL1         0.1015
      14    N1      20.579832   20.025655   21.083274 N.4        1 MOL1        -0.4809
      15    H10     20.249997   20.822540   20.516494 H          1 MOL1         0.3726
      16    H11     20.449731   19.198328   20.482684 H          1 MOL1         0.3726
      17    C5      22.051196   20.213274   21.436130 C.3        1 MOL1        -0.0677
      18    H12     22.406894   19.337249   21.982068 H          1 MOL1         0.1026
      19    H13     22.627789   20.330878   20.516012 H          1 MOL1         0.1026
      20    H14     22.161085   21.105771   22.055814 H          1 MOL1         0.1026
@<TRIPOS>BOND
    1     1     2    1
    2     1     3    1
    3     1     4    1
    4     1     5    1
    5     5     6    1
    6     5     7    1
    7     5     8    1
    8     8     9    1
    9     8    10    1
   10     8    11    1
   11    11    12    1
   12    11    13    1
   13    11    14    1
   14    14    15    1
   15    14    16    1
   16    14    17    1
   17    17    18    1
   18    17    19    1
   19    17    20    1
@<TRIPOS>SUBSTRUCTURE
       1 MOL1            1 RESIDUE      1      MOL     
@<SCITEGIC>MOL_PROPERTY
VConf Rank
SciTegic.value.IntegerValue
91

@<SCITEGIC>MOL_PROPERTY
Conf_Id
SciTegic.value.IntegerValue
52

@<SCITEGIC>MOL_PROPERTY
Delta U+W
SciTegic.value.DoubleValue
0.784

@<SCITEGIC>MOL_PROPERTY
U+W
SciTegic.value.DoubleValue
16.122

@<SCITEGIC>MOL_PROPERTY
Grad RMS
SciTegic.value.DoubleValue
0.000000

@<SCITEGIC>MOL_PROPERTY
U
SciTegic.value.DoubleValue
70.777

@<SCITEGIC>MOL_PROPERTY
W
SciTegic.value.DoubleValue
-54.655

@<SCITEGIC>MOL_PROPERTY
W(PB)
SciTegic.value.DoubleValue
-56.491

@<SCITEGIC>MOL_PROPERTY
W(SA)
SciTegic.value.DoubleValue
1.836

@<SCITEGIC>MOL_PROPERTY
Valence
SciTegic.value.DoubleValue
1.529

@<SCITEGIC>MOL_PROPERTY
Coulomb
SciTegic.value.DoubleValue
69.166

@<SCITEGIC>MOL_PROPERTY
VdW
SciTegic.value.DoubleValue
0.082

@<SCITEGIC>MOL_PROPERTY
VdW6
SciTegic.value.DoubleValue
-5.166

@<SCITEGIC>MOL_PROPERTY
VdW12
SciTegic.value.DoubleValue
5.248

@<SCITEGIC>MOL_PROPERTY
Bond
SciTegic.value.DoubleValue
0.171

@<SCITEGIC>MOL_PROPERTY
Angle
SciTegic.value.DoubleValue
0.752

@<SCITEGIC>MOL_PROPERTY
Pdih
SciTegic.value.DoubleValue
0.605

@<SCITEGIC>MOL_PROPERTY
Idih
SciTegic.value.DoubleValue
0.000

@<SCITEGIC>MOL_PROPERTY
Tether
SciTegic.value.DoubleValue
0.000

@<TRIPOS>MOLECULE
guest-s9_confgen4.mol2 : confsearch ligand conformer 92
          20          19           1
SMALL
USER_CHARGES
 
@<TRIPOS>ATOM
       1    C1      18.869313   19.996278   20.659603 C.3        1 MOL1        -0.2224
       2    H1      18.120677   20.529771   20.059520 H          1 MOL1         0.1052
       3    H2      19.416274   20.752019   21.234792 H          1 MOL1         0.1052
       4    H3      19.564561   19.506428   19.965351 H          1 MOL1         0.1052
       5    C2      18.179635   18.966929   21.583804 C.3        1 MOL1        -0.1209
       6    H4      17.465934   18.383831   20.984929 H          1 MOL1         0.1041
       7    H5      17.581155   19.494768   22.339598 H          1 MOL1         0.1041
       8    C3      19.149798   17.979199   22.280941 C.3        1 MOL1        -0.1274
       9    H6      18.545095   17.244906   22.829334 H          1 MOL1         0.1041
      10    H7      19.708378   17.403573   21.532245 H          1 MOL1         0.1041
      11    C4      20.118172   18.634994   23.292739 C.3        1 MOL1         0.0313
      12    H8      20.513570   17.866669   23.961886 H          1 MOL1         0.1015
      13    H9      19.564365   19.354018   23.901649 H          1 MOL1         0.1015
      14    N1      21.313914   19.356325   22.690748 N.4        1 MOL1        -0.4809
      15    H10     21.784900   19.913188   23.420977 H          1 MOL1         0.3726
      16    H11     20.997246   20.041181   21.990365 H          1 MOL1         0.3726
      17    C5      22.301257   18.371271   22.074676 C.3        1 MOL1        -0.0677
      18    H12     22.631894   17.667249   22.841274 H          1 MOL1         0.1026
      19    H13     21.814891   17.830620   21.260574 H          1 MOL1         0.1026
      20    H14     23.160689   18.922074   21.686208 H          1 MOL1         0.1026
@<TRIPOS>BOND
    1     1     2    1
    2     1     3    1
    3     1     4    1
    4     1     5    1
    5     5     6    1
    6     5     7    1
    7     5     8    1
    8     8     9    1
    9     8    10    1
   10     8    11    1
   11    11    12    1
   12    11    13    1
   13    11    14    1
   14    14    15    1
   15    14    16    1
   16    14    17    1
   17    17    18    1
   18    17    19    1
   19    17    20    1
@<TRIPOS>SUBSTRUCTURE
       1 MOL1            1 RESIDUE      1      MOL     
@<SCITEGIC>MOL_PROPERTY
VConf Rank
SciTegic.value.IntegerValue
92

@<SCITEGIC>MOL_PROPERTY
Conf_Id
SciTegic.value.IntegerValue
55

@<SCITEGIC>MOL_PROPERTY
Delta U+W
SciTegic.value.DoubleValue
2.745

@<SCITEGIC>MOL_PROPERTY
U+W
SciTegic.value.DoubleValue
18.083

@<SCITEGIC>MOL_PROPERTY
Grad RMS
SciTegic.value.DoubleValue
0.000000

@<SCITEGIC>MOL_PROPERTY
U
SciTegic.value.DoubleValue
72.490

@<SCITEGIC>MOL_PROPERTY
W
SciTegic.value.DoubleValue
-54.407

@<SCITEGIC>MOL_PROPERTY
W(PB)
SciTegic.value.DoubleValue
-56.269

@<SCITEGIC>MOL_PROPERTY
W(SA)
SciTegic.value.DoubleValue
1.861

@<SCITEGIC>MOL_PROPERTY
Valence
SciTegic.value.DoubleValue
2.738

@<SCITEGIC>MOL_PROPERTY
Coulomb
SciTegic.value.DoubleValue
69.795

@<SCITEGIC>MOL_PROPERTY
VdW
SciTegic.value.DoubleValue
-0.043

@<SCITEGIC>MOL_PROPERTY
VdW6
SciTegic.value.DoubleValue
-5.333

@<SCITEGIC>MOL_PROPERTY
VdW12
SciTegic.value.DoubleValue
5.290

@<SCITEGIC>MOL_PROPERTY
Bond
SciTegic.value.DoubleValue
0.182

@<SCITEGIC>MOL_PROPERTY
Angle
SciTegic.value.DoubleValue
1.135

@<SCITEGIC>MOL_PROPERTY
Pdih
SciTegic.value.DoubleValue
1.422

@<SCITEGIC>MOL_PROPERTY
Idih
SciTegic.value.DoubleValue
0.000

@<SCITEGIC>MOL_PROPERTY
Tether
SciTegic.value.DoubleValue
0.000

@<TRIPOS>MOLECULE
guest-s9_confgen4.mol2 : confsearch ligand conformer 93
          20          19           1
SMALL
USER_CHARGES
 
@<TRIPOS>ATOM
       1    C1      20.369502   20.420643   23.337425 C.3        1 MOL1        -0.2224
       2    H1      20.604377   21.351212   23.870381 H          1 MOL1         0.1052
       3    H2      19.627399   19.873927   23.933825 H          1 MOL1         0.1052
       4    H3      21.293818   19.833187   23.296377 H          1 MOL1         0.1052
       5    C2      19.832021   20.735288   21.922687 C.3        1 MOL1        -0.1209
       6    H4      20.633964   21.177445   21.314902 H          1 MOL1         0.1041
       7    H5      19.055436   21.508297   22.008702 H          1 MOL1         0.1041
       8    C3      19.224717   19.516940   21.181308 C.3        1 MOL1        -0.1274
       9    H6      18.382902   19.105898   21.752529 H          1 MOL1         0.1041
      10    H7      18.794972   19.877856   20.237568 H          1 MOL1         0.1041
      11    C4      20.239961   18.402765   20.835692 C.3        1 MOL1         0.0313
      12    H8      21.152540   18.860484   20.445615 H          1 MOL1         0.1015
      13    H9      19.823456   17.768027   20.049527 H          1 MOL1         0.1015
      14    N1      20.631618   17.486211   21.984187 N.4        1 MOL1        -0.4809
      15    H10     20.958807   18.043957   22.785252 H          1 MOL1         0.3726
      16    H11     21.441566   16.910342   21.705767 H          1 MOL1         0.3726
      17    C5      19.471964   16.584230   22.392052 C.3        1 MOL1        -0.0677
      18    H12     18.641422   17.197929   22.745875 H          1 MOL1         0.1026
      19    H13     19.155226   15.994180   21.529407 H          1 MOL1         0.1026
      20    H14     19.801486   15.917837   23.192206 H          1 MOL1         0.1026
@<TRIPOS>BOND
    1     1     2    1
    2     1     3    1
    3     1     4    1
    4     1     5    1
    5     5     6    1
    6     5     7    1
    7     5     8    1
    8     8     9    1
    9     8    10    1
   10     8    11    1
   11    11    12    1
   12    11    13    1
   13    11    14    1
   14    14    15    1
   15    14    16    1
   16    14    17    1
   17    17    18    1
   18    17    19    1
   19    17    20    1
@<TRIPOS>SUBSTRUCTURE
       1 MOL1            1 RESIDUE      1      MOL     
@<SCITEGIC>MOL_PROPERTY
VConf Rank
SciTegic.value.IntegerValue
93

@<SCITEGIC>MOL_PROPERTY
Conf_Id
SciTegic.value.IntegerValue
76

@<SCITEGIC>MOL_PROPERTY
Delta U+W
SciTegic.value.DoubleValue
2.799

@<SCITEGIC>MOL_PROPERTY
U+W
SciTegic.value.DoubleValue
18.137

@<SCITEGIC>MOL_PROPERTY
Grad RMS
SciTegic.value.DoubleValue
0.000000

@<SCITEGIC>MOL_PROPERTY
U
SciTegic.value.DoubleValue
72.490

@<SCITEGIC>MOL_PROPERTY
W
SciTegic.value.DoubleValue
-54.353

@<SCITEGIC>MOL_PROPERTY
W(PB)
SciTegic.value.DoubleValue
-56.201

@<SCITEGIC>MOL_PROPERTY
W(SA)
SciTegic.value.DoubleValue
1.848

@<SCITEGIC>MOL_PROPERTY
Valence
SciTegic.value.DoubleValue
2.738

@<SCITEGIC>MOL_PROPERTY
Coulomb
SciTegic.value.DoubleValue
69.795

@<SCITEGIC>MOL_PROPERTY
VdW
SciTegic.value.DoubleValue
-0.043

@<SCITEGIC>MOL_PROPERTY
VdW6
SciTegic.value.DoubleValue
-5.334

@<SCITEGIC>MOL_PROPERTY
VdW12
SciTegic.value.DoubleValue
5.290

@<SCITEGIC>MOL_PROPERTY
Bond
SciTegic.value.DoubleValue
0.182

@<SCITEGIC>MOL_PROPERTY
Angle
SciTegic.value.DoubleValue
1.135

@<SCITEGIC>MOL_PROPERTY
Pdih
SciTegic.value.DoubleValue
1.421

@<SCITEGIC>MOL_PROPERTY
Idih
SciTegic.value.DoubleValue
0.000

@<SCITEGIC>MOL_PROPERTY
Tether
SciTegic.value.DoubleValue
0.000

@<TRIPOS>MOLECULE
guest-s9_confgen4.mol2 : confsearch ligand conformer 94
          20          19           1
SMALL
USER_CHARGES
 
@<TRIPOS>ATOM
       1    C1      21.780437   17.586511   21.362813 C.3        1 MOL1        -0.2224
       2    H1      21.556049   17.529705   22.434948 H          1 MOL1         0.1052
       3    H2      21.570190   16.605198   20.918096 H          1 MOL1         0.1052
       4    H3      22.856414   17.777089   21.258901 H          1 MOL1         0.1052
       5    C2      20.962764   18.698090   20.665413 C.3        1 MOL1        -0.1209
       6    H4      21.275980   18.761063   19.613860 H          1 MOL1         0.1041
       7    H5      21.200814   19.674926   21.105738 H          1 MOL1         0.1041
       8    C3      19.435289   18.449064   20.712865 C.3        1 MOL1        -0.1274
       9    H6      18.919586   19.248588   20.164943 H          1 MOL1         0.1041
      10    H7      19.214120   17.521155   20.169067 H          1 MOL1         0.1041
      11    C4      18.826706   18.334159   22.130294 C.3        1 MOL1         0.0313
      12    H8      19.329108   17.550133   22.701662 H          1 MOL1         0.1015
      13    H9      17.779113   18.042176   22.020930 H          1 MOL1         0.1015
      14    N1      18.834700   19.612691   22.955058 N.4        1 MOL1        -0.4809
      15    H10     18.014702   19.617293   23.581463 H          1 MOL1         0.3726
      16    H11     18.704240   20.433857   22.345705 H          1 MOL1         0.3726
      17    C5      20.103532   19.736960   23.791640 C.3        1 MOL1        -0.0677
      18    H12     20.050260   20.651134   24.386934 H          1 MOL1         0.1026
      19    H13     20.181410   18.872408   24.454268 H          1 MOL1         0.1026
      20    H14     20.974557   19.777892   23.136918 H          1 MOL1         0.1026
@<TRIPOS>BOND
    1     1     2    1
    2     1     3    1
    3     1     4    1
    4     1     5    1
    5     5     6    1
    6     5     7    1
    7     5     8    1
    8     8     9    1
    9     8    10    1
   10     8    11    1
   11    11    12    1
   12    11    13    1
   13    11    14    1
   14    14    15    1
   15    14    16    1
   16    14    17    1
   17    17    18    1
   18    17    19    1
   19    17    20    1
@<TRIPOS>SUBSTRUCTURE
       1 MOL1            1 RESIDUE      1      MOL     
@<SCITEGIC>MOL_PROPERTY
VConf Rank
SciTegic.value.IntegerValue
94

@<SCITEGIC>MOL_PROPERTY
Conf_Id
SciTegic.value.IntegerValue
60

@<SCITEGIC>MOL_PROPERTY
Delta U+W
SciTegic.value.DoubleValue
1.788

@<SCITEGIC>MOL_PROPERTY
U+W
SciTegic.value.DoubleValue
17.127

@<SCITEGIC>MOL_PROPERTY
Grad RMS
SciTegic.value.DoubleValue
0.000000

@<SCITEGIC>MOL_PROPERTY
U
SciTegic.value.DoubleValue
72.122

@<SCITEGIC>MOL_PROPERTY
W
SciTegic.value.DoubleValue
-54.995

@<SCITEGIC>MOL_PROPERTY
W(PB)
SciTegic.value.DoubleValue
-56.810

@<SCITEGIC>MOL_PROPERTY
W(SA)
SciTegic.value.DoubleValue
1.815

@<SCITEGIC>MOL_PROPERTY
Valence
SciTegic.value.DoubleValue
3.197

@<SCITEGIC>MOL_PROPERTY
Coulomb
SciTegic.value.DoubleValue
69.115

@<SCITEGIC>MOL_PROPERTY
VdW
SciTegic.value.DoubleValue
-0.190

@<SCITEGIC>MOL_PROPERTY
VdW6
SciTegic.value.DoubleValue
-5.585

@<SCITEGIC>MOL_PROPERTY
VdW12
SciTegic.value.DoubleValue
5.395

@<SCITEGIC>MOL_PROPERTY
Bond
SciTegic.value.DoubleValue
0.177

@<SCITEGIC>MOL_PROPERTY
Angle
SciTegic.value.DoubleValue
1.207

@<SCITEGIC>MOL_PROPERTY
Pdih
SciTegic.value.DoubleValue
1.813

@<SCITEGIC>MOL_PROPERTY
Idih
SciTegic.value.DoubleValue
0.000

@<SCITEGIC>MOL_PROPERTY
Tether
SciTegic.value.DoubleValue
0.000

@<TRIPOS>MOLECULE
guest-s9_confgen4.mol2 : confsearch ligand conformer 95
          20          19           1
SMALL
USER_CHARGES
 
@<TRIPOS>ATOM
       1    C1      21.708813   17.643747   21.086596 C.3        1 MOL1        -0.2224
       2    H1      22.226402   17.654075   20.118691 H          1 MOL1         0.1052
       3    H2      22.233561   16.933683   21.738823 H          1 MOL1         0.1052
       4    H3      20.694259   17.263568   20.915732 H          1 MOL1         0.1052
       5    C2      21.692050   19.059436   21.707969 C.3        1 MOL1        -0.1209
       6    H4      21.184319   19.761695   21.034319 H          1 MOL1         0.1041
       7    H5      22.726307   19.421636   21.791369 H          1 MOL1         0.1041
       8    C3      21.039021   19.099065   23.111334 C.3        1 MOL1        -0.1274
       9    H6      21.632334   18.474373   23.792058 H          1 MOL1         0.1041
      10    H7      21.098881   20.119785   23.511275 H          1 MOL1         0.1041
      11    C4      19.570168   18.617973   23.172139 C.3        1 MOL1         0.0313
      12    H8      19.273918   18.582633   24.223640 H          1 MOL1         0.1015
      13    H9      19.480496   17.605898   22.770606 H          1 MOL1         0.1015
      14    N1      18.556930   19.508035   22.467810 N.4        1 MOL1        -0.4809
      15    H10     18.834078   20.497962   22.544491 H          1 MOL1         0.3726
      16    H11     17.652774   19.449213   22.961615 H          1 MOL1         0.3726
      17    C5      18.359497   19.096923   21.012732 C.3        1 MOL1        -0.0677
      18    H12     18.023324   18.058521   20.976690 H          1 MOL1         0.1026
      19    H13     17.604285   19.742416   20.558947 H          1 MOL1         0.1026
      20    H14     19.299863   19.197870   20.470014 H          1 MOL1         0.1026
@<TRIPOS>BOND
    1     1     2    1
    2     1     3    1
    3     1     4    1
    4     1     5    1
    5     5     6    1
    6     5     7    1
    7     5     8    1
    8     8     9    1
    9     8    10    1
   10     8    11    1
   11    11    12    1
   12    11    13    1
   13    11    14    1
   14    14    15    1
   15    14    16    1
   16    14    17    1
   17    17    18    1
   18    17    19    1
   19    17    20    1
@<TRIPOS>SUBSTRUCTURE
       1 MOL1            1 RESIDUE      1      MOL     
@<SCITEGIC>MOL_PROPERTY
VConf Rank
SciTegic.value.IntegerValue
95

@<SCITEGIC>MOL_PROPERTY
Conf_Id
SciTegic.value.IntegerValue
54

@<SCITEGIC>MOL_PROPERTY
Delta U+W
SciTegic.value.DoubleValue
1.880

@<SCITEGIC>MOL_PROPERTY
U+W
SciTegic.value.DoubleValue
17.218

@<SCITEGIC>MOL_PROPERTY
Grad RMS
SciTegic.value.DoubleValue
0.000000

@<SCITEGIC>MOL_PROPERTY
U
SciTegic.value.DoubleValue
72.122

@<SCITEGIC>MOL_PROPERTY
W
SciTegic.value.DoubleValue
-54.903

@<SCITEGIC>MOL_PROPERTY
W(PB)
SciTegic.value.DoubleValue
-56.724

@<SCITEGIC>MOL_PROPERTY
W(SA)
SciTegic.value.DoubleValue
1.821

@<SCITEGIC>MOL_PROPERTY
Valence
SciTegic.value.DoubleValue
3.197

@<SCITEGIC>MOL_PROPERTY
Coulomb
SciTegic.value.DoubleValue
69.115

@<SCITEGIC>MOL_PROPERTY
VdW
SciTegic.value.DoubleValue
-0.190

@<SCITEGIC>MOL_PROPERTY
VdW6
SciTegic.value.DoubleValue
-5.585

@<SCITEGIC>MOL_PROPERTY
VdW12
SciTegic.value.DoubleValue
5.395

@<SCITEGIC>MOL_PROPERTY
Bond
SciTegic.value.DoubleValue
0.177

@<SCITEGIC>MOL_PROPERTY
Angle
SciTegic.value.DoubleValue
1.207

@<SCITEGIC>MOL_PROPERTY
Pdih
SciTegic.value.DoubleValue
1.813

@<SCITEGIC>MOL_PROPERTY
Idih
SciTegic.value.DoubleValue
0.000

@<SCITEGIC>MOL_PROPERTY
Tether
SciTegic.value.DoubleValue
0.000

@<TRIPOS>MOLECULE
guest-s9_confgen4.mol2 : confsearch ligand conformer 96
          20          19           1
SMALL
USER_CHARGES
 
@<TRIPOS>ATOM
       1    C1      17.009228   19.028225   20.989033 C.3        1 MOL1        -0.2224
       2    H1      17.144032   19.898121   20.333070 H          1 MOL1         0.1052
       3    H2      16.283631   18.356785   20.511851 H          1 MOL1         0.1052
       4    H3      16.573031   19.377414   21.934007 H          1 MOL1         0.1052
       5    C2      18.349480   18.300400   21.230332 C.3        1 MOL1        -0.1209
       6    H4      18.743111   17.932941   20.272011 H          1 MOL1         0.1041
       7    H5      18.176621   17.416396   21.860418 H          1 MOL1         0.1041
       8    C3      19.391186   19.222323   21.901650 C.3        1 MOL1        -0.1274
       9    H6      19.565897   20.103435   21.269920 H          1 MOL1         0.1041
      10    H7      18.998558   19.586304   22.860465 H          1 MOL1         0.1041
      11    C4      20.724608   18.489352   22.138976 C.3        1 MOL1         0.0313
      12    H8      21.126005   18.139164   21.184650 H          1 MOL1         0.1015
      13    H9      20.556870   17.620495   22.780412 H          1 MOL1         0.1015
      14    N1      21.779627   19.356764   22.797183 N.4        1 MOL1        -0.4809
      15    H10     21.434169   19.714491   23.700979 H          1 MOL1         0.3726
      16    H11     21.961146   20.194668   22.223492 H          1 MOL1         0.3726
      17    C5      23.060718   18.557307   22.994286 C.3        1 MOL1        -0.0677
      18    H12     23.426554   18.218369   22.022642 H          1 MOL1         0.1026
      19    H13     23.811231   19.193473   23.468661 H          1 MOL1         0.1026
      20    H14     22.852611   17.695425   23.631985 H          1 MOL1         0.1026
@<TRIPOS>BOND
    1     1     2    1
    2     1     3    1
    3     1     4    1
    4     1     5    1
    5     5     6    1
    6     5     7    1
    7     5     8    1
    8     8     9    1
    9     8    10    1
   10     8    11    1
   11    11    12    1
   12    11    13    1
   13    11    14    1
   14    14    15    1
   15    14    16    1
   16    14    17    1
   17    17    18    1
   18    17    19    1
   19    17    20    1
@<TRIPOS>SUBSTRUCTURE
       1 MOL1            1 RESIDUE      1      MOL     
@<SCITEGIC>MOL_PROPERTY
VConf Rank
SciTegic.value.IntegerValue
96

@<SCITEGIC>MOL_PROPERTY
Conf_Id
SciTegic.value.IntegerValue
67

@<SCITEGIC>MOL_PROPERTY
Delta U+W
SciTegic.value.DoubleValue
0.000

@<SCITEGIC>MOL_PROPERTY
U+W
SciTegic.value.DoubleValue
15.338

@<SCITEGIC>MOL_PROPERTY
Grad RMS
SciTegic.value.DoubleValue
0.000000

@<SCITEGIC>MOL_PROPERTY
U
SciTegic.value.DoubleValue
69.277

@<SCITEGIC>MOL_PROPERTY
W
SciTegic.value.DoubleValue
-53.939

@<SCITEGIC>MOL_PROPERTY
W(PB)
SciTegic.value.DoubleValue
-55.889

@<SCITEGIC>MOL_PROPERTY
W(SA)
SciTegic.value.DoubleValue
1.950

@<SCITEGIC>MOL_PROPERTY
Valence
SciTegic.value.DoubleValue
0.846

@<SCITEGIC>MOL_PROPERTY
Coulomb
SciTegic.value.DoubleValue
68.557

@<SCITEGIC>MOL_PROPERTY
VdW
SciTegic.value.DoubleValue
-0.127

@<SCITEGIC>MOL_PROPERTY
VdW6
SciTegic.value.DoubleValue
-3.008

@<SCITEGIC>MOL_PROPERTY
VdW12
SciTegic.value.DoubleValue
2.882

@<SCITEGIC>MOL_PROPERTY
Bond
SciTegic.value.DoubleValue
0.088

@<SCITEGIC>MOL_PROPERTY
Angle
SciTegic.value.DoubleValue
0.332

@<SCITEGIC>MOL_PROPERTY
Pdih
SciTegic.value.DoubleValue
0.426

@<SCITEGIC>MOL_PROPERTY
Idih
SciTegic.value.DoubleValue
0.000

@<SCITEGIC>MOL_PROPERTY
Tether
SciTegic.value.DoubleValue
0.000

@<TRIPOS>MOLECULE
guest-s9_confgen4.mol2 : confsearch ligand conformer 97
          20          19           1
SMALL
USER_CHARGES
 
@<TRIPOS>ATOM
       1    C1      19.621589   21.643490   20.901433 C.3        1 MOL1        -0.2224
       2    H1      18.756546   21.280123   20.331490 H          1 MOL1         0.1052
       3    H2      19.406670   22.672036   21.219116 H          1 MOL1         0.1052
       4    H3      20.486848   21.674091   20.226482 H          1 MOL1         0.1052
       5    C2      19.901041   20.742099   22.123592 C.3        1 MOL1        -0.1209
       6    H4      19.031772   20.759040   22.796208 H          1 MOL1         0.1041
       7    H5      20.748386   21.150575   22.692329 H          1 MOL1         0.1041
       8    C3      20.207365   19.286866   21.706275 C.3        1 MOL1        -0.1274
       9    H6      19.358875   18.883339   21.138838 H          1 MOL1         0.1041
      10    H7      21.078371   19.270274   21.037923 H          1 MOL1         0.1041
      11    C4      20.486551   18.394820   22.933582 C.3        1 MOL1         0.0313
      12    H8      19.605984   18.367064   23.580276 H          1 MOL1         0.1015
      13    H9      21.312174   18.826445   23.505181 H          1 MOL1         0.1015
      14    N1      20.868499   16.961620   22.600688 N.4        1 MOL1        -0.4809
      15    H10     21.195606   16.484312   23.455360 H          1 MOL1         0.3726
      16    H11     21.679347   16.946624   21.963447 H          1 MOL1         0.3726
      17    C5      19.692168   16.199046   22.000485 C.3        1 MOL1        -0.0677
      18    H12     19.394496   16.671200   21.062217 H          1 MOL1         0.1026
      19    H13     19.994497   15.166747   21.810941 H          1 MOL1         0.1026
      20    H14     18.857147   16.214336   22.704199 H          1 MOL1         0.1026
@<TRIPOS>BOND
    1     1     2    1
    2     1     3    1
    3     1     4    1
    4     1     5    1
    5     5     6    1
    6     5     7    1
    7     5     8    1
    8     8     9    1
    9     8    10    1
   10     8    11    1
   11    11    12    1
   12    11    13    1
   13    11    14    1
   14    14    15    1
   15    14    16    1
   16    14    17    1
   17    17    18    1
   18    17    19    1
   19    17    20    1
@<TRIPOS>SUBSTRUCTURE
       1 MOL1            1 RESIDUE      1      MOL     
@<SCITEGIC>MOL_PROPERTY
VConf Rank
SciTegic.value.IntegerValue
97

@<SCITEGIC>MOL_PROPERTY
Conf_Id
SciTegic.value.IntegerValue
37

@<SCITEGIC>MOL_PROPERTY
Delta U+W
SciTegic.value.DoubleValue
-0.021

@<SCITEGIC>MOL_PROPERTY
U+W
SciTegic.value.DoubleValue
15.318

@<SCITEGIC>MOL_PROPERTY
Grad RMS
SciTegic.value.DoubleValue
0.000000

@<SCITEGIC>MOL_PROPERTY
U
SciTegic.value.DoubleValue
69.657

@<SCITEGIC>MOL_PROPERTY
W
SciTegic.value.DoubleValue
-54.340

@<SCITEGIC>MOL_PROPERTY
W(PB)
SciTegic.value.DoubleValue
-56.238

@<SCITEGIC>MOL_PROPERTY
W(SA)
SciTegic.value.DoubleValue
1.899

@<SCITEGIC>MOL_PROPERTY
Valence
SciTegic.value.DoubleValue
1.137

@<SCITEGIC>MOL_PROPERTY
Coulomb
SciTegic.value.DoubleValue
68.383

@<SCITEGIC>MOL_PROPERTY
VdW
SciTegic.value.DoubleValue
0.138

@<SCITEGIC>MOL_PROPERTY
VdW6
SciTegic.value.DoubleValue
-3.703

@<SCITEGIC>MOL_PROPERTY
VdW12
SciTegic.value.DoubleValue
3.841

@<SCITEGIC>MOL_PROPERTY
Bond
SciTegic.value.DoubleValue
0.125

@<SCITEGIC>MOL_PROPERTY
Angle
SciTegic.value.DoubleValue
0.468

@<SCITEGIC>MOL_PROPERTY
Pdih
SciTegic.value.DoubleValue
0.543

@<SCITEGIC>MOL_PROPERTY
Idih
SciTegic.value.DoubleValue
0.000

@<SCITEGIC>MOL_PROPERTY
Tether
SciTegic.value.DoubleValue
0.000

@<TRIPOS>MOLECULE
guest-s9_confgen4.mol2 : confsearch ligand conformer 98
          20          19           1
SMALL
USER_CHARGES
 
@<TRIPOS>ATOM
       1    C1      19.227615   18.948598   24.888921 C.3        1 MOL1        -0.2224
       2    H1      18.455286   18.625094   25.598762 H          1 MOL1         0.1052
       3    H2      20.168429   18.456977   25.168822 H          1 MOL1         0.1052
       4    H3      19.360067   20.031958   25.007062 H          1 MOL1         0.1052
       5    C2      18.822634   18.592199   23.442118 C.3        1 MOL1        -0.1209
       6    H4      17.861583   19.069638   23.203911 H          1 MOL1         0.1041
       7    H5      18.664183   17.507249   23.364004 H          1 MOL1         0.1041
       8    C3      19.892072   19.036471   22.420056 C.3        1 MOL1        -0.1274
       9    H6      20.046709   20.120902   22.495674 H          1 MOL1         0.1041
      10    H7      20.849600   18.557467   22.661820 H          1 MOL1         0.1041
      11    C4      19.477872   18.677584   20.977972 C.3        1 MOL1         0.0313
      12    H8      18.508723   19.135066   20.763169 H          1 MOL1         0.1015
      13    H9      19.368999   17.594409   20.881732 H          1 MOL1         0.1015
      14    N1      20.446919   19.148006   19.905401 N.4        1 MOL1        -0.4809
      15    H10     20.601195   20.164752   19.984159 H          1 MOL1         0.3726
      16    H11     20.021240   19.016964   18.974320 H          1 MOL1         0.3726
      17    C5      21.768513   18.390917   19.981034 C.3        1 MOL1        -0.0677
      18    H12     21.576555   17.321083   19.874669 H          1 MOL1         0.1026
      19    H13     22.421313   18.729484   19.173446 H          1 MOL1         0.1026
      20    H14     22.244883   18.587848   20.943415 H          1 MOL1         0.1026
@<TRIPOS>BOND
    1     1     2    1
    2     1     3    1
    3     1     4    1
    4     1     5    1
    5     5     6    1
    6     5     7    1
    7     5     8    1
    8     8     9    1
    9     8    10    1
   10     8    11    1
   11    11    12    1
   12    11    13    1
   13    11    14    1
   14    14    15    1
   15    14    16    1
   16    14    17    1
   17    17    18    1
   18    17    19    1
   19    17    20    1
@<TRIPOS>SUBSTRUCTURE
       1 MOL1            1 RESIDUE      1      MOL     
@<SCITEGIC>MOL_PROPERTY
VConf Rank
SciTegic.value.IntegerValue
98

@<SCITEGIC>MOL_PROPERTY
Conf_Id
SciTegic.value.IntegerValue
2

@<SCITEGIC>MOL_PROPERTY
Delta U+W
SciTegic.value.DoubleValue
0.069

@<SCITEGIC>MOL_PROPERTY
U+W
SciTegic.value.DoubleValue
15.407

@<SCITEGIC>MOL_PROPERTY
Grad RMS
SciTegic.value.DoubleValue
0.000000

@<SCITEGIC>MOL_PROPERTY
U
SciTegic.value.DoubleValue
69.657

@<SCITEGIC>MOL_PROPERTY
W
SciTegic.value.DoubleValue
-54.250

@<SCITEGIC>MOL_PROPERTY
W(PB)
SciTegic.value.DoubleValue
-56.176

@<SCITEGIC>MOL_PROPERTY
W(SA)
SciTegic.value.DoubleValue
1.926

@<SCITEGIC>MOL_PROPERTY
Valence
SciTegic.value.DoubleValue
1.137

@<SCITEGIC>MOL_PROPERTY
Coulomb
SciTegic.value.DoubleValue
68.383

@<SCITEGIC>MOL_PROPERTY
VdW
SciTegic.value.DoubleValue
0.138

@<SCITEGIC>MOL_PROPERTY
VdW6
SciTegic.value.DoubleValue
-3.703

@<SCITEGIC>MOL_PROPERTY
VdW12
SciTegic.value.DoubleValue
3.841

@<SCITEGIC>MOL_PROPERTY
Bond
SciTegic.value.DoubleValue
0.125

@<SCITEGIC>MOL_PROPERTY
Angle
SciTegic.value.DoubleValue
0.468

@<SCITEGIC>MOL_PROPERTY
Pdih
SciTegic.value.DoubleValue
0.543

@<SCITEGIC>MOL_PROPERTY
Idih
SciTegic.value.DoubleValue
0.000

@<SCITEGIC>MOL_PROPERTY
Tether
SciTegic.value.DoubleValue
0.000

@<TRIPOS>MOLECULE
guest-s9_confgen4.mol2 : confsearch ligand conformer 99
          20          19           1
SMALL
USER_CHARGES
 
@<TRIPOS>ATOM
       1    C1      20.775949   16.297524   21.291013 C.3        1 MOL1        -0.2224
       2    H1      21.372659   16.661974   22.136694 H          1 MOL1         0.1052
       3    H2      19.894342   15.780000   21.691060 H          1 MOL1         0.1052
       4    H3      21.382622   15.557601   20.753004 H          1 MOL1         0.1052
       5    C2      20.363943   17.450394   20.346858 C.3        1 MOL1        -0.1209
       6    H4      19.851379   17.029949   19.470206 H          1 MOL1         0.1041
       7    H5      21.263230   17.954781   19.965961 H          1 MOL1         0.1041
       8    C3      19.434184   18.484067   21.024536 C.3        1 MOL1        -0.1274
       9    H6      19.121501   19.226573   20.278365 H          1 MOL1         0.1041
      10    H7      18.520675   17.984375   21.373355 H          1 MOL1         0.1041
      11    C4      20.111274   19.207815   22.204783 C.3        1 MOL1         0.0313
      12    H8      21.019098   19.707055   21.856950 H          1 MOL1         0.1015
      13    H9      20.390822   18.480954   22.971133 H          1 MOL1         0.1015
      14    N1      19.226844   20.251643   22.857989 N.4        1 MOL1        -0.4809
      15    H10     18.352036   19.819098   23.192211 H          1 MOL1         0.3726
      16    H11     18.934881   20.956681   22.163883 H          1 MOL1         0.3726
      17    C5      19.969319   20.913596   24.011089 C.3        1 MOL1        -0.0677
      18    H12     20.872894   21.393597   23.629050 H          1 MOL1         0.1026
      19    H13     19.321523   21.662497   24.472079 H          1 MOL1         0.1026
      20    H14     20.237805   20.154723   24.749213 H          1 MOL1         0.1026
@<TRIPOS>BOND
    1     1     2    1
    2     1     3    1
    3     1     4    1
    4     1     5    1
    5     5     6    1
    6     5     7    1
    7     5     8    1
    8     8     9    1
    9     8    10    1
   10     8    11    1
   11    11    12    1
   12    11    13    1
   13    11    14    1
   14    14    15    1
   15    14    16    1
   16    14    17    1
   17    17    18    1
   18    17    19    1
   19    17    20    1
@<TRIPOS>SUBSTRUCTURE
       1 MOL1            1 RESIDUE      1      MOL     
@<SCITEGIC>MOL_PROPERTY
VConf Rank
SciTegic.value.IntegerValue
99

@<SCITEGIC>MOL_PROPERTY
Conf_Id
SciTegic.value.IntegerValue
34

@<SCITEGIC>MOL_PROPERTY
Delta U+W
SciTegic.value.DoubleValue
0.276

@<SCITEGIC>MOL_PROPERTY
U+W
SciTegic.value.DoubleValue
15.615

@<SCITEGIC>MOL_PROPERTY
Grad RMS
SciTegic.value.DoubleValue
0.000000

@<SCITEGIC>MOL_PROPERTY
U
SciTegic.value.DoubleValue
69.798

@<SCITEGIC>MOL_PROPERTY
W
SciTegic.value.DoubleValue
-54.184

@<SCITEGIC>MOL_PROPERTY
W(PB)
SciTegic.value.DoubleValue
-56.116

@<SCITEGIC>MOL_PROPERTY
W(SA)
SciTegic.value.DoubleValue
1.933

@<SCITEGIC>MOL_PROPERTY
Valence
SciTegic.value.DoubleValue
1.134

@<SCITEGIC>MOL_PROPERTY
Coulomb
SciTegic.value.DoubleValue
68.735

@<SCITEGIC>MOL_PROPERTY
VdW
SciTegic.value.DoubleValue
-0.070

@<SCITEGIC>MOL_PROPERTY
VdW6
SciTegic.value.DoubleValue
-3.565

@<SCITEGIC>MOL_PROPERTY
VdW12
SciTegic.value.DoubleValue
3.494

@<SCITEGIC>MOL_PROPERTY
Bond
SciTegic.value.DoubleValue
0.108

@<SCITEGIC>MOL_PROPERTY
Angle
SciTegic.value.DoubleValue
0.456

@<SCITEGIC>MOL_PROPERTY
Pdih
SciTegic.value.DoubleValue
0.569

@<SCITEGIC>MOL_PROPERTY
Idih
SciTegic.value.DoubleValue
0.000

@<SCITEGIC>MOL_PROPERTY
Tether
SciTegic.value.DoubleValue
0.000

@<TRIPOS>MOLECULE
guest-s9_confgen4.mol2 : confsearch ligand conformer 100
          20          19           1
SMALL
USER_CHARGES
 
@<TRIPOS>ATOM
       1    C1      19.024294   21.587263   21.352456 C.3        1 MOL1        -0.2224
       2    H1      19.855907   22.180928   20.951020 H          1 MOL1         0.1052
       3    H2      18.132100   21.811028   20.753336 H          1 MOL1         0.1052
       4    H3      18.831361   21.921124   22.380316 H          1 MOL1         0.1052
       5    C2      19.346133   20.077768   21.309254 C.3        1 MOL1        -0.1209
       6    H4      19.502583   19.768529   20.266076 H          1 MOL1         0.1041
       7    H5      18.478442   19.515402   21.679866 H          1 MOL1         0.1041
       8    C3      20.600627   19.735771   22.147388 C.3        1 MOL1        -0.1274
       9    H6      21.449441   20.334105   21.790466 H          1 MOL1         0.1041
      10    H7      20.440689   20.016338   23.196940 H          1 MOL1         0.1041
      11    C4      20.986923   18.245281   22.065187 C.3        1 MOL1         0.0313
      12    H8      21.925862   18.085421   22.601338 H          1 MOL1         0.1015
      13    H9      21.139580   17.962430   21.020618 H          1 MOL1         0.1015
      14    N1      19.955298   17.304929   22.659639 N.4        1 MOL1        -0.4809
      15    H10     19.050250   17.421241   22.180250 H          1 MOL1         0.3726
      16    H11     19.777616   17.549761   23.645810 H          1 MOL1         0.3726
      17    C5      20.437627   15.865095   22.545292 C.3        1 MOL1        -0.0677
      18    H12     20.587140   15.618181   21.491979 H          1 MOL1         0.1026
      19    H13     21.379541   15.757062   23.087430 H          1 MOL1         0.1026
      20    H14     19.686434   15.199636   22.976409 H          1 MOL1         0.1026
@<TRIPOS>BOND
    1     1     2    1
    2     1     3    1
    3     1     4    1
    4     1     5    1
    5     5     6    1
    6     5     7    1
    7     5     8    1
    8     8     9    1
    9     8    10    1
   10     8    11    1
   11    11    12    1
   12    11    13    1
   13    11    14    1
   14    14    15    1
   15    14    16    1
   16    14    17    1
   17    17    18    1
   18    17    19    1
   19    17    20    1
@<TRIPOS>SUBSTRUCTURE
       1 MOL1            1 RESIDUE      1      MOL     
@<SCITEGIC>MOL_PROPERTY
VConf Rank
SciTegic.value.IntegerValue
100

@<SCITEGIC>MOL_PROPERTY
Conf_Id
SciTegic.value.IntegerValue
50

@<SCITEGIC>MOL_PROPERTY
Delta U+W
SciTegic.value.DoubleValue
0.319

@<SCITEGIC>MOL_PROPERTY
U+W
SciTegic.value.DoubleValue
15.657

@<SCITEGIC>MOL_PROPERTY
Grad RMS
SciTegic.value.DoubleValue
0.000000

@<SCITEGIC>MOL_PROPERTY
U
SciTegic.value.DoubleValue
69.962

@<SCITEGIC>MOL_PROPERTY
W
SciTegic.value.DoubleValue
-54.305

@<SCITEGIC>MOL_PROPERTY
W(PB)
SciTegic.value.DoubleValue
-56.223

@<SCITEGIC>MOL_PROPERTY
W(SA)
SciTegic.value.DoubleValue
1.918

@<SCITEGIC>MOL_PROPERTY
Valence
SciTegic.value.DoubleValue
0.982

@<SCITEGIC>MOL_PROPERTY
Coulomb
SciTegic.value.DoubleValue
69.058

@<SCITEGIC>MOL_PROPERTY
VdW
SciTegic.value.DoubleValue
-0.078

@<SCITEGIC>MOL_PROPERTY
VdW6
SciTegic.value.DoubleValue
-3.548

@<SCITEGIC>MOL_PROPERTY
VdW12
SciTegic.value.DoubleValue
3.471

@<SCITEGIC>MOL_PROPERTY
Bond
SciTegic.value.DoubleValue
0.105

@<SCITEGIC>MOL_PROPERTY
Angle
SciTegic.value.DoubleValue
0.408

@<SCITEGIC>MOL_PROPERTY
Pdih
SciTegic.value.DoubleValue
0.469

@<SCITEGIC>MOL_PROPERTY
Idih
SciTegic.value.DoubleValue
0.000

@<SCITEGIC>MOL_PROPERTY
Tether
SciTegic.value.DoubleValue
0.000

@<TRIPOS>MOLECULE
guest-s9_confgen4.mol2 : confsearch ligand conformer 101
          20          19           1
SMALL
USER_CHARGES
 
@<TRIPOS>ATOM
       1    C1      22.805481   17.638570   22.552364 C.3        1 MOL1        -0.2224
       2    H1      23.679919   18.199342   22.907216 H          1 MOL1         0.1052
       3    H2      22.686186   16.758727   23.197975 H          1 MOL1         0.1052
       4    H3      23.021107   17.288478   21.534462 H          1 MOL1         0.1052
       5    C2      21.541231   18.524547   22.579557 C.3        1 MOL1        -0.1209
       6    H4      21.712240   19.412572   21.956129 H          1 MOL1         0.1041
       7    H5      21.370685   18.884305   23.604160 H          1 MOL1         0.1041
       8    C3      20.293428   17.756763   22.082883 C.3        1 MOL1        -0.1274
       9    H6      20.445681   17.418501   21.049319 H          1 MOL1         0.1041
      10    H7      20.158632   16.852039   22.690491 H          1 MOL1         0.1041
      11    C4      19.002427   18.595784   22.165977 C.3        1 MOL1         0.0313
      12    H8      18.852973   18.939212   23.192698 H          1 MOL1         0.1015
      13    H9      18.148348   17.972891   21.888177 H          1 MOL1         0.1015
      14    N1      18.995349   19.812034   21.259018 N.4        1 MOL1        -0.4809
      15    H10     19.144755   19.525776   20.279333 H          1 MOL1         0.3726
      16    H11     19.787046   20.431003   21.488253 H          1 MOL1         0.3726
      17    C5      17.676177   20.559160   21.401948 C.3        1 MOL1        -0.0677
      18    H12     17.684639   21.431379   20.744566 H          1 MOL1         0.1026
      19    H13     16.854848   19.895727   21.122555 H          1 MOL1         0.1026
      20    H14     17.555131   20.880682   22.438656 H          1 MOL1         0.1026
@<TRIPOS>BOND
    1     1     2    1
    2     1     3    1
    3     1     4    1
    4     1     5    1
    5     5     6    1
    6     5     7    1
    7     5     8    1
    8     8     9    1
    9     8    10    1
   10     8    11    1
   11    11    12    1
   12    11    13    1
   13    11    14    1
   14    14    15    1
   15    14    16    1
   16    14    17    1
   17    17    18    1
   18    17    19    1
   19    17    20    1
@<TRIPOS>SUBSTRUCTURE
       1 MOL1            1 RESIDUE      1      MOL     
@<SCITEGIC>MOL_PROPERTY
VConf Rank
SciTegic.value.IntegerValue
101

@<SCITEGIC>MOL_PROPERTY
Conf_Id
SciTegic.value.IntegerValue
35

@<SCITEGIC>MOL_PROPERTY
Delta U+W
SciTegic.value.DoubleValue
0.360

@<SCITEGIC>MOL_PROPERTY
U+W
SciTegic.value.DoubleValue
15.698

@<SCITEGIC>MOL_PROPERTY
Grad RMS
SciTegic.value.DoubleValue
0.000000

@<SCITEGIC>MOL_PROPERTY
U
SciTegic.value.DoubleValue
69.962

@<SCITEGIC>MOL_PROPERTY
W
SciTegic.value.DoubleValue
-54.264

@<SCITEGIC>MOL_PROPERTY
W(PB)
SciTegic.value.DoubleValue
-56.166

@<SCITEGIC>MOL_PROPERTY
W(SA)
SciTegic.value.DoubleValue
1.902

@<SCITEGIC>MOL_PROPERTY
Valence
SciTegic.value.DoubleValue
0.982

@<SCITEGIC>MOL_PROPERTY
Coulomb
SciTegic.value.DoubleValue
69.058

@<SCITEGIC>MOL_PROPERTY
VdW
SciTegic.value.DoubleValue
-0.078

@<SCITEGIC>MOL_PROPERTY
VdW6
SciTegic.value.DoubleValue
-3.548

@<SCITEGIC>MOL_PROPERTY
VdW12
SciTegic.value.DoubleValue
3.471

@<SCITEGIC>MOL_PROPERTY
Bond
SciTegic.value.DoubleValue
0.105

@<SCITEGIC>MOL_PROPERTY
Angle
SciTegic.value.DoubleValue
0.408

@<SCITEGIC>MOL_PROPERTY
Pdih
SciTegic.value.DoubleValue
0.469

@<SCITEGIC>MOL_PROPERTY
Idih
SciTegic.value.DoubleValue
0.000

@<SCITEGIC>MOL_PROPERTY
Tether
SciTegic.value.DoubleValue
0.000

@<TRIPOS>MOLECULE
guest-s9_confgen4.mol2 : confsearch ligand conformer 102
          20          19           1
SMALL
USER_CHARGES
 
@<TRIPOS>ATOM
       1    C1      19.807718   17.862916   24.408922 C.3        1 MOL1        -0.2224
       2    H1      19.563233   18.929524   24.490433 H          1 MOL1         0.1052
       3    H2      19.397634   17.360964   25.294839 H          1 MOL1         0.1052
       4    H3      20.900023   17.758229   24.440621 H          1 MOL1         0.1052
       5    C2      19.226555   17.243551   23.117083 C.3        1 MOL1        -0.1209
       6    H4      18.134273   17.366029   23.107868 H          1 MOL1         0.1041
       7    H5      19.415652   16.160867   23.121890 H          1 MOL1         0.1041
       8    C3      19.830493   17.853519   21.830587 C.3        1 MOL1        -0.1274
       9    H6      20.916576   17.695004   21.827794 H          1 MOL1         0.1041
      10    H7      19.432035   17.317084   20.959389 H          1 MOL1         0.1041
      11    C4      19.516733   19.358056   21.684336 C.3        1 MOL1         0.0313
      12    H8      19.965645   19.913758   22.511034 H          1 MOL1         0.1015
      13    H9      18.433992   19.500294   21.729167 H          1 MOL1         0.1015
      14    N1      20.001941   19.981883   20.385949 N.4        1 MOL1        -0.4809
      15    H10     19.613481   20.933618   20.293716 H          1 MOL1         0.3726
      16    H11     19.625309   19.463620   19.577697 H          1 MOL1         0.3726
      17    C5      21.524947   20.037300   20.333503 C.3        1 MOL1        -0.0677
      18    H12     21.926106   19.022435   20.365294 H          1 MOL1         0.1026
      19    H13     21.833375   20.523954   19.405601 H          1 MOL1         0.1026
      20    H14     21.893541   20.608273   21.188386 H          1 MOL1         0.1026
@<TRIPOS>BOND
    1     1     2    1
    2     1     3    1
    3     1     4    1
    4     1     5    1
    5     5     6    1
    6     5     7    1
    7     5     8    1
    8     8     9    1
    9     8    10    1
   10     8    11    1
   11    11    12    1
   12    11    13    1
   13    11    14    1
   14    14    15    1
   15    14    16    1
   16    14    17    1
   17    17    18    1
   18    17    19    1
   19    17    20    1
@<TRIPOS>SUBSTRUCTURE
       1 MOL1            1 RESIDUE      1      MOL     
@<SCITEGIC>MOL_PROPERTY
VConf Rank
SciTegic.value.IntegerValue
102

@<SCITEGIC>MOL_PROPERTY
Conf_Id
SciTegic.value.IntegerValue
33

@<SCITEGIC>MOL_PROPERTY
Delta U+W
SciTegic.value.DoubleValue
0.372

@<SCITEGIC>MOL_PROPERTY
U+W
SciTegic.value.DoubleValue
15.711

@<SCITEGIC>MOL_PROPERTY
Grad RMS
SciTegic.value.DoubleValue
0.000000

@<SCITEGIC>MOL_PROPERTY
U
SciTegic.value.DoubleValue
70.163

@<SCITEGIC>MOL_PROPERTY
W
SciTegic.value.DoubleValue
-54.452

@<SCITEGIC>MOL_PROPERTY
W(PB)
SciTegic.value.DoubleValue
-56.363

@<SCITEGIC>MOL_PROPERTY
W(SA)
SciTegic.value.DoubleValue
1.911

@<SCITEGIC>MOL_PROPERTY
Valence
SciTegic.value.DoubleValue
1.420

@<SCITEGIC>MOL_PROPERTY
Coulomb
SciTegic.value.DoubleValue
68.566

@<SCITEGIC>MOL_PROPERTY
VdW
SciTegic.value.DoubleValue
0.177

@<SCITEGIC>MOL_PROPERTY
VdW6
SciTegic.value.DoubleValue
-4.267

@<SCITEGIC>MOL_PROPERTY
VdW12
SciTegic.value.DoubleValue
4.445

@<SCITEGIC>MOL_PROPERTY
Bond
SciTegic.value.DoubleValue
0.146

@<SCITEGIC>MOL_PROPERTY
Angle
SciTegic.value.DoubleValue
0.581

@<SCITEGIC>MOL_PROPERTY
Pdih
SciTegic.value.DoubleValue
0.693

@<SCITEGIC>MOL_PROPERTY
Idih
SciTegic.value.DoubleValue
0.000

@<SCITEGIC>MOL_PROPERTY
Tether
SciTegic.value.DoubleValue
0.000

@<TRIPOS>MOLECULE
guest-s9_confgen4.mol2 : confsearch ligand conformer 103
          20          19           1
SMALL
USER_CHARGES
 
@<TRIPOS>ATOM
       1    C1      21.209553   16.691164   22.961131 C.3        1 MOL1        -0.2224
       2    H1      21.969796   15.961037   23.267592 H          1 MOL1         0.1052
       3    H2      20.928142   17.268607   23.850759 H          1 MOL1         0.1052
       4    H3      20.327340   16.133082   22.621512 H          1 MOL1         0.1052
       5    C2      21.755867   17.604605   21.839803 C.3        1 MOL1        -0.1209
       6    H4      22.108981   16.979157   21.007871 H          1 MOL1         0.1041
       7    H5      22.633922   18.154710   22.206641 H          1 MOL1         0.1041
       8    C3      20.701176   18.602021   21.306260 C.3        1 MOL1        -0.1274
       9    H6      21.131622   19.161837   20.465523 H          1 MOL1         0.1041
      10    H7      19.843255   18.045696   20.907281 H          1 MOL1         0.1041
      11    C4      20.227627   19.597962   22.386683 C.3        1 MOL1         0.0313
      12    H8      21.098444   20.113490   22.799572 H          1 MOL1         0.1015
      13    H9      19.736404   19.058662   23.200077 H          1 MOL1         0.1015
      14    N1      19.265774   20.663386   21.886568 N.4        1 MOL1        -0.4809
      15    H10     19.680616   21.175545   21.093273 H          1 MOL1         0.3726
      16    H11     19.129508   21.377151   22.619492 H          1 MOL1         0.3726
      17    C5      17.921432   20.057368   21.498171 C.3        1 MOL1        -0.0677
      18    H12     17.247549   20.856022   21.180369 H          1 MOL1         0.1026
      19    H13     18.065187   19.351738   20.677617 H          1 MOL1         0.1026
      20    H14     17.497388   19.540151   22.361520 H          1 MOL1         0.1026
@<TRIPOS>BOND
    1     1     2    1
    2     1     3    1
    3     1     4    1
    4     1     5    1
    5     5     6    1
    6     5     7    1
    7     5     8    1
    8     8     9    1
    9     8    10    1
   10     8    11    1
   11    11    12    1
   12    11    13    1
   13    11    14    1
   14    14    15    1
   15    14    16    1
   16    14    17    1
   17    17    18    1
   18    17    19    1
   19    17    20    1
@<TRIPOS>SUBSTRUCTURE
       1 MOL1            1 RESIDUE      1      MOL     
@<SCITEGIC>MOL_PROPERTY
VConf Rank
SciTegic.value.IntegerValue
103

@<SCITEGIC>MOL_PROPERTY
Conf_Id
SciTegic.value.IntegerValue
53

@<SCITEGIC>MOL_PROPERTY
Delta U+W
SciTegic.value.DoubleValue
0.379

@<SCITEGIC>MOL_PROPERTY
U+W
SciTegic.value.DoubleValue
15.717

@<SCITEGIC>MOL_PROPERTY
Grad RMS
SciTegic.value.DoubleValue
0.000000

@<SCITEGIC>MOL_PROPERTY
U
SciTegic.value.DoubleValue
70.163

@<SCITEGIC>MOL_PROPERTY
W
SciTegic.value.DoubleValue
-54.446

@<SCITEGIC>MOL_PROPERTY
W(PB)
SciTegic.value.DoubleValue
-56.322

@<SCITEGIC>MOL_PROPERTY
W(SA)
SciTegic.value.DoubleValue
1.876

@<SCITEGIC>MOL_PROPERTY
Valence
SciTegic.value.DoubleValue
1.420

@<SCITEGIC>MOL_PROPERTY
Coulomb
SciTegic.value.DoubleValue
68.566

@<SCITEGIC>MOL_PROPERTY
VdW
SciTegic.value.DoubleValue
0.177

@<SCITEGIC>MOL_PROPERTY
VdW6
SciTegic.value.DoubleValue
-4.267

@<SCITEGIC>MOL_PROPERTY
VdW12
SciTegic.value.DoubleValue
4.445

@<SCITEGIC>MOL_PROPERTY
Bond
SciTegic.value.DoubleValue
0.146

@<SCITEGIC>MOL_PROPERTY
Angle
SciTegic.value.DoubleValue
0.581

@<SCITEGIC>MOL_PROPERTY
Pdih
SciTegic.value.DoubleValue
0.693

@<SCITEGIC>MOL_PROPERTY
Idih
SciTegic.value.DoubleValue
0.000

@<SCITEGIC>MOL_PROPERTY
Tether
SciTegic.value.DoubleValue
0.000

@<TRIPOS>MOLECULE
guest-s9_confgen4.mol2 : confsearch ligand conformer 104
          20          19           1
SMALL
USER_CHARGES
 
@<TRIPOS>ATOM
       1    C1      21.373939   16.971511   23.635425 C.3        1 MOL1        -0.2224
       2    H1      22.449842   16.782734   23.744047 H          1 MOL1         0.1052
       3    H2      20.925590   16.945673   24.637154 H          1 MOL1         0.1052
       4    H3      20.945853   16.148601   23.048293 H          1 MOL1         0.1052
       5    C2      21.125226   18.332073   22.949149 C.3        1 MOL1        -0.1209
       6    H4      21.619805   18.334533   21.968311 H          1 MOL1         0.1041
       7    H5      21.592002   19.130632   23.542955 H          1 MOL1         0.1041
       8    C3      19.614914   18.621496   22.782069 C.3        1 MOL1        -0.1274
       9    H6      19.148748   17.841204   22.166784 H          1 MOL1         0.1041
      10    H7      19.125418   18.572581   23.763725 H          1 MOL1         0.1041
      11    C4      19.333907   20.011276   22.168714 C.3        1 MOL1         0.0313
      12    H8      19.754536   20.779251   22.822865 H          1 MOL1         0.1015
      13    H9      18.254511   20.173559   22.113379 H          1 MOL1         0.1015
      14    N1      19.904820   20.237281   20.776733 N.4        1 MOL1        -0.4809
      15    H10     20.924895   20.090844   20.782457 H          1 MOL1         0.3726
      16    H11     19.780180   21.226292   20.509251 H          1 MOL1         0.3726
      17    C5      19.233297   19.333643   19.748419 C.3        1 MOL1        -0.0677
      18    H12     18.157916   19.523932   19.750547 H          1 MOL1         0.1026
      19    H13     19.643344   19.550341   18.759563 H          1 MOL1         0.1026
      20    H14     19.425308   18.289645   20.003790 H          1 MOL1         0.1026
@<TRIPOS>BOND
    1     1     2    1
    2     1     3    1
    3     1     4    1
    4     1     5    1
    5     5     6    1
    6     5     7    1
    7     5     8    1
    8     8     9    1
    9     8    10    1
   10     8    11    1
   11    11    12    1
   12    11    13    1
   13    11    14    1
   14    14    15    1
   15    14    16    1
   16    14    17    1
   17    17    18    1
   18    17    19    1
   19    17    20    1
@<TRIPOS>SUBSTRUCTURE
       1 MOL1            1 RESIDUE      1      MOL     
@<SCITEGIC>MOL_PROPERTY
VConf Rank
SciTegic.value.IntegerValue
104

@<SCITEGIC>MOL_PROPERTY
Conf_Id
SciTegic.value.IntegerValue
49

@<SCITEGIC>MOL_PROPERTY
Delta U+W
SciTegic.value.DoubleValue
0.268

@<SCITEGIC>MOL_PROPERTY
U+W
SciTegic.value.DoubleValue
15.607

@<SCITEGIC>MOL_PROPERTY
Grad RMS
SciTegic.value.DoubleValue
0.000000

@<SCITEGIC>MOL_PROPERTY
U
SciTegic.value.DoubleValue
70.298

@<SCITEGIC>MOL_PROPERTY
W
SciTegic.value.DoubleValue
-54.692

@<SCITEGIC>MOL_PROPERTY
W(PB)
SciTegic.value.DoubleValue
-56.576

@<SCITEGIC>MOL_PROPERTY
W(SA)
SciTegic.value.DoubleValue
1.885

@<SCITEGIC>MOL_PROPERTY
Valence
SciTegic.value.DoubleValue
1.245

@<SCITEGIC>MOL_PROPERTY
Coulomb
SciTegic.value.DoubleValue
68.933

@<SCITEGIC>MOL_PROPERTY
VdW
SciTegic.value.DoubleValue
0.120

@<SCITEGIC>MOL_PROPERTY
VdW6
SciTegic.value.DoubleValue
-4.430

@<SCITEGIC>MOL_PROPERTY
VdW12
SciTegic.value.DoubleValue
4.550

@<SCITEGIC>MOL_PROPERTY
Bond
SciTegic.value.DoubleValue
0.148

@<SCITEGIC>MOL_PROPERTY
Angle
SciTegic.value.DoubleValue
0.587

@<SCITEGIC>MOL_PROPERTY
Pdih
SciTegic.value.DoubleValue
0.509

@<SCITEGIC>MOL_PROPERTY
Idih
SciTegic.value.DoubleValue
0.000

@<SCITEGIC>MOL_PROPERTY
Tether
SciTegic.value.DoubleValue
0.000

@<TRIPOS>MOLECULE
guest-s9_confgen4.mol2 : confsearch ligand conformer 105
          20          19           1
SMALL
USER_CHARGES
 
@<TRIPOS>ATOM
       1    C1      22.649379   18.825283   20.998662 C.3        1 MOL1        -0.2224
       2    H1      22.657759   19.785216   20.466094 H          1 MOL1         0.1052
       3    H2      23.369332   18.886858   21.825110 H          1 MOL1         0.1052
       4    H3      23.001680   18.052129   20.303596 H          1 MOL1         0.1052
       5    C2      21.234065   18.489234   21.516626 C.3        1 MOL1        -0.1209
       6    H4      21.251566   17.512089   22.019489 H          1 MOL1         0.1041
       7    H5      20.555391   18.397887   20.658369 H          1 MOL1         0.1041
       8    C3      20.709122   19.569739   22.490570 C.3        1 MOL1        -0.1274
       9    H6      21.454155   19.732275   23.280673 H          1 MOL1         0.1041
      10    H7      20.606512   20.527113   21.962875 H          1 MOL1         0.1041
      11    C4      19.367437   19.211161   23.168902 C.3        1 MOL1         0.0313
      12    H8      19.125630   20.006780   23.878313 H          1 MOL1         0.1015
      13    H9      19.464279   18.281391   23.734984 H          1 MOL1         0.1015
      14    N1      18.173379   19.079390   22.236098 N.4        1 MOL1        -0.4809
      15    H10     18.265129   19.728328   21.440296 H          1 MOL1         0.3726
      16    H11     17.320584   19.386296   22.729612 H          1 MOL1         0.3726
      17    C5      17.989735   17.640196   21.765311 C.3        1 MOL1        -0.0677
      18    H12     17.111244   17.585596   21.118604 H          1 MOL1         0.1026
      19    H13     18.871889   17.317081   21.211496 H          1 MOL1         0.1026
      20    H14     17.844969   16.995182   22.634614 H          1 MOL1         0.1026
@<TRIPOS>BOND
    1     1     2    1
    2     1     3    1
    3     1     4    1
    4     1     5    1
    5     5     6    1
    6     5     7    1
    7     5     8    1
    8     8     9    1
    9     8    10    1
   10     8    11    1
   11    11    12    1
   12    11    13    1
   13    11    14    1
   14    14    15    1
   15    14    16    1
   16    14    17    1
   17    17    18    1
   18    17    19    1
   19    17    20    1
@<TRIPOS>SUBSTRUCTURE
       1 MOL1            1 RESIDUE      1      MOL     
@<SCITEGIC>MOL_PROPERTY
VConf Rank
SciTegic.value.IntegerValue
105

@<SCITEGIC>MOL_PROPERTY
Conf_Id
SciTegic.value.IntegerValue
65

@<SCITEGIC>MOL_PROPERTY
Delta U+W
SciTegic.value.DoubleValue
1.775

@<SCITEGIC>MOL_PROPERTY
U+W
SciTegic.value.DoubleValue
17.114

@<SCITEGIC>MOL_PROPERTY
Grad RMS
SciTegic.value.DoubleValue
0.000000

@<SCITEGIC>MOL_PROPERTY
U
SciTegic.value.DoubleValue
71.726

@<SCITEGIC>MOL_PROPERTY
W
SciTegic.value.DoubleValue
-54.613

@<SCITEGIC>MOL_PROPERTY
W(PB)
SciTegic.value.DoubleValue
-56.495

@<SCITEGIC>MOL_PROPERTY
W(SA)
SciTegic.value.DoubleValue
1.883

@<SCITEGIC>MOL_PROPERTY
Valence
SciTegic.value.DoubleValue
2.885

@<SCITEGIC>MOL_PROPERTY
Coulomb
SciTegic.value.DoubleValue
68.822

@<SCITEGIC>MOL_PROPERTY
VdW
SciTegic.value.DoubleValue
0.019

@<SCITEGIC>MOL_PROPERTY
VdW6
SciTegic.value.DoubleValue
-4.600

@<SCITEGIC>MOL_PROPERTY
VdW12
SciTegic.value.DoubleValue
4.619

@<SCITEGIC>MOL_PROPERTY
Bond
SciTegic.value.DoubleValue
0.152

@<SCITEGIC>MOL_PROPERTY
Angle
SciTegic.value.DoubleValue
0.862

@<SCITEGIC>MOL_PROPERTY
Pdih
SciTegic.value.DoubleValue
1.871

@<SCITEGIC>MOL_PROPERTY
Idih
SciTegic.value.DoubleValue
0.000

@<SCITEGIC>MOL_PROPERTY
Tether
SciTegic.value.DoubleValue
0.000

@<TRIPOS>MOLECULE
guest-s9_confgen4.mol2 : confsearch ligand conformer 106
          20          19           1
SMALL
USER_CHARGES
 
@<TRIPOS>ATOM
       1    C1      19.776846   16.392811   22.068426 C.3        1 MOL1        -0.2224
       2    H1      20.752272   16.761067   21.726469 H          1 MOL1         0.1052
       3    H2      19.958636   15.516905   22.704602 H          1 MOL1         0.1052
       4    H3      19.210636   16.056354   21.190203 H          1 MOL1         0.1052
       5    C2      18.999517   17.477744   22.848715 C.3        1 MOL1        -0.1209
       6    H4      19.585337   17.796714   23.721459 H          1 MOL1         0.1041
       7    H5      18.075970   17.036634   23.249324 H          1 MOL1         0.1041
       8    C3      18.628937   18.704070   21.977628 C.3        1 MOL1        -0.1274
       9    H6      17.958841   18.383078   21.169110 H          1 MOL1         0.1041
      10    H7      18.057137   19.421068   22.581534 H          1 MOL1         0.1041
      11    C4      19.844439   19.421577   21.354167 C.3        1 MOL1         0.0313
      12    H8      19.496247   20.250916   20.733280 H          1 MOL1         0.1015
      13    H9      20.393391   18.726784   20.714104 H          1 MOL1         0.1015
      14    N1      20.815943   19.986226   22.372968 N.4        1 MOL1        -0.4809
      15    H10     21.162480   19.232569   22.984852 H          1 MOL1         0.3726
      16    H11     20.330920   20.647970   22.998065 H          1 MOL1         0.3726
      17    C5      21.974607   20.672481   21.662286 C.3        1 MOL1        -0.0677
      18    H12     21.586993   21.486007   21.045282 H          1 MOL1         0.1026
      19    H13     22.666022   21.072713   22.407089 H          1 MOL1         0.1026
      20    H14     22.492049   19.945429   21.032675 H          1 MOL1         0.1026
@<TRIPOS>BOND
    1     1     2    1
    2     1     3    1
    3     1     4    1
    4     1     5    1
    5     5     6    1
    6     5     7    1
    7     5     8    1
    8     8     9    1
    9     8    10    1
   10     8    11    1
   11    11    12    1
   12    11    13    1
   13    11    14    1
   14    14    15    1
   15    14    16    1
   16    14    17    1
   17    17    18    1
   18    17    19    1
   19    17    20    1
@<TRIPOS>SUBSTRUCTURE
       1 MOL1            1 RESIDUE      1      MOL     
@<SCITEGIC>MOL_PROPERTY
VConf Rank
SciTegic.value.IntegerValue
106

@<SCITEGIC>MOL_PROPERTY
Conf_Id
SciTegic.value.IntegerValue
23

@<SCITEGIC>MOL_PROPERTY
Delta U+W
SciTegic.value.DoubleValue
0.896

@<SCITEGIC>MOL_PROPERTY
U+W
SciTegic.value.DoubleValue
16.234

@<SCITEGIC>MOL_PROPERTY
Grad RMS
SciTegic.value.DoubleValue
0.000000

@<SCITEGIC>MOL_PROPERTY
U
SciTegic.value.DoubleValue
70.374

@<SCITEGIC>MOL_PROPERTY
W
SciTegic.value.DoubleValue
-54.140

@<SCITEGIC>MOL_PROPERTY
W(PB)
SciTegic.value.DoubleValue
-56.046

@<SCITEGIC>MOL_PROPERTY
W(SA)
SciTegic.value.DoubleValue
1.907

@<SCITEGIC>MOL_PROPERTY
Valence
SciTegic.value.DoubleValue
1.257

@<SCITEGIC>MOL_PROPERTY
Coulomb
SciTegic.value.DoubleValue
69.240

@<SCITEGIC>MOL_PROPERTY
VdW
SciTegic.value.DoubleValue
-0.123

@<SCITEGIC>MOL_PROPERTY
VdW6
SciTegic.value.DoubleValue
-4.336

@<SCITEGIC>MOL_PROPERTY
VdW12
SciTegic.value.DoubleValue
4.213

@<SCITEGIC>MOL_PROPERTY
Bond
SciTegic.value.DoubleValue
0.128

@<SCITEGIC>MOL_PROPERTY
Angle
SciTegic.value.DoubleValue
0.603

@<SCITEGIC>MOL_PROPERTY
Pdih
SciTegic.value.DoubleValue
0.526

@<SCITEGIC>MOL_PROPERTY
Idih
SciTegic.value.DoubleValue
0.000

@<SCITEGIC>MOL_PROPERTY
Tether
SciTegic.value.DoubleValue
0.000

@<TRIPOS>MOLECULE
guest-s9_confgen4.mol2 : confsearch ligand conformer 107
          20          19           1
SMALL
USER_CHARGES
 
@<TRIPOS>ATOM
       1    C1      20.291669   17.964425   24.255314 C.3        1 MOL1        -0.2224
       2    H1      19.299791   17.745722   24.671750 H          1 MOL1         0.1052
       3    H2      21.040047   17.672877   25.003585 H          1 MOL1         0.1052
       4    H3      20.371712   19.049507   24.113206 H          1 MOL1         0.1052
       5    C2      20.520436   17.197824   22.932379 C.3        1 MOL1        -0.1209
       6    H4      20.523925   16.118736   23.141092 H          1 MOL1         0.1041
       7    H5      21.518035   17.432314   22.536875 H          1 MOL1         0.1041
       8    C3      19.439198   17.495101   21.863479 C.3        1 MOL1        -0.1274
       9    H6      19.643584   16.901104   20.962847 H          1 MOL1         0.1041
      10    H7      18.462152   17.159296   22.235475 H          1 MOL1         0.1041
      11    C4      19.332899   18.984760   21.475427 C.3        1 MOL1         0.0313
      12    H8      19.083676   19.578126   22.358359 H          1 MOL1         0.1015
      13    H9      18.530585   19.112250   20.744278 H          1 MOL1         0.1015
      14    N1      20.601176   19.556009   20.870650 N.4        1 MOL1        -0.4809
      15    H10     20.868862   19.018145   20.032232 H          1 MOL1         0.3726
      16    H11     21.385973   19.447362   21.530028 H          1 MOL1         0.3726
      17    C5      20.395895   21.023919   20.521908 C.3        1 MOL1        -0.0677
      18    H12     20.146039   21.577913   21.429334 H          1 MOL1         0.1026
      19    H13     21.316275   21.422071   20.089076 H          1 MOL1         0.1026
      20    H14     19.581541   21.111501   19.799466 H          1 MOL1         0.1026
@<TRIPOS>BOND
    1     1     2    1
    2     1     3    1
    3     1     4    1
    4     1     5    1
    5     5     6    1
    6     5     7    1
    7     5     8    1
    8     8     9    1
    9     8    10    1
   10     8    11    1
   11    11    12    1
   12    11    13    1
   13    11    14    1
   14    14    15    1
   15    14    16    1
   16    14    17    1
   17    17    18    1
   18    17    19    1
   19    17    20    1
@<TRIPOS>SUBSTRUCTURE
       1 MOL1            1 RESIDUE      1      MOL     
@<SCITEGIC>MOL_PROPERTY
VConf Rank
SciTegic.value.IntegerValue
107

@<SCITEGIC>MOL_PROPERTY
Conf_Id
SciTegic.value.IntegerValue
24

@<SCITEGIC>MOL_PROPERTY
Delta U+W
SciTegic.value.DoubleValue
0.792

@<SCITEGIC>MOL_PROPERTY
U+W
SciTegic.value.DoubleValue
16.130

@<SCITEGIC>MOL_PROPERTY
Grad RMS
SciTegic.value.DoubleValue
0.000000

@<SCITEGIC>MOL_PROPERTY
U
SciTegic.value.DoubleValue
70.374

@<SCITEGIC>MOL_PROPERTY
W
SciTegic.value.DoubleValue
-54.243

@<SCITEGIC>MOL_PROPERTY
W(PB)
SciTegic.value.DoubleValue
-56.130

@<SCITEGIC>MOL_PROPERTY
W(SA)
SciTegic.value.DoubleValue
1.887

@<SCITEGIC>MOL_PROPERTY
Valence
SciTegic.value.DoubleValue
1.257

@<SCITEGIC>MOL_PROPERTY
Coulomb
SciTegic.value.DoubleValue
69.240

@<SCITEGIC>MOL_PROPERTY
VdW
SciTegic.value.DoubleValue
-0.123

@<SCITEGIC>MOL_PROPERTY
VdW6
SciTegic.value.DoubleValue
-4.336

@<SCITEGIC>MOL_PROPERTY
VdW12
SciTegic.value.DoubleValue
4.213

@<SCITEGIC>MOL_PROPERTY
Bond
SciTegic.value.DoubleValue
0.128

@<SCITEGIC>MOL_PROPERTY
Angle
SciTegic.value.DoubleValue
0.603

@<SCITEGIC>MOL_PROPERTY
Pdih
SciTegic.value.DoubleValue
0.526

@<SCITEGIC>MOL_PROPERTY
Idih
SciTegic.value.DoubleValue
0.000

@<SCITEGIC>MOL_PROPERTY
Tether
SciTegic.value.DoubleValue
0.000

@<TRIPOS>MOLECULE
guest-s9_confgen4.mol2 : confsearch ligand conformer 108
          20          19           1
SMALL
USER_CHARGES
 
@<TRIPOS>ATOM
       1    C1      19.581960   20.551679   23.247514 C.3        1 MOL1        -0.2224
       2    H1      19.373595   21.586637   23.548625 H          1 MOL1         0.1052
       3    H2      18.762425   20.237650   22.590402 H          1 MOL1         0.1052
       4    H3      19.568329   19.933058   24.154313 H          1 MOL1         0.1052
       5    C2      20.948829   20.468229   22.530460 C.3        1 MOL1        -0.1209
       6    H4      21.698616   20.987755   23.143631 H          1 MOL1         0.1041
       7    H5      20.897963   21.020148   21.581301 H          1 MOL1         0.1041
       8    C3      21.448649   19.024728   22.267163 C.3        1 MOL1        -0.1274
       9    H6      22.450082   19.089912   21.821403 H          1 MOL1         0.1041
      10    H7      21.575732   18.485379   23.215139 H          1 MOL1         0.1041
      11    C4      20.558367   18.205732   21.308557 C.3        1 MOL1         0.0313
      12    H8      21.144928   17.383257   20.891395 H          1 MOL1         0.1015
      13    H9      20.226245   18.838525   20.481785 H          1 MOL1         0.1015
      14    N1      19.336457   17.589317   21.962749 N.4        1 MOL1        -0.4809
      15    H10     18.774201   18.321366   22.419469 H          1 MOL1         0.3726
      16    H11     19.623991   16.951367   22.720609 H          1 MOL1         0.3726
      17    C5      18.508076   16.846057   20.923633 C.3        1 MOL1        -0.0677
      18    H12     18.188059   17.547193   20.149833 H          1 MOL1         0.1026
      19    H13     19.115714   16.055735   20.477616 H          1 MOL1         0.1026
      20    H14     17.632872   16.408048   21.408544 H          1 MOL1         0.1026
@<TRIPOS>BOND
    1     1     2    1
    2     1     3    1
    3     1     4    1
    4     1     5    1
    5     5     6    1
    6     5     7    1
    7     5     8    1
    8     8     9    1
    9     8    10    1
   10     8    11    1
   11    11    12    1
   12    11    13    1
   13    11    14    1
   14    14    15    1
   15    14    16    1
   16    14    17    1
   17    17    18    1
   18    17    19    1
   19    17    20    1
@<TRIPOS>SUBSTRUCTURE
       1 MOL1            1 RESIDUE      1      MOL     
@<SCITEGIC>MOL_PROPERTY
VConf Rank
SciTegic.value.IntegerValue
108

@<SCITEGIC>MOL_PROPERTY
Conf_Id
SciTegic.value.IntegerValue
26

@<SCITEGIC>MOL_PROPERTY
Delta U+W
SciTegic.value.DoubleValue
2.888

@<SCITEGIC>MOL_PROPERTY
U+W
SciTegic.value.DoubleValue
18.226

@<SCITEGIC>MOL_PROPERTY
Grad RMS
SciTegic.value.DoubleValue
0.000000

@<SCITEGIC>MOL_PROPERTY
U
SciTegic.value.DoubleValue
72.042

@<SCITEGIC>MOL_PROPERTY
W
SciTegic.value.DoubleValue
-53.816

@<SCITEGIC>MOL_PROPERTY
W(PB)
SciTegic.value.DoubleValue
-55.689

@<SCITEGIC>MOL_PROPERTY
W(SA)
SciTegic.value.DoubleValue
1.873

@<SCITEGIC>MOL_PROPERTY
Valence
SciTegic.value.DoubleValue
2.428

@<SCITEGIC>MOL_PROPERTY
Coulomb
SciTegic.value.DoubleValue
69.829

@<SCITEGIC>MOL_PROPERTY
VdW
SciTegic.value.DoubleValue
-0.215

@<SCITEGIC>MOL_PROPERTY
VdW6
SciTegic.value.DoubleValue
-4.563

@<SCITEGIC>MOL_PROPERTY
VdW12
SciTegic.value.DoubleValue
4.348

@<SCITEGIC>MOL_PROPERTY
Bond
SciTegic.value.DoubleValue
0.137

@<SCITEGIC>MOL_PROPERTY
Angle
SciTegic.value.DoubleValue
0.936

@<SCITEGIC>MOL_PROPERTY
Pdih
SciTegic.value.DoubleValue
1.356

@<SCITEGIC>MOL_PROPERTY
Idih
SciTegic.value.DoubleValue
0.000

@<SCITEGIC>MOL_PROPERTY
Tether
SciTegic.value.DoubleValue
0.000

@<TRIPOS>MOLECULE
guest-s9_confgen4.mol2 : confsearch ligand conformer 109
          20          19           1
SMALL
USER_CHARGES
 
@<TRIPOS>ATOM
       1    C1      21.808733   18.630420   20.730535 C.3        1 MOL1        -0.2224
       2    H1      22.428567   18.479737   19.837048 H          1 MOL1         0.1052
       3    H2      22.475631   18.621345   21.602504 H          1 MOL1         0.1052
       4    H3      21.126494   17.774640   20.795650 H          1 MOL1         0.1052
       5    C2      21.036820   19.965664   20.626934 C.3        1 MOL1        -0.1209
       6    H4      20.311870   19.905782   19.802939 H          1 MOL1         0.1041
       7    H5      21.745085   20.759477   20.350729 H          1 MOL1         0.1041
       8    C3      20.310979   20.390354   21.929097 C.3        1 MOL1        -0.1274
       9    H6      21.035087   20.526929   22.743174 H          1 MOL1         0.1041
      10    H7      19.860416   21.377102   21.758392 H          1 MOL1         0.1041
      11    C4      19.188115   19.430408   22.376270 C.3        1 MOL1         0.0313
      12    H8      18.618086   19.097682   21.505269 H          1 MOL1         0.1015
      13    H9      18.506657   19.964093   23.043607 H          1 MOL1         0.1015
      14    N1      19.674363   18.206229   23.128567 N.4        1 MOL1        -0.4809
      15    H10     20.179617   18.491747   23.981329 H          1 MOL1         0.3726
      16    H11     20.363809   17.694128   22.560204 H          1 MOL1         0.3726
      17    C5      18.495872   17.308649   23.480589 C.3        1 MOL1        -0.0677
      18    H12     17.996830   16.992977   22.561853 H          1 MOL1         0.1026
      19    H13     18.860752   16.432562   24.021243 H          1 MOL1         0.1026
      20    H14     17.796163   17.863827   24.109041 H          1 MOL1         0.1026
@<TRIPOS>BOND
    1     1     2    1
    2     1     3    1
    3     1     4    1
    4     1     5    1
    5     5     6    1
    6     5     7    1
    7     5     8    1
    8     8     9    1
    9     8    10    1
   10     8    11    1
   11    11    12    1
   12    11    13    1
   13    11    14    1
   14    14    15    1
   15    14    16    1
   16    14    17    1
   17    17    18    1
   18    17    19    1
   19    17    20    1
@<TRIPOS>SUBSTRUCTURE
       1 MOL1            1 RESIDUE      1      MOL     
@<SCITEGIC>MOL_PROPERTY
VConf Rank
SciTegic.value.IntegerValue
109

@<SCITEGIC>MOL_PROPERTY
Conf_Id
SciTegic.value.IntegerValue
5

@<SCITEGIC>MOL_PROPERTY
Delta U+W
SciTegic.value.DoubleValue
2.950

@<SCITEGIC>MOL_PROPERTY
U+W
SciTegic.value.DoubleValue
18.289

@<SCITEGIC>MOL_PROPERTY
Grad RMS
SciTegic.value.DoubleValue
0.000000

@<SCITEGIC>MOL_PROPERTY
U
SciTegic.value.DoubleValue
72.042

@<SCITEGIC>MOL_PROPERTY
W
SciTegic.value.DoubleValue
-53.753

@<SCITEGIC>MOL_PROPERTY
W(PB)
SciTegic.value.DoubleValue
-55.644

@<SCITEGIC>MOL_PROPERTY
W(SA)
SciTegic.value.DoubleValue
1.891

@<SCITEGIC>MOL_PROPERTY
Valence
SciTegic.value.DoubleValue
2.428

@<SCITEGIC>MOL_PROPERTY
Coulomb
SciTegic.value.DoubleValue
69.829

@<SCITEGIC>MOL_PROPERTY
VdW
SciTegic.value.DoubleValue
-0.215

@<SCITEGIC>MOL_PROPERTY
VdW6
SciTegic.value.DoubleValue
-4.563

@<SCITEGIC>MOL_PROPERTY
VdW12
SciTegic.value.DoubleValue
4.348

@<SCITEGIC>MOL_PROPERTY
Bond
SciTegic.value.DoubleValue
0.137

@<SCITEGIC>MOL_PROPERTY
Angle
SciTegic.value.DoubleValue
0.936

@<SCITEGIC>MOL_PROPERTY
Pdih
SciTegic.value.DoubleValue
1.356

@<SCITEGIC>MOL_PROPERTY
Idih
SciTegic.value.DoubleValue
0.000

@<SCITEGIC>MOL_PROPERTY
Tether
SciTegic.value.DoubleValue
0.000

@<TRIPOS>MOLECULE
guest-s9_confgen4.mol2 : confsearch ligand conformer 110
          20          19           1
SMALL
USER_CHARGES
 
@<TRIPOS>ATOM
       1    C1      19.350149   17.041474   20.538500 C.3        1 MOL1        -0.2224
       2    H1      18.258682   16.978985   20.439242 H          1 MOL1         0.1052
       3    H2      19.705877   17.856943   19.896437 H          1 MOL1         0.1052
       4    H3      19.775015   16.106228   20.151499 H          1 MOL1         0.1052
       5    C2      19.762470   17.255034   22.013127 C.3        1 MOL1        -0.1209
       6    H4      20.857044   17.310553   22.087890 H          1 MOL1         0.1041
       7    H5      19.463395   16.374339   22.598639 H          1 MOL1         0.1041
       8    C3      19.122270   18.515476   22.646156 C.3        1 MOL1        -0.1274
       9    H6      18.030174   18.402139   22.650190 H          1 MOL1         0.1041
      10    H7      19.421714   18.585992   23.699775 H          1 MOL1         0.1041
      11    C4      19.476989   19.833142   21.919890 C.3        1 MOL1         0.0313
      12    H8      18.991667   20.671397   22.426063 H          1 MOL1         0.1015
      13    H9      19.090751   19.791308   20.898543 H          1 MOL1         0.1015
      14    N1      20.963196   20.144209   21.831850 N.4        1 MOL1        -0.4809
      15    H10     21.110240   20.959155   21.215980 H          1 MOL1         0.3726
      16    H11     21.459303   19.367509   21.370635 H          1 MOL1         0.3726
      17    C5      21.553202   20.421831   23.210052 C.3        1 MOL1        -0.0677
      18    H12     21.448022   19.532451   23.834495 H          1 MOL1         0.1026
      19    H13     22.611066   20.671526   23.102888 H          1 MOL1         0.1026
      20    H14     21.021759   21.259739   23.666246 H          1 MOL1         0.1026
@<TRIPOS>BOND
    1     1     2    1
    2     1     3    1
    3     1     4    1
    4     1     5    1
    5     5     6    1
    6     5     7    1
    7     5     8    1
    8     8     9    1
    9     8    10    1
   10     8    11    1
   11    11    12    1
   12    11    13    1
   13    11    14    1
   14    14    15    1
   15    14    16    1
   16    14    17    1
   17    17    18    1
   18    17    19    1
   19    17    20    1
@<TRIPOS>SUBSTRUCTURE
       1 MOL1            1 RESIDUE      1      MOL     
@<SCITEGIC>MOL_PROPERTY
VConf Rank
SciTegic.value.IntegerValue
110

@<SCITEGIC>MOL_PROPERTY
Conf_Id
SciTegic.value.IntegerValue
52

@<SCITEGIC>MOL_PROPERTY
Delta U+W
SciTegic.value.DoubleValue
0.784

@<SCITEGIC>MOL_PROPERTY
U+W
SciTegic.value.DoubleValue
16.122

@<SCITEGIC>MOL_PROPERTY
Grad RMS
SciTegic.value.DoubleValue
0.000000

@<SCITEGIC>MOL_PROPERTY
U
SciTegic.value.DoubleValue
70.777

@<SCITEGIC>MOL_PROPERTY
W
SciTegic.value.DoubleValue
-54.655

@<SCITEGIC>MOL_PROPERTY
W(PB)
SciTegic.value.DoubleValue
-56.491

@<SCITEGIC>MOL_PROPERTY
W(SA)
SciTegic.value.DoubleValue
1.836

@<SCITEGIC>MOL_PROPERTY
Valence
SciTegic.value.DoubleValue
1.529

@<SCITEGIC>MOL_PROPERTY
Coulomb
SciTegic.value.DoubleValue
69.166

@<SCITEGIC>MOL_PROPERTY
VdW
SciTegic.value.DoubleValue
0.082

@<SCITEGIC>MOL_PROPERTY
VdW6
SciTegic.value.DoubleValue
-5.166

@<SCITEGIC>MOL_PROPERTY
VdW12
SciTegic.value.DoubleValue
5.248

@<SCITEGIC>MOL_PROPERTY
Bond
SciTegic.value.DoubleValue
0.171

@<SCITEGIC>MOL_PROPERTY
Angle
SciTegic.value.DoubleValue
0.752

@<SCITEGIC>MOL_PROPERTY
Pdih
SciTegic.value.DoubleValue
0.605

@<SCITEGIC>MOL_PROPERTY
Idih
SciTegic.value.DoubleValue
0.000

@<SCITEGIC>MOL_PROPERTY
Tether
SciTegic.value.DoubleValue
0.000

@<TRIPOS>MOLECULE
guest-s9_confgen4.mol2 : confsearch ligand conformer 111
          20          19           1
SMALL
USER_CHARGES
 
@<TRIPOS>ATOM
       1    C1      20.547843   20.698279   23.015871 C.3        1 MOL1        -0.2224
       2    H1      20.794662   21.708809   23.366696 H          1 MOL1         0.1052
       3    H2      19.493400   20.523806   23.258482 H          1 MOL1         0.1052
       4    H3      21.164851   19.989219   23.583182 H          1 MOL1         0.1052
       5    C2      20.809216   20.580459   21.496935 C.3        1 MOL1        -0.1209
       6    H4      21.807238   20.987753   21.282254 H          1 MOL1         0.1041
       7    H5      20.098250   21.216752   20.951337 H          1 MOL1         0.1041
       8    C3      20.746169   19.133198   20.945315 C.3        1 MOL1        -0.1274
       9    H6      21.038514   19.163744   19.887398 H          1 MOL1         0.1041
      10    H7      21.495727   18.504526   21.442142 H          1 MOL1         0.1041
      11    C4      19.349028   18.474952   21.024438 C.3        1 MOL1         0.0313
      12    H8      19.311274   17.627481   20.335388 H          1 MOL1         0.1015
      13    H9      18.595322   19.198601   20.703926 H          1 MOL1         0.1015
      14    N1      18.941597   17.951807   22.392952 N.4        1 MOL1        -0.4809
      15    H10     17.938092   17.710796   22.385883 H          1 MOL1         0.3726
      16    H11     19.036134   18.696021   23.097970 H          1 MOL1         0.3726
      17    C5      19.763993   16.729204   22.784909 C.3        1 MOL1        -0.0677
      18    H12     19.633764   15.951443   22.029416 H          1 MOL1         0.1026
      19    H13     20.817580   17.006623   22.852807 H          1 MOL1         0.1026
      20    H14     19.419065   16.361818   23.753911 H          1 MOL1         0.1026
@<TRIPOS>BOND
    1     1     2    1
    2     1     3    1
    3     1     4    1
    4     1     5    1
    5     5     6    1
    6     5     7    1
    7     5     8    1
    8     8     9    1
    9     8    10    1
   10     8    11    1
   11    11    12    1
   12    11    13    1
   13    11    14    1
   14    14    15    1
   15    14    16    1
   16    14    17    1
   17    17    18    1
   18    17    19    1
   19    17    20    1
@<TRIPOS>SUBSTRUCTURE
       1 MOL1            1 RESIDUE      1      MOL     
@<SCITEGIC>MOL_PROPERTY
VConf Rank
SciTegic.value.IntegerValue
111

@<SCITEGIC>MOL_PROPERTY
Conf_Id
SciTegic.value.IntegerValue
55

@<SCITEGIC>MOL_PROPERTY
Delta U+W
SciTegic.value.DoubleValue
2.745

@<SCITEGIC>MOL_PROPERTY
U+W
SciTegic.value.DoubleValue
18.083

@<SCITEGIC>MOL_PROPERTY
Grad RMS
SciTegic.value.DoubleValue
0.000000

@<SCITEGIC>MOL_PROPERTY
U
SciTegic.value.DoubleValue
72.490

@<SCITEGIC>MOL_PROPERTY
W
SciTegic.value.DoubleValue
-54.407

@<SCITEGIC>MOL_PROPERTY
W(PB)
SciTegic.value.DoubleValue
-56.269

@<SCITEGIC>MOL_PROPERTY
W(SA)
SciTegic.value.DoubleValue
1.861

@<SCITEGIC>MOL_PROPERTY
Valence
SciTegic.value.DoubleValue
2.738

@<SCITEGIC>MOL_PROPERTY
Coulomb
SciTegic.value.DoubleValue
69.795

@<SCITEGIC>MOL_PROPERTY
VdW
SciTegic.value.DoubleValue
-0.043

@<SCITEGIC>MOL_PROPERTY
VdW6
SciTegic.value.DoubleValue
-5.333

@<SCITEGIC>MOL_PROPERTY
VdW12
SciTegic.value.DoubleValue
5.290

@<SCITEGIC>MOL_PROPERTY
Bond
SciTegic.value.DoubleValue
0.182

@<SCITEGIC>MOL_PROPERTY
Angle
SciTegic.value.DoubleValue
1.135

@<SCITEGIC>MOL_PROPERTY
Pdih
SciTegic.value.DoubleValue
1.422

@<SCITEGIC>MOL_PROPERTY
Idih
SciTegic.value.DoubleValue
0.000

@<SCITEGIC>MOL_PROPERTY
Tether
SciTegic.value.DoubleValue
0.000

@<TRIPOS>MOLECULE
guest-s9_confgen4.mol2 : confsearch ligand conformer 112
          20          19           1
SMALL
USER_CHARGES
 
@<TRIPOS>ATOM
       1    C1      19.565904   18.051136   20.110728 C.3        1 MOL1        -0.2224
       2    H1      19.266767   17.517398   19.199240 H          1 MOL1         0.1052
       3    H2      19.579605   19.124095   19.878608 H          1 MOL1         0.1052
       4    H3      20.584933   17.727417   20.351431 H          1 MOL1         0.1052
       5    C2      18.582586   17.737682   21.261468 C.3        1 MOL1        -0.1209
       6    H4      18.676267   16.680488   21.547098 H          1 MOL1         0.1041
       7    H5      17.556706   17.860757   20.886705 H          1 MOL1         0.1041
       8    C3      18.753256   18.635159   22.513761 C.3        1 MOL1        -0.1274
       9    H6      18.600921   19.689058   22.249196 H          1 MOL1         0.1041
      10    H7      17.948131   18.386479   23.217691 H          1 MOL1         0.1041
      11    C4      20.096542   18.452413   23.257898 C.3        1 MOL1         0.0313
      12    H8      20.318764   17.385147   23.335549 H          1 MOL1         0.1015
      13    H9      20.002231   18.847614   24.272464 H          1 MOL1         0.1015
      14    N1      21.299878   19.134989   22.626566 N.4        1 MOL1        -0.4809
      15    H10     21.387071   18.855156   21.639687 H          1 MOL1         0.3726
      16    H11     22.164275   18.800664   23.080663 H          1 MOL1         0.3726
      17    C5      21.203885   20.651553   22.751223 C.3        1 MOL1        -0.0677
      18    H12     20.321615   21.005077   22.214345 H          1 MOL1         0.1026
      19    H13     21.127789   20.921104   23.806775 H          1 MOL1         0.1026
      20    H14     22.100028   21.103267   22.320186 H          1 MOL1         0.1026
@<TRIPOS>BOND
    1     1     2    1
    2     1     3    1
    3     1     4    1
    4     1     5    1
    5     5     6    1
    6     5     7    1
    7     5     8    1
    8     8     9    1
    9     8    10    1
   10     8    11    1
   11    11    12    1
   12    11    13    1
   13    11    14    1
   14    14    15    1
   15    14    16    1
   16    14    17    1
   17    17    18    1
   18    17    19    1
   19    17    20    1
@<TRIPOS>SUBSTRUCTURE
       1 MOL1            1 RESIDUE      1      MOL     
@<SCITEGIC>MOL_PROPERTY
VConf Rank
SciTegic.value.IntegerValue
112

@<SCITEGIC>MOL_PROPERTY
Conf_Id
SciTegic.value.IntegerValue
76

@<SCITEGIC>MOL_PROPERTY
Delta U+W
SciTegic.value.DoubleValue
2.799

@<SCITEGIC>MOL_PROPERTY
U+W
SciTegic.value.DoubleValue
18.137

@<SCITEGIC>MOL_PROPERTY
Grad RMS
SciTegic.value.DoubleValue
0.000000

@<SCITEGIC>MOL_PROPERTY
U
SciTegic.value.DoubleValue
72.490

@<SCITEGIC>MOL_PROPERTY
W
SciTegic.value.DoubleValue
-54.353

@<SCITEGIC>MOL_PROPERTY
W(PB)
SciTegic.value.DoubleValue
-56.201

@<SCITEGIC>MOL_PROPERTY
W(SA)
SciTegic.value.DoubleValue
1.848

@<SCITEGIC>MOL_PROPERTY
Valence
SciTegic.value.DoubleValue
2.738

@<SCITEGIC>MOL_PROPERTY
Coulomb
SciTegic.value.DoubleValue
69.795

@<SCITEGIC>MOL_PROPERTY
VdW
SciTegic.value.DoubleValue
-0.043

@<SCITEGIC>MOL_PROPERTY
VdW6
SciTegic.value.DoubleValue
-5.334

@<SCITEGIC>MOL_PROPERTY
VdW12
SciTegic.value.DoubleValue
5.290

@<SCITEGIC>MOL_PROPERTY
Bond
SciTegic.value.DoubleValue
0.182

@<SCITEGIC>MOL_PROPERTY
Angle
SciTegic.value.DoubleValue
1.135

@<SCITEGIC>MOL_PROPERTY
Pdih
SciTegic.value.DoubleValue
1.421

@<SCITEGIC>MOL_PROPERTY
Idih
SciTegic.value.DoubleValue
0.000

@<SCITEGIC>MOL_PROPERTY
Tether
SciTegic.value.DoubleValue
0.000

@<TRIPOS>MOLECULE
guest-s9_confgen4.mol2 : confsearch ligand conformer 113
          20          19           1
SMALL
USER_CHARGES
 
@<TRIPOS>ATOM
       1    C1      20.549971   17.659445   23.794270 C.3        1 MOL1        -0.2224
       2    H1      19.725891   17.236847   23.206602 H          1 MOL1         0.1052
       3    H2      21.398761   16.965561   23.739202 H          1 MOL1         0.1052
       4    H3      20.222018   17.704166   24.840832 H          1 MOL1         0.1052
       5    C2      20.949542   19.065513   23.290406 C.3        1 MOL1        -0.1209
       6    H4      21.725496   19.472036   23.954083 H          1 MOL1         0.1041
       7    H5      20.097589   19.752622   23.372978 H          1 MOL1         0.1041
       8    C3      21.491977   19.059544   21.840174 C.3        1 MOL1        -0.1274
       9    H6      21.796213   20.077076   21.561828 H          1 MOL1         0.1041
      10    H7      22.407180   18.453599   21.810491 H          1 MOL1         0.1041
      11    C4      20.517037   18.513374   20.770655 C.3        1 MOL1         0.0313
      12    H8      20.190569   17.503186   21.028539 H          1 MOL1         0.1015
      13    H9      21.060185   18.452453   19.824111 H          1 MOL1         0.1015
      14    N1      19.284844   19.366168   20.507240 N.4        1 MOL1        -0.4809
      15    H10     19.004876   19.261599   19.519574 H          1 MOL1         0.3726
      16    H11     19.511481   20.366380   20.611428 H          1 MOL1         0.3726
      17    C5      18.118001   18.964131   21.402835 C.3        1 MOL1        -0.0677
      18    H12     17.250769   19.581021   21.157313 H          1 MOL1         0.1026
      19    H13     17.880073   17.912404   21.230060 H          1 MOL1         0.1026
      20    H14     18.387501   19.112968   22.448894 H          1 MOL1         0.1026
@<TRIPOS>BOND
    1     1     2    1
    2     1     3    1
    3     1     4    1
    4     1     5    1
    5     5     6    1
    6     5     7    1
    7     5     8    1
    8     8     9    1
    9     8    10    1
   10     8    11    1
   11    11    12    1
   12    11    13    1
   13    11    14    1
   14    14    15    1
   15    14    16    1
   16    14    17    1
   17    17    18    1
   18    17    19    1
   19    17    20    1
@<TRIPOS>SUBSTRUCTURE
       1 MOL1            1 RESIDUE      1      MOL     
@<SCITEGIC>MOL_PROPERTY
VConf Rank
SciTegic.value.IntegerValue
113

@<SCITEGIC>MOL_PROPERTY
Conf_Id
SciTegic.value.IntegerValue
60

@<SCITEGIC>MOL_PROPERTY
Delta U+W
SciTegic.value.DoubleValue
1.788

@<SCITEGIC>MOL_PROPERTY
U+W
SciTegic.value.DoubleValue
17.127

@<SCITEGIC>MOL_PROPERTY
Grad RMS
SciTegic.value.DoubleValue
0.000000

@<SCITEGIC>MOL_PROPERTY
U
SciTegic.value.DoubleValue
72.122

@<SCITEGIC>MOL_PROPERTY
W
SciTegic.value.DoubleValue
-54.995

@<SCITEGIC>MOL_PROPERTY
W(PB)
SciTegic.value.DoubleValue
-56.810

@<SCITEGIC>MOL_PROPERTY
W(SA)
SciTegic.value.DoubleValue
1.815

@<SCITEGIC>MOL_PROPERTY
Valence
SciTegic.value.DoubleValue
3.197

@<SCITEGIC>MOL_PROPERTY
Coulomb
SciTegic.value.DoubleValue
69.115

@<SCITEGIC>MOL_PROPERTY
VdW
SciTegic.value.DoubleValue
-0.190

@<SCITEGIC>MOL_PROPERTY
VdW6
SciTegic.value.DoubleValue
-5.585

@<SCITEGIC>MOL_PROPERTY
VdW12
SciTegic.value.DoubleValue
5.395

@<SCITEGIC>MOL_PROPERTY
Bond
SciTegic.value.DoubleValue
0.177

@<SCITEGIC>MOL_PROPERTY
Angle
SciTegic.value.DoubleValue
1.207

@<SCITEGIC>MOL_PROPERTY
Pdih
SciTegic.value.DoubleValue
1.813

@<SCITEGIC>MOL_PROPERTY
Idih
SciTegic.value.DoubleValue
0.000

@<SCITEGIC>MOL_PROPERTY
Tether
SciTegic.value.DoubleValue
0.000

@<TRIPOS>MOLECULE
guest-s9_confgen4.mol2 : confsearch ligand conformer 114
          20          19           1
SMALL
USER_CHARGES
 
@<TRIPOS>ATOM
       1    C1      19.846564   16.961413   20.921169 C.3        1 MOL1        -0.2224
       2    H1      19.164277   16.105440   21.002643 H          1 MOL1         0.1052
       3    H2      20.409010   16.852745   19.984795 H          1 MOL1         0.1052
       4    H3      20.557081   16.899241   21.754446 H          1 MOL1         0.1052
       5    C2      19.055443   18.289667   20.941937 C.3        1 MOL1        -0.1209
       6    H4      18.481236   18.372847   21.873673 H          1 MOL1         0.1041
       7    H5      18.310833   18.270811   20.133832 H          1 MOL1         0.1041
       8    C3      19.955664   19.535736   20.756563 C.3        1 MOL1        -0.1274
       9    H6      20.432377   19.480263   19.768984 H          1 MOL1         0.1041
      10    H7      19.329083   20.437090   20.737495 H          1 MOL1         0.1041
      11    C4      21.065899   19.714618   21.818662 C.3        1 MOL1         0.0313
      12    H8      21.694853   20.552095   21.506063 H          1 MOL1         0.1015
      13    H9      21.699879   18.826090   21.865057 H          1 MOL1         0.1015
      14    N1      20.584426   20.037799   23.225317 N.4        1 MOL1        -0.4809
      15    H10     19.734053   20.619342   23.188986 H          1 MOL1         0.3726
      16    H11     21.286903   20.628554   23.696841 H          1 MOL1         0.3726
      17    C5      20.359454   18.774535   24.049208 C.3        1 MOL1        -0.0677
      18    H12     21.293053   18.210403   24.101521 H          1 MOL1         0.1026
      19    H13     20.045054   19.056756   25.056397 H          1 MOL1         0.1026
      20    H14     19.586140   18.163062   23.583261 H          1 MOL1         0.1026
@<TRIPOS>BOND
    1     1     2    1
    2     1     3    1
    3     1     4    1
    4     1     5    1
    5     5     6    1
    6     5     7    1
    7     5     8    1
    8     8     9    1
    9     8    10    1
   10     8    11    1
   11    11    12    1
   12    11    13    1
   13    11    14    1
   14    14    15    1
   15    14    16    1
   16    14    17    1
   17    17    18    1
   18    17    19    1
   19    17    20    1
@<TRIPOS>SUBSTRUCTURE
       1 MOL1            1 RESIDUE      1      MOL     
@<SCITEGIC>MOL_PROPERTY
VConf Rank
SciTegic.value.IntegerValue
114

@<SCITEGIC>MOL_PROPERTY
Conf_Id
SciTegic.value.IntegerValue
54

@<SCITEGIC>MOL_PROPERTY
Delta U+W
SciTegic.value.DoubleValue
1.880

@<SCITEGIC>MOL_PROPERTY
U+W
SciTegic.value.DoubleValue
17.218

@<SCITEGIC>MOL_PROPERTY
Grad RMS
SciTegic.value.DoubleValue
0.000000

@<SCITEGIC>MOL_PROPERTY
U
SciTegic.value.DoubleValue
72.122

@<SCITEGIC>MOL_PROPERTY
W
SciTegic.value.DoubleValue
-54.903

@<SCITEGIC>MOL_PROPERTY
W(PB)
SciTegic.value.DoubleValue
-56.724

@<SCITEGIC>MOL_PROPERTY
W(SA)
SciTegic.value.DoubleValue
1.821

@<SCITEGIC>MOL_PROPERTY
Valence
SciTegic.value.DoubleValue
3.197

@<SCITEGIC>MOL_PROPERTY
Coulomb
SciTegic.value.DoubleValue
69.115

@<SCITEGIC>MOL_PROPERTY
VdW
SciTegic.value.DoubleValue
-0.190

@<SCITEGIC>MOL_PROPERTY
VdW6
SciTegic.value.DoubleValue
-5.585

@<SCITEGIC>MOL_PROPERTY
VdW12
SciTegic.value.DoubleValue
5.395

@<SCITEGIC>MOL_PROPERTY
Bond
SciTegic.value.DoubleValue
0.177

@<SCITEGIC>MOL_PROPERTY
Angle
SciTegic.value.DoubleValue
1.207

@<SCITEGIC>MOL_PROPERTY
Pdih
SciTegic.value.DoubleValue
1.813

@<SCITEGIC>MOL_PROPERTY
Idih
SciTegic.value.DoubleValue
0.000

@<SCITEGIC>MOL_PROPERTY
Tether
SciTegic.value.DoubleValue
0.000

@<TRIPOS>MOLECULE
guest-s9_confgen4.mol2 : confsearch ligand conformer 115
          20          19           1
SMALL
USER_CHARGES
 
@<TRIPOS>ATOM
       1    C1      21.161209   21.745603   22.723536 C.3        1 MOL1        -0.2224
       2    H1      20.665150   22.284731   21.905952 H          1 MOL1         0.1052
       3    H2      21.163659   22.400096   23.604818 H          1 MOL1         0.1052
       4    H3      22.205072   21.569661   22.432727 H          1 MOL1         0.1052
       5    C2      20.438319   20.416699   23.032853 C.3        1 MOL1        -0.1209
       6    H4      19.408356   20.627475   23.353947 H          1 MOL1         0.1041
       7    H5      20.936211   19.917995   23.876505 H          1 MOL1         0.1041
       8    C3      20.419398   19.474560   21.809016 C.3        1 MOL1        -0.1274
       9    H6      19.918758   19.972164   20.967757 H          1 MOL1         0.1041
      10    H7      21.448734   19.261821   21.490937 H          1 MOL1         0.1041
      11    C4      19.697066   18.151804   22.125459 C.3        1 MOL1         0.0313
      12    H8      18.667343   18.358927   22.427550 H          1 MOL1         0.1015
      13    H9      20.202315   17.646248   22.952276 H          1 MOL1         0.1015
      14    N1      19.653605   17.193663   20.951245 N.4        1 MOL1        -0.4809
      15    H10     20.610274   16.978852   20.630624 H          1 MOL1         0.3726
      16    H11     19.189051   17.638678   20.144829 H          1 MOL1         0.3726
      17    C5      18.924909   15.916967   21.349020 C.3        1 MOL1        -0.0677
      18    H12     17.904973   16.164029   21.651507 H          1 MOL1         0.1026
      19    H13     18.900911   15.236581   20.494908 H          1 MOL1         0.1026
      20    H14     19.453002   15.445295   22.180556 H          1 MOL1         0.1026
@<TRIPOS>BOND
    1     1     2    1
    2     1     3    1
    3     1     4    1
    4     1     5    1
    5     5     6    1
    6     5     7    1
    7     5     8    1
    8     8     9    1
    9     8    10    1
   10     8    11    1
   11    11    12    1
   12    11    13    1
   13    11    14    1
   14    14    15    1
   15    14    16    1
   16    14    17    1
   17    17    18    1
   18    17    19    1
   19    17    20    1
@<TRIPOS>SUBSTRUCTURE
       1 MOL1            1 RESIDUE      1      MOL     
@<SCITEGIC>MOL_PROPERTY
VConf Rank
SciTegic.value.IntegerValue
115

@<SCITEGIC>MOL_PROPERTY
Conf_Id
SciTegic.value.IntegerValue
67

@<SCITEGIC>MOL_PROPERTY
Delta U+W
SciTegic.value.DoubleValue
0.000

@<SCITEGIC>MOL_PROPERTY
U+W
SciTegic.value.DoubleValue
15.338

@<SCITEGIC>MOL_PROPERTY
Grad RMS
SciTegic.value.DoubleValue
0.000000

@<SCITEGIC>MOL_PROPERTY
U
SciTegic.value.DoubleValue
69.277

@<SCITEGIC>MOL_PROPERTY
W
SciTegic.value.DoubleValue
-53.939

@<SCITEGIC>MOL_PROPERTY
W(PB)
SciTegic.value.DoubleValue
-55.889

@<SCITEGIC>MOL_PROPERTY
W(SA)
SciTegic.value.DoubleValue
1.950

@<SCITEGIC>MOL_PROPERTY
Valence
SciTegic.value.DoubleValue
0.846

@<SCITEGIC>MOL_PROPERTY
Coulomb
SciTegic.value.DoubleValue
68.557

@<SCITEGIC>MOL_PROPERTY
VdW
SciTegic.value.DoubleValue
-0.127

@<SCITEGIC>MOL_PROPERTY
VdW6
SciTegic.value.DoubleValue
-3.008

@<SCITEGIC>MOL_PROPERTY
VdW12
SciTegic.value.DoubleValue
2.882

@<SCITEGIC>MOL_PROPERTY
Bond
SciTegic.value.DoubleValue
0.088

@<SCITEGIC>MOL_PROPERTY
Angle
SciTegic.value.DoubleValue
0.332

@<SCITEGIC>MOL_PROPERTY
Pdih
SciTegic.value.DoubleValue
0.426

@<SCITEGIC>MOL_PROPERTY
Idih
SciTegic.value.DoubleValue
0.000

@<SCITEGIC>MOL_PROPERTY
Tether
SciTegic.value.DoubleValue
0.000

@<TRIPOS>MOLECULE
guest-s9_confgen4.mol2 : confsearch ligand conformer 116
          20          19           1
SMALL
USER_CHARGES
 
@<TRIPOS>ATOM
       1    C1      17.701579   17.736215   20.557040 C.3        1 MOL1        -0.2224
       2    H1      18.355663   17.355520   19.761795 H          1 MOL1         0.1052
       3    H2      16.877579   17.022291   20.684934 H          1 MOL1         0.1052
       4    H3      17.271937   18.688331   20.219327 H          1 MOL1         0.1052
       5    C2      18.479070   17.914607   21.879142 C.3        1 MOL1        -0.1209
       6    H4      18.867102   16.940426   22.208882 H          1 MOL1         0.1041
       7    H5      17.791347   18.262308   22.663010 H          1 MOL1         0.1041
       8    C3      19.645965   18.915362   21.729025 C.3        1 MOL1        -0.1274
       9    H6      20.329755   18.564213   20.945520 H          1 MOL1         0.1041
      10    H7      19.257160   19.889376   21.403833 H          1 MOL1         0.1041
      11    C4      20.415410   19.087901   23.054981 C.3        1 MOL1         0.0313
      12    H8      20.847081   18.131588   23.360770 H          1 MOL1         0.1015
      13    H9      19.715898   19.406806   23.831938 H          1 MOL1         0.1015
      14    N1      21.536104   20.113847   23.007638 N.4        1 MOL1        -0.4809
      15    H10     21.886186   20.286761   23.963060 H          1 MOL1         0.3726
      16    H11     21.172808   21.025660   22.690793 H          1 MOL1         0.3726
      17    C5      22.679978   19.645225   22.114631 C.3        1 MOL1        -0.0677
      18    H12     22.317132   19.528418   21.091604 H          1 MOL1         0.1026
      19    H13     23.478985   20.389581   22.136815 H          1 MOL1         0.1026
      20    H14     23.057193   18.689713   22.485325 H          1 MOL1         0.1026
@<TRIPOS>BOND
    1     1     2    1
    2     1     3    1
    3     1     4    1
    4     1     5    1
    5     5     6    1
    6     5     7    1
    7     5     8    1
    8     8     9    1
    9     8    10    1
   10     8    11    1
   11    11    12    1
   12    11    13    1
   13    11    14    1
   14    14    15    1
   15    14    16    1
   16    14    17    1
   17    17    18    1
   18    17    19    1
   19    17    20    1
@<TRIPOS>SUBSTRUCTURE
       1 MOL1            1 RESIDUE      1      MOL     
@<SCITEGIC>MOL_PROPERTY
VConf Rank
SciTegic.value.IntegerValue
116

@<SCITEGIC>MOL_PROPERTY
Conf_Id
SciTegic.value.IntegerValue
37

@<SCITEGIC>MOL_PROPERTY
Delta U+W
SciTegic.value.DoubleValue
-0.021

@<SCITEGIC>MOL_PROPERTY
U+W
SciTegic.value.DoubleValue
15.318

@<SCITEGIC>MOL_PROPERTY
Grad RMS
SciTegic.value.DoubleValue
0.000000

@<SCITEGIC>MOL_PROPERTY
U
SciTegic.value.DoubleValue
69.657

@<SCITEGIC>MOL_PROPERTY
W
SciTegic.value.DoubleValue
-54.340

@<SCITEGIC>MOL_PROPERTY
W(PB)
SciTegic.value.DoubleValue
-56.238

@<SCITEGIC>MOL_PROPERTY
W(SA)
SciTegic.value.DoubleValue
1.899

@<SCITEGIC>MOL_PROPERTY
Valence
SciTegic.value.DoubleValue
1.137

@<SCITEGIC>MOL_PROPERTY
Coulomb
SciTegic.value.DoubleValue
68.383

@<SCITEGIC>MOL_PROPERTY
VdW
SciTegic.value.DoubleValue
0.138

@<SCITEGIC>MOL_PROPERTY
VdW6
SciTegic.value.DoubleValue
-3.703

@<SCITEGIC>MOL_PROPERTY
VdW12
SciTegic.value.DoubleValue
3.841

@<SCITEGIC>MOL_PROPERTY
Bond
SciTegic.value.DoubleValue
0.125

@<SCITEGIC>MOL_PROPERTY
Angle
SciTegic.value.DoubleValue
0.468

@<SCITEGIC>MOL_PROPERTY
Pdih
SciTegic.value.DoubleValue
0.543

@<SCITEGIC>MOL_PROPERTY
Idih
SciTegic.value.DoubleValue
0.000

@<SCITEGIC>MOL_PROPERTY
Tether
SciTegic.value.DoubleValue
0.000

@<TRIPOS>MOLECULE
guest-s9_confgen4.mol2 : confsearch ligand conformer 117
          20          19           1
SMALL
USER_CHARGES
 
@<TRIPOS>ATOM
       1    C1      19.178408   15.893237   21.871750 C.3        1 MOL1        -0.2224
       2    H1      19.530669   14.910117   21.533510 H          1 MOL1         0.1052
       3    H2      19.104635   15.865308   22.966714 H          1 MOL1         0.1052
       4    H3      18.170272   16.047076   21.465346 H          1 MOL1         0.1052
       5    C2      20.141407   17.007305   21.407257 C.3        1 MOL1        -0.1209
       6    H4      20.221333   16.987172   20.311121 H          1 MOL1         0.1041
       7    H5      21.148061   16.807444   21.800996 H          1 MOL1         0.1041
       8    C3      19.670101   18.403765   21.869268 C.3        1 MOL1        -0.1274
       9    H6      18.666327   18.604484   21.472062 H          1 MOL1         0.1041
      10    H7      19.591749   18.419102   22.963973 H          1 MOL1         0.1041
      11    C4      20.637430   19.509811   21.399263 C.3        1 MOL1         0.0313
      12    H8      20.729553   19.461440   20.311214 H          1 MOL1         0.1015
      13    H9      21.628100   19.344126   21.829965 H          1 MOL1         0.1015
      14    N1      20.203202   20.922919   21.753286 N.4        1 MOL1        -0.4809
      15    H10     19.255523   21.107133   21.390322 H          1 MOL1         0.3726
      16    H11     20.808950   21.602179   21.266499 H          1 MOL1         0.3726
      17    C5      20.263985   21.161410   23.258259 C.3        1 MOL1        -0.0677
      18    H12     21.281523   20.978819   23.610373 H          1 MOL1         0.1026
      19    H13     19.982250   22.195607   23.468102 H          1 MOL1         0.1026
      20    H14     19.570912   20.484210   23.761187 H          1 MOL1         0.1026
@<TRIPOS>BOND
    1     1     2    1
    2     1     3    1
    3     1     4    1
    4     1     5    1
    5     5     6    1
    6     5     7    1
    7     5     8    1
    8     8     9    1
    9     8    10    1
   10     8    11    1
   11    11    12    1
   12    11    13    1
   13    11    14    1
   14    14    15    1
   15    14    16    1
   16    14    17    1
   17    17    18    1
   18    17    19    1
   19    17    20    1
@<TRIPOS>SUBSTRUCTURE
       1 MOL1            1 RESIDUE      1      MOL     
@<SCITEGIC>MOL_PROPERTY
VConf Rank
SciTegic.value.IntegerValue
117

@<SCITEGIC>MOL_PROPERTY
Conf_Id
SciTegic.value.IntegerValue
2

@<SCITEGIC>MOL_PROPERTY
Delta U+W
SciTegic.value.DoubleValue
0.069

@<SCITEGIC>MOL_PROPERTY
U+W
SciTegic.value.DoubleValue
15.407

@<SCITEGIC>MOL_PROPERTY
Grad RMS
SciTegic.value.DoubleValue
0.000000

@<SCITEGIC>MOL_PROPERTY
U
SciTegic.value.DoubleValue
69.657

@<SCITEGIC>MOL_PROPERTY
W
SciTegic.value.DoubleValue
-54.250

@<SCITEGIC>MOL_PROPERTY
W(PB)
SciTegic.value.DoubleValue
-56.176

@<SCITEGIC>MOL_PROPERTY
W(SA)
SciTegic.value.DoubleValue
1.926

@<SCITEGIC>MOL_PROPERTY
Valence
SciTegic.value.DoubleValue
1.137

@<SCITEGIC>MOL_PROPERTY
Coulomb
SciTegic.value.DoubleValue
68.383

@<SCITEGIC>MOL_PROPERTY
VdW
SciTegic.value.DoubleValue
0.138

@<SCITEGIC>MOL_PROPERTY
VdW6
SciTegic.value.DoubleValue
-3.703

@<SCITEGIC>MOL_PROPERTY
VdW12
SciTegic.value.DoubleValue
3.841

@<SCITEGIC>MOL_PROPERTY
Bond
SciTegic.value.DoubleValue
0.125

@<SCITEGIC>MOL_PROPERTY
Angle
SciTegic.value.DoubleValue
0.468

@<SCITEGIC>MOL_PROPERTY
Pdih
SciTegic.value.DoubleValue
0.543

@<SCITEGIC>MOL_PROPERTY
Idih
SciTegic.value.DoubleValue
0.000

@<SCITEGIC>MOL_PROPERTY
Tether
SciTegic.value.DoubleValue
0.000

@<TRIPOS>MOLECULE
guest-s9_confgen4.mol2 : confsearch ligand conformer 118
          20          19           1
SMALL
USER_CHARGES
 
@<TRIPOS>ATOM
       1    C1      20.749350   21.072165   23.110074 C.3        1 MOL1        -0.2224
       2    H1      21.229678   20.226763   23.618644 H          1 MOL1         0.1052
       3    H2      21.398730   21.389180   22.283692 H          1 MOL1         0.1052
       4    H3      20.692838   21.900794   23.827828 H          1 MOL1         0.1052
       5    C2      19.338398   20.701014   22.598461 C.3        1 MOL1        -0.1209
       6    H4      18.860608   21.598801   22.181676 H          1 MOL1         0.1041
       7    H5      18.711633   20.381904   23.443174 H          1 MOL1         0.1041
       8    C3      19.358677   19.594995   21.517494 C.3        1 MOL1        -0.1274
       9    H6      18.336795   19.438627   21.147138 H          1 MOL1         0.1041
      10    H7      19.956656   19.929866   20.659503 H          1 MOL1         0.1041
      11    C4      19.914793   18.258318   22.045959 C.3        1 MOL1         0.0313
      12    H8      19.318075   17.924003   22.898328 H          1 MOL1         0.1015
      13    H9      20.945866   18.394894   22.380625 H          1 MOL1         0.1015
      14    N1      19.907577   17.151690   21.009718 N.4        1 MOL1        -0.4809
      15    H10     20.454840   17.434475   20.182297 H          1 MOL1         0.3726
      16    H11     18.949071   16.994585   20.662316 H          1 MOL1         0.3726
      17    C5      20.473259   15.872459   21.611933 C.3        1 MOL1        -0.0677
      18    H12     19.858944   15.573478   22.464007 H          1 MOL1         0.1026
      19    H13     20.462165   15.084454   20.855673 H          1 MOL1         0.1026
      20    H14     21.499026   16.052431   21.940892 H          1 MOL1         0.1026
@<TRIPOS>BOND
    1     1     2    1
    2     1     3    1
    3     1     4    1
    4     1     5    1
    5     5     6    1
    6     5     7    1
    7     5     8    1
    8     8     9    1
    9     8    10    1
   10     8    11    1
   11    11    12    1
   12    11    13    1
   13    11    14    1
   14    14    15    1
   15    14    16    1
   16    14    17    1
   17    17    18    1
   18    17    19    1
   19    17    20    1
@<TRIPOS>SUBSTRUCTURE
       1 MOL1            1 RESIDUE      1      MOL     
@<SCITEGIC>MOL_PROPERTY
VConf Rank
SciTegic.value.IntegerValue
118

@<SCITEGIC>MOL_PROPERTY
Conf_Id
SciTegic.value.IntegerValue
34

@<SCITEGIC>MOL_PROPERTY
Delta U+W
SciTegic.value.DoubleValue
0.276

@<SCITEGIC>MOL_PROPERTY
U+W
SciTegic.value.DoubleValue
15.615

@<SCITEGIC>MOL_PROPERTY
Grad RMS
SciTegic.value.DoubleValue
0.000000

@<SCITEGIC>MOL_PROPERTY
U
SciTegic.value.DoubleValue
69.798

@<SCITEGIC>MOL_PROPERTY
W
SciTegic.value.DoubleValue
-54.184

@<SCITEGIC>MOL_PROPERTY
W(PB)
SciTegic.value.DoubleValue
-56.116

@<SCITEGIC>MOL_PROPERTY
W(SA)
SciTegic.value.DoubleValue
1.933

@<SCITEGIC>MOL_PROPERTY
Valence
SciTegic.value.DoubleValue
1.134

@<SCITEGIC>MOL_PROPERTY
Coulomb
SciTegic.value.DoubleValue
68.735

@<SCITEGIC>MOL_PROPERTY
VdW
SciTegic.value.DoubleValue
-0.070

@<SCITEGIC>MOL_PROPERTY
VdW6
SciTegic.value.DoubleValue
-3.565

@<SCITEGIC>MOL_PROPERTY
VdW12
SciTegic.value.DoubleValue
3.494

@<SCITEGIC>MOL_PROPERTY
Bond
SciTegic.value.DoubleValue
0.108

@<SCITEGIC>MOL_PROPERTY
Angle
SciTegic.value.DoubleValue
0.456

@<SCITEGIC>MOL_PROPERTY
Pdih
SciTegic.value.DoubleValue
0.569

@<SCITEGIC>MOL_PROPERTY
Idih
SciTegic.value.DoubleValue
0.000

@<SCITEGIC>MOL_PROPERTY
Tether
SciTegic.value.DoubleValue
0.000

@<TRIPOS>MOLECULE
guest-s9_confgen4.mol2 : confsearch ligand conformer 119
          20          19           1
SMALL
USER_CHARGES
 
@<TRIPOS>ATOM
       1    C1      21.952826   20.283724   20.185857 C.3        1 MOL1        -0.2224
       2    H1      21.638081   21.333071   20.115331 H          1 MOL1         0.1052
       3    H2      23.046604   20.266674   20.277425 H          1 MOL1         0.1052
       4    H3      21.686396   19.783388   19.245718 H          1 MOL1         0.1052
       5    C2      21.293099   19.584648   21.394194 C.3        1 MOL1        -0.1209
       6    H4      21.603922   20.088248   22.320530 H          1 MOL1         0.1041
       7    H5      21.661552   18.551727   21.455938 H          1 MOL1         0.1041
       8    C3      19.749735   19.594714   21.288773 C.3        1 MOL1        -0.1274
       9    H6      19.399815   20.630757   21.188501 H          1 MOL1         0.1041
      10    H7      19.430625   19.068346   20.379399 H          1 MOL1         0.1041
      11    C4      19.062099   18.965362   22.517029 C.3        1 MOL1         0.0313
      12    H8      17.979400   19.082962   22.424553 H          1 MOL1         0.1015
      13    H9      19.384034   19.483440   23.423884 H          1 MOL1         0.1015
      14    N1      19.347585   17.486021   22.695729 N.4        1 MOL1        -0.4809
      15    H10     20.361935   17.328492   22.789187 H          1 MOL1         0.3726
      16    H11     19.064981   16.964949   21.851534 H          1 MOL1         0.3726
      17    C5      18.611502   16.958941   23.920150 C.3        1 MOL1        -0.0677
      18    H12     18.950357   17.501812   24.805169 H          1 MOL1         0.1026
      19    H13     17.537705   17.105750   23.785267 H          1 MOL1         0.1026
      20    H14     18.825595   15.894271   24.036904 H          1 MOL1         0.1026
@<TRIPOS>BOND
    1     1     2    1
    2     1     3    1
    3     1     4    1
    4     1     5    1
    5     5     6    1
    6     5     7    1
    7     5     8    1
    8     8     9    1
    9     8    10    1
   10     8    11    1
   11    11    12    1
   12    11    13    1
   13    11    14    1
   14    14    15    1
   15    14    16    1
   16    14    17    1
   17    17    18    1
   18    17    19    1
   19    17    20    1
@<TRIPOS>SUBSTRUCTURE
       1 MOL1            1 RESIDUE      1      MOL     
@<SCITEGIC>MOL_PROPERTY
VConf Rank
SciTegic.value.IntegerValue
119

@<SCITEGIC>MOL_PROPERTY
Conf_Id
SciTegic.value.IntegerValue
50

@<SCITEGIC>MOL_PROPERTY
Delta U+W
SciTegic.value.DoubleValue
0.319

@<SCITEGIC>MOL_PROPERTY
U+W
SciTegic.value.DoubleValue
15.657

@<SCITEGIC>MOL_PROPERTY
Grad RMS
SciTegic.value.DoubleValue
0.000000

@<SCITEGIC>MOL_PROPERTY
U
SciTegic.value.DoubleValue
69.962

@<SCITEGIC>MOL_PROPERTY
W
SciTegic.value.DoubleValue
-54.305

@<SCITEGIC>MOL_PROPERTY
W(PB)
SciTegic.value.DoubleValue
-56.223

@<SCITEGIC>MOL_PROPERTY
W(SA)
SciTegic.value.DoubleValue
1.918

@<SCITEGIC>MOL_PROPERTY
Valence
SciTegic.value.DoubleValue
0.982

@<SCITEGIC>MOL_PROPERTY
Coulomb
SciTegic.value.DoubleValue
69.058

@<SCITEGIC>MOL_PROPERTY
VdW
SciTegic.value.DoubleValue
-0.078

@<SCITEGIC>MOL_PROPERTY
VdW6
SciTegic.value.DoubleValue
-3.548

@<SCITEGIC>MOL_PROPERTY
VdW12
SciTegic.value.DoubleValue
3.471

@<SCITEGIC>MOL_PROPERTY
Bond
SciTegic.value.DoubleValue
0.105

@<SCITEGIC>MOL_PROPERTY
Angle
SciTegic.value.DoubleValue
0.408

@<SCITEGIC>MOL_PROPERTY
Pdih
SciTegic.value.DoubleValue
0.469

@<SCITEGIC>MOL_PROPERTY
Idih
SciTegic.value.DoubleValue
0.000

@<SCITEGIC>MOL_PROPERTY
Tether
SciTegic.value.DoubleValue
0.000

@<TRIPOS>MOLECULE
guest-s9_confgen4.mol2 : confsearch ligand conformer 120
          20          19           1
SMALL
USER_CHARGES
 
@<TRIPOS>ATOM
       1    C1      17.612192   19.023943   20.235427 C.3        1 MOL1        -0.2224
       2    H1      17.329902   18.288316   19.471102 H          1 MOL1         0.1052
       3    H2      16.732159   19.208300   20.865287 H          1 MOL1         0.1052
       4    H3      17.867300   19.960476   19.722585 H          1 MOL1         0.1052
       5    C2      18.800429   18.508799   21.076108 C.3        1 MOL1        -0.1209
       6    H4      19.646989   18.297788   20.408796 H          1 MOL1         0.1041
       7    H5      18.525080   17.556064   21.550242 H          1 MOL1         0.1041
       8    C3      19.218523   19.528793   22.161464 C.3        1 MOL1        -0.1274
       9    H6      19.522060   20.474466   21.693034 H          1 MOL1         0.1041
      10    H7      18.352212   19.758921   22.795836 H          1 MOL1         0.1041
      11    C4      20.357607   19.010623   23.062314 C.3        1 MOL1         0.0313
      12    H8      20.059952   18.065783   23.523956 H          1 MOL1         0.1015
      13    H9      20.545145   19.734299   23.859648 H          1 MOL1         0.1015
      14    N1      21.668684   18.783746   22.333277 N.4        1 MOL1        -0.4809
      15    H10     21.975977   19.655258   21.874924 H          1 MOL1         0.3726
      16    H11     21.537960   18.103245   21.570202 H          1 MOL1         0.3726
      17    C5      22.728117   18.291767   23.310210 C.3        1 MOL1        -0.0677
      18    H12     23.665585   18.132527   22.772821 H          1 MOL1         0.1026
      19    H13     22.874062   19.041861   24.090494 H          1 MOL1         0.1026
      20    H14     22.396347   17.352514   23.758009 H          1 MOL1         0.1026
@<TRIPOS>BOND
    1     1     2    1
    2     1     3    1
    3     1     4    1
    4     1     5    1
    5     5     6    1
    6     5     7    1
    7     5     8    1
    8     8     9    1
    9     8    10    1
   10     8    11    1
   11    11    12    1
   12    11    13    1
   13    11    14    1
   14    14    15    1
   15    14    16    1
   16    14    17    1
   17    17    18    1
   18    17    19    1
   19    17    20    1
@<TRIPOS>SUBSTRUCTURE
       1 MOL1            1 RESIDUE      1      MOL     
@<SCITEGIC>MOL_PROPERTY
VConf Rank
SciTegic.value.IntegerValue
120

@<SCITEGIC>MOL_PROPERTY
Conf_Id
SciTegic.value.IntegerValue
35

@<SCITEGIC>MOL_PROPERTY
Delta U+W
SciTegic.value.DoubleValue
0.360

@<SCITEGIC>MOL_PROPERTY
U+W
SciTegic.value.DoubleValue
15.698

@<SCITEGIC>MOL_PROPERTY
Grad RMS
SciTegic.value.DoubleValue
0.000000

@<SCITEGIC>MOL_PROPERTY
U
SciTegic.value.DoubleValue
69.962

@<SCITEGIC>MOL_PROPERTY
W
SciTegic.value.DoubleValue
-54.264

@<SCITEGIC>MOL_PROPERTY
W(PB)
SciTegic.value.DoubleValue
-56.166

@<SCITEGIC>MOL_PROPERTY
W(SA)
SciTegic.value.DoubleValue
1.902

@<SCITEGIC>MOL_PROPERTY
Valence
SciTegic.value.DoubleValue
0.982

@<SCITEGIC>MOL_PROPERTY
Coulomb
SciTegic.value.DoubleValue
69.058

@<SCITEGIC>MOL_PROPERTY
VdW
SciTegic.value.DoubleValue
-0.078

@<SCITEGIC>MOL_PROPERTY
VdW6
SciTegic.value.DoubleValue
-3.548

@<SCITEGIC>MOL_PROPERTY
VdW12
SciTegic.value.DoubleValue
3.471

@<SCITEGIC>MOL_PROPERTY
Bond
SciTegic.value.DoubleValue
0.105

@<SCITEGIC>MOL_PROPERTY
Angle
SciTegic.value.DoubleValue
0.408

@<SCITEGIC>MOL_PROPERTY
Pdih
SciTegic.value.DoubleValue
0.469

@<SCITEGIC>MOL_PROPERTY
Idih
SciTegic.value.DoubleValue
0.000

@<SCITEGIC>MOL_PROPERTY
Tether
SciTegic.value.DoubleValue
0.000

@<TRIPOS>MOLECULE
guest-s9_confgen4.mol2 : confsearch ligand conformer 121
          20          19           1
SMALL
USER_CHARGES
 
@<TRIPOS>ATOM
       1    C1      21.656465   18.570429   24.004319 C.3        1 MOL1        -0.2224
       2    H1      20.668604   18.371356   24.438563 H          1 MOL1         0.1052
       3    H2      22.408974   18.178312   24.700701 H          1 MOL1         0.1052
       4    H3      21.791332   19.658189   23.943627 H          1 MOL1         0.1052
       5    C2      21.809337   17.912260   22.613760 C.3        1 MOL1        -0.1209
       6    H4      21.664944   16.826153   22.701443 H          1 MOL1         0.1041
       7    H5      22.839112   18.059002   22.258773 H          1 MOL1         0.1041
       8    C3      20.829247   18.485452   21.563642 C.3        1 MOL1        -0.1274
       9    H6      21.003674   19.563464   21.453294 H          1 MOL1         0.1041
      10    H7      21.044472   18.030439   20.587856 H          1 MOL1         0.1041
      11    C4      19.351751   18.224822   21.927705 C.3        1 MOL1         0.0313
      12    H8      19.105049   18.729105   22.865038 H          1 MOL1         0.1015
      13    H9      19.206433   17.151262   22.072346 H          1 MOL1         0.1015
      14    N1      18.351915   18.679524   20.877005 N.4        1 MOL1        -0.4809
      15    H10     17.412926   18.324994   21.117453 H          1 MOL1         0.3726
      16    H11     18.570893   18.249631   19.965434 H          1 MOL1         0.3726
      17    C5      18.318173   20.200026   20.766099 C.3        1 MOL1        -0.0677
      18    H12     19.297541   20.562255   20.447483 H          1 MOL1         0.1026
      19    H13     17.564125   20.488309   20.030390 H          1 MOL1         0.1026
      20    H14     18.064295   20.625893   21.739177 H          1 MOL1         0.1026
@<TRIPOS>BOND
    1     1     2    1
    2     1     3    1
    3     1     4    1
    4     1     5    1
    5     5     6    1
    6     5     7    1
    7     5     8    1
    8     8     9    1
    9     8    10    1
   10     8    11    1
   11    11    12    1
   12    11    13    1
   13    11    14    1
   14    14    15    1
   15    14    16    1
   16    14    17    1
   17    17    18    1
   18    17    19    1
   19    17    20    1
@<TRIPOS>SUBSTRUCTURE
       1 MOL1            1 RESIDUE      1      MOL     
@<SCITEGIC>MOL_PROPERTY
VConf Rank
SciTegic.value.IntegerValue
121

@<SCITEGIC>MOL_PROPERTY
Conf_Id
SciTegic.value.IntegerValue
33

@<SCITEGIC>MOL_PROPERTY
Delta U+W
SciTegic.value.DoubleValue
0.372

@<SCITEGIC>MOL_PROPERTY
U+W
SciTegic.value.DoubleValue
15.711

@<SCITEGIC>MOL_PROPERTY
Grad RMS
SciTegic.value.DoubleValue
0.000000

@<SCITEGIC>MOL_PROPERTY
U
SciTegic.value.DoubleValue
70.163

@<SCITEGIC>MOL_PROPERTY
W
SciTegic.value.DoubleValue
-54.452

@<SCITEGIC>MOL_PROPERTY
W(PB)
SciTegic.value.DoubleValue
-56.363

@<SCITEGIC>MOL_PROPERTY
W(SA)
SciTegic.value.DoubleValue
1.911

@<SCITEGIC>MOL_PROPERTY
Valence
SciTegic.value.DoubleValue
1.420

@<SCITEGIC>MOL_PROPERTY
Coulomb
SciTegic.value.DoubleValue
68.566

@<SCITEGIC>MOL_PROPERTY
VdW
SciTegic.value.DoubleValue
0.177

@<SCITEGIC>MOL_PROPERTY
VdW6
SciTegic.value.DoubleValue
-4.267

@<SCITEGIC>MOL_PROPERTY
VdW12
SciTegic.value.DoubleValue
4.445

@<SCITEGIC>MOL_PROPERTY
Bond
SciTegic.value.DoubleValue
0.146

@<SCITEGIC>MOL_PROPERTY
Angle
SciTegic.value.DoubleValue
0.581

@<SCITEGIC>MOL_PROPERTY
Pdih
SciTegic.value.DoubleValue
0.693

@<SCITEGIC>MOL_PROPERTY
Idih
SciTegic.value.DoubleValue
0.000

@<SCITEGIC>MOL_PROPERTY
Tether
SciTegic.value.DoubleValue
0.000

@<TRIPOS>MOLECULE
guest-s9_confgen4.mol2 : confsearch ligand conformer 122
          20          19           1
SMALL
USER_CHARGES
 
@<TRIPOS>ATOM
       1    C1      20.386670   19.513051   24.470583 C.3        1 MOL1        -0.2224
       2    H1      20.845617   19.808620   25.422938 H          1 MOL1         0.1052
       3    H2      20.042372   20.427668   23.971579 H          1 MOL1         0.1052
       4    H3      19.508064   18.896111   24.699780 H          1 MOL1         0.1052
       5    C2      21.399767   18.736468   23.598364 C.3        1 MOL1        -0.1209
       6    H4      21.785276   17.881600   24.171573 H          1 MOL1         0.1041
       7    H5      22.265771   19.377006   23.379471 H          1 MOL1         0.1041
       8    C3      20.786220   18.219414   22.276208 C.3        1 MOL1        -0.1274
       9    H6      21.534905   17.615590   21.746698 H          1 MOL1         0.1041
      10    H7      19.945563   17.550844   22.502084 H          1 MOL1         0.1041
      11    C4      20.316238   19.364436   21.353438 C.3        1 MOL1         0.0313
      12    H8      21.155601   20.040515   21.171904 H          1 MOL1         0.1015
      13    H9      19.522355   19.934116   21.842281 H          1 MOL1         0.1015
      14    N1      19.797984   18.912001   19.998034 N.4        1 MOL1        -0.4809
      15    H10     20.508655   18.340682   19.516102 H          1 MOL1         0.3726
      16    H11     19.661876   19.733660   19.388479 H          1 MOL1         0.3726
      17    C5      18.486546   18.145879   20.134261 C.3        1 MOL1        -0.0677
      18    H12     18.128065   17.870856   19.139869 H          1 MOL1         0.1026
      19    H13     18.653424   17.243459   20.725595 H          1 MOL1         0.1026
      20    H14     17.748613   18.781415   20.628475 H          1 MOL1         0.1026
@<TRIPOS>BOND
    1     1     2    1
    2     1     3    1
    3     1     4    1
    4     1     5    1
    5     5     6    1
    6     5     7    1
    7     5     8    1
    8     8     9    1
    9     8    10    1
   10     8    11    1
   11    11    12    1
   12    11    13    1
   13    11    14    1
   14    14    15    1
   15    14    16    1
   16    14    17    1
   17    17    18    1
   18    17    19    1
   19    17    20    1
@<TRIPOS>SUBSTRUCTURE
       1 MOL1            1 RESIDUE      1      MOL     
@<SCITEGIC>MOL_PROPERTY
VConf Rank
SciTegic.value.IntegerValue
122

@<SCITEGIC>MOL_PROPERTY
Conf_Id
SciTegic.value.IntegerValue
53

@<SCITEGIC>MOL_PROPERTY
Delta U+W
SciTegic.value.DoubleValue
0.379

@<SCITEGIC>MOL_PROPERTY
U+W
SciTegic.value.DoubleValue
15.717

@<SCITEGIC>MOL_PROPERTY
Grad RMS
SciTegic.value.DoubleValue
0.000000

@<SCITEGIC>MOL_PROPERTY
U
SciTegic.value.DoubleValue
70.163

@<SCITEGIC>MOL_PROPERTY
W
SciTegic.value.DoubleValue
-54.446

@<SCITEGIC>MOL_PROPERTY
W(PB)
SciTegic.value.DoubleValue
-56.322

@<SCITEGIC>MOL_PROPERTY
W(SA)
SciTegic.value.DoubleValue
1.876

@<SCITEGIC>MOL_PROPERTY
Valence
SciTegic.value.DoubleValue
1.420

@<SCITEGIC>MOL_PROPERTY
Coulomb
SciTegic.value.DoubleValue
68.566

@<SCITEGIC>MOL_PROPERTY
VdW
SciTegic.value.DoubleValue
0.177

@<SCITEGIC>MOL_PROPERTY
VdW6
SciTegic.value.DoubleValue
-4.267

@<SCITEGIC>MOL_PROPERTY
VdW12
SciTegic.value.DoubleValue
4.445

@<SCITEGIC>MOL_PROPERTY
Bond
SciTegic.value.DoubleValue
0.146

@<SCITEGIC>MOL_PROPERTY
Angle
SciTegic.value.DoubleValue
0.581

@<SCITEGIC>MOL_PROPERTY
Pdih
SciTegic.value.DoubleValue
0.693

@<SCITEGIC>MOL_PROPERTY
Idih
SciTegic.value.DoubleValue
0.000

@<SCITEGIC>MOL_PROPERTY
Tether
SciTegic.value.DoubleValue
0.000

@<TRIPOS>MOLECULE
guest-s9_confgen4.mol2 : confsearch ligand conformer 123
          20          19           1
SMALL
USER_CHARGES
 
@<TRIPOS>ATOM
       1    C1      22.324475   18.754654   20.270228 C.3        1 MOL1        -0.2224
       2    H1      22.957220   17.890272   20.030479 H          1 MOL1         0.1052
       3    H2      22.139602   19.304387   19.338154 H          1 MOL1         0.1052
       4    H3      22.890836   19.408727   20.945940 H          1 MOL1         0.1052
       5    C2      21.000005   18.298050   20.919269 C.3        1 MOL1        -0.1209
       6    H4      21.225598   17.719969   21.825684 H          1 MOL1         0.1041
       7    H5      20.472200   17.620812   20.233010 H          1 MOL1         0.1041
       8    C3      20.089964   19.498939   21.269145 C.3        1 MOL1        -0.1274
       9    H6      20.601871   20.164828   21.975747 H          1 MOL1         0.1041
      10    H7      19.908458   20.092530   20.363411 H          1 MOL1         0.1041
      11    C4      18.724131   19.068703   21.848848 C.3        1 MOL1         0.0313
      12    H8      18.203119   18.454119   21.110294 H          1 MOL1         0.1015
      13    H9      18.112991   19.954935   22.037515 H          1 MOL1         0.1015
      14    N1      18.787067   18.269749   23.142039 N.4        1 MOL1        -0.4809
      15    H10     19.359059   17.422814   23.009537 H          1 MOL1         0.3726
      16    H11     17.845093   17.919689   23.377344 H          1 MOL1         0.3726
      17    C5      19.327769   19.114792   24.290289 C.3        1 MOL1        -0.0677
      18    H12     18.692249   19.993364   24.420224 H          1 MOL1         0.1026
      19    H13     19.323760   18.519136   25.205772 H          1 MOL1         0.1026
      20    H14     20.348582   19.426634   24.060704 H          1 MOL1         0.1026
@<TRIPOS>BOND
    1     1     2    1
    2     1     3    1
    3     1     4    1
    4     1     5    1
    5     5     6    1
    6     5     7    1
    7     5     8    1
    8     8     9    1
    9     8    10    1
   10     8    11    1
   11    11    12    1
   12    11    13    1
   13    11    14    1
   14    14    15    1
   15    14    16    1
   16    14    17    1
   17    17    18    1
   18    17    19    1
   19    17    20    1
@<TRIPOS>SUBSTRUCTURE
       1 MOL1            1 RESIDUE      1      MOL     
@<SCITEGIC>MOL_PROPERTY
VConf Rank
SciTegic.value.IntegerValue
123

@<SCITEGIC>MOL_PROPERTY
Conf_Id
SciTegic.value.IntegerValue
49

@<SCITEGIC>MOL_PROPERTY
Delta U+W
SciTegic.value.DoubleValue
0.268

@<SCITEGIC>MOL_PROPERTY
U+W
SciTegic.value.DoubleValue
15.607

@<SCITEGIC>MOL_PROPERTY
Grad RMS
SciTegic.value.DoubleValue
0.000000

@<SCITEGIC>MOL_PROPERTY
U
SciTegic.value.DoubleValue
70.298

@<SCITEGIC>MOL_PROPERTY
W
SciTegic.value.DoubleValue
-54.692

@<SCITEGIC>MOL_PROPERTY
W(PB)
SciTegic.value.DoubleValue
-56.576

@<SCITEGIC>MOL_PROPERTY
W(SA)
SciTegic.value.DoubleValue
1.885

@<SCITEGIC>MOL_PROPERTY
Valence
SciTegic.value.DoubleValue
1.245

@<SCITEGIC>MOL_PROPERTY
Coulomb
SciTegic.value.DoubleValue
68.933

@<SCITEGIC>MOL_PROPERTY
VdW
SciTegic.value.DoubleValue
0.120

@<SCITEGIC>MOL_PROPERTY
VdW6
SciTegic.value.DoubleValue
-4.430

@<SCITEGIC>MOL_PROPERTY
VdW12
SciTegic.value.DoubleValue
4.550

@<SCITEGIC>MOL_PROPERTY
Bond
SciTegic.value.DoubleValue
0.148

@<SCITEGIC>MOL_PROPERTY
Angle
SciTegic.value.DoubleValue
0.587

@<SCITEGIC>MOL_PROPERTY
Pdih
SciTegic.value.DoubleValue
0.509

@<SCITEGIC>MOL_PROPERTY
Idih
SciTegic.value.DoubleValue
0.000

@<SCITEGIC>MOL_PROPERTY
Tether
SciTegic.value.DoubleValue
0.000

@<TRIPOS>MOLECULE
guest-s9_confgen4.mol2 : confsearch ligand conformer 124
          20          19           1
SMALL
USER_CHARGES
 
@<TRIPOS>ATOM
       1    C1      21.632127   20.731477   23.103329 C.3        1 MOL1        -0.2224
       2    H1      22.624566   20.262872   23.077940 H          1 MOL1         0.1052
       3    H2      21.657280   21.619904   22.458965 H          1 MOL1         0.1052
       4    H3      21.445354   21.067774   24.131444 H          1 MOL1         0.1052
       5    C2      20.538365   19.742203   22.645780 C.3        1 MOL1        -0.1209
       6    H4      19.555366   20.229810   22.708563 H          1 MOL1         0.1041
       7    H5      20.520069   18.889826   23.337637 H          1 MOL1         0.1041
       8    C3      20.784229   19.243970   21.202541 C.3        1 MOL1        -0.1274
       9    H6      20.916241   20.111022   20.541823 H          1 MOL1         0.1041
      10    H7      21.724573   18.678735   21.159893 H          1 MOL1         0.1041
      11    C4      19.639004   18.379098   20.628706 C.3        1 MOL1         0.0313
      12    H8      19.885856   18.138846   19.591359 H          1 MOL1         0.1015
      13    H9      18.702759   18.942764   20.623924 H          1 MOL1         0.1015
      14    N1      19.395363   17.055835   21.337844 N.4        1 MOL1        -0.4809
      15    H10     20.280765   16.675717   21.704468 H          1 MOL1         0.3726
      16    H11     19.072327   16.356321   20.651305 H          1 MOL1         0.3726
      17    C5      18.349533   17.197662   22.439103 C.3        1 MOL1        -0.0677
      18    H12     18.188254   16.223391   22.905731 H          1 MOL1         0.1026
      19    H13     18.696763   17.909124   23.189146 H          1 MOL1         0.1026
      20    H14     17.414443   17.552875   22.000791 H          1 MOL1         0.1026
@<TRIPOS>BOND
    1     1     2    1
    2     1     3    1
    3     1     4    1
    4     1     5    1
    5     5     6    1
    6     5     7    1
    7     5     8    1
    8     8     9    1
    9     8    10    1
   10     8    11    1
   11    11    12    1
   12    11    13    1
   13    11    14    1
   14    14    15    1
   15    14    16    1
   16    14    17    1
   17    17    18    1
   18    17    19    1
   19    17    20    1
@<TRIPOS>SUBSTRUCTURE
       1 MOL1            1 RESIDUE      1      MOL     
@<SCITEGIC>MOL_PROPERTY
VConf Rank
SciTegic.value.IntegerValue
124

@<SCITEGIC>MOL_PROPERTY
Conf_Id
SciTegic.value.IntegerValue
65

@<SCITEGIC>MOL_PROPERTY
Delta U+W
SciTegic.value.DoubleValue
1.775

@<SCITEGIC>MOL_PROPERTY
U+W
SciTegic.value.DoubleValue
17.114

@<SCITEGIC>MOL_PROPERTY
Grad RMS
SciTegic.value.DoubleValue
0.000000

@<SCITEGIC>MOL_PROPERTY
U
SciTegic.value.DoubleValue
71.726

@<SCITEGIC>MOL_PROPERTY
W
SciTegic.value.DoubleValue
-54.613

@<SCITEGIC>MOL_PROPERTY
W(PB)
SciTegic.value.DoubleValue
-56.495

@<SCITEGIC>MOL_PROPERTY
W(SA)
SciTegic.value.DoubleValue
1.883

@<SCITEGIC>MOL_PROPERTY
Valence
SciTegic.value.DoubleValue
2.885

@<SCITEGIC>MOL_PROPERTY
Coulomb
SciTegic.value.DoubleValue
68.822

@<SCITEGIC>MOL_PROPERTY
VdW
SciTegic.value.DoubleValue
0.019

@<SCITEGIC>MOL_PROPERTY
VdW6
SciTegic.value.DoubleValue
-4.600

@<SCITEGIC>MOL_PROPERTY
VdW12
SciTegic.value.DoubleValue
4.619

@<SCITEGIC>MOL_PROPERTY
Bond
SciTegic.value.DoubleValue
0.152

@<SCITEGIC>MOL_PROPERTY
Angle
SciTegic.value.DoubleValue
0.862

@<SCITEGIC>MOL_PROPERTY
Pdih
SciTegic.value.DoubleValue
1.871

@<SCITEGIC>MOL_PROPERTY
Idih
SciTegic.value.DoubleValue
0.000

@<SCITEGIC>MOL_PROPERTY
Tether
SciTegic.value.DoubleValue
0.000

@<TRIPOS>MOLECULE
guest-s9_confgen4.mol2 : confsearch ligand conformer 125
          20          19           1
SMALL
USER_CHARGES
 
@<TRIPOS>ATOM
       1    C1      20.172359   19.068686   24.381588 C.3        1 MOL1        -0.2224
       2    H1      20.935794   18.416458   23.939132 H          1 MOL1         0.1052
       3    H2      20.665750   19.685053   25.144240 H          1 MOL1         0.1052
       4    H3      19.433725   18.435485   24.890062 H          1 MOL1         0.1052
       5    C2      19.498284   19.962210   23.315095 C.3        1 MOL1        -0.1209
       6    H4      20.256539   20.585573   22.822067 H          1 MOL1         0.1041
       7    H5      18.812251   20.659882   23.815714 H          1 MOL1         0.1041
       8    C3      18.703702   19.153428   22.259391 C.3        1 MOL1        -0.1274
       9    H6      17.884992   18.616984   22.757092 H          1 MOL1         0.1041
      10    H7      18.229186   19.845440   21.551085 H          1 MOL1         0.1041
      11    C4      19.557236   18.133213   21.477337 C.3        1 MOL1         0.0313
      12    H8      18.918510   17.586006   20.779389 H          1 MOL1         0.1015
      13    H9      19.996182   17.412166   22.171012 H          1 MOL1         0.1015
      14    N1      20.683980   18.757667   20.676644 N.4        1 MOL1        -0.4809
      15    H10     21.306765   19.290915   21.301364 H          1 MOL1         0.3726
      16    H11     20.306123   19.447509   20.009380 H          1 MOL1         0.3726
      17    C5      21.463250   17.674582   19.943035 C.3        1 MOL1        -0.0677
      18    H12     20.790909   17.144380   19.265091 H          1 MOL1         0.1026
      19    H13     22.271163   18.137844   19.372390 H          1 MOL1         0.1026
      20    H14     21.880521   16.975635   20.671128 H          1 MOL1         0.1026
@<TRIPOS>BOND
    1     1     2    1
    2     1     3    1
    3     1     4    1
    4     1     5    1
    5     5     6    1
    6     5     7    1
    7     5     8    1
    8     8     9    1
    9     8    10    1
   10     8    11    1
   11    11    12    1
   12    11    13    1
   13    11    14    1
   14    14    15    1
   15    14    16    1
   16    14    17    1
   17    17    18    1
   18    17    19    1
   19    17    20    1
@<TRIPOS>SUBSTRUCTURE
       1 MOL1            1 RESIDUE      1      MOL     
@<SCITEGIC>MOL_PROPERTY
VConf Rank
SciTegic.value.IntegerValue
125

@<SCITEGIC>MOL_PROPERTY
Conf_Id
SciTegic.value.IntegerValue
23

@<SCITEGIC>MOL_PROPERTY
Delta U+W
SciTegic.value.DoubleValue
0.896

@<SCITEGIC>MOL_PROPERTY
U+W
SciTegic.value.DoubleValue
16.234

@<SCITEGIC>MOL_PROPERTY
Grad RMS
SciTegic.value.DoubleValue
0.000000

@<SCITEGIC>MOL_PROPERTY
U
SciTegic.value.DoubleValue
70.374

@<SCITEGIC>MOL_PROPERTY
W
SciTegic.value.DoubleValue
-54.140

@<SCITEGIC>MOL_PROPERTY
W(PB)
SciTegic.value.DoubleValue
-56.046

@<SCITEGIC>MOL_PROPERTY
W(SA)
SciTegic.value.DoubleValue
1.907

@<SCITEGIC>MOL_PROPERTY
Valence
SciTegic.value.DoubleValue
1.257

@<SCITEGIC>MOL_PROPERTY
Coulomb
SciTegic.value.DoubleValue
69.240

@<SCITEGIC>MOL_PROPERTY
VdW
SciTegic.value.DoubleValue
-0.123

@<SCITEGIC>MOL_PROPERTY
VdW6
SciTegic.value.DoubleValue
-4.336

@<SCITEGIC>MOL_PROPERTY
VdW12
SciTegic.value.DoubleValue
4.213

@<SCITEGIC>MOL_PROPERTY
Bond
SciTegic.value.DoubleValue
0.128

@<SCITEGIC>MOL_PROPERTY
Angle
SciTegic.value.DoubleValue
0.603

@<SCITEGIC>MOL_PROPERTY
Pdih
SciTegic.value.DoubleValue
0.526

@<SCITEGIC>MOL_PROPERTY
Idih
SciTegic.value.DoubleValue
0.000

@<SCITEGIC>MOL_PROPERTY
Tether
SciTegic.value.DoubleValue
0.000

@<TRIPOS>MOLECULE
guest-s9_confgen4.mol2 : confsearch ligand conformer 126
          20          19           1
SMALL
USER_CHARGES
 
@<TRIPOS>ATOM
       1    C1      22.075470   17.788355   21.112326 C.3        1 MOL1        -0.2224
       2    H1      22.456499   16.993872   21.767066 H          1 MOL1         0.1052
       3    H2      22.708057   17.814585   20.215596 H          1 MOL1         0.1052
       4    H3      22.197555   18.747523   21.631070 H          1 MOL1         0.1052
       5    C2      20.600145   17.531940   20.727830 C.3        1 MOL1        -0.1209
       6    H4      20.541580   16.610447   20.131655 H          1 MOL1         0.1041
       7    H5      20.243061   18.338536   20.073228 H          1 MOL1         0.1041
       8    C3      19.668050   17.390193   21.957100 C.3        1 MOL1        -0.1274
       9    H6      18.644769   17.182888   21.617007 H          1 MOL1         0.1041
      10    H7      19.977219   16.516109   22.545451 H          1 MOL1         0.1041
      11    C4      19.655053   18.626052   22.880925 C.3        1 MOL1         0.0313
      12    H8      20.662373   18.811871   23.261113 H          1 MOL1         0.1015
      13    H9      19.001042   18.432961   23.735046 H          1 MOL1         0.1015
      14    N1      19.168227   19.894431   22.206521 N.4        1 MOL1        -0.4809
      15    H10     18.216940   19.755754   21.832731 H          1 MOL1         0.3726
      16    H11     19.757716   20.106925   21.388084 H          1 MOL1         0.3726
      17    C5      19.191094   21.051490   23.196074 C.3        1 MOL1        -0.0677
      18    H12     20.212670   21.200113   23.552520 H          1 MOL1         0.1026
      19    H13     18.839710   21.957373   22.697199 H          1 MOL1         0.1026
      20    H14     18.536242   20.817543   24.038216 H          1 MOL1         0.1026
@<TRIPOS>BOND
    1     1     2    1
    2     1     3    1
    3     1     4    1
    4     1     5    1
    5     5     6    1
    6     5     7    1
    7     5     8    1
    8     8     9    1
    9     8    10    1
   10     8    11    1
   11    11    12    1
   12    11    13    1
   13    11    14    1
   14    14    15    1
   15    14    16    1
   16    14    17    1
   17    17    18    1
   18    17    19    1
   19    17    20    1
@<TRIPOS>SUBSTRUCTURE
       1 MOL1            1 RESIDUE      1      MOL     
@<SCITEGIC>MOL_PROPERTY
VConf Rank
SciTegic.value.IntegerValue
126

@<SCITEGIC>MOL_PROPERTY
Conf_Id
SciTegic.value.IntegerValue
24

@<SCITEGIC>MOL_PROPERTY
Delta U+W
SciTegic.value.DoubleValue
0.792

@<SCITEGIC>MOL_PROPERTY
U+W
SciTegic.value.DoubleValue
16.130

@<SCITEGIC>MOL_PROPERTY
Grad RMS
SciTegic.value.DoubleValue
0.000000

@<SCITEGIC>MOL_PROPERTY
U
SciTegic.value.DoubleValue
70.374

@<SCITEGIC>MOL_PROPERTY
W
SciTegic.value.DoubleValue
-54.243

@<SCITEGIC>MOL_PROPERTY
W(PB)
SciTegic.value.DoubleValue
-56.130

@<SCITEGIC>MOL_PROPERTY
W(SA)
SciTegic.value.DoubleValue
1.887

@<SCITEGIC>MOL_PROPERTY
Valence
SciTegic.value.DoubleValue
1.257

@<SCITEGIC>MOL_PROPERTY
Coulomb
SciTegic.value.DoubleValue
69.240

@<SCITEGIC>MOL_PROPERTY
VdW
SciTegic.value.DoubleValue
-0.123

@<SCITEGIC>MOL_PROPERTY
VdW6
SciTegic.value.DoubleValue
-4.336

@<SCITEGIC>MOL_PROPERTY
VdW12
SciTegic.value.DoubleValue
4.213

@<SCITEGIC>MOL_PROPERTY
Bond
SciTegic.value.DoubleValue
0.128

@<SCITEGIC>MOL_PROPERTY
Angle
SciTegic.value.DoubleValue
0.603

@<SCITEGIC>MOL_PROPERTY
Pdih
SciTegic.value.DoubleValue
0.526

@<SCITEGIC>MOL_PROPERTY
Idih
SciTegic.value.DoubleValue
0.000

@<SCITEGIC>MOL_PROPERTY
Tether
SciTegic.value.DoubleValue
0.000

@<TRIPOS>MOLECULE
guest-s9_confgen4.mol2 : confsearch ligand conformer 127
          20          19           1
SMALL
USER_CHARGES
 
@<TRIPOS>ATOM
       1    C1      18.762567   17.019223   22.496984 C.3        1 MOL1        -0.2224
       2    H1      18.069040   16.173490   22.402240 H          1 MOL1         0.1052
       3    H2      19.555196   16.868745   21.754593 H          1 MOL1         0.1052
       4    H3      19.202891   16.976411   23.501695 H          1 MOL1         0.1052
       5    C2      18.014710   18.352406   22.267211 C.3        1 MOL1        -0.1209
       6    H4      17.107848   18.357143   22.888215 H          1 MOL1         0.1041
       7    H5      17.668976   18.402660   21.225076 H          1 MOL1         0.1041
       8    C3      18.842772   19.619145   22.602658 C.3        1 MOL1        -0.1274
       9    H6      18.191958   20.493457   22.469098 H          1 MOL1         0.1041
      10    H7      19.131222   19.617739   23.662138 H          1 MOL1         0.1041
      11    C4      20.089940   19.819977   21.715796 C.3        1 MOL1         0.0313
      12    H8      20.388329   20.870793   21.751749 H          1 MOL1         0.1015
      13    H9      19.849830   19.571171   20.679105 H          1 MOL1         0.1015
      14    N1      21.296420   19.003607   22.138813 N.4        1 MOL1        -0.4809
      15    H10     21.051158   18.003953   22.172807 H          1 MOL1         0.3726
      16    H11     21.572199   19.251326   23.101409 H          1 MOL1         0.3726
      17    C5      22.450406   19.240795   21.174203 C.3        1 MOL1        -0.0677
      18    H12     22.146523   18.941260   20.168865 H          1 MOL1         0.1026
      19    H13     22.712186   20.301076   21.180478 H          1 MOL1         0.1026
      20    H14     23.310918   18.647395   21.491008 H          1 MOL1         0.1026
@<TRIPOS>BOND
    1     1     2    1
    2     1     3    1
    3     1     4    1
    4     1     5    1
    5     5     6    1
    6     5     7    1
    7     5     8    1
    8     8     9    1
    9     8    10    1
   10     8    11    1
   11    11    12    1
   12    11    13    1
   13    11    14    1
   14    14    15    1
   15    14    16    1
   16    14    17    1
   17    17    18    1
   18    17    19    1
   19    17    20    1
@<TRIPOS>SUBSTRUCTURE
       1 MOL1            1 RESIDUE      1      MOL     
@<SCITEGIC>MOL_PROPERTY
VConf Rank
SciTegic.value.IntegerValue
127

@<SCITEGIC>MOL_PROPERTY
Conf_Id
SciTegic.value.IntegerValue
26

@<SCITEGIC>MOL_PROPERTY
Delta U+W
SciTegic.value.DoubleValue
2.888

@<SCITEGIC>MOL_PROPERTY
U+W
SciTegic.value.DoubleValue
18.226

@<SCITEGIC>MOL_PROPERTY
Grad RMS
SciTegic.value.DoubleValue
0.000000

@<SCITEGIC>MOL_PROPERTY
U
SciTegic.value.DoubleValue
72.042

@<SCITEGIC>MOL_PROPERTY
W
SciTegic.value.DoubleValue
-53.816

@<SCITEGIC>MOL_PROPERTY
W(PB)
SciTegic.value.DoubleValue
-55.689

@<SCITEGIC>MOL_PROPERTY
W(SA)
SciTegic.value.DoubleValue
1.873

@<SCITEGIC>MOL_PROPERTY
Valence
SciTegic.value.DoubleValue
2.428

@<SCITEGIC>MOL_PROPERTY
Coulomb
SciTegic.value.DoubleValue
69.829

@<SCITEGIC>MOL_PROPERTY
VdW
SciTegic.value.DoubleValue
-0.215

@<SCITEGIC>MOL_PROPERTY
VdW6
SciTegic.value.DoubleValue
-4.563

@<SCITEGIC>MOL_PROPERTY
VdW12
SciTegic.value.DoubleValue
4.348

@<SCITEGIC>MOL_PROPERTY
Bond
SciTegic.value.DoubleValue
0.137

@<SCITEGIC>MOL_PROPERTY
Angle
SciTegic.value.DoubleValue
0.936

@<SCITEGIC>MOL_PROPERTY
Pdih
SciTegic.value.DoubleValue
1.356

@<SCITEGIC>MOL_PROPERTY
Idih
SciTegic.value.DoubleValue
0.000

@<SCITEGIC>MOL_PROPERTY
Tether
SciTegic.value.DoubleValue
0.000

@<TRIPOS>MOLECULE
guest-s9_confgen4.mol2 : confsearch ligand conformer 128
          20          19           1
SMALL
USER_CHARGES
 
@<TRIPOS>ATOM
       1    C1      18.260207   19.516319   23.056081 C.3        1 MOL1        -0.2224
       2    H1      17.521922   20.106813   23.614177 H          1 MOL1         0.1052
       3    H2      17.829654   18.520720   22.887049 H          1 MOL1         0.1052
       4    H3      19.143438   19.417525   23.698102 H          1 MOL1         0.1052
       5    C2      18.604048   20.214358   21.720425 C.3        1 MOL1        -0.1209
       6    H4      19.118090   21.163891   21.925981 H          1 MOL1         0.1041
       7    H5      17.666385   20.480785   21.212614 H          1 MOL1         0.1041
       8    C3      19.458666   19.359070   20.750401 C.3        1 MOL1        -0.1274
       9    H6      18.922703   18.440414   20.477414 H          1 MOL1         0.1041
      10    H7      19.579542   19.925497   19.817467 H          1 MOL1         0.1041
      11    C4      20.867381   19.012181   21.277160 C.3        1 MOL1         0.0313
      12    H8      21.298748   19.882159   21.778503 H          1 MOL1         0.1015
      13    H9      21.511056   18.754109   20.432397 H          1 MOL1         0.1015
      14    N1      20.904963   17.837384   22.236035 N.4        1 MOL1        -0.4809
      15    H10     20.542952   16.989902   21.772647 H          1 MOL1         0.3726
      16    H11     20.269871   18.008797   23.028434 H          1 MOL1         0.3726
      17    C5      22.328156   17.611340   22.727801 C.3        1 MOL1        -0.0677
      18    H12     22.677843   18.508747   23.242726 H          1 MOL1         0.1026
      19    H13     22.339707   16.763534   23.416323 H          1 MOL1         0.1026
      20    H14     22.974614   17.400207   21.873236 H          1 MOL1         0.1026
@<TRIPOS>BOND
    1     1     2    1
    2     1     3    1
    3     1     4    1
    4     1     5    1
    5     5     6    1
    6     5     7    1
    7     5     8    1
    8     8     9    1
    9     8    10    1
   10     8    11    1
   11    11    12    1
   12    11    13    1
   13    11    14    1
   14    14    15    1
   15    14    16    1
   16    14    17    1
   17    17    18    1
   18    17    19    1
   19    17    20    1
@<TRIPOS>SUBSTRUCTURE
       1 MOL1            1 RESIDUE      1      MOL     
@<SCITEGIC>MOL_PROPERTY
VConf Rank
SciTegic.value.IntegerValue
128

@<SCITEGIC>MOL_PROPERTY
Conf_Id
SciTegic.value.IntegerValue
5

@<SCITEGIC>MOL_PROPERTY
Delta U+W
SciTegic.value.DoubleValue
2.950

@<SCITEGIC>MOL_PROPERTY
U+W
SciTegic.value.DoubleValue
18.289

@<SCITEGIC>MOL_PROPERTY
Grad RMS
SciTegic.value.DoubleValue
0.000000

@<SCITEGIC>MOL_PROPERTY
U
SciTegic.value.DoubleValue
72.042

@<SCITEGIC>MOL_PROPERTY
W
SciTegic.value.DoubleValue
-53.753

@<SCITEGIC>MOL_PROPERTY
W(PB)
SciTegic.value.DoubleValue
-55.644

@<SCITEGIC>MOL_PROPERTY
W(SA)
SciTegic.value.DoubleValue
1.891

@<SCITEGIC>MOL_PROPERTY
Valence
SciTegic.value.DoubleValue
2.428

@<SCITEGIC>MOL_PROPERTY
Coulomb
SciTegic.value.DoubleValue
69.829

@<SCITEGIC>MOL_PROPERTY
VdW
SciTegic.value.DoubleValue
-0.215

@<SCITEGIC>MOL_PROPERTY
VdW6
SciTegic.value.DoubleValue
-4.563

@<SCITEGIC>MOL_PROPERTY
VdW12
SciTegic.value.DoubleValue
4.348

@<SCITEGIC>MOL_PROPERTY
Bond
SciTegic.value.DoubleValue
0.137

@<SCITEGIC>MOL_PROPERTY
Angle
SciTegic.value.DoubleValue
0.936

@<SCITEGIC>MOL_PROPERTY
Pdih
SciTegic.value.DoubleValue
1.356

@<SCITEGIC>MOL_PROPERTY
Idih
SciTegic.value.DoubleValue
0.000

@<SCITEGIC>MOL_PROPERTY
Tether
SciTegic.value.DoubleValue
0.000

@<TRIPOS>MOLECULE
guest-s9_confgen4.mol2 : confsearch ligand conformer 129
          20          19           1
SMALL
USER_CHARGES
 
@<TRIPOS>ATOM
       1    C1      18.773093   19.337101   24.022061 C.3        1 MOL1        -0.2224
       2    H1      17.852191   18.743562   24.090673 H          1 MOL1         0.1052
       3    H2      19.613704   18.700544   24.325284 H          1 MOL1         0.1052
       4    H3      18.698306   20.155385   24.749924 H          1 MOL1         0.1052
       5    C2      18.967715   19.897408   22.594363 C.3        1 MOL1        -0.1209
       6    H4      19.891828   20.489787   22.551180 H          1 MOL1         0.1041
       7    H5      18.149525   20.596201   22.370427 H          1 MOL1         0.1041
       8    C3      18.992738   18.794216   21.507333 C.3        1 MOL1        -0.1274
       9    H6      18.026121   18.273522   21.499403 H          1 MOL1         0.1041
      10    H7      19.092322   19.259649   20.518290 H          1 MOL1         0.1041
      11    C4      20.113497   17.747125   21.699771 C.3        1 MOL1         0.0313
      12    H8      20.065689   17.008759   20.895440 H          1 MOL1         0.1015
      13    H9      19.951418   17.222336   22.644444 H          1 MOL1         0.1015
      14    N1      21.526630   18.308888   21.728059 N.4        1 MOL1        -0.4809
      15    H10     22.189242   17.565264   21.998290 H          1 MOL1         0.3726
      16    H11     21.608059   19.021492   22.468104 H          1 MOL1         0.3726
      17    C5      21.919617   18.887205   20.373167 C.3        1 MOL1        -0.0677
      18    H12     21.250774   19.713602   20.124758 H          1 MOL1         0.1026
      19    H13     22.948316   19.250681   20.423869 H          1 MOL1         0.1026
      20    H14     21.842200   18.106707   19.613257 H          1 MOL1         0.1026
@<TRIPOS>BOND
    1     1     2    1
    2     1     3    1
    3     1     4    1
    4     1     5    1
    5     5     6    1
    6     5     7    1
    7     5     8    1
    8     8     9    1
    9     8    10    1
   10     8    11    1
   11    11    12    1
   12    11    13    1
   13    11    14    1
   14    14    15    1
   15    14    16    1
   16    14    17    1
   17    17    18    1
   18    17    19    1
   19    17    20    1
@<TRIPOS>SUBSTRUCTURE
       1 MOL1            1 RESIDUE      1      MOL     
@<SCITEGIC>MOL_PROPERTY
VConf Rank
SciTegic.value.IntegerValue
129

@<SCITEGIC>MOL_PROPERTY
Conf_Id
SciTegic.value.IntegerValue
52

@<SCITEGIC>MOL_PROPERTY
Delta U+W
SciTegic.value.DoubleValue
0.784

@<SCITEGIC>MOL_PROPERTY
U+W
SciTegic.value.DoubleValue
16.122

@<SCITEGIC>MOL_PROPERTY
Grad RMS
SciTegic.value.DoubleValue
0.000000

@<SCITEGIC>MOL_PROPERTY
U
SciTegic.value.DoubleValue
70.777

@<SCITEGIC>MOL_PROPERTY
W
SciTegic.value.DoubleValue
-54.655

@<SCITEGIC>MOL_PROPERTY
W(PB)
SciTegic.value.DoubleValue
-56.491

@<SCITEGIC>MOL_PROPERTY
W(SA)
SciTegic.value.DoubleValue
1.836

@<SCITEGIC>MOL_PROPERTY
Valence
SciTegic.value.DoubleValue
1.529

@<SCITEGIC>MOL_PROPERTY
Coulomb
SciTegic.value.DoubleValue
69.166

@<SCITEGIC>MOL_PROPERTY
VdW
SciTegic.value.DoubleValue
0.082

@<SCITEGIC>MOL_PROPERTY
VdW6
SciTegic.value.DoubleValue
-5.166

@<SCITEGIC>MOL_PROPERTY
VdW12
SciTegic.value.DoubleValue
5.248

@<SCITEGIC>MOL_PROPERTY
Bond
SciTegic.value.DoubleValue
0.171

@<SCITEGIC>MOL_PROPERTY
Angle
SciTegic.value.DoubleValue
0.752

@<SCITEGIC>MOL_PROPERTY
Pdih
SciTegic.value.DoubleValue
0.605

@<SCITEGIC>MOL_PROPERTY
Idih
SciTegic.value.DoubleValue
0.000

@<SCITEGIC>MOL_PROPERTY
Tether
SciTegic.value.DoubleValue
0.000

@<TRIPOS>MOLECULE
guest-s9_confgen4.mol2 : confsearch ligand conformer 130
          20          19           1
SMALL
USER_CHARGES
 
@<TRIPOS>ATOM
       1    C1      19.002710   18.314157   20.299317 C.3        1 MOL1        -0.2224
       2    H1      18.531282   17.837833   19.429810 H          1 MOL1         0.1052
       3    H2      18.244574   18.360032   21.089429 H          1 MOL1         0.1052
       4    H3      19.276824   19.337206   20.010284 H          1 MOL1         0.1052
       5    C2      20.241897   17.505359   20.746113 C.3        1 MOL1        -0.1209
       6    H4      20.856322   17.291061   19.860346 H          1 MOL1         0.1041
       7    H5      19.922141   16.529057   21.136763 H          1 MOL1         0.1041
       8    C3      21.132379   18.221781   21.793303 C.3        1 MOL1        -0.1274
       9    H6      22.021309   17.599381   21.960658 H          1 MOL1         0.1041
      10    H7      21.506463   19.170399   21.388228 H          1 MOL1         0.1041
      11    C4      20.456232   18.448116   23.165582 C.3        1 MOL1         0.0313
      12    H8      21.225405   18.637266   23.918587 H          1 MOL1         0.1015
      13    H9      19.923487   17.538731   23.454843 H          1 MOL1         0.1015
      14    N1      19.473739   19.606733   23.235052 N.4        1 MOL1        -0.4809
      15    H10     18.942411   19.556566   24.118417 H          1 MOL1         0.3726
      16    H11     18.768968   19.517235   22.489981 H          1 MOL1         0.3726
      17    C5      20.192695   20.947911   23.139843 C.3        1 MOL1        -0.0677
      18    H12     20.922223   21.022636   23.949069 H          1 MOL1         0.1026
      19    H13     20.700160   21.020461   22.176084 H          1 MOL1         0.1026
      20    H14     19.460498   21.753368   23.229503 H          1 MOL1         0.1026
@<TRIPOS>BOND
    1     1     2    1
    2     1     3    1
    3     1     4    1
    4     1     5    1
    5     5     6    1
    6     5     7    1
    7     5     8    1
    8     8     9    1
    9     8    10    1
   10     8    11    1
   11    11    12    1
   12    11    13    1
   13    11    14    1
   14    14    15    1
   15    14    16    1
   16    14    17    1
   17    17    18    1
   18    17    19    1
   19    17    20    1
@<TRIPOS>SUBSTRUCTURE
       1 MOL1            1 RESIDUE      1      MOL     
@<SCITEGIC>MOL_PROPERTY
VConf Rank
SciTegic.value.IntegerValue
130

@<SCITEGIC>MOL_PROPERTY
Conf_Id
SciTegic.value.IntegerValue
55

@<SCITEGIC>MOL_PROPERTY
Delta U+W
SciTegic.value.DoubleValue
2.745

@<SCITEGIC>MOL_PROPERTY
U+W
SciTegic.value.DoubleValue
18.083

@<SCITEGIC>MOL_PROPERTY
Grad RMS
SciTegic.value.DoubleValue
0.000000

@<SCITEGIC>MOL_PROPERTY
U
SciTegic.value.DoubleValue
72.490

@<SCITEGIC>MOL_PROPERTY
W
SciTegic.value.DoubleValue
-54.407

@<SCITEGIC>MOL_PROPERTY
W(PB)
SciTegic.value.DoubleValue
-56.269

@<SCITEGIC>MOL_PROPERTY
W(SA)
SciTegic.value.DoubleValue
1.861

@<SCITEGIC>MOL_PROPERTY
Valence
SciTegic.value.DoubleValue
2.738

@<SCITEGIC>MOL_PROPERTY
Coulomb
SciTegic.value.DoubleValue
69.795

@<SCITEGIC>MOL_PROPERTY
VdW
SciTegic.value.DoubleValue
-0.043

@<SCITEGIC>MOL_PROPERTY
VdW6
SciTegic.value.DoubleValue
-5.333

@<SCITEGIC>MOL_PROPERTY
VdW12
SciTegic.value.DoubleValue
5.290

@<SCITEGIC>MOL_PROPERTY
Bond
SciTegic.value.DoubleValue
0.182

@<SCITEGIC>MOL_PROPERTY
Angle
SciTegic.value.DoubleValue
1.135

@<SCITEGIC>MOL_PROPERTY
Pdih
SciTegic.value.DoubleValue
1.422

@<SCITEGIC>MOL_PROPERTY
Idih
SciTegic.value.DoubleValue
0.000

@<SCITEGIC>MOL_PROPERTY
Tether
SciTegic.value.DoubleValue
0.000

@<TRIPOS>MOLECULE
guest-s9_confgen4.mol2 : confsearch ligand conformer 131
          20          19           1
SMALL
USER_CHARGES
 
@<TRIPOS>ATOM
       1    C1      21.594396   20.074213   21.588294 C.3        1 MOL1        -0.2224
       2    H1      22.337913   20.861176   21.406524 H          1 MOL1         0.1052
       3    H2      22.124872   19.202499   21.993281 H          1 MOL1         0.1052
       4    H3      21.165743   19.807905   20.615418 H          1 MOL1         0.1052
       5    C2      20.510791   20.578008   22.568785 C.3        1 MOL1        -0.1209
       6    H4      19.922826   21.373400   22.089550 H          1 MOL1         0.1041
       7    H5      21.009531   21.046065   23.429137 H          1 MOL1         0.1041
       8    C3      19.561817   19.473130   23.099377 C.3        1 MOL1        -0.1274
       9    H6      20.134875   18.704511   23.632980 H          1 MOL1         0.1041
      10    H7      18.903588   19.928076   23.851272 H          1 MOL1         0.1041
      11    C4      18.661399   18.826270   22.021243 C.3        1 MOL1         0.0313
      12    H8      18.255041   19.611137   21.378340 H          1 MOL1         0.1015
      13    H9      17.820497   18.325883   22.507988 H          1 MOL1         0.1015
      14    N1      19.335004   17.794809   21.129698 N.4        1 MOL1        -0.4809
      15    H10     20.183748   18.194738   20.705991 H          1 MOL1         0.3726
      16    H11     18.716306   17.568103   20.335357 H          1 MOL1         0.3726
      17    C5      19.666034   16.524852   21.905807 C.3        1 MOL1        -0.0677
      18    H12     20.370911   16.760954   22.705195 H          1 MOL1         0.1026
      19    H13     18.747820   16.114126   22.331044 H          1 MOL1         0.1026
      20    H14     20.114042   15.796798   21.226001 H          1 MOL1         0.1026
@<TRIPOS>BOND
    1     1     2    1
    2     1     3    1
    3     1     4    1
    4     1     5    1
    5     5     6    1
    6     5     7    1
    7     5     8    1
    8     8     9    1
    9     8    10    1
   10     8    11    1
   11    11    12    1
   12    11    13    1
   13    11    14    1
   14    14    15    1
   15    14    16    1
   16    14    17    1
   17    17    18    1
   18    17    19    1
   19    17    20    1
@<TRIPOS>SUBSTRUCTURE
       1 MOL1            1 RESIDUE      1      MOL     
@<SCITEGIC>MOL_PROPERTY
VConf Rank
SciTegic.value.IntegerValue
131

@<SCITEGIC>MOL_PROPERTY
Conf_Id
SciTegic.value.IntegerValue
76

@<SCITEGIC>MOL_PROPERTY
Delta U+W
SciTegic.value.DoubleValue
2.799

@<SCITEGIC>MOL_PROPERTY
U+W
SciTegic.value.DoubleValue
18.137

@<SCITEGIC>MOL_PROPERTY
Grad RMS
SciTegic.value.DoubleValue
0.000000

@<SCITEGIC>MOL_PROPERTY
U
SciTegic.value.DoubleValue
72.490

@<SCITEGIC>MOL_PROPERTY
W
SciTegic.value.DoubleValue
-54.353

@<SCITEGIC>MOL_PROPERTY
W(PB)
SciTegic.value.DoubleValue
-56.201

@<SCITEGIC>MOL_PROPERTY
W(SA)
SciTegic.value.DoubleValue
1.848

@<SCITEGIC>MOL_PROPERTY
Valence
SciTegic.value.DoubleValue
2.738

@<SCITEGIC>MOL_PROPERTY
Coulomb
SciTegic.value.DoubleValue
69.795

@<SCITEGIC>MOL_PROPERTY
VdW
SciTegic.value.DoubleValue
-0.043

@<SCITEGIC>MOL_PROPERTY
VdW6
SciTegic.value.DoubleValue
-5.334

@<SCITEGIC>MOL_PROPERTY
VdW12
SciTegic.value.DoubleValue
5.290

@<SCITEGIC>MOL_PROPERTY
Bond
SciTegic.value.DoubleValue
0.182

@<SCITEGIC>MOL_PROPERTY
Angle
SciTegic.value.DoubleValue
1.135

@<SCITEGIC>MOL_PROPERTY
Pdih
SciTegic.value.DoubleValue
1.421

@<SCITEGIC>MOL_PROPERTY
Idih
SciTegic.value.DoubleValue
0.000

@<SCITEGIC>MOL_PROPERTY
Tether
SciTegic.value.DoubleValue
0.000

@<TRIPOS>MOLECULE
guest-s9_confgen4.mol2 : confsearch ligand conformer 132
          20          19           1
SMALL
USER_CHARGES
 
@<TRIPOS>ATOM
       1    C1      22.220865   18.701801   22.021042 C.3        1 MOL1        -0.2224
       2    H1      21.764074   19.681849   22.205157 H          1 MOL1         0.1052
       3    H2      22.691642   18.364552   22.953557 H          1 MOL1         0.1052
       4    H3      23.015436   18.840917   21.276630 H          1 MOL1         0.1052
       5    C2      21.182357   17.671743   21.520000 C.3        1 MOL1        -0.1209
       6    H4      21.701413   16.732496   21.282873 H          1 MOL1         0.1041
       7    H5      20.737511   18.012300   20.576128 H          1 MOL1         0.1041
       8    C3      20.071703   17.375275   22.557305 C.3        1 MOL1        -0.1274
       9    H6      19.396147   16.607922   22.157053 H          1 MOL1         0.1041
      10    H7      20.534099   16.932714   23.449479 H          1 MOL1         0.1041
      11    C4      19.237983   18.599544   23.003125 C.3        1 MOL1         0.0313
      12    H8      19.888060   19.383850   23.397880 H          1 MOL1         0.1015
      13    H9      18.580104   18.277633   23.814442 H          1 MOL1         0.1015
      14    N1      18.340893   19.208291   21.935605 N.4        1 MOL1        -0.4809
      15    H10     17.500790   19.605127   22.384547 H          1 MOL1         0.3726
      16    H11     17.981086   18.474223   21.307651 H          1 MOL1         0.3726
      17    C5      19.056455   20.305845   21.155480 C.3        1 MOL1        -0.0677
      18    H12     18.366036   20.731864   20.424210 H          1 MOL1         0.1026
      19    H13     19.381468   21.084192   21.849118 H          1 MOL1         0.1026
      20    H14     19.921852   19.887954   20.640236 H          1 MOL1         0.1026
@<TRIPOS>BOND
    1     1     2    1
    2     1     3    1
    3     1     4    1
    4     1     5    1
    5     5     6    1
    6     5     7    1
    7     5     8    1
    8     8     9    1
    9     8    10    1
   10     8    11    1
   11    11    12    1
   12    11    13    1
   13    11    14    1
   14    14    15    1
   15    14    16    1
   16    14    17    1
   17    17    18    1
   18    17    19    1
   19    17    20    1
@<TRIPOS>SUBSTRUCTURE
       1 MOL1            1 RESIDUE      1      MOL     
@<SCITEGIC>MOL_PROPERTY
VConf Rank
SciTegic.value.IntegerValue
132

@<SCITEGIC>MOL_PROPERTY
Conf_Id
SciTegic.value.IntegerValue
60

@<SCITEGIC>MOL_PROPERTY
Delta U+W
SciTegic.value.DoubleValue
1.788

@<SCITEGIC>MOL_PROPERTY
U+W
SciTegic.value.DoubleValue
17.127

@<SCITEGIC>MOL_PROPERTY
Grad RMS
SciTegic.value.DoubleValue
0.000000

@<SCITEGIC>MOL_PROPERTY
U
SciTegic.value.DoubleValue
72.122

@<SCITEGIC>MOL_PROPERTY
W
SciTegic.value.DoubleValue
-54.995

@<SCITEGIC>MOL_PROPERTY
W(PB)
SciTegic.value.DoubleValue
-56.810

@<SCITEGIC>MOL_PROPERTY
W(SA)
SciTegic.value.DoubleValue
1.815

@<SCITEGIC>MOL_PROPERTY
Valence
SciTegic.value.DoubleValue
3.197

@<SCITEGIC>MOL_PROPERTY
Coulomb
SciTegic.value.DoubleValue
69.115

@<SCITEGIC>MOL_PROPERTY
VdW
SciTegic.value.DoubleValue
-0.190

@<SCITEGIC>MOL_PROPERTY
VdW6
SciTegic.value.DoubleValue
-5.585

@<SCITEGIC>MOL_PROPERTY
VdW12
SciTegic.value.DoubleValue
5.395

@<SCITEGIC>MOL_PROPERTY
Bond
SciTegic.value.DoubleValue
0.177

@<SCITEGIC>MOL_PROPERTY
Angle
SciTegic.value.DoubleValue
1.207

@<SCITEGIC>MOL_PROPERTY
Pdih
SciTegic.value.DoubleValue
1.813

@<SCITEGIC>MOL_PROPERTY
Idih
SciTegic.value.DoubleValue
0.000

@<SCITEGIC>MOL_PROPERTY
Tether
SciTegic.value.DoubleValue
0.000

@<TRIPOS>MOLECULE
guest-s9_confgen4.mol2 : confsearch ligand conformer 133
          20          19           1
SMALL
USER_CHARGES
 
@<TRIPOS>ATOM
       1    C1      19.812054   20.867792   22.399048 C.3        1 MOL1        -0.2224
       2    H1      20.148171   21.583192   23.160673 H          1 MOL1         0.1052
       3    H2      19.273380   21.430902   21.625945 H          1 MOL1         0.1052
       4    H3      19.102105   20.182739   22.878346 H          1 MOL1         0.1052
       5    C2      21.017953   20.111519   21.795376 C.3        1 MOL1        -0.1209
       6    H4      21.558822   19.572329   22.583727 H          1 MOL1         0.1041
       7    H5      21.730692   20.845208   21.393462 H          1 MOL1         0.1041
       8    C3      20.617562   19.137302   20.660459 C.3        1 MOL1        -0.1274
       9    H6      20.179216   19.718003   19.838094 H          1 MOL1         0.1041
      10    H7      21.520791   18.668113   20.248821 H          1 MOL1         0.1041
      11    C4      19.611688   18.032302   21.060295 C.3        1 MOL1         0.0313
      12    H8      19.325402   17.496974   20.151376 H          1 MOL1         0.1015
      13    H9      18.705277   18.472439   21.482507 H          1 MOL1         0.1015
      14    N1      20.136802   16.984915   22.030953 N.4        1 MOL1        -0.4809
      15    H10     21.137797   16.807199   21.860447 H          1 MOL1         0.3726
      16    H11     19.673439   16.082921   21.839896 H          1 MOL1         0.3726
      17    C5      19.881425   17.380793   23.481231 C.3        1 MOL1        -0.0677
      18    H12     18.808192   17.515260   23.631825 H          1 MOL1         0.1026
      19    H13     20.246839   16.587633   24.137201 H          1 MOL1         0.1026
      20    H14     20.403671   18.310971   23.707167 H          1 MOL1         0.1026
@<TRIPOS>BOND
    1     1     2    1
    2     1     3    1
    3     1     4    1
    4     1     5    1
    5     5     6    1
    6     5     7    1
    7     5     8    1
    8     8     9    1
    9     8    10    1
   10     8    11    1
   11    11    12    1
   12    11    13    1
   13    11    14    1
   14    14    15    1
   15    14    16    1
   16    14    17    1
   17    17    18    1
   18    17    19    1
   19    17    20    1
@<TRIPOS>SUBSTRUCTURE
       1 MOL1            1 RESIDUE      1      MOL     
@<SCITEGIC>MOL_PROPERTY
VConf Rank
SciTegic.value.IntegerValue
133

@<SCITEGIC>MOL_PROPERTY
Conf_Id
SciTegic.value.IntegerValue
54

@<SCITEGIC>MOL_PROPERTY
Delta U+W
SciTegic.value.DoubleValue
1.880

@<SCITEGIC>MOL_PROPERTY
U+W
SciTegic.value.DoubleValue
17.218

@<SCITEGIC>MOL_PROPERTY
Grad RMS
SciTegic.value.DoubleValue
0.000000

@<SCITEGIC>MOL_PROPERTY
U
SciTegic.value.DoubleValue
72.122

@<SCITEGIC>MOL_PROPERTY
W
SciTegic.value.DoubleValue
-54.903

@<SCITEGIC>MOL_PROPERTY
W(PB)
SciTegic.value.DoubleValue
-56.724

@<SCITEGIC>MOL_PROPERTY
W(SA)
SciTegic.value.DoubleValue
1.821

@<SCITEGIC>MOL_PROPERTY
Valence
SciTegic.value.DoubleValue
3.197

@<SCITEGIC>MOL_PROPERTY
Coulomb
SciTegic.value.DoubleValue
69.115

@<SCITEGIC>MOL_PROPERTY
VdW
SciTegic.value.DoubleValue
-0.190

@<SCITEGIC>MOL_PROPERTY
VdW6
SciTegic.value.DoubleValue
-5.585

@<SCITEGIC>MOL_PROPERTY
VdW12
SciTegic.value.DoubleValue
5.395

@<SCITEGIC>MOL_PROPERTY
Bond
SciTegic.value.DoubleValue
0.177

@<SCITEGIC>MOL_PROPERTY
Angle
SciTegic.value.DoubleValue
1.207

@<SCITEGIC>MOL_PROPERTY
Pdih
SciTegic.value.DoubleValue
1.813

@<SCITEGIC>MOL_PROPERTY
Idih
SciTegic.value.DoubleValue
0.000

@<SCITEGIC>MOL_PROPERTY
Tether
SciTegic.value.DoubleValue
0.000

@<TRIPOS>MOLECULE
guest-s9_confgen4.mol2 : confsearch ligand conformer 134
          20          19           1
SMALL
USER_CHARGES
 
@<TRIPOS>ATOM
       1    C1      19.308640   15.696664   22.103833 C.3        1 MOL1        -0.2224
       2    H1      20.202508   15.361832   22.646110 H          1 MOL1         0.1052
       3    H2      18.459994   15.092010   22.449114 H          1 MOL1         0.1052
       4    H3      19.458247   15.487328   21.036606 H          1 MOL1         0.1052
       5    C2      19.042143   17.198480   22.344163 C.3        1 MOL1        -0.1209
       6    H4      18.862103   17.370589   23.414824 H          1 MOL1         0.1041
       7    H5      18.123762   17.495115   21.817916 H          1 MOL1         0.1041
       8    C3      20.221338   18.074751   21.867288 C.3        1 MOL1        -0.1274
       9    H6      21.137651   17.780143   22.396006 H          1 MOL1         0.1041
      10    H7      20.398392   17.904727   20.796910 H          1 MOL1         0.1041
      11    C4      19.947941   19.570687   22.110214 C.3        1 MOL1         0.0313
      12    H8      19.786568   19.745954   23.176858 H          1 MOL1         0.1015
      13    H9      19.045055   19.870958   21.572514 H          1 MOL1         0.1015
      14    N1      21.080432   20.471085   21.656946 N.4        1 MOL1        -0.4809
      15    H10     21.269106   20.328811   20.652796 H          1 MOL1         0.3726
      16    H11     21.955622   20.213109   22.138243 H          1 MOL1         0.3726
      17    C5      20.728996   21.926966   21.932770 C.3        1 MOL1        -0.0677
      18    H12     20.567532   22.061429   23.004524 H          1 MOL1         0.1026
      19    H13     21.552435   22.563725   21.601869 H          1 MOL1         0.1026
      20    H14     19.819851   22.187488   21.386516 H          1 MOL1         0.1026
@<TRIPOS>BOND
    1     1     2    1
    2     1     3    1
    3     1     4    1
    4     1     5    1
    5     5     6    1
    6     5     7    1
    7     5     8    1
    8     8     9    1
    9     8    10    1
   10     8    11    1
   11    11    12    1
   12    11    13    1
   13    11    14    1
   14    14    15    1
   15    14    16    1
   16    14    17    1
   17    17    18    1
   18    17    19    1
   19    17    20    1
@<TRIPOS>SUBSTRUCTURE
       1 MOL1            1 RESIDUE      1      MOL     
@<SCITEGIC>MOL_PROPERTY
VConf Rank
SciTegic.value.IntegerValue
134

@<SCITEGIC>MOL_PROPERTY
Conf_Id
SciTegic.value.IntegerValue
67

@<SCITEGIC>MOL_PROPERTY
Delta U+W
SciTegic.value.DoubleValue
0.000

@<SCITEGIC>MOL_PROPERTY
U+W
SciTegic.value.DoubleValue
15.338

@<SCITEGIC>MOL_PROPERTY
Grad RMS
SciTegic.value.DoubleValue
0.000000

@<SCITEGIC>MOL_PROPERTY
U
SciTegic.value.DoubleValue
69.277

@<SCITEGIC>MOL_PROPERTY
W
SciTegic.value.DoubleValue
-53.939

@<SCITEGIC>MOL_PROPERTY
W(PB)
SciTegic.value.DoubleValue
-55.889

@<SCITEGIC>MOL_PROPERTY
W(SA)
SciTegic.value.DoubleValue
1.950

@<SCITEGIC>MOL_PROPERTY
Valence
SciTegic.value.DoubleValue
0.846

@<SCITEGIC>MOL_PROPERTY
Coulomb
SciTegic.value.DoubleValue
68.557

@<SCITEGIC>MOL_PROPERTY
VdW
SciTegic.value.DoubleValue
-0.127

@<SCITEGIC>MOL_PROPERTY
VdW6
SciTegic.value.DoubleValue
-3.008

@<SCITEGIC>MOL_PROPERTY
VdW12
SciTegic.value.DoubleValue
2.882

@<SCITEGIC>MOL_PROPERTY
Bond
SciTegic.value.DoubleValue
0.088

@<SCITEGIC>MOL_PROPERTY
Angle
SciTegic.value.DoubleValue
0.332

@<SCITEGIC>MOL_PROPERTY
Pdih
SciTegic.value.DoubleValue
0.426

@<SCITEGIC>MOL_PROPERTY
Idih
SciTegic.value.DoubleValue
0.000

@<SCITEGIC>MOL_PROPERTY
Tether
SciTegic.value.DoubleValue
0.000

@<TRIPOS>MOLECULE
guest-s9_confgen4.mol2 : confsearch ligand conformer 135
          20          19           1
SMALL
USER_CHARGES
 
@<TRIPOS>ATOM
       1    C1      18.078497   20.492905   20.436713 C.3        1 MOL1        -0.2224
       2    H1      17.687206   20.915820   21.371167 H          1 MOL1         0.1052
       3    H2      18.006567   21.266847   19.661562 H          1 MOL1         0.1052
       4    H3      17.428485   19.659257   20.140599 H          1 MOL1         0.1052
       5    C2      19.540229   20.025281   20.606829 C.3        1 MOL1        -0.1209
       6    H4      20.170976   20.886518   20.869039 H          1 MOL1         0.1041
       7    H5      19.914335   19.640309   19.647584 H          1 MOL1         0.1041
       8    C3      19.671968   18.934541   21.692472 C.3        1 MOL1        -0.1274
       9    H6      19.297303   19.323285   22.648118 H          1 MOL1         0.1041
      10    H7      19.045052   18.072852   21.427727 H          1 MOL1         0.1041
      11    C4      21.135137   18.472974   21.853920 C.3        1 MOL1         0.0313
      12    H8      21.757933   19.315455   22.164940 H          1 MOL1         0.1015
      13    H9      21.503808   18.118667   20.887884 H          1 MOL1         0.1015
      14    N1      21.336862   17.346813   22.854836 N.4        1 MOL1        -0.4809
      15    H10     22.302494   16.989619   22.782352 H          1 MOL1         0.3726
      16    H11     20.739046   16.541998   22.612628 H          1 MOL1         0.3726
      17    C5      21.064569   17.815850   24.280099 C.3        1 MOL1        -0.0677
      18    H12     20.022498   18.129889   24.365848 H          1 MOL1         0.1026
      19    H13     21.256425   16.991622   24.970614 H          1 MOL1         0.1026
      20    H14     21.724546   18.653643   24.515130 H          1 MOL1         0.1026
@<TRIPOS>BOND
    1     1     2    1
    2     1     3    1
    3     1     4    1
    4     1     5    1
    5     5     6    1
    6     5     7    1
    7     5     8    1
    8     8     9    1
    9     8    10    1
   10     8    11    1
   11    11    12    1
   12    11    13    1
   13    11    14    1
   14    14    15    1
   15    14    16    1
   16    14    17    1
   17    17    18    1
   18    17    19    1
   19    17    20    1
@<TRIPOS>SUBSTRUCTURE
       1 MOL1            1 RESIDUE      1      MOL     
@<SCITEGIC>MOL_PROPERTY
VConf Rank
SciTegic.value.IntegerValue
135

@<SCITEGIC>MOL_PROPERTY
Conf_Id
SciTegic.value.IntegerValue
37

@<SCITEGIC>MOL_PROPERTY
Delta U+W
SciTegic.value.DoubleValue
-0.021

@<SCITEGIC>MOL_PROPERTY
U+W
SciTegic.value.DoubleValue
15.318

@<SCITEGIC>MOL_PROPERTY
Grad RMS
SciTegic.value.DoubleValue
0.000000

@<SCITEGIC>MOL_PROPERTY
U
SciTegic.value.DoubleValue
69.657

@<SCITEGIC>MOL_PROPERTY
W
SciTegic.value.DoubleValue
-54.340

@<SCITEGIC>MOL_PROPERTY
W(PB)
SciTegic.value.DoubleValue
-56.238

@<SCITEGIC>MOL_PROPERTY
W(SA)
SciTegic.value.DoubleValue
1.899

@<SCITEGIC>MOL_PROPERTY
Valence
SciTegic.value.DoubleValue
1.137

@<SCITEGIC>MOL_PROPERTY
Coulomb
SciTegic.value.DoubleValue
68.383

@<SCITEGIC>MOL_PROPERTY
VdW
SciTegic.value.DoubleValue
0.138

@<SCITEGIC>MOL_PROPERTY
VdW6
SciTegic.value.DoubleValue
-3.703

@<SCITEGIC>MOL_PROPERTY
VdW12
SciTegic.value.DoubleValue
3.841

@<SCITEGIC>MOL_PROPERTY
Bond
SciTegic.value.DoubleValue
0.125

@<SCITEGIC>MOL_PROPERTY
Angle
SciTegic.value.DoubleValue
0.468

@<SCITEGIC>MOL_PROPERTY
Pdih
SciTegic.value.DoubleValue
0.543

@<SCITEGIC>MOL_PROPERTY
Idih
SciTegic.value.DoubleValue
0.000

@<SCITEGIC>MOL_PROPERTY
Tether
SciTegic.value.DoubleValue
0.000

@<TRIPOS>MOLECULE
guest-s9_confgen4.mol2 : confsearch ligand conformer 136
          20          19           1
SMALL
USER_CHARGES
 
@<TRIPOS>ATOM
       1    C1      19.308390   15.864899   21.780353 C.3        1 MOL1        -0.2224
       2    H1      18.505170   15.185128   21.467671 H          1 MOL1         0.1052
       3    H2      20.162316   15.707548   21.108624 H          1 MOL1         0.1052
       4    H3      19.614772   15.578857   22.794985 H          1 MOL1         0.1052
       5    C2      18.829259   17.332143   21.736803 C.3        1 MOL1        -0.1209
       6    H4      17.953726   17.449832   22.390945 H          1 MOL1         0.1041
       7    H5      18.497580   17.577892   20.718019 H          1 MOL1         0.1041
       8    C3      19.940279   18.312613   22.172692 C.3        1 MOL1        -0.1274
       9    H6      20.268072   18.069249   23.191980 H          1 MOL1         0.1041
      10    H7      20.812138   18.191522   21.516984 H          1 MOL1         0.1041
      11    C4      19.451722   19.775223   22.127371 C.3        1 MOL1         0.0313
      12    H8      18.565355   19.872724   22.759452 H          1 MOL1         0.1015
      13    H9      19.168978   20.040621   21.105607 H          1 MOL1         0.1015
      14    N1      20.467083   20.797086   22.612751 N.4        1 MOL1        -0.4809
      15    H10     20.783707   20.561550   23.565666 H          1 MOL1         0.3726
      16    H11     20.011620   21.718561   22.706162 H          1 MOL1         0.3726
      17    C5      21.651068   20.899898   21.657175 C.3        1 MOL1        -0.0677
      18    H12     21.288310   21.169664   20.663022 H          1 MOL1         0.1026
      19    H13     22.337235   21.668632   22.019381 H          1 MOL1         0.1026
      20    H14     22.167612   19.939026   21.614826 H          1 MOL1         0.1026
@<TRIPOS>BOND
    1     1     2    1
    2     1     3    1
    3     1     4    1
    4     1     5    1
    5     5     6    1
    6     5     7    1
    7     5     8    1
    8     8     9    1
    9     8    10    1
   10     8    11    1
   11    11    12    1
   12    11    13    1
   13    11    14    1
   14    14    15    1
   15    14    16    1
   16    14    17    1
   17    17    18    1
   18    17    19    1
   19    17    20    1
@<TRIPOS>SUBSTRUCTURE
       1 MOL1            1 RESIDUE      1      MOL     
@<SCITEGIC>MOL_PROPERTY
VConf Rank
SciTegic.value.IntegerValue
136

@<SCITEGIC>MOL_PROPERTY
Conf_Id
SciTegic.value.IntegerValue
2

@<SCITEGIC>MOL_PROPERTY
Delta U+W
SciTegic.value.DoubleValue
0.069

@<SCITEGIC>MOL_PROPERTY
U+W
SciTegic.value.DoubleValue
15.407

@<SCITEGIC>MOL_PROPERTY
Grad RMS
SciTegic.value.DoubleValue
0.000000

@<SCITEGIC>MOL_PROPERTY
U
SciTegic.value.DoubleValue
69.657

@<SCITEGIC>MOL_PROPERTY
W
SciTegic.value.DoubleValue
-54.250

@<SCITEGIC>MOL_PROPERTY
W(PB)
SciTegic.value.DoubleValue
-56.176

@<SCITEGIC>MOL_PROPERTY
W(SA)
SciTegic.value.DoubleValue
1.926

@<SCITEGIC>MOL_PROPERTY
Valence
SciTegic.value.DoubleValue
1.137

@<SCITEGIC>MOL_PROPERTY
Coulomb
SciTegic.value.DoubleValue
68.383

@<SCITEGIC>MOL_PROPERTY
VdW
SciTegic.value.DoubleValue
0.138

@<SCITEGIC>MOL_PROPERTY
VdW6
SciTegic.value.DoubleValue
-3.703

@<SCITEGIC>MOL_PROPERTY
VdW12
SciTegic.value.DoubleValue
3.841

@<SCITEGIC>MOL_PROPERTY
Bond
SciTegic.value.DoubleValue
0.125

@<SCITEGIC>MOL_PROPERTY
Angle
SciTegic.value.DoubleValue
0.468

@<SCITEGIC>MOL_PROPERTY
Pdih
SciTegic.value.DoubleValue
0.543

@<SCITEGIC>MOL_PROPERTY
Idih
SciTegic.value.DoubleValue
0.000

@<SCITEGIC>MOL_PROPERTY
Tether
SciTegic.value.DoubleValue
0.000

@<TRIPOS>MOLECULE
guest-s9_confgen4.mol2 : confsearch ligand conformer 137
          20          19           1
SMALL
USER_CHARGES
 
@<TRIPOS>ATOM
       1    C1      22.109074   20.402305   22.156206 C.3        1 MOL1        -0.2224
       2    H1      21.848045   20.009903   23.147139 H          1 MOL1         0.1052
       3    H2      22.830907   19.715932   21.694743 H          1 MOL1         0.1052
       4    H3      22.612219   21.366570   22.304625 H          1 MOL1         0.1052
       5    C2      20.857487   20.575438   21.265226 C.3        1 MOL1        -0.1209
       6    H4      21.152777   21.055837   20.321810 H          1 MOL1         0.1041
       7    H5      20.149718   21.261057   21.752252 H          1 MOL1         0.1041
       8    C3      20.151354   19.236519   20.947656 C.3        1 MOL1        -0.1274
       9    H6      19.322765   19.425737   20.252319 H          1 MOL1         0.1041
      10    H7      20.849869   18.565808   20.429882 H          1 MOL1         0.1041
      11    C4      19.603786   18.540230   22.208845 C.3        1 MOL1         0.0313
      12    H8      18.906799   19.206966   22.722699 H          1 MOL1         0.1015
      13    H9      20.426781   18.311960   22.890268 H          1 MOL1         0.1015
      14    N1      18.875557   17.243956   21.912487 N.4        1 MOL1        -0.4809
      15    H10     19.500195   16.589307   21.417156 H          1 MOL1         0.3726
      16    H11     18.091129   17.415516   21.264920 H          1 MOL1         0.3726
      17    C5      18.371573   16.623256   23.208567 C.3        1 MOL1        -0.0677
      18    H12     17.686402   17.318746   23.698094 H          1 MOL1         0.1026
      19    H13     17.849499   15.691296   22.980764 H          1 MOL1         0.1026
      20    H14     19.221044   16.418560   23.863775 H          1 MOL1         0.1026
@<TRIPOS>BOND
    1     1     2    1
    2     1     3    1
    3     1     4    1
    4     1     5    1
    5     5     6    1
    6     5     7    1
    7     5     8    1
    8     8     9    1
    9     8    10    1
   10     8    11    1
   11    11    12    1
   12    11    13    1
   13    11    14    1
   14    14    15    1
   15    14    16    1
   16    14    17    1
   17    17    18    1
   18    17    19    1
   19    17    20    1
@<TRIPOS>SUBSTRUCTURE
       1 MOL1            1 RESIDUE      1      MOL     
@<SCITEGIC>MOL_PROPERTY
VConf Rank
SciTegic.value.IntegerValue
137

@<SCITEGIC>MOL_PROPERTY
Conf_Id
SciTegic.value.IntegerValue
34

@<SCITEGIC>MOL_PROPERTY
Delta U+W
SciTegic.value.DoubleValue
0.276

@<SCITEGIC>MOL_PROPERTY
U+W
SciTegic.value.DoubleValue
15.615

@<SCITEGIC>MOL_PROPERTY
Grad RMS
SciTegic.value.DoubleValue
0.000000

@<SCITEGIC>MOL_PROPERTY
U
SciTegic.value.DoubleValue
69.798

@<SCITEGIC>MOL_PROPERTY
W
SciTegic.value.DoubleValue
-54.184

@<SCITEGIC>MOL_PROPERTY
W(PB)
SciTegic.value.DoubleValue
-56.116

@<SCITEGIC>MOL_PROPERTY
W(SA)
SciTegic.value.DoubleValue
1.933

@<SCITEGIC>MOL_PROPERTY
Valence
SciTegic.value.DoubleValue
1.134

@<SCITEGIC>MOL_PROPERTY
Coulomb
SciTegic.value.DoubleValue
68.735

@<SCITEGIC>MOL_PROPERTY
VdW
SciTegic.value.DoubleValue
-0.070

@<SCITEGIC>MOL_PROPERTY
VdW6
SciTegic.value.DoubleValue
-3.565

@<SCITEGIC>MOL_PROPERTY
VdW12
SciTegic.value.DoubleValue
3.494

@<SCITEGIC>MOL_PROPERTY
Bond
SciTegic.value.DoubleValue
0.108

@<SCITEGIC>MOL_PROPERTY
Angle
SciTegic.value.DoubleValue
0.456

@<SCITEGIC>MOL_PROPERTY
Pdih
SciTegic.value.DoubleValue
0.569

@<SCITEGIC>MOL_PROPERTY
Idih
SciTegic.value.DoubleValue
0.000

@<SCITEGIC>MOL_PROPERTY
Tether
SciTegic.value.DoubleValue
0.000

@<TRIPOS>MOLECULE
guest-s9_confgen4.mol2 : confsearch ligand conformer 138
          20          19           1
SMALL
USER_CHARGES
 
@<TRIPOS>ATOM
       1    C1      20.432660   15.906630   22.838713 C.3        1 MOL1        -0.2224
       2    H1      19.482787   15.367693   22.727096 H          1 MOL1         0.1052
       3    H2      21.234935   15.252109   22.474045 H          1 MOL1         0.1052
       4    H3      20.602167   16.081748   23.909125 H          1 MOL1         0.1052
       5    C2      20.413929   17.236173   22.053863 C.3        1 MOL1        -0.1209
       6    H4      20.274585   17.025534   20.984032 H          1 MOL1         0.1041
       7    H5      21.391547   17.726467   22.155711 H          1 MOL1         0.1041
       8    C3      19.291084   18.177759   22.549667 C.3        1 MOL1        -0.1274
       9    H6      18.325462   17.659730   22.478224 H          1 MOL1         0.1041
      10    H7      19.439799   18.415264   23.611426 H          1 MOL1         0.1041
      11    C4      19.203711   19.484755   21.736238 C.3        1 MOL1         0.0313
      12    H8      18.340177   20.063375   22.074064 H          1 MOL1         0.1015
      13    H9      19.062802   19.250192   20.678145 H          1 MOL1         0.1015
      14    N1      20.426715   20.373963   21.860560 N.4        1 MOL1        -0.4809
      15    H10     21.268242   19.866565   21.549382 H          1 MOL1         0.3726
      16    H11     20.596997   20.607826   22.850691 H          1 MOL1         0.3726
      17    C5      20.233835   21.640873   21.038019 C.3        1 MOL1        -0.0677
      18    H12     20.088505   21.370807   19.989815 H          1 MOL1         0.1026
      19    H13     19.357414   22.178754   21.405929 H          1 MOL1         0.1026
      20    H14     21.120495   22.271079   21.136327 H          1 MOL1         0.1026
@<TRIPOS>BOND
    1     1     2    1
    2     1     3    1
    3     1     4    1
    4     1     5    1
    5     5     6    1
    6     5     7    1
    7     5     8    1
    8     8     9    1
    9     8    10    1
   10     8    11    1
   11    11    12    1
   12    11    13    1
   13    11    14    1
   14    14    15    1
   15    14    16    1
   16    14    17    1
   17    17    18    1
   18    17    19    1
   19    17    20    1
@<TRIPOS>SUBSTRUCTURE
       1 MOL1            1 RESIDUE      1      MOL     
@<SCITEGIC>MOL_PROPERTY
VConf Rank
SciTegic.value.IntegerValue
138

@<SCITEGIC>MOL_PROPERTY
Conf_Id
SciTegic.value.IntegerValue
50

@<SCITEGIC>MOL_PROPERTY
Delta U+W
SciTegic.value.DoubleValue
0.319

@<SCITEGIC>MOL_PROPERTY
U+W
SciTegic.value.DoubleValue
15.657

@<SCITEGIC>MOL_PROPERTY
Grad RMS
SciTegic.value.DoubleValue
0.000000

@<SCITEGIC>MOL_PROPERTY
U
SciTegic.value.DoubleValue
69.962

@<SCITEGIC>MOL_PROPERTY
W
SciTegic.value.DoubleValue
-54.305

@<SCITEGIC>MOL_PROPERTY
W(PB)
SciTegic.value.DoubleValue
-56.223

@<SCITEGIC>MOL_PROPERTY
W(SA)
SciTegic.value.DoubleValue
1.918

@<SCITEGIC>MOL_PROPERTY
Valence
SciTegic.value.DoubleValue
0.982

@<SCITEGIC>MOL_PROPERTY
Coulomb
SciTegic.value.DoubleValue
69.058

@<SCITEGIC>MOL_PROPERTY
VdW
SciTegic.value.DoubleValue
-0.078

@<SCITEGIC>MOL_PROPERTY
VdW6
SciTegic.value.DoubleValue
-3.548

@<SCITEGIC>MOL_PROPERTY
VdW12
SciTegic.value.DoubleValue
3.471

@<SCITEGIC>MOL_PROPERTY
Bond
SciTegic.value.DoubleValue
0.105

@<SCITEGIC>MOL_PROPERTY
Angle
SciTegic.value.DoubleValue
0.408

@<SCITEGIC>MOL_PROPERTY
Pdih
SciTegic.value.DoubleValue
0.469

@<SCITEGIC>MOL_PROPERTY
Idih
SciTegic.value.DoubleValue
0.000

@<SCITEGIC>MOL_PROPERTY
Tether
SciTegic.value.DoubleValue
0.000

@<TRIPOS>MOLECULE
guest-s9_confgen4.mol2 : confsearch ligand conformer 139
          20          19           1
SMALL
USER_CHARGES
 
@<TRIPOS>ATOM
       1    C1      20.864262   21.437291   23.361578 C.3        1 MOL1        -0.2224
       2    H1      21.695849   22.082098   23.048985 H          1 MOL1         0.1052
       3    H2      19.972876   22.068558   23.471596 H          1 MOL1         0.1052
       4    H3      21.112688   21.022481   24.347173 H          1 MOL1         0.1052
       5    C2      20.626908   20.313927   22.329231 C.3        1 MOL1        -0.1209
       6    H4      21.550173   19.729668   22.216457 H          1 MOL1         0.1041
       7    H5      20.412256   20.760530   21.348010 H          1 MOL1         0.1041
       8    C3      19.458906   19.389733   22.747352 C.3        1 MOL1        -0.1274
       9    H6      19.679154   18.917879   23.714151 H          1 MOL1         0.1041
      10    H7      18.553395   19.993408   22.894014 H          1 MOL1         0.1041
      11    C4      19.153391   18.300473   21.699632 C.3        1 MOL1         0.0313
      12    H8      18.940782   18.768019   20.734939 H          1 MOL1         0.1015
      13    H9      18.267066   17.740530   22.008681 H          1 MOL1         0.1015
      14    N1      20.277943   17.301955   21.499048 N.4        1 MOL1        -0.4809
      15    H10     20.513287   16.847024   22.394425 H          1 MOL1         0.3726
      16    H11     21.137205   17.788838   21.203975 H          1 MOL1         0.3726
      17    C5      19.871612   16.262976   20.462583 C.3        1 MOL1        -0.0677
      18    H12     20.689286   15.551443   20.327979 H          1 MOL1         0.1026
      19    H13     18.979840   15.737234   20.810610 H          1 MOL1         0.1026
      20    H14     19.659402   16.763427   19.515320 H          1 MOL1         0.1026
@<TRIPOS>BOND
    1     1     2    1
    2     1     3    1
    3     1     4    1
    4     1     5    1
    5     5     6    1
    6     5     7    1
    7     5     8    1
    8     8     9    1
    9     8    10    1
   10     8    11    1
   11    11    12    1
   12    11    13    1
   13    11    14    1
   14    14    15    1
   15    14    16    1
   16    14    17    1
   17    17    18    1
   18    17    19    1
   19    17    20    1
@<TRIPOS>SUBSTRUCTURE
       1 MOL1            1 RESIDUE      1      MOL     
@<SCITEGIC>MOL_PROPERTY
VConf Rank
SciTegic.value.IntegerValue
139

@<SCITEGIC>MOL_PROPERTY
Conf_Id
SciTegic.value.IntegerValue
35

@<SCITEGIC>MOL_PROPERTY
Delta U+W
SciTegic.value.DoubleValue
0.360

@<SCITEGIC>MOL_PROPERTY
U+W
SciTegic.value.DoubleValue
15.698

@<SCITEGIC>MOL_PROPERTY
Grad RMS
SciTegic.value.DoubleValue
0.000000

@<SCITEGIC>MOL_PROPERTY
U
SciTegic.value.DoubleValue
69.962

@<SCITEGIC>MOL_PROPERTY
W
SciTegic.value.DoubleValue
-54.264

@<SCITEGIC>MOL_PROPERTY
W(PB)
SciTegic.value.DoubleValue
-56.166

@<SCITEGIC>MOL_PROPERTY
W(SA)
SciTegic.value.DoubleValue
1.902

@<SCITEGIC>MOL_PROPERTY
Valence
SciTegic.value.DoubleValue
0.982

@<SCITEGIC>MOL_PROPERTY
Coulomb
SciTegic.value.DoubleValue
69.058

@<SCITEGIC>MOL_PROPERTY
VdW
SciTegic.value.DoubleValue
-0.078

@<SCITEGIC>MOL_PROPERTY
VdW6
SciTegic.value.DoubleValue
-3.548

@<SCITEGIC>MOL_PROPERTY
VdW12
SciTegic.value.DoubleValue
3.471

@<SCITEGIC>MOL_PROPERTY
Bond
SciTegic.value.DoubleValue
0.105

@<SCITEGIC>MOL_PROPERTY
Angle
SciTegic.value.DoubleValue
0.408

@<SCITEGIC>MOL_PROPERTY
Pdih
SciTegic.value.DoubleValue
0.469

@<SCITEGIC>MOL_PROPERTY
Idih
SciTegic.value.DoubleValue
0.000

@<SCITEGIC>MOL_PROPERTY
Tether
SciTegic.value.DoubleValue
0.000

@<TRIPOS>MOLECULE
guest-s9_confgen4.mol2 : confsearch ligand conformer 140
          20          19           1
SMALL
USER_CHARGES
 
@<TRIPOS>ATOM
       1    C1      21.146814   20.974287   21.339761 C.3        1 MOL1        -0.2224
       2    H1      20.954738   20.476041   20.381154 H          1 MOL1         0.1052
       3    H2      21.284036   22.043946   21.134884 H          1 MOL1         0.1052
       4    H3      22.091146   20.587203   21.744108 H          1 MOL1         0.1052
       5    C2      19.984549   20.757719   22.335978 C.3        1 MOL1        -0.1209
       6    H4      19.051714   21.148616   21.905645 H          1 MOL1         0.1041
       7    H5      20.176054   21.346620   23.244002 H          1 MOL1         0.1041
       8    C3      19.795587   19.274092   22.729704 C.3        1 MOL1        -0.1274
       9    H6      20.717750   18.900197   23.192875 H          1 MOL1         0.1041
      10    H7      19.009410   19.204078   23.492947 H          1 MOL1         0.1041
      11    C4      19.412101   18.385973   21.526521 C.3        1 MOL1         0.0313
      12    H8      20.216817   18.393010   20.787510 H          1 MOL1         0.1015
      13    H9      18.515550   18.796113   21.054768 H          1 MOL1         0.1015
      14    N1      19.115937   16.937336   21.878850 N.4        1 MOL1        -0.4809
      15    H10     18.712673   16.457895   21.058653 H          1 MOL1         0.3726
      16    H11     18.381217   16.888085   22.600985 H          1 MOL1         0.3726
      17    C5      20.375874   16.209882   22.335729 C.3        1 MOL1        -0.0677
      18    H12     20.759438   16.682991   23.241784 H          1 MOL1         0.1026
      19    H13     20.130682   15.166008   22.543503 H          1 MOL1         0.1026
      20    H14     21.127175   16.260787   21.544747 H          1 MOL1         0.1026
@<TRIPOS>BOND
    1     1     2    1
    2     1     3    1
    3     1     4    1
    4     1     5    1
    5     5     6    1
    6     5     7    1
    7     5     8    1
    8     8     9    1
    9     8    10    1
   10     8    11    1
   11    11    12    1
   12    11    13    1
   13    11    14    1
   14    14    15    1
   15    14    16    1
   16    14    17    1
   17    17    18    1
   18    17    19    1
   19    17    20    1
@<TRIPOS>SUBSTRUCTURE
       1 MOL1            1 RESIDUE      1      MOL     
@<SCITEGIC>MOL_PROPERTY
VConf Rank
SciTegic.value.IntegerValue
140

@<SCITEGIC>MOL_PROPERTY
Conf_Id
SciTegic.value.IntegerValue
33

@<SCITEGIC>MOL_PROPERTY
Delta U+W
SciTegic.value.DoubleValue
0.372

@<SCITEGIC>MOL_PROPERTY
U+W
SciTegic.value.DoubleValue
15.711

@<SCITEGIC>MOL_PROPERTY
Grad RMS
SciTegic.value.DoubleValue
0.000000

@<SCITEGIC>MOL_PROPERTY
U
SciTegic.value.DoubleValue
70.163

@<SCITEGIC>MOL_PROPERTY
W
SciTegic.value.DoubleValue
-54.452

@<SCITEGIC>MOL_PROPERTY
W(PB)
SciTegic.value.DoubleValue
-56.363

@<SCITEGIC>MOL_PROPERTY
W(SA)
SciTegic.value.DoubleValue
1.911

@<SCITEGIC>MOL_PROPERTY
Valence
SciTegic.value.DoubleValue
1.420

@<SCITEGIC>MOL_PROPERTY
Coulomb
SciTegic.value.DoubleValue
68.566

@<SCITEGIC>MOL_PROPERTY
VdW
SciTegic.value.DoubleValue
0.177

@<SCITEGIC>MOL_PROPERTY
VdW6
SciTegic.value.DoubleValue
-4.267

@<SCITEGIC>MOL_PROPERTY
VdW12
SciTegic.value.DoubleValue
4.445

@<SCITEGIC>MOL_PROPERTY
Bond
SciTegic.value.DoubleValue
0.146

@<SCITEGIC>MOL_PROPERTY
Angle
SciTegic.value.DoubleValue
0.581

@<SCITEGIC>MOL_PROPERTY
Pdih
SciTegic.value.DoubleValue
0.693

@<SCITEGIC>MOL_PROPERTY
Idih
SciTegic.value.DoubleValue
0.000

@<SCITEGIC>MOL_PROPERTY
Tether
SciTegic.value.DoubleValue
0.000

@<TRIPOS>MOLECULE
guest-s9_confgen4.mol2 : confsearch ligand conformer 141
          20          19           1
SMALL
USER_CHARGES
 
@<TRIPOS>ATOM
       1    C1      21.854709   16.936465   22.285636 C.3        1 MOL1        -0.2224
       2    H1      22.796095   16.414852   22.501706 H          1 MOL1         0.1052
       3    H2      21.213999   16.842849   23.171522 H          1 MOL1         0.1052
       4    H3      21.366346   16.414211   21.452661 H          1 MOL1         0.1052
       5    C2      22.123984   18.417385   21.932680 C.3        1 MOL1        -0.1209
       6    H4      22.839897   18.463163   21.099998 H          1 MOL1         0.1041
       7    H5      22.607766   18.917655   22.783474 H          1 MOL1         0.1041
       8    C3      20.841932   19.186094   21.536056 C.3        1 MOL1        -0.1274
       9    H6      21.116303   20.202949   21.225829 H          1 MOL1         0.1041
      10    H7      20.383827   18.703778   20.663004 H          1 MOL1         0.1041
      11    C4      19.819614   19.268532   22.689976 C.3        1 MOL1         0.0313
      12    H8      20.304565   19.714761   23.561911 H          1 MOL1         0.1015
      13    H9      19.486775   18.264739   22.964519 H          1 MOL1         0.1015
      14    N1      18.585317   20.100813   22.383016 N.4        1 MOL1        -0.4809
      15    H10     18.858853   21.050032   22.086572 H          1 MOL1         0.3726
      16    H11     18.039579   20.241157   23.247701 H          1 MOL1         0.3726
      17    C5      17.715087   19.431211   21.324857 C.3        1 MOL1        -0.0677
      18    H12     16.822607   20.038628   21.159070 H          1 MOL1         0.1026
      19    H13     18.277911   19.345948   20.393274 H          1 MOL1         0.1026
      20    H14     17.424414   18.438170   21.674252 H          1 MOL1         0.1026
@<TRIPOS>BOND
    1     1     2    1
    2     1     3    1
    3     1     4    1
    4     1     5    1
    5     5     6    1
    6     5     7    1
    7     5     8    1
    8     8     9    1
    9     8    10    1
   10     8    11    1
   11    11    12    1
   12    11    13    1
   13    11    14    1
   14    14    15    1
   15    14    16    1
   16    14    17    1
   17    17    18    1
   18    17    19    1
   19    17    20    1
@<TRIPOS>SUBSTRUCTURE
       1 MOL1            1 RESIDUE      1      MOL     
@<SCITEGIC>MOL_PROPERTY
VConf Rank
SciTegic.value.IntegerValue
141

@<SCITEGIC>MOL_PROPERTY
Conf_Id
SciTegic.value.IntegerValue
53

@<SCITEGIC>MOL_PROPERTY
Delta U+W
SciTegic.value.DoubleValue
0.379

@<SCITEGIC>MOL_PROPERTY
U+W
SciTegic.value.DoubleValue
15.717

@<SCITEGIC>MOL_PROPERTY
Grad RMS
SciTegic.value.DoubleValue
0.000000

@<SCITEGIC>MOL_PROPERTY
U
SciTegic.value.DoubleValue
70.163

@<SCITEGIC>MOL_PROPERTY
W
SciTegic.value.DoubleValue
-54.446

@<SCITEGIC>MOL_PROPERTY
W(PB)
SciTegic.value.DoubleValue
-56.322

@<SCITEGIC>MOL_PROPERTY
W(SA)
SciTegic.value.DoubleValue
1.876

@<SCITEGIC>MOL_PROPERTY
Valence
SciTegic.value.DoubleValue
1.420

@<SCITEGIC>MOL_PROPERTY
Coulomb
SciTegic.value.DoubleValue
68.566

@<SCITEGIC>MOL_PROPERTY
VdW
SciTegic.value.DoubleValue
0.177

@<SCITEGIC>MOL_PROPERTY
VdW6
SciTegic.value.DoubleValue
-4.267

@<SCITEGIC>MOL_PROPERTY
VdW12
SciTegic.value.DoubleValue
4.445

@<SCITEGIC>MOL_PROPERTY
Bond
SciTegic.value.DoubleValue
0.146

@<SCITEGIC>MOL_PROPERTY
Angle
SciTegic.value.DoubleValue
0.581

@<SCITEGIC>MOL_PROPERTY
Pdih
SciTegic.value.DoubleValue
0.693

@<SCITEGIC>MOL_PROPERTY
Idih
SciTegic.value.DoubleValue
0.000

@<SCITEGIC>MOL_PROPERTY
Tether
SciTegic.value.DoubleValue
0.000

@<TRIPOS>MOLECULE
guest-s9_confgen4.mol2 : confsearch ligand conformer 142
          20          19           1
SMALL
USER_CHARGES
 
@<TRIPOS>ATOM
       1    C1      20.329906   16.873778   23.955411 C.3        1 MOL1        -0.2224
       2    H1      20.821904   15.895348   23.880486 H          1 MOL1         0.1052
       3    H2      20.581612   17.302206   24.934309 H          1 MOL1         0.1052
       4    H3      19.245172   16.707882   23.923902 H          1 MOL1         0.1052
       5    C2      20.783812   17.802060   22.808143 C.3        1 MOL1        -0.1209
       6    H4      20.550984   17.324109   21.846888 H          1 MOL1         0.1041
       7    H5      21.875616   17.922944   22.847287 H          1 MOL1         0.1041
       8    C3      20.102511   19.188386   22.889711 C.3        1 MOL1        -0.1274
       9    H6      19.012692   19.075798   22.823685 H          1 MOL1         0.1041
      10    H7      20.306636   19.635689   23.871495 H          1 MOL1         0.1041
      11    C4      20.596202   20.165354   21.799544 C.3        1 MOL1         0.0313
      12    H8      21.673231   20.311083   21.915309 H          1 MOL1         0.1015
      13    H9      20.111120   21.135586   21.933110 H          1 MOL1         0.1015
      14    N1      20.349103   19.721264   20.365544 N.4        1 MOL1        -0.4809
      15    H10     20.788771   18.804736   20.196136 H          1 MOL1         0.3726
      16    H11     20.825354   20.367953   19.717314 H          1 MOL1         0.3726
      17    C5      18.858380   19.674168   20.048589 C.3        1 MOL1        -0.0677
      18    H12     18.423569   20.661546   20.217949 H          1 MOL1         0.1026
      19    H13     18.723619   19.387134   19.003418 H          1 MOL1         0.1026
      20    H14     18.373855   18.940080   20.695399 H          1 MOL1         0.1026
@<TRIPOS>BOND
    1     1     2    1
    2     1     3    1
    3     1     4    1
    4     1     5    1
    5     5     6    1
    6     5     7    1
    7     5     8    1
    8     8     9    1
    9     8    10    1
   10     8    11    1
   11    11    12    1
   12    11    13    1
   13    11    14    1
   14    14    15    1
   15    14    16    1
   16    14    17    1
   17    17    18    1
   18    17    19    1
   19    17    20    1
@<TRIPOS>SUBSTRUCTURE
       1 MOL1            1 RESIDUE      1      MOL     
@<SCITEGIC>MOL_PROPERTY
VConf Rank
SciTegic.value.IntegerValue
142

@<SCITEGIC>MOL_PROPERTY
Conf_Id
SciTegic.value.IntegerValue
49

@<SCITEGIC>MOL_PROPERTY
Delta U+W
SciTegic.value.DoubleValue
0.268

@<SCITEGIC>MOL_PROPERTY
U+W
SciTegic.value.DoubleValue
15.607

@<SCITEGIC>MOL_PROPERTY
Grad RMS
SciTegic.value.DoubleValue
0.000000

@<SCITEGIC>MOL_PROPERTY
U
SciTegic.value.DoubleValue
70.298

@<SCITEGIC>MOL_PROPERTY
W
SciTegic.value.DoubleValue
-54.692

@<SCITEGIC>MOL_PROPERTY
W(PB)
SciTegic.value.DoubleValue
-56.576

@<SCITEGIC>MOL_PROPERTY
W(SA)
SciTegic.value.DoubleValue
1.885

@<SCITEGIC>MOL_PROPERTY
Valence
SciTegic.value.DoubleValue
1.245

@<SCITEGIC>MOL_PROPERTY
Coulomb
SciTegic.value.DoubleValue
68.933

@<SCITEGIC>MOL_PROPERTY
VdW
SciTegic.value.DoubleValue
0.120

@<SCITEGIC>MOL_PROPERTY
VdW6
SciTegic.value.DoubleValue
-4.430

@<SCITEGIC>MOL_PROPERTY
VdW12
SciTegic.value.DoubleValue
4.550

@<SCITEGIC>MOL_PROPERTY
Bond
SciTegic.value.DoubleValue
0.148

@<SCITEGIC>MOL_PROPERTY
Angle
SciTegic.value.DoubleValue
0.587

@<SCITEGIC>MOL_PROPERTY
Pdih
SciTegic.value.DoubleValue
0.509

@<SCITEGIC>MOL_PROPERTY
Idih
SciTegic.value.DoubleValue
0.000

@<SCITEGIC>MOL_PROPERTY
Tether
SciTegic.value.DoubleValue
0.000

@<TRIPOS>MOLECULE
guest-s9_confgen4.mol2 : confsearch ligand conformer 143
          20          19           1
SMALL
USER_CHARGES
 
@<TRIPOS>ATOM
       1    C1      19.499840   18.507662   19.262616 C.3        1 MOL1        -0.2224
       2    H1      20.293509   17.822837   18.936616 H          1 MOL1         0.1052
       3    H2      18.533962   18.009161   19.108623 H          1 MOL1         0.1052
       4    H3      19.529314   19.390780   18.611284 H          1 MOL1         0.1052
       5    C2      19.688009   18.913353   20.740566 C.3        1 MOL1        -0.1209
       6    H4      18.896615   19.619313   21.029195 H          1 MOL1         0.1041
       7    H5      20.644773   19.442080   20.843516 H          1 MOL1         0.1041
       8    C3      19.661420   17.684827   21.679523 C.3        1 MOL1        -0.1274
       9    H6      18.751839   17.102344   21.481703 H          1 MOL1         0.1041
      10    H7      20.506691   17.022987   21.449219 H          1 MOL1         0.1041
      11    C4      19.681531   18.038536   23.183955 C.3        1 MOL1         0.0313
      12    H8      19.594341   17.107489   23.749900 H          1 MOL1         0.1015
      13    H9      18.821476   18.662593   23.439213 H          1 MOL1         0.1015
      14    N1      20.939753   18.734928   23.679107 N.4        1 MOL1        -0.4809
      15    H10     21.762515   18.411230   23.148898 H          1 MOL1         0.3726
      16    H11     21.125241   18.450077   24.653511 H          1 MOL1         0.3726
      17    C5      20.797636   20.252428   23.618759 C.3        1 MOL1        -0.0677
      18    H12     21.710784   20.711971   24.003385 H          1 MOL1         0.1026
      19    H13     20.636233   20.567796   22.587351 H          1 MOL1         0.1026
      20    H14     19.947754   20.556834   24.233354 H          1 MOL1         0.1026
@<TRIPOS>BOND
    1     1     2    1
    2     1     3    1
    3     1     4    1
    4     1     5    1
    5     5     6    1
    6     5     7    1
    7     5     8    1
    8     8     9    1
    9     8    10    1
   10     8    11    1
   11    11    12    1
   12    11    13    1
   13    11    14    1
   14    14    15    1
   15    14    16    1
   16    14    17    1
   17    17    18    1
   18    17    19    1
   19    17    20    1
@<TRIPOS>SUBSTRUCTURE
       1 MOL1            1 RESIDUE      1      MOL     
@<SCITEGIC>MOL_PROPERTY
VConf Rank
SciTegic.value.IntegerValue
143

@<SCITEGIC>MOL_PROPERTY
Conf_Id
SciTegic.value.IntegerValue
65

@<SCITEGIC>MOL_PROPERTY
Delta U+W
SciTegic.value.DoubleValue
1.775

@<SCITEGIC>MOL_PROPERTY
U+W
SciTegic.value.DoubleValue
17.114

@<SCITEGIC>MOL_PROPERTY
Grad RMS
SciTegic.value.DoubleValue
0.000000

@<SCITEGIC>MOL_PROPERTY
U
SciTegic.value.DoubleValue
71.726

@<SCITEGIC>MOL_PROPERTY
W
SciTegic.value.DoubleValue
-54.613

@<SCITEGIC>MOL_PROPERTY
W(PB)
SciTegic.value.DoubleValue
-56.495

@<SCITEGIC>MOL_PROPERTY
W(SA)
SciTegic.value.DoubleValue
1.883

@<SCITEGIC>MOL_PROPERTY
Valence
SciTegic.value.DoubleValue
2.885

@<SCITEGIC>MOL_PROPERTY
Coulomb
SciTegic.value.DoubleValue
68.822

@<SCITEGIC>MOL_PROPERTY
VdW
SciTegic.value.DoubleValue
0.019

@<SCITEGIC>MOL_PROPERTY
VdW6
SciTegic.value.DoubleValue
-4.600

@<SCITEGIC>MOL_PROPERTY
VdW12
SciTegic.value.DoubleValue
4.619

@<SCITEGIC>MOL_PROPERTY
Bond
SciTegic.value.DoubleValue
0.152

@<SCITEGIC>MOL_PROPERTY
Angle
SciTegic.value.DoubleValue
0.862

@<SCITEGIC>MOL_PROPERTY
Pdih
SciTegic.value.DoubleValue
1.871

@<SCITEGIC>MOL_PROPERTY
Idih
SciTegic.value.DoubleValue
0.000

@<SCITEGIC>MOL_PROPERTY
Tether
SciTegic.value.DoubleValue
0.000

@<TRIPOS>MOLECULE
guest-s9_confgen4.mol2 : confsearch ligand conformer 144
          20          19           1
SMALL
USER_CHARGES
 
@<TRIPOS>ATOM
       1    C1      20.590745   19.595171   24.191575 C.3        1 MOL1        -0.2224
       2    H1      19.744473   18.901363   24.111223 H          1 MOL1         0.1052
       3    H2      21.144465   19.337032   25.103572 H          1 MOL1         0.1052
       4    H3      20.191116   20.609630   24.319012 H          1 MOL1         0.1052
       5    C2      21.514665   19.513035   22.954725 C.3        1 MOL1        -0.1209
       6    H4      21.901673   18.490408   22.849521 H          1 MOL1         0.1041
       7    H5      22.392580   20.152845   23.121808 H          1 MOL1         0.1041
       8    C3      20.816697   19.956850   21.644814 C.3        1 MOL1        -0.1274
       9    H6      20.528163   21.012936   21.729645 H          1 MOL1         0.1041
      10    H7      21.532007   19.901600   20.813536 H          1 MOL1         0.1041
      11    C4      19.562539   19.130625   21.290687 C.3        1 MOL1         0.0313
      12    H8      19.114839   19.526026   20.375393 H          1 MOL1         0.1015
      13    H9      18.825875   19.217808   22.092867 H          1 MOL1         0.1015
      14    N1      19.838860   17.656019   21.067562 N.4        1 MOL1        -0.4809
      15    H10     20.270068   17.246927   21.909698 H          1 MOL1         0.3726
      16    H11     20.533719   17.534364   20.315053 H          1 MOL1         0.3726
      17    C5      18.545050   16.930461   20.723847 C.3        1 MOL1        -0.0677
      18    H12     18.123304   17.359496   19.812352 H          1 MOL1         0.1026
      19    H13     18.758529   15.870800   20.567274 H          1 MOL1         0.1026
      20    H14     17.837855   17.045721   21.548074 H          1 MOL1         0.1026
@<TRIPOS>BOND
    1     1     2    1
    2     1     3    1
    3     1     4    1
    4     1     5    1
    5     5     6    1
    6     5     7    1
    7     5     8    1
    8     8     9    1
    9     8    10    1
   10     8    11    1
   11    11    12    1
   12    11    13    1
   13    11    14    1
   14    14    15    1
   15    14    16    1
   16    14    17    1
   17    17    18    1
   18    17    19    1
   19    17    20    1
@<TRIPOS>SUBSTRUCTURE
       1 MOL1            1 RESIDUE      1      MOL     
@<SCITEGIC>MOL_PROPERTY
VConf Rank
SciTegic.value.IntegerValue
144

@<SCITEGIC>MOL_PROPERTY
Conf_Id
SciTegic.value.IntegerValue
23

@<SCITEGIC>MOL_PROPERTY
Delta U+W
SciTegic.value.DoubleValue
0.896

@<SCITEGIC>MOL_PROPERTY
U+W
SciTegic.value.DoubleValue
16.234

@<SCITEGIC>MOL_PROPERTY
Grad RMS
SciTegic.value.DoubleValue
0.000000

@<SCITEGIC>MOL_PROPERTY
U
SciTegic.value.DoubleValue
70.374

@<SCITEGIC>MOL_PROPERTY
W
SciTegic.value.DoubleValue
-54.140

@<SCITEGIC>MOL_PROPERTY
W(PB)
SciTegic.value.DoubleValue
-56.046

@<SCITEGIC>MOL_PROPERTY
W(SA)
SciTegic.value.DoubleValue
1.907

@<SCITEGIC>MOL_PROPERTY
Valence
SciTegic.value.DoubleValue
1.257

@<SCITEGIC>MOL_PROPERTY
Coulomb
SciTegic.value.DoubleValue
69.240

@<SCITEGIC>MOL_PROPERTY
VdW
SciTegic.value.DoubleValue
-0.123

@<SCITEGIC>MOL_PROPERTY
VdW6
SciTegic.value.DoubleValue
-4.336

@<SCITEGIC>MOL_PROPERTY
VdW12
SciTegic.value.DoubleValue
4.213

@<SCITEGIC>MOL_PROPERTY
Bond
SciTegic.value.DoubleValue
0.128

@<SCITEGIC>MOL_PROPERTY
Angle
SciTegic.value.DoubleValue
0.603

@<SCITEGIC>MOL_PROPERTY
Pdih
SciTegic.value.DoubleValue
0.526

@<SCITEGIC>MOL_PROPERTY
Idih
SciTegic.value.DoubleValue
0.000

@<SCITEGIC>MOL_PROPERTY
Tether
SciTegic.value.DoubleValue
0.000

@<TRIPOS>MOLECULE
guest-s9_confgen4.mol2 : confsearch ligand conformer 145
          20          19           1
SMALL
USER_CHARGES
 
@<TRIPOS>ATOM
       1    C1      22.285883   19.468957   22.717102 C.3        1 MOL1        -0.2224
       2    H1      22.638418   20.315235   22.113278 H          1 MOL1         0.1052
       3    H2      23.045514   19.265353   23.482925 H          1 MOL1         0.1052
       4    H3      22.226283   18.586385   22.067857 H          1 MOL1         0.1052
       5    C2      20.923337   19.785347   23.375536 C.3        1 MOL1        -0.1209
       6    H4      21.053651   20.614689   24.084912 H          1 MOL1         0.1041
       7    H5      20.593063   18.925223   23.973630 H          1 MOL1         0.1041
       8    C3      19.829042   20.174022   22.350134 C.3        1 MOL1        -0.1274
       9    H6      18.898531   20.412124   22.882299 H          1 MOL1         0.1041
      10    H7      20.129558   21.095169   21.833467 H          1 MOL1         0.1041
      11    C4      19.544823   19.086690   21.292828 C.3        1 MOL1         0.0313
      12    H8      20.455549   18.876750   20.726906 H          1 MOL1         0.1015
      13    H9      18.787890   19.450600   20.593427 H          1 MOL1         0.1015
      14    N1      19.043043   17.778504   21.873752 N.4        1 MOL1        -0.4809
      15    H10     18.181534   17.938361   22.417945 H          1 MOL1         0.3726
      16    H11     19.729007   17.405669   22.546758 H          1 MOL1         0.3726
      17    C5      18.791770   16.775375   20.756112 C.3        1 MOL1        -0.0677
      18    H12     19.724031   16.597629   20.215691 H          1 MOL1         0.1026
      19    H13     18.432477   15.838917   21.188459 H          1 MOL1         0.1026
      20    H14     18.040069   17.177964   20.073740 H          1 MOL1         0.1026
@<TRIPOS>BOND
    1     1     2    1
    2     1     3    1
    3     1     4    1
    4     1     5    1
    5     5     6    1
    6     5     7    1
    7     5     8    1
    8     8     9    1
    9     8    10    1
   10     8    11    1
   11    11    12    1
   12    11    13    1
   13    11    14    1
   14    14    15    1
   15    14    16    1
   16    14    17    1
   17    17    18    1
   18    17    19    1
   19    17    20    1
@<TRIPOS>SUBSTRUCTURE
       1 MOL1            1 RESIDUE      1      MOL     
@<SCITEGIC>MOL_PROPERTY
VConf Rank
SciTegic.value.IntegerValue
145

@<SCITEGIC>MOL_PROPERTY
Conf_Id
SciTegic.value.IntegerValue
24

@<SCITEGIC>MOL_PROPERTY
Delta U+W
SciTegic.value.DoubleValue
0.792

@<SCITEGIC>MOL_PROPERTY
U+W
SciTegic.value.DoubleValue
16.130

@<SCITEGIC>MOL_PROPERTY
Grad RMS
SciTegic.value.DoubleValue
0.000000

@<SCITEGIC>MOL_PROPERTY
U
SciTegic.value.DoubleValue
70.374

@<SCITEGIC>MOL_PROPERTY
W
SciTegic.value.DoubleValue
-54.243

@<SCITEGIC>MOL_PROPERTY
W(PB)
SciTegic.value.DoubleValue
-56.130

@<SCITEGIC>MOL_PROPERTY
W(SA)
SciTegic.value.DoubleValue
1.887

@<SCITEGIC>MOL_PROPERTY
Valence
SciTegic.value.DoubleValue
1.257

@<SCITEGIC>MOL_PROPERTY
Coulomb
SciTegic.value.DoubleValue
69.240

@<SCITEGIC>MOL_PROPERTY
VdW
SciTegic.value.DoubleValue
-0.123

@<SCITEGIC>MOL_PROPERTY
VdW6
SciTegic.value.DoubleValue
-4.336

@<SCITEGIC>MOL_PROPERTY
VdW12
SciTegic.value.DoubleValue
4.213

@<SCITEGIC>MOL_PROPERTY
Bond
SciTegic.value.DoubleValue
0.128

@<SCITEGIC>MOL_PROPERTY
Angle
SciTegic.value.DoubleValue
0.603

@<SCITEGIC>MOL_PROPERTY
Pdih
SciTegic.value.DoubleValue
0.526

@<SCITEGIC>MOL_PROPERTY
Idih
SciTegic.value.DoubleValue
0.000

@<SCITEGIC>MOL_PROPERTY
Tether
SciTegic.value.DoubleValue
0.000

@<TRIPOS>MOLECULE
guest-s9_confgen4.mol2 : confsearch ligand conformer 146
          20          19           1
SMALL
USER_CHARGES
 
@<TRIPOS>ATOM
       1    C1      18.246412   19.949353   22.679497 C.3        1 MOL1        -0.2224
       2    H1      17.394212   20.325820   23.260228 H          1 MOL1         0.1052
       3    H2      19.130066   20.019006   23.324751 H          1 MOL1         0.1052
       4    H3      18.381255   20.616014   21.817787 H          1 MOL1         0.1052
       5    C2      17.985333   18.493918   22.228933 C.3        1 MOL1        -0.1209
       6    H4      16.986944   18.442123   21.772202 H          1 MOL1         0.1041
       7    H5      17.949745   17.839041   23.110961 H          1 MOL1         0.1041
       8    C3      19.016714   17.941858   21.211917 C.3        1 MOL1        -0.1274
       9    H6      18.692745   16.935672   20.914507 H          1 MOL1         0.1041
      10    H7      19.008420   18.544298   20.293928 H          1 MOL1         0.1041
      11    C4      20.455966   17.831377   21.758388 C.3        1 MOL1         0.0313
      12    H8      21.015037   17.115844   21.150115 H          1 MOL1         0.1015
      13    H9      20.433429   17.458367   22.785345 H          1 MOL1         0.1015
      14    N1      21.234925   19.132822   21.736869 N.4        1 MOL1        -0.4809
      15    H10     20.721092   19.859679   22.254820 H          1 MOL1         0.3726
      16    H11     21.309357   19.485436   20.770364 H          1 MOL1         0.3726
      17    C5      22.618271   18.922234   22.337216 C.3        1 MOL1        -0.0677
      18    H12     22.514509   18.580819   23.369417 H          1 MOL1         0.1026
      19    H13     23.153812   18.171642   21.751919 H          1 MOL1         0.1026
      20    H14     23.166847   19.866448   22.314976 H          1 MOL1         0.1026
@<TRIPOS>BOND
    1     1     2    1
    2     1     3    1
    3     1     4    1
    4     1     5    1
    5     5     6    1
    6     5     7    1
    7     5     8    1
    8     8     9    1
    9     8    10    1
   10     8    11    1
   11    11    12    1
   12    11    13    1
   13    11    14    1
   14    14    15    1
   15    14    16    1
   16    14    17    1
   17    17    18    1
   18    17    19    1
   19    17    20    1
@<TRIPOS>SUBSTRUCTURE
       1 MOL1            1 RESIDUE      1      MOL     
@<SCITEGIC>MOL_PROPERTY
VConf Rank
SciTegic.value.IntegerValue
146

@<SCITEGIC>MOL_PROPERTY
Conf_Id
SciTegic.value.IntegerValue
26

@<SCITEGIC>MOL_PROPERTY
Delta U+W
SciTegic.value.DoubleValue
2.888

@<SCITEGIC>MOL_PROPERTY
U+W
SciTegic.value.DoubleValue
18.226

@<SCITEGIC>MOL_PROPERTY
Grad RMS
SciTegic.value.DoubleValue
0.000000

@<SCITEGIC>MOL_PROPERTY
U
SciTegic.value.DoubleValue
72.042

@<SCITEGIC>MOL_PROPERTY
W
SciTegic.value.DoubleValue
-53.816

@<SCITEGIC>MOL_PROPERTY
W(PB)
SciTegic.value.DoubleValue
-55.689

@<SCITEGIC>MOL_PROPERTY
W(SA)
SciTegic.value.DoubleValue
1.873

@<SCITEGIC>MOL_PROPERTY
Valence
SciTegic.value.DoubleValue
2.428

@<SCITEGIC>MOL_PROPERTY
Coulomb
SciTegic.value.DoubleValue
69.829

@<SCITEGIC>MOL_PROPERTY
VdW
SciTegic.value.DoubleValue
-0.215

@<SCITEGIC>MOL_PROPERTY
VdW6
SciTegic.value.DoubleValue
-4.563

@<SCITEGIC>MOL_PROPERTY
VdW12
SciTegic.value.DoubleValue
4.348

@<SCITEGIC>MOL_PROPERTY
Bond
SciTegic.value.DoubleValue
0.137

@<SCITEGIC>MOL_PROPERTY
Angle
SciTegic.value.DoubleValue
0.936

@<SCITEGIC>MOL_PROPERTY
Pdih
SciTegic.value.DoubleValue
1.356

@<SCITEGIC>MOL_PROPERTY
Idih
SciTegic.value.DoubleValue
0.000

@<SCITEGIC>MOL_PROPERTY
Tether
SciTegic.value.DoubleValue
0.000

@<TRIPOS>MOLECULE
guest-s9_confgen4.mol2 : confsearch ligand conformer 147
          20          19           1
SMALL
USER_CHARGES
 
@<TRIPOS>ATOM
       1    C1      20.146711   20.156713   23.825290 C.3        1 MOL1        -0.2224
       2    H1      20.308287   20.511492   24.851566 H          1 MOL1         0.1052
       3    H2      19.623935   20.951729   23.277732 H          1 MOL1         0.1052
       4    H3      19.492633   19.279087   23.888570 H          1 MOL1         0.1052
       5    C2      21.498458   19.810939   23.159946 C.3        1 MOL1        -0.1209
       6    H4      21.949733   18.950907   23.674534 H          1 MOL1         0.1041
       7    H5      22.189341   20.652133   23.312058 H          1 MOL1         0.1041
       8    C3      21.410139   19.520416   21.639869 C.3        1 MOL1        -0.1274
       9    H6      21.030479   20.400404   21.103974 H          1 MOL1         0.1041
      10    H7      22.430156   19.357933   21.267064 H          1 MOL1         0.1041
      11    C4      20.571325   18.277164   21.275179 C.3        1 MOL1         0.0313
      12    H8      20.777765   17.471478   21.984077 H          1 MOL1         0.1015
      13    H9      20.857705   17.932984   20.278148 H          1 MOL1         0.1015
      14    N1      19.074163   18.519313   21.245639 N.4        1 MOL1        -0.4809
      15    H10     18.846409   19.246862   20.550797 H          1 MOL1         0.3726
      16    H11     18.760371   18.897213   22.150817 H          1 MOL1         0.3726
      17    C5      18.342906   17.223510   20.922268 C.3        1 MOL1        -0.0677
      18    H12     18.573089   16.479583   21.688007 H          1 MOL1         0.1026
      19    H13     17.267392   17.413036   20.904385 H          1 MOL1         0.1026
      20    H14     18.668947   16.860855   19.945055 H          1 MOL1         0.1026
@<TRIPOS>BOND
    1     1     2    1
    2     1     3    1
    3     1     4    1
    4     1     5    1
    5     5     6    1
    6     5     7    1
    7     5     8    1
    8     8     9    1
    9     8    10    1
   10     8    11    1
   11    11    12    1
   12    11    13    1
   13    11    14    1
   14    14    15    1
   15    14    16    1
   16    14    17    1
   17    17    18    1
   18    17    19    1
   19    17    20    1
@<TRIPOS>SUBSTRUCTURE
       1 MOL1            1 RESIDUE      1      MOL     
@<SCITEGIC>MOL_PROPERTY
VConf Rank
SciTegic.value.IntegerValue
147

@<SCITEGIC>MOL_PROPERTY
Conf_Id
SciTegic.value.IntegerValue
5

@<SCITEGIC>MOL_PROPERTY
Delta U+W
SciTegic.value.DoubleValue
2.950

@<SCITEGIC>MOL_PROPERTY
U+W
SciTegic.value.DoubleValue
18.289

@<SCITEGIC>MOL_PROPERTY
Grad RMS
SciTegic.value.DoubleValue
0.000000

@<SCITEGIC>MOL_PROPERTY
U
SciTegic.value.DoubleValue
72.042

@<SCITEGIC>MOL_PROPERTY
W
SciTegic.value.DoubleValue
-53.753

@<SCITEGIC>MOL_PROPERTY
W(PB)
SciTegic.value.DoubleValue
-55.644

@<SCITEGIC>MOL_PROPERTY
W(SA)
SciTegic.value.DoubleValue
1.891

@<SCITEGIC>MOL_PROPERTY
Valence
SciTegic.value.DoubleValue
2.428

@<SCITEGIC>MOL_PROPERTY
Coulomb
SciTegic.value.DoubleValue
69.829

@<SCITEGIC>MOL_PROPERTY
VdW
SciTegic.value.DoubleValue
-0.215

@<SCITEGIC>MOL_PROPERTY
VdW6
SciTegic.value.DoubleValue
-4.563

@<SCITEGIC>MOL_PROPERTY
VdW12
SciTegic.value.DoubleValue
4.348

@<SCITEGIC>MOL_PROPERTY
Bond
SciTegic.value.DoubleValue
0.137

@<SCITEGIC>MOL_PROPERTY
Angle
SciTegic.value.DoubleValue
0.936

@<SCITEGIC>MOL_PROPERTY
Pdih
SciTegic.value.DoubleValue
1.356

@<SCITEGIC>MOL_PROPERTY
Idih
SciTegic.value.DoubleValue
0.000

@<SCITEGIC>MOL_PROPERTY
Tether
SciTegic.value.DoubleValue
0.000

@<TRIPOS>MOLECULE
guest-s9_confgen4.mol2 : confsearch ligand conformer 148
          20          19           1
SMALL
USER_CHARGES
 
@<TRIPOS>ATOM
       1    C1      20.529130   20.941682   23.196343 C.3        1 MOL1        -0.2224
       2    H1      19.753505   21.702508   23.039474 H          1 MOL1         0.1052
       3    H2      20.158126   20.222730   23.937450 H          1 MOL1         0.1052
       4    H3      21.404896   21.441679   23.629937 H          1 MOL1         0.1052
       5    C2      20.903884   20.248092   21.866443 C.3        1 MOL1        -0.1209
       6    H4      21.682871   19.495002   22.047542 H          1 MOL1         0.1041
       7    H5      21.351570   20.990119   21.190524 H          1 MOL1         0.1041
       8    C3      19.689983   19.596859   21.158179 C.3        1 MOL1        -0.1274
       9    H6      18.962476   20.377153   20.898545 H          1 MOL1         0.1041
      10    H7      20.015642   19.159611   20.205546 H          1 MOL1         0.1041
      11    C4      18.973587   18.518277   22.002554 C.3        1 MOL1         0.0313
      12    H8      18.134785   18.107494   21.435027 H          1 MOL1         0.1015
      13    H9      18.569770   18.983468   22.905111 H          1 MOL1         0.1015
      14    N1      19.847883   17.354222   22.442904 N.4        1 MOL1        -0.4809
      15    H10     19.327540   16.763889   23.110591 H          1 MOL1         0.3726
      16    H11     20.660355   17.703812   22.971847 H          1 MOL1         0.3726
      17    C5      20.296969   16.517139   21.250329 C.3        1 MOL1        -0.0677
      18    H12     20.898617   17.134899   20.580716 H          1 MOL1         0.1026
      19    H13     20.894132   15.675595   21.608249 H          1 MOL1         0.1026
      20    H14     19.417262   16.145203   20.720788 H          1 MOL1         0.1026
@<TRIPOS>BOND
    1     1     2    1
    2     1     3    1
    3     1     4    1
    4     1     5    1
    5     5     6    1
    6     5     7    1
    7     5     8    1
    8     8     9    1
    9     8    10    1
   10     8    11    1
   11    11    12    1
   12    11    13    1
   13    11    14    1
   14    14    15    1
   15    14    16    1
   16    14    17    1
   17    17    18    1
   18    17    19    1
   19    17    20    1
@<TRIPOS>SUBSTRUCTURE
       1 MOL1            1 RESIDUE      1      MOL     
@<SCITEGIC>MOL_PROPERTY
VConf Rank
SciTegic.value.IntegerValue
148

@<SCITEGIC>MOL_PROPERTY
Conf_Id
SciTegic.value.IntegerValue
52

@<SCITEGIC>MOL_PROPERTY
Delta U+W
SciTegic.value.DoubleValue
0.784

@<SCITEGIC>MOL_PROPERTY
U+W
SciTegic.value.DoubleValue
16.122

@<SCITEGIC>MOL_PROPERTY
Grad RMS
SciTegic.value.DoubleValue
0.000000

@<SCITEGIC>MOL_PROPERTY
U
SciTegic.value.DoubleValue
70.777

@<SCITEGIC>MOL_PROPERTY
W
SciTegic.value.DoubleValue
-54.655

@<SCITEGIC>MOL_PROPERTY
W(PB)
SciTegic.value.DoubleValue
-56.491

@<SCITEGIC>MOL_PROPERTY
W(SA)
SciTegic.value.DoubleValue
1.836

@<SCITEGIC>MOL_PROPERTY
Valence
SciTegic.value.DoubleValue
1.529

@<SCITEGIC>MOL_PROPERTY
Coulomb
SciTegic.value.DoubleValue
69.166

@<SCITEGIC>MOL_PROPERTY
VdW
SciTegic.value.DoubleValue
0.082

@<SCITEGIC>MOL_PROPERTY
VdW6
SciTegic.value.DoubleValue
-5.166

@<SCITEGIC>MOL_PROPERTY
VdW12
SciTegic.value.DoubleValue
5.248

@<SCITEGIC>MOL_PROPERTY
Bond
SciTegic.value.DoubleValue
0.171

@<SCITEGIC>MOL_PROPERTY
Angle
SciTegic.value.DoubleValue
0.752

@<SCITEGIC>MOL_PROPERTY
Pdih
SciTegic.value.DoubleValue
0.605

@<SCITEGIC>MOL_PROPERTY
Idih
SciTegic.value.DoubleValue
0.000

@<SCITEGIC>MOL_PROPERTY
Tether
SciTegic.value.DoubleValue
0.000

@<TRIPOS>MOLECULE
guest-s9_confgen4.mol2 : confsearch ligand conformer 149
          20          19           1
SMALL
USER_CHARGES
 
@<TRIPOS>ATOM
       1    C1      19.167764   18.643015   20.133987 C.3        1 MOL1        -0.2224
       2    H1      18.671869   18.335767   19.204011 H          1 MOL1         0.1052
       3    H2      18.438918   19.226814   20.707672 H          1 MOL1         0.1052
       4    H3      20.009544   19.293574   19.862898 H          1 MOL1         0.1052
       5    C2      19.647535   17.401494   20.919996 C.3        1 MOL1        -0.1209
       6    H4      20.182702   16.736091   20.227998 H          1 MOL1         0.1041
       7    H5      18.776870   16.832554   21.275338 H          1 MOL1         0.1041
       8    C3      20.586409   17.719793   22.111644 C.3        1 MOL1        -0.1274
       9    H6      20.933886   16.765869   22.529824 H          1 MOL1         0.1041
      10    H7      21.488373   18.234464   21.757416 H          1 MOL1         0.1041
      11    C4      19.922730   18.517654   23.258161 C.3        1 MOL1         0.0313
      12    H8      20.521440   18.408215   24.165900 H          1 MOL1         0.1015
      13    H9      18.933843   18.097761   23.458809 H          1 MOL1         0.1015
      14    N1      19.755756   20.009414   23.014679 N.4        1 MOL1        -0.4809
      15    H10     19.141606   20.411219   23.740302 H          1 MOL1         0.3726
      16    H11     19.263380   20.169016   22.124772 H          1 MOL1         0.3726
      17    C5      21.102014   20.725130   23.022723 C.3        1 MOL1        -0.0677
      18    H12     21.595093   20.552082   23.981665 H          1 MOL1         0.1026
      19    H13     21.723255   20.339607   22.212138 H          1 MOL1         0.1026
      20    H14     20.938731   21.795758   22.881281 H          1 MOL1         0.1026
@<TRIPOS>BOND
    1     1     2    1
    2     1     3    1
    3     1     4    1
    4     1     5    1
    5     5     6    1
    6     5     7    1
    7     5     8    1
    8     8     9    1
    9     8    10    1
   10     8    11    1
   11    11    12    1
   12    11    13    1
   13    11    14    1
   14    14    15    1
   15    14    16    1
   16    14    17    1
   17    17    18    1
   18    17    19    1
   19    17    20    1
@<TRIPOS>SUBSTRUCTURE
       1 MOL1            1 RESIDUE      1      MOL     
@<SCITEGIC>MOL_PROPERTY
VConf Rank
SciTegic.value.IntegerValue
149

@<SCITEGIC>MOL_PROPERTY
Conf_Id
SciTegic.value.IntegerValue
55

@<SCITEGIC>MOL_PROPERTY
Delta U+W
SciTegic.value.DoubleValue
2.745

@<SCITEGIC>MOL_PROPERTY
U+W
SciTegic.value.DoubleValue
18.083

@<SCITEGIC>MOL_PROPERTY
Grad RMS
SciTegic.value.DoubleValue
0.000000

@<SCITEGIC>MOL_PROPERTY
U
SciTegic.value.DoubleValue
72.490

@<SCITEGIC>MOL_PROPERTY
W
SciTegic.value.DoubleValue
-54.407

@<SCITEGIC>MOL_PROPERTY
W(PB)
SciTegic.value.DoubleValue
-56.269

@<SCITEGIC>MOL_PROPERTY
W(SA)
SciTegic.value.DoubleValue
1.861

@<SCITEGIC>MOL_PROPERTY
Valence
SciTegic.value.DoubleValue
2.738

@<SCITEGIC>MOL_PROPERTY
Coulomb
SciTegic.value.DoubleValue
69.795

@<SCITEGIC>MOL_PROPERTY
VdW
SciTegic.value.DoubleValue
-0.043

@<SCITEGIC>MOL_PROPERTY
VdW6
SciTegic.value.DoubleValue
-5.333

@<SCITEGIC>MOL_PROPERTY
VdW12
SciTegic.value.DoubleValue
5.290

@<SCITEGIC>MOL_PROPERTY
Bond
SciTegic.value.DoubleValue
0.182

@<SCITEGIC>MOL_PROPERTY
Angle
SciTegic.value.DoubleValue
1.135

@<SCITEGIC>MOL_PROPERTY
Pdih
SciTegic.value.DoubleValue
1.422

@<SCITEGIC>MOL_PROPERTY
Idih
SciTegic.value.DoubleValue
0.000

@<SCITEGIC>MOL_PROPERTY
Tether
SciTegic.value.DoubleValue
0.000

@<TRIPOS>MOLECULE
guest-s9_confgen4.mol2 : confsearch ligand conformer 150
          20          19           1
SMALL
USER_CHARGES
 
@<TRIPOS>ATOM
       1    C1      20.599336   17.771852   23.727964 C.3        1 MOL1        -0.2224
       2    H1      21.089737   17.195979   24.523605 H          1 MOL1         0.1052
       3    H2      19.980485   18.541528   24.207473 H          1 MOL1         0.1052
       4    H3      19.946022   17.078016   23.186738 H          1 MOL1         0.1052
       5    C2      21.657339   18.402765   22.794182 C.3        1 MOL1        -0.1209
       6    H4      22.181394   17.609009   22.243422 H          1 MOL1         0.1041
       7    H5      22.419520   18.895902   23.413795 H          1 MOL1         0.1041
       8    C3      21.092367   19.446321   21.796870 C.3        1 MOL1        -0.1274
       9    H6      20.620103   20.274164   22.340510 H          1 MOL1         0.1041
      10    H7      21.940239   19.890106   21.258582 H          1 MOL1         0.1041
      11    C4      20.121200   18.867598   20.741661 C.3        1 MOL1         0.0313
      12    H8      20.531824   17.931636   20.354580 H          1 MOL1         0.1015
      13    H9      20.040405   19.566788   19.905582 H          1 MOL1         0.1015
      14    N1      18.706612   18.591437   21.226620 N.4        1 MOL1        -0.4809
      15    H10     18.731096   17.996843   22.066678 H          1 MOL1         0.3726
      16    H11     18.200168   18.038369   20.517543 H          1 MOL1         0.3726
      17    C5      17.954329   19.888136   21.504758 C.3        1 MOL1        -0.0677
      18    H12     18.460134   20.438040   22.300613 H          1 MOL1         0.1026
      19    H13     17.930349   20.491737   20.594961 H          1 MOL1         0.1026
      20    H14     16.934493   19.650426   21.815145 H          1 MOL1         0.1026
@<TRIPOS>BOND
    1     1     2    1
    2     1     3    1
    3     1     4    1
    4     1     5    1
    5     5     6    1
    6     5     7    1
    7     5     8    1
    8     8     9    1
    9     8    10    1
   10     8    11    1
   11    11    12    1
   12    11    13    1
   13    11    14    1
   14    14    15    1
   15    14    16    1
   16    14    17    1
   17    17    18    1
   18    17    19    1
   19    17    20    1
@<TRIPOS>SUBSTRUCTURE
       1 MOL1            1 RESIDUE      1      MOL     
@<SCITEGIC>MOL_PROPERTY
VConf Rank
SciTegic.value.IntegerValue
150

@<SCITEGIC>MOL_PROPERTY
Conf_Id
SciTegic.value.IntegerValue
76

@<SCITEGIC>MOL_PROPERTY
Delta U+W
SciTegic.value.DoubleValue
2.799

@<SCITEGIC>MOL_PROPERTY
U+W
SciTegic.value.DoubleValue
18.137

@<SCITEGIC>MOL_PROPERTY
Grad RMS
SciTegic.value.DoubleValue
0.000000

@<SCITEGIC>MOL_PROPERTY
U
SciTegic.value.DoubleValue
72.490

@<SCITEGIC>MOL_PROPERTY
W
SciTegic.value.DoubleValue
-54.353

@<SCITEGIC>MOL_PROPERTY
W(PB)
SciTegic.value.DoubleValue
-56.201

@<SCITEGIC>MOL_PROPERTY
W(SA)
SciTegic.value.DoubleValue
1.848

@<SCITEGIC>MOL_PROPERTY
Valence
SciTegic.value.DoubleValue
2.738

@<SCITEGIC>MOL_PROPERTY
Coulomb
SciTegic.value.DoubleValue
69.795

@<SCITEGIC>MOL_PROPERTY
VdW
SciTegic.value.DoubleValue
-0.043

@<SCITEGIC>MOL_PROPERTY
VdW6
SciTegic.value.DoubleValue
-5.334

@<SCITEGIC>MOL_PROPERTY
VdW12
SciTegic.value.DoubleValue
5.290

@<SCITEGIC>MOL_PROPERTY
Bond
SciTegic.value.DoubleValue
0.182

@<SCITEGIC>MOL_PROPERTY
Angle
SciTegic.value.DoubleValue
1.135

@<SCITEGIC>MOL_PROPERTY
Pdih
SciTegic.value.DoubleValue
1.421

@<SCITEGIC>MOL_PROPERTY
Idih
SciTegic.value.DoubleValue
0.000

@<SCITEGIC>MOL_PROPERTY
Tether
SciTegic.value.DoubleValue
0.000

@<TRIPOS>MOLECULE
guest-s9_confgen4.mol2 : confsearch ligand conformer 151
          20          19           1
SMALL
USER_CHARGES
 
@<TRIPOS>ATOM
       1    C1      21.767793   19.737488   21.152954 C.3        1 MOL1        -0.2224
       2    H1      21.458011   18.829453   20.621392 H          1 MOL1         0.1052
       3    H2      21.545817   20.600333   20.511724 H          1 MOL1         0.1052
       4    H3      22.856527   19.689737   21.284189 H          1 MOL1         0.1052
       5    C2      21.061514   19.867819   22.522168 C.3        1 MOL1        -0.1209
       6    H4      21.458442   20.750701   23.042554 H          1 MOL1         0.1041
       7    H5      21.311303   19.009663   23.159298 H          1 MOL1         0.1041
       8    C3      19.524769   20.013703   22.401431 C.3        1 MOL1        -0.1274
       9    H6      19.092493   20.144913   23.402095 H          1 MOL1         0.1041
      10    H7      19.302215   20.939303   21.854274 H          1 MOL1         0.1041
      11    C4      18.802684   18.846367   21.688269 C.3        1 MOL1         0.0313
      12    H8      19.220633   18.687823   20.691400 H          1 MOL1         0.1015
      13    H9      17.753958   19.128458   21.564722 H          1 MOL1         0.1015
      14    N1      18.807948   17.518210   22.430506 N.4        1 MOL1        -0.4809
      15    H10     17.942779   17.001814   22.207752 H          1 MOL1         0.3726
      16    H11     18.765126   17.675571   23.448370 H          1 MOL1         0.3726
      17    C5      20.012193   16.663620   22.050088 C.3        1 MOL1        -0.0677
      18    H12     19.956783   15.711782   22.582873 H          1 MOL1         0.1026
      19    H13     19.996409   16.482115   20.973335 H          1 MOL1         0.1026
      20    H14     20.932576   17.181221   22.322124 H          1 MOL1         0.1026
@<TRIPOS>BOND
    1     1     2    1
    2     1     3    1
    3     1     4    1
    4     1     5    1
    5     5     6    1
    6     5     7    1
    7     5     8    1
    8     8     9    1
    9     8    10    1
   10     8    11    1
   11    11    12    1
   12    11    13    1
   13    11    14    1
   14    14    15    1
   15    14    16    1
   16    14    17    1
   17    17    18    1
   18    17    19    1
   19    17    20    1
@<TRIPOS>SUBSTRUCTURE
       1 MOL1            1 RESIDUE      1      MOL     
@<SCITEGIC>MOL_PROPERTY
VConf Rank
SciTegic.value.IntegerValue
151

@<SCITEGIC>MOL_PROPERTY
Conf_Id
SciTegic.value.IntegerValue
60

@<SCITEGIC>MOL_PROPERTY
Delta U+W
SciTegic.value.DoubleValue
1.788

@<SCITEGIC>MOL_PROPERTY
U+W
SciTegic.value.DoubleValue
17.127

@<SCITEGIC>MOL_PROPERTY
Grad RMS
SciTegic.value.DoubleValue
0.000000

@<SCITEGIC>MOL_PROPERTY
U
SciTegic.value.DoubleValue
72.122

@<SCITEGIC>MOL_PROPERTY
W
SciTegic.value.DoubleValue
-54.995

@<SCITEGIC>MOL_PROPERTY
W(PB)
SciTegic.value.DoubleValue
-56.810

@<SCITEGIC>MOL_PROPERTY
W(SA)
SciTegic.value.DoubleValue
1.815

@<SCITEGIC>MOL_PROPERTY
Valence
SciTegic.value.DoubleValue
3.197

@<SCITEGIC>MOL_PROPERTY
Coulomb
SciTegic.value.DoubleValue
69.115

@<SCITEGIC>MOL_PROPERTY
VdW
SciTegic.value.DoubleValue
-0.190

@<SCITEGIC>MOL_PROPERTY
VdW6
SciTegic.value.DoubleValue
-5.585

@<SCITEGIC>MOL_PROPERTY
VdW12
SciTegic.value.DoubleValue
5.395

@<SCITEGIC>MOL_PROPERTY
Bond
SciTegic.value.DoubleValue
0.177

@<SCITEGIC>MOL_PROPERTY
Angle
SciTegic.value.DoubleValue
1.207

@<SCITEGIC>MOL_PROPERTY
Pdih
SciTegic.value.DoubleValue
1.813

@<SCITEGIC>MOL_PROPERTY
Idih
SciTegic.value.DoubleValue
0.000

@<SCITEGIC>MOL_PROPERTY
Tether
SciTegic.value.DoubleValue
0.000

@<TRIPOS>MOLECULE
guest-s9_confgen4.mol2 : confsearch ligand conformer 152
          20          19           1
SMALL
USER_CHARGES
 
@<TRIPOS>ATOM
       1    C1      21.100134   20.612973   22.591888 C.3        1 MOL1        -0.2224
       2    H1      21.400118   21.066927   23.545187 H          1 MOL1         0.1052
       3    H2      21.512079   21.230462   21.783210 H          1 MOL1         0.1052
       4    H3      20.005904   20.659696   22.532488 H          1 MOL1         0.1052
       5    C2      21.616525   19.158688   22.497251 C.3        1 MOL1        -0.1209
       6    H4      21.214096   18.560301   23.324745 H          1 MOL1         0.1041
       7    H5      22.707006   19.160705   22.633929 H          1 MOL1         0.1041
       8    C3      21.288724   18.484741   21.142338 C.3        1 MOL1        -0.1274
       9    H6      21.795255   19.040755   20.342388 H          1 MOL1         0.1041
      10    H7      21.719119   17.474852   21.125292 H          1 MOL1         0.1041
      11    C4      19.784511   18.398822   20.792143 C.3        1 MOL1         0.0313
      12    H8      19.700868   18.017263   19.771318 H          1 MOL1         0.1015
      13    H9      19.328388   19.391374   20.811065 H          1 MOL1         0.1015
      14    N1      18.957081   17.470769   21.669082 N.4        1 MOL1        -0.4809
      15    H10     19.519335   16.658099   21.962484 H          1 MOL1         0.3726
      16    H11     18.188753   17.070268   21.108661 H          1 MOL1         0.3726
      17    C5      18.370060   18.203786   22.870471 C.3        1 MOL1        -0.0677
      18    H12     17.746308   19.027655   22.517254 H          1 MOL1         0.1026
      19    H13     17.761958   17.506879   23.451384 H          1 MOL1         0.1026
      20    H14     19.175059   18.593492   23.494272 H          1 MOL1         0.1026
@<TRIPOS>BOND
    1     1     2    1
    2     1     3    1
    3     1     4    1
    4     1     5    1
    5     5     6    1
    6     5     7    1
    7     5     8    1
    8     8     9    1
    9     8    10    1
   10     8    11    1
   11    11    12    1
   12    11    13    1
   13    11    14    1
   14    14    15    1
   15    14    16    1
   16    14    17    1
   17    17    18    1
   18    17    19    1
   19    17    20    1
@<TRIPOS>SUBSTRUCTURE
       1 MOL1            1 RESIDUE      1      MOL     
@<SCITEGIC>MOL_PROPERTY
VConf Rank
SciTegic.value.IntegerValue
152

@<SCITEGIC>MOL_PROPERTY
Conf_Id
SciTegic.value.IntegerValue
54

@<SCITEGIC>MOL_PROPERTY
Delta U+W
SciTegic.value.DoubleValue
1.880

@<SCITEGIC>MOL_PROPERTY
U+W
SciTegic.value.DoubleValue
17.218

@<SCITEGIC>MOL_PROPERTY
Grad RMS
SciTegic.value.DoubleValue
0.000000

@<SCITEGIC>MOL_PROPERTY
U
SciTegic.value.DoubleValue
72.122

@<SCITEGIC>MOL_PROPERTY
W
SciTegic.value.DoubleValue
-54.903

@<SCITEGIC>MOL_PROPERTY
W(PB)
SciTegic.value.DoubleValue
-56.724

@<SCITEGIC>MOL_PROPERTY
W(SA)
SciTegic.value.DoubleValue
1.821

@<SCITEGIC>MOL_PROPERTY
Valence
SciTegic.value.DoubleValue
3.197

@<SCITEGIC>MOL_PROPERTY
Coulomb
SciTegic.value.DoubleValue
69.115

@<SCITEGIC>MOL_PROPERTY
VdW
SciTegic.value.DoubleValue
-0.190

@<SCITEGIC>MOL_PROPERTY
VdW6
SciTegic.value.DoubleValue
-5.585

@<SCITEGIC>MOL_PROPERTY
VdW12
SciTegic.value.DoubleValue
5.395

@<SCITEGIC>MOL_PROPERTY
Bond
SciTegic.value.DoubleValue
0.177

@<SCITEGIC>MOL_PROPERTY
Angle
SciTegic.value.DoubleValue
1.207

@<SCITEGIC>MOL_PROPERTY
Pdih
SciTegic.value.DoubleValue
1.813

@<SCITEGIC>MOL_PROPERTY
Idih
SciTegic.value.DoubleValue
0.000

@<SCITEGIC>MOL_PROPERTY
Tether
SciTegic.value.DoubleValue
0.000

@<TRIPOS>MOLECULE
guest-s9_confgen4.mol2 : confsearch ligand conformer 153
          20          19           1
SMALL
USER_CHARGES
 
@<TRIPOS>ATOM
       1    C1      22.885997   17.318723   21.922803 C.3        1 MOL1        -0.2224
       2    H1      23.158685   17.598743   20.896934 H          1 MOL1         0.1052
       3    H2      23.802898   17.319765   22.526390 H          1 MOL1         0.1052
       4    H3      22.496795   16.292386   21.904658 H          1 MOL1         0.1052
       5    C2      21.845829   18.297877   22.508925 C.3        1 MOL1        -0.1209
       6    H4      22.276367   19.308613   22.546350 H          1 MOL1         0.1041
       7    H5      21.619619   18.012484   23.546100 H          1 MOL1         0.1041
       8    C3      20.543488   18.317387   21.678691 C.3        1 MOL1        -0.1274
       9    H6      20.769841   18.605974   20.643583 H          1 MOL1         0.1041
      10    H7      20.112258   17.308010   21.644586 H          1 MOL1         0.1041
      11    C4      19.511466   19.295874   22.269516 C.3        1 MOL1         0.0313
      12    H8      19.931914   20.304472   22.290565 H          1 MOL1         0.1015
      13    H9      19.272112   19.002251   23.294691 H          1 MOL1         0.1015
      14    N1      18.214582   19.348766   21.485935 N.4        1 MOL1        -0.4809
      15    H10     17.789150   18.410291   21.436649 H          1 MOL1         0.3726
      16    H11     18.400036   19.616025   20.506989 H          1 MOL1         0.3726
      17    C5      17.254637   20.336289   22.135921 C.3        1 MOL1        -0.0677
      18    H12     17.711164   21.328401   22.146119 H          1 MOL1         0.1026
      19    H13     16.325773   20.364435   21.561962 H          1 MOL1         0.1026
      20    H14     17.045706   20.015083   23.158654 H          1 MOL1         0.1026
@<TRIPOS>BOND
    1     1     2    1
    2     1     3    1
    3     1     4    1
    4     1     5    1
    5     5     6    1
    6     5     7    1
    7     5     8    1
    8     8     9    1
    9     8    10    1
   10     8    11    1
   11    11    12    1
   12    11    13    1
   13    11    14    1
   14    14    15    1
   15    14    16    1
   16    14    17    1
   17    17    18    1
   18    17    19    1
   19    17    20    1
@<TRIPOS>SUBSTRUCTURE
       1 MOL1            1 RESIDUE      1      MOL     
@<SCITEGIC>MOL_PROPERTY
VConf Rank
SciTegic.value.IntegerValue
153

@<SCITEGIC>MOL_PROPERTY
Conf_Id
SciTegic.value.IntegerValue
67

@<SCITEGIC>MOL_PROPERTY
Delta U+W
SciTegic.value.DoubleValue
0.000

@<SCITEGIC>MOL_PROPERTY
U+W
SciTegic.value.DoubleValue
15.338

@<SCITEGIC>MOL_PROPERTY
Grad RMS
SciTegic.value.DoubleValue
0.000000

@<SCITEGIC>MOL_PROPERTY
U
SciTegic.value.DoubleValue
69.277

@<SCITEGIC>MOL_PROPERTY
W
SciTegic.value.DoubleValue
-53.939

@<SCITEGIC>MOL_PROPERTY
W(PB)
SciTegic.value.DoubleValue
-55.889

@<SCITEGIC>MOL_PROPERTY
W(SA)
SciTegic.value.DoubleValue
1.950

@<SCITEGIC>MOL_PROPERTY
Valence
SciTegic.value.DoubleValue
0.846

@<SCITEGIC>MOL_PROPERTY
Coulomb
SciTegic.value.DoubleValue
68.557

@<SCITEGIC>MOL_PROPERTY
VdW
SciTegic.value.DoubleValue
-0.127

@<SCITEGIC>MOL_PROPERTY
VdW6
SciTegic.value.DoubleValue
-3.008

@<SCITEGIC>MOL_PROPERTY
VdW12
SciTegic.value.DoubleValue
2.882

@<SCITEGIC>MOL_PROPERTY
Bond
SciTegic.value.DoubleValue
0.088

@<SCITEGIC>MOL_PROPERTY
Angle
SciTegic.value.DoubleValue
0.332

@<SCITEGIC>MOL_PROPERTY
Pdih
SciTegic.value.DoubleValue
0.426

@<SCITEGIC>MOL_PROPERTY
Idih
SciTegic.value.DoubleValue
0.000

@<SCITEGIC>MOL_PROPERTY
Tether
SciTegic.value.DoubleValue
0.000

@<TRIPOS>MOLECULE
guest-s9_confgen4.mol2 : confsearch ligand conformer 154
          20          19           1
SMALL
USER_CHARGES
 
@<TRIPOS>ATOM
       1    C1      22.774764   18.189697   20.840099 C.3        1 MOL1        -0.2224
       2    H1      22.350778   18.199905   19.827527 H          1 MOL1         0.1052
       3    H2      23.806851   18.558073   20.775961 H          1 MOL1         0.1052
       4    H3      22.810538   17.148059   21.184886 H          1 MOL1         0.1052
       5    C2      21.941614   19.065407   21.800966 C.3        1 MOL1        -0.1209
       6    H4      21.953023   20.106623   21.448738 H          1 MOL1         0.1041
       7    H5      22.409842   19.063337   22.795484 H          1 MOL1         0.1041
       8    C3      20.482911   18.569732   21.911342 C.3        1 MOL1        -0.1274
       9    H6      20.019633   18.573445   20.916297 H          1 MOL1         0.1041
      10    H7      20.472113   17.531096   22.267348 H          1 MOL1         0.1041
      11    C4      19.659309   19.449736   22.874279 C.3        1 MOL1         0.0313
      12    H8      19.624472   20.476293   22.500985 H          1 MOL1         0.1015
      13    H9      20.149878   19.461742   23.850945 H          1 MOL1         0.1015
      14    N1      18.229515   18.982110   23.092864 N.4        1 MOL1        -0.4809
      15    H10     17.805066   19.519297   23.865236 H          1 MOL1         0.3726
      16    H11     18.219234   18.002676   23.415942 H          1 MOL1         0.3726
      17    C5      17.392883   19.145465   21.828397 C.3        1 MOL1        -0.0677
      18    H12     17.809634   18.522463   21.034625 H          1 MOL1         0.1026
      19    H13     16.366420   18.835375   22.036220 H          1 MOL1         0.1026
      20    H14     17.405456   20.193617   21.521922 H          1 MOL1         0.1026
@<TRIPOS>BOND
    1     1     2    1
    2     1     3    1
    3     1     4    1
    4     1     5    1
    5     5     6    1
    6     5     7    1
    7     5     8    1
    8     8     9    1
    9     8    10    1
   10     8    11    1
   11    11    12    1
   12    11    13    1
   13    11    14    1
   14    14    15    1
   15    14    16    1
   16    14    17    1
   17    17    18    1
   18    17    19    1
   19    17    20    1
@<TRIPOS>SUBSTRUCTURE
       1 MOL1            1 RESIDUE      1      MOL     
@<SCITEGIC>MOL_PROPERTY
VConf Rank
SciTegic.value.IntegerValue
154

@<SCITEGIC>MOL_PROPERTY
Conf_Id
SciTegic.value.IntegerValue
37

@<SCITEGIC>MOL_PROPERTY
Delta U+W
SciTegic.value.DoubleValue
-0.021

@<SCITEGIC>MOL_PROPERTY
U+W
SciTegic.value.DoubleValue
15.318

@<SCITEGIC>MOL_PROPERTY
Grad RMS
SciTegic.value.DoubleValue
0.000000

@<SCITEGIC>MOL_PROPERTY
U
SciTegic.value.DoubleValue
69.657

@<SCITEGIC>MOL_PROPERTY
W
SciTegic.value.DoubleValue
-54.340

@<SCITEGIC>MOL_PROPERTY
W(PB)
SciTegic.value.DoubleValue
-56.238

@<SCITEGIC>MOL_PROPERTY
W(SA)
SciTegic.value.DoubleValue
1.899

@<SCITEGIC>MOL_PROPERTY
Valence
SciTegic.value.DoubleValue
1.137

@<SCITEGIC>MOL_PROPERTY
Coulomb
SciTegic.value.DoubleValue
68.383

@<SCITEGIC>MOL_PROPERTY
VdW
SciTegic.value.DoubleValue
0.138

@<SCITEGIC>MOL_PROPERTY
VdW6
SciTegic.value.DoubleValue
-3.703

@<SCITEGIC>MOL_PROPERTY
VdW12
SciTegic.value.DoubleValue
3.841

@<SCITEGIC>MOL_PROPERTY
Bond
SciTegic.value.DoubleValue
0.125

@<SCITEGIC>MOL_PROPERTY
Angle
SciTegic.value.DoubleValue
0.468

@<SCITEGIC>MOL_PROPERTY
Pdih
SciTegic.value.DoubleValue
0.543

@<SCITEGIC>MOL_PROPERTY
Idih
SciTegic.value.DoubleValue
0.000

@<SCITEGIC>MOL_PROPERTY
Tether
SciTegic.value.DoubleValue
0.000

@<TRIPOS>MOLECULE
guest-s9_confgen4.mol2 : confsearch ligand conformer 155
          20          19           1
SMALL
USER_CHARGES
 
@<TRIPOS>ATOM
       1    C1      22.414032   19.635122   20.425084 C.3        1 MOL1        -0.2224
       2    H1      23.056419   19.325157   19.590650 H          1 MOL1         0.1052
       3    H2      21.906662   20.563399   20.131747 H          1 MOL1         0.1052
       4    H3      23.061583   19.856425   21.283497 H          1 MOL1         0.1052
       5    C2      21.393837   18.528133   20.768663 C.3        1 MOL1        -0.1209
       6    H4      21.930609   17.603375   21.023630 H          1 MOL1         0.1041
       7    H5      20.784354   18.305104   19.881468 H          1 MOL1         0.1041
       8    C3      20.475316   18.937028   21.941186 C.3        1 MOL1        -0.1274
       9    H6      21.084472   19.155484   22.828219 H          1 MOL1         0.1041
      10    H7      19.941642   19.860533   21.682175 H          1 MOL1         0.1041
      11    C4      19.461003   17.824465   22.277851 C.3        1 MOL1         0.0313
      12    H8      20.005916   16.903954   22.502366 H          1 MOL1         0.1015
      13    H9      18.818175   17.634634   21.414648 H          1 MOL1         0.1015
      14    N1      18.567268   18.122539   23.470808 N.4        1 MOL1        -0.4809
      15    H10     19.139692   18.339360   24.300924 H          1 MOL1         0.3726
      16    H11     18.040427   17.273088   23.728021 H          1 MOL1         0.3726
      17    C5      17.598094   19.260170   23.167471 C.3        1 MOL1        -0.0677
      18    H12     16.992745   18.994566   22.298154 H          1 MOL1         0.1026
      19    H13     16.950117   19.418130   24.032425 H          1 MOL1         0.1026
      20    H14     18.162029   20.171999   22.961479 H          1 MOL1         0.1026
@<TRIPOS>BOND
    1     1     2    1
    2     1     3    1
    3     1     4    1
    4     1     5    1
    5     5     6    1
    6     5     7    1
    7     5     8    1
    8     8     9    1
    9     8    10    1
   10     8    11    1
   11    11    12    1
   12    11    13    1
   13    11    14    1
   14    14    15    1
   15    14    16    1
   16    14    17    1
   17    17    18    1
   18    17    19    1
   19    17    20    1
@<TRIPOS>SUBSTRUCTURE
       1 MOL1            1 RESIDUE      1      MOL     
@<SCITEGIC>MOL_PROPERTY
VConf Rank
SciTegic.value.IntegerValue
155

@<SCITEGIC>MOL_PROPERTY
Conf_Id
SciTegic.value.IntegerValue
2

@<SCITEGIC>MOL_PROPERTY
Delta U+W
SciTegic.value.DoubleValue
0.069

@<SCITEGIC>MOL_PROPERTY
U+W
SciTegic.value.DoubleValue
15.407

@<SCITEGIC>MOL_PROPERTY
Grad RMS
SciTegic.value.DoubleValue
0.000000

@<SCITEGIC>MOL_PROPERTY
U
SciTegic.value.DoubleValue
69.657

@<SCITEGIC>MOL_PROPERTY
W
SciTegic.value.DoubleValue
-54.250

@<SCITEGIC>MOL_PROPERTY
W(PB)
SciTegic.value.DoubleValue
-56.176

@<SCITEGIC>MOL_PROPERTY
W(SA)
SciTegic.value.DoubleValue
1.926

@<SCITEGIC>MOL_PROPERTY
Valence
SciTegic.value.DoubleValue
1.137

@<SCITEGIC>MOL_PROPERTY
Coulomb
SciTegic.value.DoubleValue
68.383

@<SCITEGIC>MOL_PROPERTY
VdW
SciTegic.value.DoubleValue
0.138

@<SCITEGIC>MOL_PROPERTY
VdW6
SciTegic.value.DoubleValue
-3.703

@<SCITEGIC>MOL_PROPERTY
VdW12
SciTegic.value.DoubleValue
3.841

@<SCITEGIC>MOL_PROPERTY
Bond
SciTegic.value.DoubleValue
0.125

@<SCITEGIC>MOL_PROPERTY
Angle
SciTegic.value.DoubleValue
0.468

@<SCITEGIC>MOL_PROPERTY
Pdih
SciTegic.value.DoubleValue
0.543

@<SCITEGIC>MOL_PROPERTY
Idih
SciTegic.value.DoubleValue
0.000

@<SCITEGIC>MOL_PROPERTY
Tether
SciTegic.value.DoubleValue
0.000

@<TRIPOS>MOLECULE
guest-s9_confgen4.mol2 : confsearch ligand conformer 156
          20          19           1
SMALL
USER_CHARGES
 
@<TRIPOS>ATOM
       1    C1      20.367675   21.221227   22.959792 C.3        1 MOL1        -0.2224
       2    H1      20.283801   20.493887   23.777108 H          1 MOL1         0.1052
       3    H2      21.426359   21.303848   22.681474 H          1 MOL1         0.1052
       4    H3      20.047544   22.195815   23.350541 H          1 MOL1         0.1052
       5    C2      19.502817   20.813748   21.744774 C.3        1 MOL1        -0.1209
       6    H4      19.543526   21.613180   20.991603 H          1 MOL1         0.1041
       7    H5      18.450469   20.732201   22.051562 H          1 MOL1         0.1041
       8    C3      19.960416   19.487135   21.094482 C.3        1 MOL1        -0.1274
       9    H6      19.354614   19.301266   20.197647 H          1 MOL1         0.1041
      10    H7      21.001106   19.582369   20.757197 H          1 MOL1         0.1041
      11    C4      19.833511   18.283404   22.048512 C.3        1 MOL1         0.0313
      12    H8      18.797263   18.187338   22.382181 H          1 MOL1         0.1015
      13    H9      20.464152   18.441283   22.926654 H          1 MOL1         0.1015
      14    N1      20.242830   16.968003   21.415545 N.4        1 MOL1        -0.4809
      15    H10     21.216087   17.022344   21.078041 H          1 MOL1         0.3726
      16    H11     19.672689   16.783523   20.575897 H          1 MOL1         0.3726
      17    C5      20.089943   15.836728   22.423481 C.3        1 MOL1        -0.0677
      18    H12     19.046626   15.775809   22.740628 H          1 MOL1         0.1026
      19    H13     20.387726   14.896091   21.954940 H          1 MOL1         0.1026
      20    H14     20.727827   16.035698   23.287376 H          1 MOL1         0.1026
@<TRIPOS>BOND
    1     1     2    1
    2     1     3    1
    3     1     4    1
    4     1     5    1
    5     5     6    1
    6     5     7    1
    7     5     8    1
    8     8     9    1
    9     8    10    1
   10     8    11    1
   11    11    12    1
   12    11    13    1
   13    11    14    1
   14    14    15    1
   15    14    16    1
   16    14    17    1
   17    17    18    1
   18    17    19    1
   19    17    20    1
@<TRIPOS>SUBSTRUCTURE
       1 MOL1            1 RESIDUE      1      MOL     
@<SCITEGIC>MOL_PROPERTY
VConf Rank
SciTegic.value.IntegerValue
156

@<SCITEGIC>MOL_PROPERTY
Conf_Id
SciTegic.value.IntegerValue
34

@<SCITEGIC>MOL_PROPERTY
Delta U+W
SciTegic.value.DoubleValue
0.276

@<SCITEGIC>MOL_PROPERTY
U+W
SciTegic.value.DoubleValue
15.615

@<SCITEGIC>MOL_PROPERTY
Grad RMS
SciTegic.value.DoubleValue
0.000000

@<SCITEGIC>MOL_PROPERTY
U
SciTegic.value.DoubleValue
69.798

@<SCITEGIC>MOL_PROPERTY
W
SciTegic.value.DoubleValue
-54.184

@<SCITEGIC>MOL_PROPERTY
W(PB)
SciTegic.value.DoubleValue
-56.116

@<SCITEGIC>MOL_PROPERTY
W(SA)
SciTegic.value.DoubleValue
1.933

@<SCITEGIC>MOL_PROPERTY
Valence
SciTegic.value.DoubleValue
1.134

@<SCITEGIC>MOL_PROPERTY
Coulomb
SciTegic.value.DoubleValue
68.735

@<SCITEGIC>MOL_PROPERTY
VdW
SciTegic.value.DoubleValue
-0.070

@<SCITEGIC>MOL_PROPERTY
VdW6
SciTegic.value.DoubleValue
-3.565

@<SCITEGIC>MOL_PROPERTY
VdW12
SciTegic.value.DoubleValue
3.494

@<SCITEGIC>MOL_PROPERTY
Bond
SciTegic.value.DoubleValue
0.108

@<SCITEGIC>MOL_PROPERTY
Angle
SciTegic.value.DoubleValue
0.456

@<SCITEGIC>MOL_PROPERTY
Pdih
SciTegic.value.DoubleValue
0.569

@<SCITEGIC>MOL_PROPERTY
Idih
SciTegic.value.DoubleValue
0.000

@<SCITEGIC>MOL_PROPERTY
Tether
SciTegic.value.DoubleValue
0.000

@<TRIPOS>MOLECULE
guest-s9_confgen4.mol2 : confsearch ligand conformer 157
          20          19           1
SMALL
USER_CHARGES
 
@<TRIPOS>ATOM
       1    C1      22.566466   17.412577   21.077105 C.3        1 MOL1        -0.2224
       2    H1      23.431783   18.024568   21.363221 H          1 MOL1         0.1052
       3    H2      22.818376   16.362318   21.273376 H          1 MOL1         0.1052
       4    H3      22.411402   17.524683   19.996102 H          1 MOL1         0.1052
       5    C2      21.305688   17.827919   21.865746 C.3        1 MOL1        -0.1209
       6    H4      21.481166   17.674468   22.939983 H          1 MOL1         0.1041
       7    H5      20.473040   17.169556   21.583338 H          1 MOL1         0.1041
       8    C3      20.928797   19.305580   21.605640 C.3        1 MOL1        -0.1274
       9    H6      21.784052   19.947410   21.855596 H          1 MOL1         0.1041
      10    H7      20.724467   19.460092   20.537824 H          1 MOL1         0.1041
      11    C4      19.714170   19.768111   22.435270 C.3        1 MOL1         0.0313
      12    H8      19.554324   20.837591   22.276267 H          1 MOL1         0.1015
      13    H9      19.912935   19.608462   23.498021 H          1 MOL1         0.1015
      14    N1      18.420257   19.055969   22.088095 N.4        1 MOL1        -0.4809
      15    H10     18.525652   18.039931   22.225979 H          1 MOL1         0.3726
      16    H11     18.205742   19.176775   21.086379 H          1 MOL1         0.3726
      17    C5      17.283898   19.595101   22.946503 C.3        1 MOL1        -0.0677
      18    H12     17.517548   19.426775   24.000004 H          1 MOL1         0.1026
      19    H13     17.168487   20.665000   22.760001 H          1 MOL1         0.1026
      20    H14     16.359598   19.074410   22.686621 H          1 MOL1         0.1026
@<TRIPOS>BOND
    1     1     2    1
    2     1     3    1
    3     1     4    1
    4     1     5    1
    5     5     6    1
    6     5     7    1
    7     5     8    1
    8     8     9    1
    9     8    10    1
   10     8    11    1
   11    11    12    1
   12    11    13    1
   13    11    14    1
   14    14    15    1
   15    14    16    1
   16    14    17    1
   17    17    18    1
   18    17    19    1
   19    17    20    1
@<TRIPOS>SUBSTRUCTURE
       1 MOL1            1 RESIDUE      1      MOL     
@<SCITEGIC>MOL_PROPERTY
VConf Rank
SciTegic.value.IntegerValue
157

@<SCITEGIC>MOL_PROPERTY
Conf_Id
SciTegic.value.IntegerValue
50

@<SCITEGIC>MOL_PROPERTY
Delta U+W
SciTegic.value.DoubleValue
0.319

@<SCITEGIC>MOL_PROPERTY
U+W
SciTegic.value.DoubleValue
15.657

@<SCITEGIC>MOL_PROPERTY
Grad RMS
SciTegic.value.DoubleValue
0.000000

@<SCITEGIC>MOL_PROPERTY
U
SciTegic.value.DoubleValue
69.962

@<SCITEGIC>MOL_PROPERTY
W
SciTegic.value.DoubleValue
-54.305

@<SCITEGIC>MOL_PROPERTY
W(PB)
SciTegic.value.DoubleValue
-56.223

@<SCITEGIC>MOL_PROPERTY
W(SA)
SciTegic.value.DoubleValue
1.918

@<SCITEGIC>MOL_PROPERTY
Valence
SciTegic.value.DoubleValue
0.982

@<SCITEGIC>MOL_PROPERTY
Coulomb
SciTegic.value.DoubleValue
69.058

@<SCITEGIC>MOL_PROPERTY
VdW
SciTegic.value.DoubleValue
-0.078

@<SCITEGIC>MOL_PROPERTY
VdW6
SciTegic.value.DoubleValue
-3.548

@<SCITEGIC>MOL_PROPERTY
VdW12
SciTegic.value.DoubleValue
3.471

@<SCITEGIC>MOL_PROPERTY
Bond
SciTegic.value.DoubleValue
0.105

@<SCITEGIC>MOL_PROPERTY
Angle
SciTegic.value.DoubleValue
0.408

@<SCITEGIC>MOL_PROPERTY
Pdih
SciTegic.value.DoubleValue
0.469

@<SCITEGIC>MOL_PROPERTY
Idih
SciTegic.value.DoubleValue
0.000

@<SCITEGIC>MOL_PROPERTY
Tether
SciTegic.value.DoubleValue
0.000

@<TRIPOS>MOLECULE
guest-s9_confgen4.mol2 : confsearch ligand conformer 158
          20          19           1
SMALL
USER_CHARGES
 
@<TRIPOS>ATOM
       1    C1      19.579821   20.699870   24.354639 C.3        1 MOL1        -0.2224
       2    H1      18.629140   20.794226   24.895314 H          1 MOL1         0.1052
       3    H2      20.375362   20.554578   25.097050 H          1 MOL1         0.1052
       4    H3      19.766686   21.648776   23.835176 H          1 MOL1         0.1052
       5    C2      19.526293   19.521608   23.358217 C.3        1 MOL1        -0.1209
       6    H4      18.695455   19.681792   22.657828 H          1 MOL1         0.1041
       7    H5      19.306672   18.592983   23.903878 H          1 MOL1         0.1041
       8    C3      20.855610   19.367471   22.582108 C.3        1 MOL1        -0.1274
       9    H6      21.067285   20.281702   22.011816 H          1 MOL1         0.1041
      10    H7      21.680868   19.247438   23.296547 H          1 MOL1         0.1041
      11    C4      20.855422   18.154394   21.630274 C.3        1 MOL1         0.0313
      12    H8      20.637965   17.244358   22.195059 H          1 MOL1         0.1015
      13    H9      21.846237   18.047311   21.181456 H          1 MOL1         0.1015
      14    N1      19.849645   18.255666   20.498883 N.4        1 MOL1        -0.4809
      15    H10     20.018701   19.111573   19.948527 H          1 MOL1         0.3726
      16    H11     18.896660   18.356747   20.878430 H          1 MOL1         0.3726
      17    C5      19.941197   17.022448   19.610271 C.3        1 MOL1        -0.0677
      18    H12     19.212609   17.108254   18.801082 H          1 MOL1         0.1026
      19    H13     20.948151   16.953584   19.193035 H          1 MOL1         0.1026
      20    H14     19.726503   16.132714   20.206150 H          1 MOL1         0.1026
@<TRIPOS>BOND
    1     1     2    1
    2     1     3    1
    3     1     4    1
    4     1     5    1
    5     5     6    1
    6     5     7    1
    7     5     8    1
    8     8     9    1
    9     8    10    1
   10     8    11    1
   11    11    12    1
   12    11    13    1
   13    11    14    1
   14    14    15    1
   15    14    16    1
   16    14    17    1
   17    17    18    1
   18    17    19    1
   19    17    20    1
@<TRIPOS>SUBSTRUCTURE
       1 MOL1            1 RESIDUE      1      MOL     
@<SCITEGIC>MOL_PROPERTY
VConf Rank
SciTegic.value.IntegerValue
158

@<SCITEGIC>MOL_PROPERTY
Conf_Id
SciTegic.value.IntegerValue
35

@<SCITEGIC>MOL_PROPERTY
Delta U+W
SciTegic.value.DoubleValue
0.360

@<SCITEGIC>MOL_PROPERTY
U+W
SciTegic.value.DoubleValue
15.698

@<SCITEGIC>MOL_PROPERTY
Grad RMS
SciTegic.value.DoubleValue
0.000000

@<SCITEGIC>MOL_PROPERTY
U
SciTegic.value.DoubleValue
69.962

@<SCITEGIC>MOL_PROPERTY
W
SciTegic.value.DoubleValue
-54.264

@<SCITEGIC>MOL_PROPERTY
W(PB)
SciTegic.value.DoubleValue
-56.166

@<SCITEGIC>MOL_PROPERTY
W(SA)
SciTegic.value.DoubleValue
1.902

@<SCITEGIC>MOL_PROPERTY
Valence
SciTegic.value.DoubleValue
0.982

@<SCITEGIC>MOL_PROPERTY
Coulomb
SciTegic.value.DoubleValue
69.058

@<SCITEGIC>MOL_PROPERTY
VdW
SciTegic.value.DoubleValue
-0.078

@<SCITEGIC>MOL_PROPERTY
VdW6
SciTegic.value.DoubleValue
-3.548

@<SCITEGIC>MOL_PROPERTY
VdW12
SciTegic.value.DoubleValue
3.471

@<SCITEGIC>MOL_PROPERTY
Bond
SciTegic.value.DoubleValue
0.105

@<SCITEGIC>MOL_PROPERTY
Angle
SciTegic.value.DoubleValue
0.408

@<SCITEGIC>MOL_PROPERTY
Pdih
SciTegic.value.DoubleValue
0.469

@<SCITEGIC>MOL_PROPERTY
Idih
SciTegic.value.DoubleValue
0.000

@<SCITEGIC>MOL_PROPERTY
Tether
SciTegic.value.DoubleValue
0.000

@<TRIPOS>MOLECULE
guest-s9_confgen4.mol2 : confsearch ligand conformer 159
          20          19           1
SMALL
USER_CHARGES
 
@<TRIPOS>ATOM
       1    C1      20.549121   16.516877   23.189619 C.3        1 MOL1        -0.2224
       2    H1      19.523697   16.396171   22.818129 H          1 MOL1         0.1052
       3    H2      20.948262   15.514240   23.390564 H          1 MOL1         0.1052
       4    H3      20.506505   17.057538   24.144063 H          1 MOL1         0.1052
       5    C2      21.440034   17.260490   22.168090 C.3        1 MOL1        -0.1209
       6    H4      21.461578   16.702079   21.221580 H          1 MOL1         0.1041
       7    H5      22.474207   17.277753   22.539809 H          1 MOL1         0.1041
       8    C3      20.975701   18.712326   21.906479 C.3        1 MOL1        -0.1274
       9    H6      20.992163   19.275041   22.848706 H          1 MOL1         0.1041
      10    H7      21.693521   19.201791   21.235156 H          1 MOL1         0.1041
      11    C4      19.567859   18.779728   21.276478 C.3        1 MOL1         0.0313
      12    H8      18.831984   18.355914   21.963955 H          1 MOL1         0.1015
      13    H9      19.560039   18.181985   20.361484 H          1 MOL1         0.1015
      14    N1      19.107108   20.180129   20.906369 N.4        1 MOL1        -0.4809
      15    H10     18.240820   20.122506   20.348309 H          1 MOL1         0.3726
      16    H11     19.794095   20.629077   20.281697 H          1 MOL1         0.3726
      17    C5      18.866434   21.030394   22.149146 C.3        1 MOL1        -0.0677
      18    H12     19.802707   21.141344   22.699574 H          1 MOL1         0.1026
      19    H13     18.502118   22.013972   21.844497 H          1 MOL1         0.1026
      20    H14     18.121309   20.541522   22.780406 H          1 MOL1         0.1026
@<TRIPOS>BOND
    1     1     2    1
    2     1     3    1
    3     1     4    1
    4     1     5    1
    5     5     6    1
    6     5     7    1
    7     5     8    1
    8     8     9    1
    9     8    10    1
   10     8    11    1
   11    11    12    1
   12    11    13    1
   13    11    14    1
   14    14    15    1
   15    14    16    1
   16    14    17    1
   17    17    18    1
   18    17    19    1
   19    17    20    1
@<TRIPOS>SUBSTRUCTURE
       1 MOL1            1 RESIDUE      1      MOL     
@<SCITEGIC>MOL_PROPERTY
VConf Rank
SciTegic.value.IntegerValue
159

@<SCITEGIC>MOL_PROPERTY
Conf_Id
SciTegic.value.IntegerValue
33

@<SCITEGIC>MOL_PROPERTY
Delta U+W
SciTegic.value.DoubleValue
0.372

@<SCITEGIC>MOL_PROPERTY
U+W
SciTegic.value.DoubleValue
15.711

@<SCITEGIC>MOL_PROPERTY
Grad RMS
SciTegic.value.DoubleValue
0.000000

@<SCITEGIC>MOL_PROPERTY
U
SciTegic.value.DoubleValue
70.163

@<SCITEGIC>MOL_PROPERTY
W
SciTegic.value.DoubleValue
-54.452

@<SCITEGIC>MOL_PROPERTY
W(PB)
SciTegic.value.DoubleValue
-56.363

@<SCITEGIC>MOL_PROPERTY
W(SA)
SciTegic.value.DoubleValue
1.911

@<SCITEGIC>MOL_PROPERTY
Valence
SciTegic.value.DoubleValue
1.420

@<SCITEGIC>MOL_PROPERTY
Coulomb
SciTegic.value.DoubleValue
68.566

@<SCITEGIC>MOL_PROPERTY
VdW
SciTegic.value.DoubleValue
0.177

@<SCITEGIC>MOL_PROPERTY
VdW6
SciTegic.value.DoubleValue
-4.267

@<SCITEGIC>MOL_PROPERTY
VdW12
SciTegic.value.DoubleValue
4.445

@<SCITEGIC>MOL_PROPERTY
Bond
SciTegic.value.DoubleValue
0.146

@<SCITEGIC>MOL_PROPERTY
Angle
SciTegic.value.DoubleValue
0.581

@<SCITEGIC>MOL_PROPERTY
Pdih
SciTegic.value.DoubleValue
0.693

@<SCITEGIC>MOL_PROPERTY
Idih
SciTegic.value.DoubleValue
0.000

@<SCITEGIC>MOL_PROPERTY
Tether
SciTegic.value.DoubleValue
0.000

@<TRIPOS>MOLECULE
guest-s9_confgen4.mol2 : confsearch ligand conformer 160
          20          19           1
SMALL
USER_CHARGES
 
@<TRIPOS>ATOM
       1    C1      21.470043   16.627043   21.997347 C.3        1 MOL1        -0.2224
       2    H1      21.740158   15.575012   21.838469 H          1 MOL1         0.1052
       3    H2      21.899723   17.207132   21.170945 H          1 MOL1         0.1052
       4    H3      21.944383   16.957010   22.930738 H          1 MOL1         0.1052
       5    C2      19.933971   16.787997   22.066551 C.3        1 MOL1        -0.1209
       6    H4      19.538316   16.121788   22.846044 H          1 MOL1         0.1041
       7    H5      19.484916   16.456080   21.119794 H          1 MOL1         0.1041
       8    C3      19.492225   18.238102   22.373040 C.3        1 MOL1        -0.1274
       9    H6      18.400122   18.263399   22.483437 H          1 MOL1         0.1041
      10    H7      19.913114   18.550633   23.337347 H          1 MOL1         0.1041
      11    C4      19.911386   19.231298   21.267904 C.3        1 MOL1         0.0313
      12    H8      19.516855   18.882877   20.310033 H          1 MOL1         0.1015
      13    H9      21.000831   19.266123   21.192731 H          1 MOL1         0.1015
      14    N1      19.412983   20.652570   21.472804 N.4        1 MOL1        -0.4809
      15    H10     18.387420   20.659538   21.581846 H          1 MOL1         0.3726
      16    H11     19.591803   21.207438   20.621128 H          1 MOL1         0.3726
      17    C5      20.090769   21.309781   22.670322 C.3        1 MOL1        -0.0677
      18    H12     19.735453   22.338498   22.762269 H          1 MOL1         0.1026
      19    H13     19.842933   20.754630   23.577114 H          1 MOL1         0.1026
      20    H14     21.172176   21.306443   22.517850 H          1 MOL1         0.1026
@<TRIPOS>BOND
    1     1     2    1
    2     1     3    1
    3     1     4    1
    4     1     5    1
    5     5     6    1
    6     5     7    1
    7     5     8    1
    8     8     9    1
    9     8    10    1
   10     8    11    1
   11    11    12    1
   12    11    13    1
   13    11    14    1
   14    14    15    1
   15    14    16    1
   16    14    17    1
   17    17    18    1
   18    17    19    1
   19    17    20    1
@<TRIPOS>SUBSTRUCTURE
       1 MOL1            1 RESIDUE      1      MOL     
@<SCITEGIC>MOL_PROPERTY
VConf Rank
SciTegic.value.IntegerValue
160

@<SCITEGIC>MOL_PROPERTY
Conf_Id
SciTegic.value.IntegerValue
53

@<SCITEGIC>MOL_PROPERTY
Delta U+W
SciTegic.value.DoubleValue
0.379

@<SCITEGIC>MOL_PROPERTY
U+W
SciTegic.value.DoubleValue
15.717

@<SCITEGIC>MOL_PROPERTY
Grad RMS
SciTegic.value.DoubleValue
0.000000

@<SCITEGIC>MOL_PROPERTY
U
SciTegic.value.DoubleValue
70.163

@<SCITEGIC>MOL_PROPERTY
W
SciTegic.value.DoubleValue
-54.446

@<SCITEGIC>MOL_PROPERTY
W(PB)
SciTegic.value.DoubleValue
-56.322

@<SCITEGIC>MOL_PROPERTY
W(SA)
SciTegic.value.DoubleValue
1.876

@<SCITEGIC>MOL_PROPERTY
Valence
SciTegic.value.DoubleValue
1.420

@<SCITEGIC>MOL_PROPERTY
Coulomb
SciTegic.value.DoubleValue
68.566

@<SCITEGIC>MOL_PROPERTY
VdW
SciTegic.value.DoubleValue
0.177

@<SCITEGIC>MOL_PROPERTY
VdW6
SciTegic.value.DoubleValue
-4.267

@<SCITEGIC>MOL_PROPERTY
VdW12
SciTegic.value.DoubleValue
4.445

@<SCITEGIC>MOL_PROPERTY
Bond
SciTegic.value.DoubleValue
0.146

@<SCITEGIC>MOL_PROPERTY
Angle
SciTegic.value.DoubleValue
0.581

@<SCITEGIC>MOL_PROPERTY
Pdih
SciTegic.value.DoubleValue
0.693

@<SCITEGIC>MOL_PROPERTY
Idih
SciTegic.value.DoubleValue
0.000

@<SCITEGIC>MOL_PROPERTY
Tether
SciTegic.value.DoubleValue
0.000

@<TRIPOS>MOLECULE
guest-s9_confgen4.mol2 : confsearch ligand conformer 161
          20          19           1
SMALL
USER_CHARGES
 
@<TRIPOS>ATOM
       1    C1      19.537950   19.081040   19.258322 C.3        1 MOL1        -0.2224
       2    H1      19.131035   19.951953   18.728292 H          1 MOL1         0.1052
       3    H2      20.330891   18.648472   18.634403 H          1 MOL1         0.1052
       4    H3      18.734319   18.339085   19.352353 H          1 MOL1         0.1052
       5    C2      20.081276   19.490644   20.644318 C.3        1 MOL1        -0.1209
       6    H4      19.271314   19.953370   21.224408 H          1 MOL1         0.1041
       7    H5      20.860275   20.255899   20.518906 H          1 MOL1         0.1041
       8    C3      20.659271   18.279470   21.413539 C.3        1 MOL1        -0.1274
       9    H6      19.878150   17.523494   21.565499 H          1 MOL1         0.1041
      10    H7      21.436810   17.800202   20.804128 H          1 MOL1         0.1041
      11    C4      21.281162   18.671986   22.772157 C.3        1 MOL1         0.0313
      12    H8      22.094624   19.380973   22.598242 H          1 MOL1         0.1015
      13    H9      21.706678   17.784819   23.247935 H          1 MOL1         0.1015
      14    N1      20.324436   19.312801   23.766472 N.4        1 MOL1        -0.4809
      15    H10     19.896114   20.155342   23.355748 H          1 MOL1         0.3726
      16    H11     20.854357   19.655665   24.583083 H          1 MOL1         0.3726
      17    C5      19.253634   18.326708   24.220276 C.3        1 MOL1        -0.0677
      18    H12     19.734786   17.454590   24.668114 H          1 MOL1         0.1026
      19    H13     18.610351   18.811373   24.957989 H          1 MOL1         0.1026
      20    H14     18.656614   18.019218   23.359444 H          1 MOL1         0.1026
@<TRIPOS>BOND
    1     1     2    1
    2     1     3    1
    3     1     4    1
    4     1     5    1
    5     5     6    1
    6     5     7    1
    7     5     8    1
    8     8     9    1
    9     8    10    1
   10     8    11    1
   11    11    12    1
   12    11    13    1
   13    11    14    1
   14    14    15    1
   15    14    16    1
   16    14    17    1
   17    17    18    1
   18    17    19    1
   19    17    20    1
@<TRIPOS>SUBSTRUCTURE
       1 MOL1            1 RESIDUE      1      MOL     
@<SCITEGIC>MOL_PROPERTY
VConf Rank
SciTegic.value.IntegerValue
161

@<SCITEGIC>MOL_PROPERTY
Conf_Id
SciTegic.value.IntegerValue
49

@<SCITEGIC>MOL_PROPERTY
Delta U+W
SciTegic.value.DoubleValue
0.268

@<SCITEGIC>MOL_PROPERTY
U+W
SciTegic.value.DoubleValue
15.607

@<SCITEGIC>MOL_PROPERTY
Grad RMS
SciTegic.value.DoubleValue
0.000000

@<SCITEGIC>MOL_PROPERTY
U
SciTegic.value.DoubleValue
70.298

@<SCITEGIC>MOL_PROPERTY
W
SciTegic.value.DoubleValue
-54.692

@<SCITEGIC>MOL_PROPERTY
W(PB)
SciTegic.value.DoubleValue
-56.576

@<SCITEGIC>MOL_PROPERTY
W(SA)
SciTegic.value.DoubleValue
1.885

@<SCITEGIC>MOL_PROPERTY
Valence
SciTegic.value.DoubleValue
1.245

@<SCITEGIC>MOL_PROPERTY
Coulomb
SciTegic.value.DoubleValue
68.933

@<SCITEGIC>MOL_PROPERTY
VdW
SciTegic.value.DoubleValue
0.120

@<SCITEGIC>MOL_PROPERTY
VdW6
SciTegic.value.DoubleValue
-4.430

@<SCITEGIC>MOL_PROPERTY
VdW12
SciTegic.value.DoubleValue
4.550

@<SCITEGIC>MOL_PROPERTY
Bond
SciTegic.value.DoubleValue
0.148

@<SCITEGIC>MOL_PROPERTY
Angle
SciTegic.value.DoubleValue
0.587

@<SCITEGIC>MOL_PROPERTY
Pdih
SciTegic.value.DoubleValue
0.509

@<SCITEGIC>MOL_PROPERTY
Idih
SciTegic.value.DoubleValue
0.000

@<SCITEGIC>MOL_PROPERTY
Tether
SciTegic.value.DoubleValue
0.000

@<TRIPOS>MOLECULE
guest-s9_confgen4.mol2 : confsearch ligand conformer 162
          20          19           1
SMALL
USER_CHARGES
 
@<TRIPOS>ATOM
       1    C1      20.325510   19.553108   19.329244 C.3        1 MOL1        -0.2224
       2    H1      20.154549   18.610242   18.793569 H          1 MOL1         0.1052
       3    H2      19.525596   20.252552   19.053463 H          1 MOL1         0.1052
       4    H3      21.275711   19.973447   18.975078 H          1 MOL1         0.1052
       5    C2      20.364938   19.325810   20.856041 C.3        1 MOL1        -0.1209
       6    H4      20.565076   20.280529   21.362446 H          1 MOL1         0.1041
       7    H5      21.200708   18.654165   21.092531 H          1 MOL1         0.1041
       8    C3      19.040479   18.723162   21.379729 C.3        1 MOL1        -0.1274
       9    H6      18.203252   19.344712   21.035515 H          1 MOL1         0.1041
      10    H7      18.885912   17.728572   20.941033 H          1 MOL1         0.1041
      11    C4      18.956716   18.623514   22.919821 C.3        1 MOL1         0.0313
      12    H8      17.963191   18.249003   23.179424 H          1 MOL1         0.1015
      13    H9      19.065679   19.612798   23.371199 H          1 MOL1         0.1015
      14    N1      19.961404   17.687586   23.573963 N.4        1 MOL1        -0.4809
      15    H10     20.169746   16.892003   22.952287 H          1 MOL1         0.3726
      16    H11     19.534888   17.262616   24.412112 H          1 MOL1         0.3726
      17    C5      21.231952   18.428221   23.978701 C.3        1 MOL1        -0.0677
      18    H12     21.914669   17.727024   24.463651 H          1 MOL1         0.1026
      19    H13     21.710208   18.851915   23.094923 H          1 MOL1         0.1026
      20    H14     20.973051   19.228248   24.675562 H          1 MOL1         0.1026
@<TRIPOS>BOND
    1     1     2    1
    2     1     3    1
    3     1     4    1
    4     1     5    1
    5     5     6    1
    6     5     7    1
    7     5     8    1
    8     8     9    1
    9     8    10    1
   10     8    11    1
   11    11    12    1
   12    11    13    1
   13    11    14    1
   14    14    15    1
   15    14    16    1
   16    14    17    1
   17    17    18    1
   18    17    19    1
   19    17    20    1
@<TRIPOS>SUBSTRUCTURE
       1 MOL1            1 RESIDUE      1      MOL     
@<SCITEGIC>MOL_PROPERTY
VConf Rank
SciTegic.value.IntegerValue
162

@<SCITEGIC>MOL_PROPERTY
Conf_Id
SciTegic.value.IntegerValue
65

@<SCITEGIC>MOL_PROPERTY
Delta U+W
SciTegic.value.DoubleValue
1.775

@<SCITEGIC>MOL_PROPERTY
U+W
SciTegic.value.DoubleValue
17.114

@<SCITEGIC>MOL_PROPERTY
Grad RMS
SciTegic.value.DoubleValue
0.000000

@<SCITEGIC>MOL_PROPERTY
U
SciTegic.value.DoubleValue
71.726

@<SCITEGIC>MOL_PROPERTY
W
SciTegic.value.DoubleValue
-54.613

@<SCITEGIC>MOL_PROPERTY
W(PB)
SciTegic.value.DoubleValue
-56.495

@<SCITEGIC>MOL_PROPERTY
W(SA)
SciTegic.value.DoubleValue
1.883

@<SCITEGIC>MOL_PROPERTY
Valence
SciTegic.value.DoubleValue
2.885

@<SCITEGIC>MOL_PROPERTY
Coulomb
SciTegic.value.DoubleValue
68.822

@<SCITEGIC>MOL_PROPERTY
VdW
SciTegic.value.DoubleValue
0.019

@<SCITEGIC>MOL_PROPERTY
VdW6
SciTegic.value.DoubleValue
-4.600

@<SCITEGIC>MOL_PROPERTY
VdW12
SciTegic.value.DoubleValue
4.619

@<SCITEGIC>MOL_PROPERTY
Bond
SciTegic.value.DoubleValue
0.152

@<SCITEGIC>MOL_PROPERTY
Angle
SciTegic.value.DoubleValue
0.862

@<SCITEGIC>MOL_PROPERTY
Pdih
SciTegic.value.DoubleValue
1.871

@<SCITEGIC>MOL_PROPERTY
Idih
SciTegic.value.DoubleValue
0.000

@<SCITEGIC>MOL_PROPERTY
Tether
SciTegic.value.DoubleValue
0.000

@<TRIPOS>MOLECULE
guest-s9_confgen4.mol2 : confsearch ligand conformer 163
          20          19           1
SMALL
USER_CHARGES
 
@<TRIPOS>ATOM
       1    C1      20.827302   16.702687   21.069392 C.3        1 MOL1        -0.2224
       2    H1      20.205402   16.635692   21.970921 H          1 MOL1         0.1052
       3    H2      20.499276   15.912231   20.381965 H          1 MOL1         0.1052
       4    H3      21.866026   16.489090   21.353119 H          1 MOL1         0.1052
       5    C2      20.708798   18.089717   20.396877 C.3        1 MOL1        -0.1209
       6    H4      19.662279   18.279255   20.122137 H          1 MOL1         0.1041
       7    H5      21.271824   18.078092   19.453016 H          1 MOL1         0.1041
       8    C3      21.245020   19.241945   21.282785 C.3        1 MOL1        -0.1274
       9    H6      22.317678   19.090097   21.461986 H          1 MOL1         0.1041
      10    H7      21.157851   20.191552   20.738366 H          1 MOL1         0.1041
      11    C4      20.531581   19.370729   22.644911 C.3        1 MOL1         0.0313
      12    H8      20.988076   20.181983   23.217642 H          1 MOL1         0.1015
      13    H9      20.653119   18.445321   23.212902 H          1 MOL1         0.1015
      14    N1      19.046954   19.662295   22.537786 N.4        1 MOL1        -0.4809
      15    H10     18.580285   18.920096   21.995707 H          1 MOL1         0.3726
      16    H11     18.892912   20.531683   22.004555 H          1 MOL1         0.3726
      17    C5      18.436656   19.772079   23.928470 C.3        1 MOL1        -0.0677
      18    H12     18.924496   20.583896   24.472280 H          1 MOL1         0.1026
      19    H13     17.368502   19.980648   23.836192 H          1 MOL1         0.1026
      20    H14     18.583185   18.830029   24.461228 H          1 MOL1         0.1026
@<TRIPOS>BOND
    1     1     2    1
    2     1     3    1
    3     1     4    1
    4     1     5    1
    5     5     6    1
    6     5     7    1
    7     5     8    1
    8     8     9    1
    9     8    10    1
   10     8    11    1
   11    11    12    1
   12    11    13    1
   13    11    14    1
   14    14    15    1
   15    14    16    1
   16    14    17    1
   17    17    18    1
   18    17    19    1
   19    17    20    1
@<TRIPOS>SUBSTRUCTURE
       1 MOL1            1 RESIDUE      1      MOL     
@<SCITEGIC>MOL_PROPERTY
VConf Rank
SciTegic.value.IntegerValue
163

@<SCITEGIC>MOL_PROPERTY
Conf_Id
SciTegic.value.IntegerValue
23

@<SCITEGIC>MOL_PROPERTY
Delta U+W
SciTegic.value.DoubleValue
0.896

@<SCITEGIC>MOL_PROPERTY
U+W
SciTegic.value.DoubleValue
16.234

@<SCITEGIC>MOL_PROPERTY
Grad RMS
SciTegic.value.DoubleValue
0.000000

@<SCITEGIC>MOL_PROPERTY
U
SciTegic.value.DoubleValue
70.374

@<SCITEGIC>MOL_PROPERTY
W
SciTegic.value.DoubleValue
-54.140

@<SCITEGIC>MOL_PROPERTY
W(PB)
SciTegic.value.DoubleValue
-56.046

@<SCITEGIC>MOL_PROPERTY
W(SA)
SciTegic.value.DoubleValue
1.907

@<SCITEGIC>MOL_PROPERTY
Valence
SciTegic.value.DoubleValue
1.257

@<SCITEGIC>MOL_PROPERTY
Coulomb
SciTegic.value.DoubleValue
69.240

@<SCITEGIC>MOL_PROPERTY
VdW
SciTegic.value.DoubleValue
-0.123

@<SCITEGIC>MOL_PROPERTY
VdW6
SciTegic.value.DoubleValue
-4.336

@<SCITEGIC>MOL_PROPERTY
VdW12
SciTegic.value.DoubleValue
4.213

@<SCITEGIC>MOL_PROPERTY
Bond
SciTegic.value.DoubleValue
0.128

@<SCITEGIC>MOL_PROPERTY
Angle
SciTegic.value.DoubleValue
0.603

@<SCITEGIC>MOL_PROPERTY
Pdih
SciTegic.value.DoubleValue
0.526

@<SCITEGIC>MOL_PROPERTY
Idih
SciTegic.value.DoubleValue
0.000

@<SCITEGIC>MOL_PROPERTY
Tether
SciTegic.value.DoubleValue
0.000

@<TRIPOS>MOLECULE
guest-s9_confgen4.mol2 : confsearch ligand conformer 164
          20          19           1
SMALL
USER_CHARGES
 
@<TRIPOS>ATOM
       1    C1      21.563533   19.965348   23.495678 C.3        1 MOL1        -0.2224
       2    H1      22.121418   19.274188   24.140761 H          1 MOL1         0.1052
       3    H2      21.913326   20.982616   23.714288 H          1 MOL1         0.1052
       4    H3      20.503450   19.913399   23.774118 H          1 MOL1         0.1052
       5    C2      21.777919   19.627442   22.002351 C.3        1 MOL1        -0.1209
       6    H4      22.836095   19.783294   21.749412 H          1 MOL1         0.1041
       7    H5      21.211222   20.332104   21.378719 H          1 MOL1         0.1041
       8    C3      21.390274   18.170043   21.647786 C.3        1 MOL1        -0.1274
       9    H6      21.591609   17.987570   20.583873 H          1 MOL1         0.1041
      10    H7      22.037573   17.479036   22.203915 H          1 MOL1         0.1041
      11    C4      19.918824   17.819839   21.953012 C.3        1 MOL1         0.0313
      12    H8      19.722119   17.954385   23.019300 H          1 MOL1         0.1015
      13    H9      19.737116   16.771054   21.704876 H          1 MOL1         0.1015
      14    N1      18.914054   18.655294   21.182910 N.4        1 MOL1        -0.4809
      15    H10     19.070510   18.553869   20.168448 H          1 MOL1         0.3726
      16    H11     19.058578   19.655582   21.385457 H          1 MOL1         0.3726
      17    C5      17.497463   18.235118   21.550668 C.3        1 MOL1        -0.0677
      18    H12     17.345126   18.382140   22.622087 H          1 MOL1         0.1026
      19    H13     16.785354   18.844997   20.990384 H          1 MOL1         0.1026
      20    H14     17.357908   17.181644   21.298715 H          1 MOL1         0.1026
@<TRIPOS>BOND
    1     1     2    1
    2     1     3    1
    3     1     4    1
    4     1     5    1
    5     5     6    1
    6     5     7    1
    7     5     8    1
    8     8     9    1
    9     8    10    1
   10     8    11    1
   11    11    12    1
   12    11    13    1
   13    11    14    1
   14    14    15    1
   15    14    16    1
   16    14    17    1
   17    17    18    1
   18    17    19    1
   19    17    20    1
@<TRIPOS>SUBSTRUCTURE
       1 MOL1            1 RESIDUE      1      MOL     
@<SCITEGIC>MOL_PROPERTY
VConf Rank
SciTegic.value.IntegerValue
164

@<SCITEGIC>MOL_PROPERTY
Conf_Id
SciTegic.value.IntegerValue
24

@<SCITEGIC>MOL_PROPERTY
Delta U+W
SciTegic.value.DoubleValue
0.792

@<SCITEGIC>MOL_PROPERTY
U+W
SciTegic.value.DoubleValue
16.130

@<SCITEGIC>MOL_PROPERTY
Grad RMS
SciTegic.value.DoubleValue
0.000000

@<SCITEGIC>MOL_PROPERTY
U
SciTegic.value.DoubleValue
70.374

@<SCITEGIC>MOL_PROPERTY
W
SciTegic.value.DoubleValue
-54.243

@<SCITEGIC>MOL_PROPERTY
W(PB)
SciTegic.value.DoubleValue
-56.130

@<SCITEGIC>MOL_PROPERTY
W(SA)
SciTegic.value.DoubleValue
1.887

@<SCITEGIC>MOL_PROPERTY
Valence
SciTegic.value.DoubleValue
1.257

@<SCITEGIC>MOL_PROPERTY
Coulomb
SciTegic.value.DoubleValue
69.240

@<SCITEGIC>MOL_PROPERTY
VdW
SciTegic.value.DoubleValue
-0.123

@<SCITEGIC>MOL_PROPERTY
VdW6
SciTegic.value.DoubleValue
-4.336

@<SCITEGIC>MOL_PROPERTY
VdW12
SciTegic.value.DoubleValue
4.213

@<SCITEGIC>MOL_PROPERTY
Bond
SciTegic.value.DoubleValue
0.128

@<SCITEGIC>MOL_PROPERTY
Angle
SciTegic.value.DoubleValue
0.603

@<SCITEGIC>MOL_PROPERTY
Pdih
SciTegic.value.DoubleValue
0.526

@<SCITEGIC>MOL_PROPERTY
Idih
SciTegic.value.DoubleValue
0.000

@<SCITEGIC>MOL_PROPERTY
Tether
SciTegic.value.DoubleValue
0.000

@<TRIPOS>MOLECULE
guest-s9_confgen4.mol2 : confsearch ligand conformer 165
          20          19           1
SMALL
USER_CHARGES
 
@<TRIPOS>ATOM
       1    C1      21.309224   19.266920   23.692342 C.3        1 MOL1        -0.2224
       2    H1      21.689529   19.531072   24.687738 H          1 MOL1         0.1052
       3    H2      20.746958   18.332048   23.801517 H          1 MOL1         0.1052
       4    H3      22.175865   19.087469   23.042807 H          1 MOL1         0.1052
       5    C2      20.419133   20.404045   23.140847 C.3        1 MOL1        -0.1209
       6    H4      20.957837   21.355723   23.251187 H          1 MOL1         0.1041
       7    H5      19.515262   20.493597   23.759798 H          1 MOL1         0.1041
       8    C3      20.016991   20.240339   21.652788 C.3        1 MOL1        -0.1274
       9    H6      19.450439   21.132850   21.355700 H          1 MOL1         0.1041
      10    H7      20.910575   20.224960   21.014841 H          1 MOL1         0.1041
      11    C4      19.138236   19.005440   21.361069 C.3        1 MOL1         0.0313
      12    H8      18.605804   19.160380   20.419234 H          1 MOL1         0.1015
      13    H9      18.396008   18.884731   22.154045 H          1 MOL1         0.1015
      14    N1      19.910023   17.706810   21.223583 N.4        1 MOL1        -0.4809
      15    H10     20.473670   17.540613   22.069337 H          1 MOL1         0.3726
      16    H11     20.589460   17.778382   20.450762 H          1 MOL1         0.3726
      17    C5      18.947643   16.551427   20.984148 C.3        1 MOL1        -0.0677
      18    H12     18.259973   16.474780   21.829135 H          1 MOL1         0.1026
      19    H13     18.385649   16.735914   20.066056 H          1 MOL1         0.1026
      20    H14     19.516810   15.624269   20.887208 H          1 MOL1         0.1026
@<TRIPOS>BOND
    1     1     2    1
    2     1     3    1
    3     1     4    1
    4     1     5    1
    5     5     6    1
    6     5     7    1
    7     5     8    1
    8     8     9    1
    9     8    10    1
   10     8    11    1
   11    11    12    1
   12    11    13    1
   13    11    14    1
   14    14    15    1
   15    14    16    1
   16    14    17    1
   17    17    18    1
   18    17    19    1
   19    17    20    1
@<TRIPOS>SUBSTRUCTURE
       1 MOL1            1 RESIDUE      1      MOL     
@<SCITEGIC>MOL_PROPERTY
VConf Rank
SciTegic.value.IntegerValue
165

@<SCITEGIC>MOL_PROPERTY
Conf_Id
SciTegic.value.IntegerValue
26

@<SCITEGIC>MOL_PROPERTY
Delta U+W
SciTegic.value.DoubleValue
2.888

@<SCITEGIC>MOL_PROPERTY
U+W
SciTegic.value.DoubleValue
18.226

@<SCITEGIC>MOL_PROPERTY
Grad RMS
SciTegic.value.DoubleValue
0.000000

@<SCITEGIC>MOL_PROPERTY
U
SciTegic.value.DoubleValue
72.042

@<SCITEGIC>MOL_PROPERTY
W
SciTegic.value.DoubleValue
-53.816

@<SCITEGIC>MOL_PROPERTY
W(PB)
SciTegic.value.DoubleValue
-55.689

@<SCITEGIC>MOL_PROPERTY
W(SA)
SciTegic.value.DoubleValue
1.873

@<SCITEGIC>MOL_PROPERTY
Valence
SciTegic.value.DoubleValue
2.428

@<SCITEGIC>MOL_PROPERTY
Coulomb
SciTegic.value.DoubleValue
69.829

@<SCITEGIC>MOL_PROPERTY
VdW
SciTegic.value.DoubleValue
-0.215

@<SCITEGIC>MOL_PROPERTY
VdW6
SciTegic.value.DoubleValue
-4.563

@<SCITEGIC>MOL_PROPERTY
VdW12
SciTegic.value.DoubleValue
4.348

@<SCITEGIC>MOL_PROPERTY
Bond
SciTegic.value.DoubleValue
0.137

@<SCITEGIC>MOL_PROPERTY
Angle
SciTegic.value.DoubleValue
0.936

@<SCITEGIC>MOL_PROPERTY
Pdih
SciTegic.value.DoubleValue
1.356

@<SCITEGIC>MOL_PROPERTY
Idih
SciTegic.value.DoubleValue
0.000

@<SCITEGIC>MOL_PROPERTY
Tether
SciTegic.value.DoubleValue
0.000

@<TRIPOS>MOLECULE
guest-s9_confgen4.mol2 : confsearch ligand conformer 166
          20          19           1
SMALL
USER_CHARGES
 
@<TRIPOS>ATOM
       1    C1      18.532863   17.707260   21.090914 C.3        1 MOL1        -0.2224
       2    H1      17.563311   17.376732   20.696022 H          1 MOL1         0.1052
       3    H2      19.244466   16.882104   20.957109 H          1 MOL1         0.1052
       4    H3      18.397074   17.889402   22.163498 H          1 MOL1         0.1052
       5    C2      19.004325   18.981436   20.353580 C.3        1 MOL1        -0.1209
       6    H4      18.321893   19.811363   20.585123 H          1 MOL1         0.1041
       7    H5      18.919158   18.811718   19.270986 H          1 MOL1         0.1041
       8    C3      20.462381   19.403044   20.668466 C.3        1 MOL1        -0.1274
       9    H6      21.162016   18.610568   20.371482 H          1 MOL1         0.1041
      10    H7      20.706307   20.270546   20.040964 H          1 MOL1         0.1041
      11    C4      20.708374   19.801089   22.139293 C.3        1 MOL1         0.0313
      12    H8      19.866699   20.393009   22.507393 H          1 MOL1         0.1015
      13    H9      21.608013   20.419096   22.196398 H          1 MOL1         0.1015
      14    N1      20.918005   18.628205   23.078121 N.4        1 MOL1        -0.4809
      15    H10     21.735781   18.075750   22.778054 H          1 MOL1         0.3726
      16    H11     20.116530   17.983949   23.021608 H          1 MOL1         0.3726
      17    C5      21.104946   19.128822   24.503900 C.3        1 MOL1        -0.0677
      18    H12     20.214687   19.682030   24.810766 H          1 MOL1         0.1026
      19    H13     21.254671   18.274447   25.167676 H          1 MOL1         0.1026
      20    H14     21.978444   19.783183   24.543623 H          1 MOL1         0.1026
@<TRIPOS>BOND
    1     1     2    1
    2     1     3    1
    3     1     4    1
    4     1     5    1
    5     5     6    1
    6     5     7    1
    7     5     8    1
    8     8     9    1
    9     8    10    1
   10     8    11    1
   11    11    12    1
   12    11    13    1
   13    11    14    1
   14    14    15    1
   15    14    16    1
   16    14    17    1
   17    17    18    1
   18    17    19    1
   19    17    20    1
@<TRIPOS>SUBSTRUCTURE
       1 MOL1            1 RESIDUE      1      MOL     
@<SCITEGIC>MOL_PROPERTY
VConf Rank
SciTegic.value.IntegerValue
166

@<SCITEGIC>MOL_PROPERTY
Conf_Id
SciTegic.value.IntegerValue
5

@<SCITEGIC>MOL_PROPERTY
Delta U+W
SciTegic.value.DoubleValue
2.950

@<SCITEGIC>MOL_PROPERTY
U+W
SciTegic.value.DoubleValue
18.289

@<SCITEGIC>MOL_PROPERTY
Grad RMS
SciTegic.value.DoubleValue
0.000000

@<SCITEGIC>MOL_PROPERTY
U
SciTegic.value.DoubleValue
72.042

@<SCITEGIC>MOL_PROPERTY
W
SciTegic.value.DoubleValue
-53.753

@<SCITEGIC>MOL_PROPERTY
W(PB)
SciTegic.value.DoubleValue
-55.644

@<SCITEGIC>MOL_PROPERTY
W(SA)
SciTegic.value.DoubleValue
1.891

@<SCITEGIC>MOL_PROPERTY
Valence
SciTegic.value.DoubleValue
2.428

@<SCITEGIC>MOL_PROPERTY
Coulomb
SciTegic.value.DoubleValue
69.829

@<SCITEGIC>MOL_PROPERTY
VdW
SciTegic.value.DoubleValue
-0.215

@<SCITEGIC>MOL_PROPERTY
VdW6
SciTegic.value.DoubleValue
-4.563

@<SCITEGIC>MOL_PROPERTY
VdW12
SciTegic.value.DoubleValue
4.348

@<SCITEGIC>MOL_PROPERTY
Bond
SciTegic.value.DoubleValue
0.137

@<SCITEGIC>MOL_PROPERTY
Angle
SciTegic.value.DoubleValue
0.936

@<SCITEGIC>MOL_PROPERTY
Pdih
SciTegic.value.DoubleValue
1.356

@<SCITEGIC>MOL_PROPERTY
Idih
SciTegic.value.DoubleValue
0.000

@<SCITEGIC>MOL_PROPERTY
Tether
SciTegic.value.DoubleValue
0.000

@<TRIPOS>MOLECULE
guest-s9_confgen4.mol2 : confsearch ligand conformer 167
          20          19           1
SMALL
USER_CHARGES
 
@<TRIPOS>ATOM
       1    C1      21.929645   19.372898   23.513111 C.3        1 MOL1        -0.2224
       2    H1      22.719464   18.610637   23.498903 H          1 MOL1         0.1052
       3    H2      22.047556   20.004258   22.623584 H          1 MOL1         0.1052
       4    H3      22.093612   20.007678   24.393529 H          1 MOL1         0.1052
       5    C2      20.529074   18.720587   23.568186 C.3        1 MOL1        -0.1209
       6    H4      19.756632   19.501483   23.585392 H          1 MOL1         0.1041
       7    H5      20.427170   18.173141   24.515715 H          1 MOL1         0.1041
       8    C3      20.268686   17.741694   22.396322 C.3        1 MOL1        -0.1274
       9    H6      20.990044   16.915630   22.449175 H          1 MOL1         0.1041
      10    H7      19.278022   17.284716   22.516764 H          1 MOL1         0.1041
      11    C4      20.369446   18.393521   20.998287 C.3        1 MOL1         0.0313
      12    H8      20.171267   17.642209   20.229734 H          1 MOL1         0.1015
      13    H9      21.387564   18.761736   20.850192 H          1 MOL1         0.1015
      14    N1      19.424159   19.560640   20.758310 N.4        1 MOL1        -0.4809
      15    H10     19.657561   20.016345   19.862256 H          1 MOL1         0.3726
      16    H11     19.571958   20.287076   21.474236 H          1 MOL1         0.3726
      17    C5      17.970319   19.101545   20.744076 C.3        1 MOL1        -0.0677
      18    H12     17.715398   18.677067   21.717125 H          1 MOL1         0.1026
      19    H13     17.326120   19.959146   20.538079 H          1 MOL1         0.1026
      20    H14     17.839289   18.347427   19.965121 H          1 MOL1         0.1026
@<TRIPOS>BOND
    1     1     2    1
    2     1     3    1
    3     1     4    1
    4     1     5    1
    5     5     6    1
    6     5     7    1
    7     5     8    1
    8     8     9    1
    9     8    10    1
   10     8    11    1
   11    11    12    1
   12    11    13    1
   13    11    14    1
   14    14    15    1
   15    14    16    1
   16    14    17    1
   17    17    18    1
   18    17    19    1
   19    17    20    1
@<TRIPOS>SUBSTRUCTURE
       1 MOL1            1 RESIDUE      1      MOL     
@<SCITEGIC>MOL_PROPERTY
VConf Rank
SciTegic.value.IntegerValue
167

@<SCITEGIC>MOL_PROPERTY
Conf_Id
SciTegic.value.IntegerValue
52

@<SCITEGIC>MOL_PROPERTY
Delta U+W
SciTegic.value.DoubleValue
0.784

@<SCITEGIC>MOL_PROPERTY
U+W
SciTegic.value.DoubleValue
16.122

@<SCITEGIC>MOL_PROPERTY
Grad RMS
SciTegic.value.DoubleValue
0.000000

@<SCITEGIC>MOL_PROPERTY
U
SciTegic.value.DoubleValue
70.777

@<SCITEGIC>MOL_PROPERTY
W
SciTegic.value.DoubleValue
-54.655

@<SCITEGIC>MOL_PROPERTY
W(PB)
SciTegic.value.DoubleValue
-56.491

@<SCITEGIC>MOL_PROPERTY
W(SA)
SciTegic.value.DoubleValue
1.836

@<SCITEGIC>MOL_PROPERTY
Valence
SciTegic.value.DoubleValue
1.529

@<SCITEGIC>MOL_PROPERTY
Coulomb
SciTegic.value.DoubleValue
69.166

@<SCITEGIC>MOL_PROPERTY
VdW
SciTegic.value.DoubleValue
0.082

@<SCITEGIC>MOL_PROPERTY
VdW6
SciTegic.value.DoubleValue
-5.166

@<SCITEGIC>MOL_PROPERTY
VdW12
SciTegic.value.DoubleValue
5.248

@<SCITEGIC>MOL_PROPERTY
Bond
SciTegic.value.DoubleValue
0.171

@<SCITEGIC>MOL_PROPERTY
Angle
SciTegic.value.DoubleValue
0.752

@<SCITEGIC>MOL_PROPERTY
Pdih
SciTegic.value.DoubleValue
0.605

@<SCITEGIC>MOL_PROPERTY
Idih
SciTegic.value.DoubleValue
0.000

@<SCITEGIC>MOL_PROPERTY
Tether
SciTegic.value.DoubleValue
0.000

@<TRIPOS>MOLECULE
guest-s9_confgen4.mol2 : confsearch ligand conformer 168
          20          19           1
SMALL
USER_CHARGES
 
@<TRIPOS>ATOM
       1    C1      20.472907   16.931101   21.464377 C.3        1 MOL1        -0.2224
       2    H1      20.524504   15.864224   21.210840 H          1 MOL1         0.1052
       3    H2      20.339580   17.477601   20.523784 H          1 MOL1         0.1052
       4    H3      21.436882   17.214971   21.906505 H          1 MOL1         0.1052
       5    C2      19.306493   17.192386   22.444464 C.3        1 MOL1        -0.1209
       6    H4      19.363109   16.455679   23.258149 H          1 MOL1         0.1041
       7    H5      18.350197   17.008440   21.934876 H          1 MOL1         0.1041
       8    C3      19.300856   18.609797   23.071951 C.3        1 MOL1        -0.1274
       9    H6      18.492116   18.645717   23.813729 H          1 MOL1         0.1041
      10    H7      20.227312   18.779539   23.634773 H          1 MOL1         0.1041
      11    C4      19.061207   19.758316   22.064467 C.3        1 MOL1         0.0313
      12    H8      18.742864   20.652008   22.607048 H          1 MOL1         0.1015
      13    H9      18.252440   19.474699   21.386288 H          1 MOL1         0.1015
      14    N1      20.260882   20.156954   21.219257 N.4        1 MOL1        -0.4809
      15    H10     19.954914   20.785378   20.459898 H          1 MOL1         0.3726
      16    H11     20.649714   19.329692   20.745666 H          1 MOL1         0.3726
      17    C5      21.327065   20.846881   22.063044 C.3        1 MOL1        -0.0677
      18    H12     20.892670   21.727554   22.540911 H          1 MOL1         0.1026
      19    H13     21.692002   20.154793   22.824262 H          1 MOL1         0.1026
      20    H14     22.154004   21.149561   21.416925 H          1 MOL1         0.1026
@<TRIPOS>BOND
    1     1     2    1
    2     1     3    1
    3     1     4    1
    4     1     5    1
    5     5     6    1
    6     5     7    1
    7     5     8    1
    8     8     9    1
    9     8    10    1
   10     8    11    1
   11    11    12    1
   12    11    13    1
   13    11    14    1
   14    14    15    1
   15    14    16    1
   16    14    17    1
   17    17    18    1
   18    17    19    1
   19    17    20    1
@<TRIPOS>SUBSTRUCTURE
       1 MOL1            1 RESIDUE      1      MOL     
@<SCITEGIC>MOL_PROPERTY
VConf Rank
SciTegic.value.IntegerValue
168

@<SCITEGIC>MOL_PROPERTY
Conf_Id
SciTegic.value.IntegerValue
55

@<SCITEGIC>MOL_PROPERTY
Delta U+W
SciTegic.value.DoubleValue
2.745

@<SCITEGIC>MOL_PROPERTY
U+W
SciTegic.value.DoubleValue
18.083

@<SCITEGIC>MOL_PROPERTY
Grad RMS
SciTegic.value.DoubleValue
0.000000

@<SCITEGIC>MOL_PROPERTY
U
SciTegic.value.DoubleValue
72.490

@<SCITEGIC>MOL_PROPERTY
W
SciTegic.value.DoubleValue
-54.407

@<SCITEGIC>MOL_PROPERTY
W(PB)
SciTegic.value.DoubleValue
-56.269

@<SCITEGIC>MOL_PROPERTY
W(SA)
SciTegic.value.DoubleValue
1.861

@<SCITEGIC>MOL_PROPERTY
Valence
SciTegic.value.DoubleValue
2.738

@<SCITEGIC>MOL_PROPERTY
Coulomb
SciTegic.value.DoubleValue
69.795

@<SCITEGIC>MOL_PROPERTY
VdW
SciTegic.value.DoubleValue
-0.043

@<SCITEGIC>MOL_PROPERTY
VdW6
SciTegic.value.DoubleValue
-5.333

@<SCITEGIC>MOL_PROPERTY
VdW12
SciTegic.value.DoubleValue
5.290

@<SCITEGIC>MOL_PROPERTY
Bond
SciTegic.value.DoubleValue
0.182

@<SCITEGIC>MOL_PROPERTY
Angle
SciTegic.value.DoubleValue
1.135

@<SCITEGIC>MOL_PROPERTY
Pdih
SciTegic.value.DoubleValue
1.422

@<SCITEGIC>MOL_PROPERTY
Idih
SciTegic.value.DoubleValue
0.000

@<SCITEGIC>MOL_PROPERTY
Tether
SciTegic.value.DoubleValue
0.000

@<TRIPOS>MOLECULE
guest-s9_confgen4.mol2 : confsearch ligand conformer 169
          20          19           1
SMALL
USER_CHARGES
 
@<TRIPOS>ATOM
       1    C1      21.822458   19.529930   21.353242 C.3        1 MOL1        -0.2224
       2    H1      22.827917   19.722423   20.956800 H          1 MOL1         0.1052
       3    H2      21.195656   20.396575   21.105545 H          1 MOL1         0.1052
       4    H3      21.915994   19.459892   22.442965 H          1 MOL1         0.1052
       5    C2      21.248068   18.229321   20.746724 C.3        1 MOL1        -0.1209
       6    H4      21.829051   17.368391   21.106273 H          1 MOL1         0.1041
       7    H5      21.392548   18.259055   19.657565 H          1 MOL1         0.1041
       8    C3      19.741662   17.999439   21.030852 C.3        1 MOL1        -0.1274
       9    H6      19.147554   18.825849   20.620994 H          1 MOL1         0.1041
      10    H7      19.427844   17.104958   20.476767 H          1 MOL1         0.1041
      11    C4      19.395647   17.770660   22.520646 C.3        1 MOL1         0.0313
      12    H8      20.128278   17.086278   22.955779 H          1 MOL1         0.1015
      13    H9      18.413395   17.296985   22.593023 H          1 MOL1         0.1015
      14    N1      19.350533   19.019063   23.387805 N.4        1 MOL1        -0.4809
      15    H10     20.229352   19.546814   23.292969 H          1 MOL1         0.3726
      16    H11     19.303338   18.747302   24.382329 H          1 MOL1         0.3726
      17    C5      18.153839   19.895146   23.034081 C.3        1 MOL1        -0.0677
      18    H12     18.243013   20.231451   21.999399 H          1 MOL1         0.1026
      19    H13     17.235988   19.316412   23.157590 H          1 MOL1         0.1026
      20    H14     18.135018   20.760706   23.699935 H          1 MOL1         0.1026
@<TRIPOS>BOND
    1     1     2    1
    2     1     3    1
    3     1     4    1
    4     1     5    1
    5     5     6    1
    6     5     7    1
    7     5     8    1
    8     8     9    1
    9     8    10    1
   10     8    11    1
   11    11    12    1
   12    11    13    1
   13    11    14    1
   14    14    15    1
   15    14    16    1
   16    14    17    1
   17    17    18    1
   18    17    19    1
   19    17    20    1
@<TRIPOS>SUBSTRUCTURE
       1 MOL1            1 RESIDUE      1      MOL     
@<SCITEGIC>MOL_PROPERTY
VConf Rank
SciTegic.value.IntegerValue
169

@<SCITEGIC>MOL_PROPERTY
Conf_Id
SciTegic.value.IntegerValue
76

@<SCITEGIC>MOL_PROPERTY
Delta U+W
SciTegic.value.DoubleValue
2.799

@<SCITEGIC>MOL_PROPERTY
U+W
SciTegic.value.DoubleValue
18.137

@<SCITEGIC>MOL_PROPERTY
Grad RMS
SciTegic.value.DoubleValue
0.000000

@<SCITEGIC>MOL_PROPERTY
U
SciTegic.value.DoubleValue
72.490

@<SCITEGIC>MOL_PROPERTY
W
SciTegic.value.DoubleValue
-54.353

@<SCITEGIC>MOL_PROPERTY
W(PB)
SciTegic.value.DoubleValue
-56.201

@<SCITEGIC>MOL_PROPERTY
W(SA)
SciTegic.value.DoubleValue
1.848

@<SCITEGIC>MOL_PROPERTY
Valence
SciTegic.value.DoubleValue
2.738

@<SCITEGIC>MOL_PROPERTY
Coulomb
SciTegic.value.DoubleValue
69.795

@<SCITEGIC>MOL_PROPERTY
VdW
SciTegic.value.DoubleValue
-0.043

@<SCITEGIC>MOL_PROPERTY
VdW6
SciTegic.value.DoubleValue
-5.334

@<SCITEGIC>MOL_PROPERTY
VdW12
SciTegic.value.DoubleValue
5.290

@<SCITEGIC>MOL_PROPERTY
Bond
SciTegic.value.DoubleValue
0.182

@<SCITEGIC>MOL_PROPERTY
Angle
SciTegic.value.DoubleValue
1.135

@<SCITEGIC>MOL_PROPERTY
Pdih
SciTegic.value.DoubleValue
1.421

@<SCITEGIC>MOL_PROPERTY
Idih
SciTegic.value.DoubleValue
0.000

@<SCITEGIC>MOL_PROPERTY
Tether
SciTegic.value.DoubleValue
0.000

@<TRIPOS>MOLECULE
guest-s9_confgen4.mol2 : confsearch ligand conformer 170
          20          19           1
SMALL
USER_CHARGES
 
@<TRIPOS>ATOM
       1    C1      22.207892   18.961751   21.989690 C.3        1 MOL1        -0.2224
       2    H1      21.810193   18.316140   21.197179 H          1 MOL1         0.1052
       3    H2      22.592675   19.877459   21.522386 H          1 MOL1         0.1052
       4    H3      23.056629   18.438607   22.448832 H          1 MOL1         0.1052
       5    C2      21.134036   19.290515   23.052380 C.3        1 MOL1        -0.1209
       6    H4      21.600004   19.876567   23.856899 H          1 MOL1         0.1041
       7    H5      20.776031   18.367267   23.525883 H          1 MOL1         0.1041
       8    C3      19.940709   20.095046   22.481289 C.3        1 MOL1        -0.1274
       9    H6      19.240114   20.331330   23.292919 H          1 MOL1         0.1041
      10    H7      20.312349   21.060949   22.114464 H          1 MOL1         0.1041
      11    C4      19.168086   19.407278   21.331198 C.3        1 MOL1         0.0313
      12    H8      19.844863   19.152364   20.512322 H          1 MOL1         0.1015
      13    H9      18.438255   20.123219   20.944620 H          1 MOL1         0.1015
      14    N1      18.386723   18.160171   21.717383 N.4        1 MOL1        -0.4809
      15    H10     17.549388   18.085749   21.118942 H          1 MOL1         0.3726
      16    H11     18.017463   18.250224   22.675602 H          1 MOL1         0.3726
      17    C5      19.226478   16.896944   21.561453 C.3        1 MOL1        -0.0677
      18    H12     18.616314   16.028746   21.820025 H          1 MOL1         0.1026
      19    H13     19.559980   16.814599   20.524830 H          1 MOL1         0.1026
      20    H14     20.091788   16.945167   22.223219 H          1 MOL1         0.1026
@<TRIPOS>BOND
    1     1     2    1
    2     1     3    1
    3     1     4    1
    4     1     5    1
    5     5     6    1
    6     5     7    1
    7     5     8    1
    8     8     9    1
    9     8    10    1
   10     8    11    1
   11    11    12    1
   12    11    13    1
   13    11    14    1
   14    14    15    1
   15    14    16    1
   16    14    17    1
   17    17    18    1
   18    17    19    1
   19    17    20    1
@<TRIPOS>SUBSTRUCTURE
       1 MOL1            1 RESIDUE      1      MOL     
@<SCITEGIC>MOL_PROPERTY
VConf Rank
SciTegic.value.IntegerValue
170

@<SCITEGIC>MOL_PROPERTY
Conf_Id
SciTegic.value.IntegerValue
60

@<SCITEGIC>MOL_PROPERTY
Delta U+W
SciTegic.value.DoubleValue
1.788

@<SCITEGIC>MOL_PROPERTY
U+W
SciTegic.value.DoubleValue
17.127

@<SCITEGIC>MOL_PROPERTY
Grad RMS
SciTegic.value.DoubleValue
0.000000

@<SCITEGIC>MOL_PROPERTY
U
SciTegic.value.DoubleValue
72.122

@<SCITEGIC>MOL_PROPERTY
W
SciTegic.value.DoubleValue
-54.995

@<SCITEGIC>MOL_PROPERTY
W(PB)
SciTegic.value.DoubleValue
-56.810

@<SCITEGIC>MOL_PROPERTY
W(SA)
SciTegic.value.DoubleValue
1.815

@<SCITEGIC>MOL_PROPERTY
Valence
SciTegic.value.DoubleValue
3.197

@<SCITEGIC>MOL_PROPERTY
Coulomb
SciTegic.value.DoubleValue
69.115

@<SCITEGIC>MOL_PROPERTY
VdW
SciTegic.value.DoubleValue
-0.190

@<SCITEGIC>MOL_PROPERTY
VdW6
SciTegic.value.DoubleValue
-5.585

@<SCITEGIC>MOL_PROPERTY
VdW12
SciTegic.value.DoubleValue
5.395

@<SCITEGIC>MOL_PROPERTY
Bond
SciTegic.value.DoubleValue
0.177

@<SCITEGIC>MOL_PROPERTY
Angle
SciTegic.value.DoubleValue
1.207

@<SCITEGIC>MOL_PROPERTY
Pdih
SciTegic.value.DoubleValue
1.813

@<SCITEGIC>MOL_PROPERTY
Idih
SciTegic.value.DoubleValue
0.000

@<SCITEGIC>MOL_PROPERTY
Tether
SciTegic.value.DoubleValue
0.000

@<TRIPOS>MOLECULE
guest-s9_confgen4.mol2 : confsearch ligand conformer 171
          20          19           1
SMALL
USER_CHARGES
 
@<TRIPOS>ATOM
       1    C1      19.794869   18.159314   19.980569 C.3        1 MOL1        -0.2224
       2    H1      19.614676   18.662604   19.021886 H          1 MOL1         0.1052
       3    H2      19.927869   17.088978   19.776505 H          1 MOL1         0.1052
       4    H3      18.892766   18.279814   20.592729 H          1 MOL1         0.1052
       5    C2      21.042170   18.750183   20.677472 C.3        1 MOL1        -0.1209
       6    H4      20.902862   19.824504   20.854080 H          1 MOL1         0.1041
       7    H5      21.900258   18.669217   19.995590 H          1 MOL1         0.1041
       8    C3      21.394189   18.032399   22.003488 C.3        1 MOL1        -0.1274
       9    H6      21.636600   16.984715   21.781585 H          1 MOL1         0.1041
      10    H7      22.309852   18.470507   22.421853 H          1 MOL1         0.1041
      11    C4      20.285753   18.052920   23.082202 C.3        1 MOL1         0.0313
      12    H8      20.612838   17.417012   23.908824 H          1 MOL1         0.1015
      13    H9      19.358591   17.630025   22.688379 H          1 MOL1         0.1015
      14    N1      19.977365   19.416585   23.682414 N.4        1 MOL1        -0.4809
      15    H10     20.834454   19.986661   23.737718 H          1 MOL1         0.3726
      16    H11     19.678270   19.295887   24.662605 H          1 MOL1         0.3726
      17    C5      18.878475   20.138097   22.909688 C.3        1 MOL1        -0.0677
      18    H12     17.975956   19.523247   22.912837 H          1 MOL1         0.1026
      19    H13     18.671447   21.095100   23.393640 H          1 MOL1         0.1026
      20    H14     19.202021   20.310739   21.882783 H          1 MOL1         0.1026
@<TRIPOS>BOND
    1     1     2    1
    2     1     3    1
    3     1     4    1
    4     1     5    1
    5     5     6    1
    6     5     7    1
    7     5     8    1
    8     8     9    1
    9     8    10    1
   10     8    11    1
   11    11    12    1
   12    11    13    1
   13    11    14    1
   14    14    15    1
   15    14    16    1
   16    14    17    1
   17    17    18    1
   18    17    19    1
   19    17    20    1
@<TRIPOS>SUBSTRUCTURE
       1 MOL1            1 RESIDUE      1      MOL     
@<SCITEGIC>MOL_PROPERTY
VConf Rank
SciTegic.value.IntegerValue
171

@<SCITEGIC>MOL_PROPERTY
Conf_Id
SciTegic.value.IntegerValue
54

@<SCITEGIC>MOL_PROPERTY
Delta U+W
SciTegic.value.DoubleValue
1.880

@<SCITEGIC>MOL_PROPERTY
U+W
SciTegic.value.DoubleValue
17.218

@<SCITEGIC>MOL_PROPERTY
Grad RMS
SciTegic.value.DoubleValue
0.000000

@<SCITEGIC>MOL_PROPERTY
U
SciTegic.value.DoubleValue
72.122

@<SCITEGIC>MOL_PROPERTY
W
SciTegic.value.DoubleValue
-54.903

@<SCITEGIC>MOL_PROPERTY
W(PB)
SciTegic.value.DoubleValue
-56.724

@<SCITEGIC>MOL_PROPERTY
W(SA)
SciTegic.value.DoubleValue
1.821

@<SCITEGIC>MOL_PROPERTY
Valence
SciTegic.value.DoubleValue
3.197

@<SCITEGIC>MOL_PROPERTY
Coulomb
SciTegic.value.DoubleValue
69.115

@<SCITEGIC>MOL_PROPERTY
VdW
SciTegic.value.DoubleValue
-0.190

@<SCITEGIC>MOL_PROPERTY
VdW6
SciTegic.value.DoubleValue
-5.585

@<SCITEGIC>MOL_PROPERTY
VdW12
SciTegic.value.DoubleValue
5.395

@<SCITEGIC>MOL_PROPERTY
Bond
SciTegic.value.DoubleValue
0.177

@<SCITEGIC>MOL_PROPERTY
Angle
SciTegic.value.DoubleValue
1.207

@<SCITEGIC>MOL_PROPERTY
Pdih
SciTegic.value.DoubleValue
1.813

@<SCITEGIC>MOL_PROPERTY
Idih
SciTegic.value.DoubleValue
0.000

@<SCITEGIC>MOL_PROPERTY
Tether
SciTegic.value.DoubleValue
0.000

@<TRIPOS>MOLECULE
guest-s9_confgen4.mol2 : confsearch ligand conformer 172
          20          19           1
SMALL
USER_CHARGES
 
@<TRIPOS>ATOM
       1    C1      17.967330   18.916455   24.449187 C.3        1 MOL1        -0.2224
       2    H1      17.052810   18.992495   23.846652 H          1 MOL1         0.1052
       3    H2      17.741794   18.294616   25.325244 H          1 MOL1         0.1052
       4    H3      18.224568   19.921631   24.807832 H          1 MOL1         0.1052
       5    C2      19.124378   18.305211   23.629521 C.3        1 MOL1        -0.1209
       6    H4      18.851291   17.288002   23.314783 H          1 MOL1         0.1041
       7    H5      20.013843   18.209914   24.268365 H          1 MOL1         0.1041
       8    C3      19.463930   19.160313   22.388850 C.3        1 MOL1        -0.1274
       9    H6      18.575839   19.252104   21.749449 H          1 MOL1         0.1041
      10    H7      19.739855   20.175349   22.704341 H          1 MOL1         0.1041
      11    C4      20.618506   18.544365   21.576973 C.3        1 MOL1         0.0313
      12    H8      20.341031   17.539688   21.248155 H          1 MOL1         0.1015
      13    H9      21.508796   18.466051   22.206050 H          1 MOL1         0.1015
      14    N1      20.987252   19.351023   20.347325 N.4        1 MOL1        -0.4809
      15    H10     21.248796   20.311937   20.616390 H          1 MOL1         0.3726
      16    H11     20.167623   19.454196   19.729492 H          1 MOL1         0.3726
      17    C5      22.132403   18.674123   19.605967 C.3        1 MOL1        -0.0677
      18    H12     21.821579   17.672524   19.301014 H          1 MOL1         0.1026
      19    H13     22.387478   19.264997   18.723463 H          1 MOL1         0.1026
      20    H14     22.999215   18.606855   20.266967 H          1 MOL1         0.1026
@<TRIPOS>BOND
    1     1     2    1
    2     1     3    1
    3     1     4    1
    4     1     5    1
    5     5     6    1
    6     5     7    1
    7     5     8    1
    8     8     9    1
    9     8    10    1
   10     8    11    1
   11    11    12    1
   12    11    13    1
   13    11    14    1
   14    14    15    1
   15    14    16    1
   16    14    17    1
   17    17    18    1
   18    17    19    1
   19    17    20    1
@<TRIPOS>SUBSTRUCTURE
       1 MOL1            1 RESIDUE      1      MOL     
@<SCITEGIC>MOL_PROPERTY
VConf Rank
SciTegic.value.IntegerValue
172

@<SCITEGIC>MOL_PROPERTY
Conf_Id
SciTegic.value.IntegerValue
67

@<SCITEGIC>MOL_PROPERTY
Delta U+W
SciTegic.value.DoubleValue
0.000

@<SCITEGIC>MOL_PROPERTY
U+W
SciTegic.value.DoubleValue
15.338

@<SCITEGIC>MOL_PROPERTY
Grad RMS
SciTegic.value.DoubleValue
0.000000

@<SCITEGIC>MOL_PROPERTY
U
SciTegic.value.DoubleValue
69.277

@<SCITEGIC>MOL_PROPERTY
W
SciTegic.value.DoubleValue
-53.939

@<SCITEGIC>MOL_PROPERTY
W(PB)
SciTegic.value.DoubleValue
-55.889

@<SCITEGIC>MOL_PROPERTY
W(SA)
SciTegic.value.DoubleValue
1.950

@<SCITEGIC>MOL_PROPERTY
Valence
SciTegic.value.DoubleValue
0.846

@<SCITEGIC>MOL_PROPERTY
Coulomb
SciTegic.value.DoubleValue
68.557

@<SCITEGIC>MOL_PROPERTY
VdW
SciTegic.value.DoubleValue
-0.127

@<SCITEGIC>MOL_PROPERTY
VdW6
SciTegic.value.DoubleValue
-3.008

@<SCITEGIC>MOL_PROPERTY
VdW12
SciTegic.value.DoubleValue
2.882

@<SCITEGIC>MOL_PROPERTY
Bond
SciTegic.value.DoubleValue
0.088

@<SCITEGIC>MOL_PROPERTY
Angle
SciTegic.value.DoubleValue
0.332

@<SCITEGIC>MOL_PROPERTY
Pdih
SciTegic.value.DoubleValue
0.426

@<SCITEGIC>MOL_PROPERTY
Idih
SciTegic.value.DoubleValue
0.000

@<SCITEGIC>MOL_PROPERTY
Tether
SciTegic.value.DoubleValue
0.000

@<TRIPOS>MOLECULE
guest-s9_confgen4.mol2 : confsearch ligand conformer 173
          20          19           1
SMALL
USER_CHARGES
 
@<TRIPOS>ATOM
       1    C1      18.649434   20.893752   20.280271 C.3        1 MOL1        -0.2224
       2    H1      19.582658   21.112268   19.745001 H          1 MOL1         0.1052
       3    H2      17.822086   20.986316   19.564766 H          1 MOL1         0.1052
       4    H3      18.511968   21.660328   21.053984 H          1 MOL1         0.1052
       5    C2      18.680659   19.479025   20.898206 C.3        1 MOL1        -0.1209
       6    H4      18.784482   18.733039   20.097550 H          1 MOL1         0.1041
       7    H5      17.721606   19.276770   21.395820 H          1 MOL1         0.1041
       8    C3      19.836221   19.319535   21.910594 C.3        1 MOL1        -0.1274
       9    H6      20.791444   19.522422   21.409456 H          1 MOL1         0.1041
      10    H7      19.729465   20.062125   22.712333 H          1 MOL1         0.1041
      11    C4      19.858155   17.903903   22.523359 C.3        1 MOL1         0.0313
      12    H8      20.012890   17.161272   21.736632 H          1 MOL1         0.1015
      13    H9      18.890280   17.704711   22.990497 H          1 MOL1         0.1015
      14    N1      20.924604   17.690279   23.585344 N.4        1 MOL1        -0.4809
      15    H10     20.766900   16.785096   24.055516 H          1 MOL1         0.3726
      16    H11     20.831404   18.395293   24.332369 H          1 MOL1         0.3726
      17    C5      22.324134   17.721976   22.980509 C.3        1 MOL1        -0.0677
      18    H12     22.508230   18.705254   22.543291 H          1 MOL1         0.1026
      19    H13     23.057682   17.527583   23.766060 H          1 MOL1         0.1026
      20    H14     22.399633   16.953199   22.208506 H          1 MOL1         0.1026
@<TRIPOS>BOND
    1     1     2    1
    2     1     3    1
    3     1     4    1
    4     1     5    1
    5     5     6    1
    6     5     7    1
    7     5     8    1
    8     8     9    1
    9     8    10    1
   10     8    11    1
   11    11    12    1
   12    11    13    1
   13    11    14    1
   14    14    15    1
   15    14    16    1
   16    14    17    1
   17    17    18    1
   18    17    19    1
   19    17    20    1
@<TRIPOS>SUBSTRUCTURE
       1 MOL1            1 RESIDUE      1      MOL     
@<SCITEGIC>MOL_PROPERTY
VConf Rank
SciTegic.value.IntegerValue
173

@<SCITEGIC>MOL_PROPERTY
Conf_Id
SciTegic.value.IntegerValue
37

@<SCITEGIC>MOL_PROPERTY
Delta U+W
SciTegic.value.DoubleValue
-0.021

@<SCITEGIC>MOL_PROPERTY
U+W
SciTegic.value.DoubleValue
15.318

@<SCITEGIC>MOL_PROPERTY
Grad RMS
SciTegic.value.DoubleValue
0.000000

@<SCITEGIC>MOL_PROPERTY
U
SciTegic.value.DoubleValue
69.657

@<SCITEGIC>MOL_PROPERTY
W
SciTegic.value.DoubleValue
-54.340

@<SCITEGIC>MOL_PROPERTY
W(PB)
SciTegic.value.DoubleValue
-56.238

@<SCITEGIC>MOL_PROPERTY
W(SA)
SciTegic.value.DoubleValue
1.899

@<SCITEGIC>MOL_PROPERTY
Valence
SciTegic.value.DoubleValue
1.137

@<SCITEGIC>MOL_PROPERTY
Coulomb
SciTegic.value.DoubleValue
68.383

@<SCITEGIC>MOL_PROPERTY
VdW
SciTegic.value.DoubleValue
0.138

@<SCITEGIC>MOL_PROPERTY
VdW6
SciTegic.value.DoubleValue
-3.703

@<SCITEGIC>MOL_PROPERTY
VdW12
SciTegic.value.DoubleValue
3.841

@<SCITEGIC>MOL_PROPERTY
Bond
SciTegic.value.DoubleValue
0.125

@<SCITEGIC>MOL_PROPERTY
Angle
SciTegic.value.DoubleValue
0.468

@<SCITEGIC>MOL_PROPERTY
Pdih
SciTegic.value.DoubleValue
0.543

@<SCITEGIC>MOL_PROPERTY
Idih
SciTegic.value.DoubleValue
0.000

@<SCITEGIC>MOL_PROPERTY
Tether
SciTegic.value.DoubleValue
0.000

@<TRIPOS>MOLECULE
guest-s9_confgen4.mol2 : confsearch ligand conformer 174
          20          19           1
SMALL
USER_CHARGES
 
@<TRIPOS>ATOM
       1    C1      21.189654   20.380325   19.737806 C.3        1 MOL1        -0.2224
       2    H1      21.580114   20.276003   18.717180 H          1 MOL1         0.1052
       3    H2      20.286731   21.002924   19.690173 H          1 MOL1         0.1052
       4    H3      21.941986   20.914700   20.332456 H          1 MOL1         0.1052
       5    C2      20.879374   18.995997   20.347422 C.3        1 MOL1        -0.1209
       6    H4      21.793018   18.384799   20.349183 H          1 MOL1         0.1041
       7    H5      20.150477   18.472501   19.712609 H          1 MOL1         0.1041
       8    C3      20.327875   19.111948   21.785507 C.3        1 MOL1        -0.1274
       9    H6      21.058270   19.631119   22.420020 H          1 MOL1         0.1041
      10    H7      19.416012   19.722862   21.778819 H          1 MOL1         0.1041
      11    C4      20.022511   17.724229   22.386302 C.3        1 MOL1         0.0313
      12    H8      20.931133   17.117415   22.356964 H          1 MOL1         0.1015
      13    H9      19.259985   17.220073   21.787333 H          1 MOL1         0.1015
      14    N1      19.543398   17.750432   23.828703 N.4        1 MOL1        -0.4809
      15    H10     20.223975   18.248543   24.422399 H          1 MOL1         0.3726
      16    H11     19.521292   16.788611   24.202465 H          1 MOL1         0.3726
      17    C5      18.159742   18.381376   23.942371 C.3        1 MOL1        -0.0677
      18    H12     17.457440   17.822168   23.320467 H          1 MOL1         0.1026
      19    H13     17.835674   18.347198   24.984861 H          1 MOL1         0.1026
      20    H14     18.205729   19.419444   23.607427 H          1 MOL1         0.1026
@<TRIPOS>BOND
    1     1     2    1
    2     1     3    1
    3     1     4    1
    4     1     5    1
    5     5     6    1
    6     5     7    1
    7     5     8    1
    8     8     9    1
    9     8    10    1
   10     8    11    1
   11    11    12    1
   12    11    13    1
   13    11    14    1
   14    14    15    1
   15    14    16    1
   16    14    17    1
   17    17    18    1
   18    17    19    1
   19    17    20    1
@<TRIPOS>SUBSTRUCTURE
       1 MOL1            1 RESIDUE      1      MOL     
@<SCITEGIC>MOL_PROPERTY
VConf Rank
SciTegic.value.IntegerValue
174

@<SCITEGIC>MOL_PROPERTY
Conf_Id
SciTegic.value.IntegerValue
2

@<SCITEGIC>MOL_PROPERTY
Delta U+W
SciTegic.value.DoubleValue
0.069

@<SCITEGIC>MOL_PROPERTY
U+W
SciTegic.value.DoubleValue
15.407

@<SCITEGIC>MOL_PROPERTY
Grad RMS
SciTegic.value.DoubleValue
0.000000

@<SCITEGIC>MOL_PROPERTY
U
SciTegic.value.DoubleValue
69.657

@<SCITEGIC>MOL_PROPERTY
W
SciTegic.value.DoubleValue
-54.250

@<SCITEGIC>MOL_PROPERTY
W(PB)
SciTegic.value.DoubleValue
-56.176

@<SCITEGIC>MOL_PROPERTY
W(SA)
SciTegic.value.DoubleValue
1.926

@<SCITEGIC>MOL_PROPERTY
Valence
SciTegic.value.DoubleValue
1.137

@<SCITEGIC>MOL_PROPERTY
Coulomb
SciTegic.value.DoubleValue
68.383

@<SCITEGIC>MOL_PROPERTY
VdW
SciTegic.value.DoubleValue
0.138

@<SCITEGIC>MOL_PROPERTY
VdW6
SciTegic.value.DoubleValue
-3.703

@<SCITEGIC>MOL_PROPERTY
VdW12
SciTegic.value.DoubleValue
3.841

@<SCITEGIC>MOL_PROPERTY
Bond
SciTegic.value.DoubleValue
0.125

@<SCITEGIC>MOL_PROPERTY
Angle
SciTegic.value.DoubleValue
0.468

@<SCITEGIC>MOL_PROPERTY
Pdih
SciTegic.value.DoubleValue
0.543

@<SCITEGIC>MOL_PROPERTY
Idih
SciTegic.value.DoubleValue
0.000

@<SCITEGIC>MOL_PROPERTY
Tether
SciTegic.value.DoubleValue
0.000

@<TRIPOS>MOLECULE
guest-s9_confgen4.mol2 : confsearch ligand conformer 175
          20          19           1
SMALL
USER_CHARGES
 
@<TRIPOS>ATOM
       1    C1      18.110370   17.410742   20.728611 C.3        1 MOL1        -0.2224
       2    H1      17.687126   18.220029   21.336873 H          1 MOL1         0.1052
       3    H2      18.339517   17.813502   19.733436 H          1 MOL1         0.1052
       4    H3      17.332264   16.645770   20.608781 H          1 MOL1         0.1052
       5    C2      19.370538   16.803617   21.387142 C.3        1 MOL1        -0.1209
       6    H4      19.704198   15.940363   20.794287 H          1 MOL1         0.1041
       7    H5      19.115345   16.414018   22.382780 H          1 MOL1         0.1041
       8    C3      20.536726   17.812664   21.505511 C.3        1 MOL1        -0.1274
       9    H6      21.417609   17.295004   21.907916 H          1 MOL1         0.1041
      10    H7      20.813336   18.174309   20.506229 H          1 MOL1         0.1041
      11    C4      20.195761   19.010396   22.413490 C.3        1 MOL1         0.0313
      12    H8      19.922830   18.650423   23.408628 H          1 MOL1         0.1015
      13    H9      19.344167   19.555655   21.999670 H          1 MOL1         0.1015
      14    N1      21.340842   19.991450   22.570944 N.4        1 MOL1        -0.4809
      15    H10     21.634449   20.347763   21.648488 H          1 MOL1         0.3726
      16    H11     22.170044   19.513130   22.955311 H          1 MOL1         0.3726
      17    C5      20.919594   21.140369   23.477381 C.3        1 MOL1        -0.0677
      18    H12     20.646258   20.743845   24.457616 H          1 MOL1         0.1026
      19    H13     21.752845   21.838738   23.582154 H          1 MOL1         0.1026
      20    H14     20.063162   21.653107   23.034186 H          1 MOL1         0.1026
@<TRIPOS>BOND
    1     1     2    1
    2     1     3    1
    3     1     4    1
    4     1     5    1
    5     5     6    1
    6     5     7    1
    7     5     8    1
    8     8     9    1
    9     8    10    1
   10     8    11    1
   11    11    12    1
   12    11    13    1
   13    11    14    1
   14    14    15    1
   15    14    16    1
   16    14    17    1
   17    17    18    1
   18    17    19    1
   19    17    20    1
@<TRIPOS>SUBSTRUCTURE
       1 MOL1            1 RESIDUE      1      MOL     
@<SCITEGIC>MOL_PROPERTY
VConf Rank
SciTegic.value.IntegerValue
175

@<SCITEGIC>MOL_PROPERTY
Conf_Id
SciTegic.value.IntegerValue
34

@<SCITEGIC>MOL_PROPERTY
Delta U+W
SciTegic.value.DoubleValue
0.276

@<SCITEGIC>MOL_PROPERTY
U+W
SciTegic.value.DoubleValue
15.615

@<SCITEGIC>MOL_PROPERTY
Grad RMS
SciTegic.value.DoubleValue
0.000000

@<SCITEGIC>MOL_PROPERTY
U
SciTegic.value.DoubleValue
69.798

@<SCITEGIC>MOL_PROPERTY
W
SciTegic.value.DoubleValue
-54.184

@<SCITEGIC>MOL_PROPERTY
W(PB)
SciTegic.value.DoubleValue
-56.116

@<SCITEGIC>MOL_PROPERTY
W(SA)
SciTegic.value.DoubleValue
1.933

@<SCITEGIC>MOL_PROPERTY
Valence
SciTegic.value.DoubleValue
1.134

@<SCITEGIC>MOL_PROPERTY
Coulomb
SciTegic.value.DoubleValue
68.735

@<SCITEGIC>MOL_PROPERTY
VdW
SciTegic.value.DoubleValue
-0.070

@<SCITEGIC>MOL_PROPERTY
VdW6
SciTegic.value.DoubleValue
-3.565

@<SCITEGIC>MOL_PROPERTY
VdW12
SciTegic.value.DoubleValue
3.494

@<SCITEGIC>MOL_PROPERTY
Bond
SciTegic.value.DoubleValue
0.108

@<SCITEGIC>MOL_PROPERTY
Angle
SciTegic.value.DoubleValue
0.456

@<SCITEGIC>MOL_PROPERTY
Pdih
SciTegic.value.DoubleValue
0.569

@<SCITEGIC>MOL_PROPERTY
Idih
SciTegic.value.DoubleValue
0.000

@<SCITEGIC>MOL_PROPERTY
Tether
SciTegic.value.DoubleValue
0.000

@<TRIPOS>MOLECULE
guest-s9_confgen4.mol2 : confsearch ligand conformer 176
          20          19           1
SMALL
USER_CHARGES
 
@<TRIPOS>ATOM
       1    C1      19.654309   17.350282   24.647149 C.3        1 MOL1        -0.2224
       2    H1      18.658557   17.586221   25.044615 H          1 MOL1         0.1052
       3    H2      19.835978   16.280029   24.810185 H          1 MOL1         0.1052
       4    H3      20.396503   17.909981   25.231157 H          1 MOL1         0.1052
       5    C2      19.751122   17.697724   23.145837 C.3        1 MOL1        -0.1209
       6    H4      19.018836   17.099195   22.585619 H          1 MOL1         0.1041
       7    H5      20.744619   17.411572   22.774923 H          1 MOL1         0.1041
       8    C3      19.499251   19.202333   22.889130 C.3        1 MOL1        -0.1274
       9    H6      18.519815   19.481351   23.299906 H          1 MOL1         0.1041
      10    H7      20.244967   19.805856   23.423474 H          1 MOL1         0.1041
      11    C4      19.519969   19.565220   21.390656 C.3        1 MOL1         0.0313
      12    H8      19.248300   20.617003   21.269961 H          1 MOL1         0.1015
      13    H9      18.783264   18.960375   20.855995 H          1 MOL1         0.1015
      14    N1      20.867155   19.361601   20.723186 N.4        1 MOL1        -0.4809
      15    H10     21.162753   18.378127   20.811815 H          1 MOL1         0.3726
      16    H11     21.591672   19.911452   21.209792 H          1 MOL1         0.3726
      17    C5      20.786533   19.763621   19.256653 C.3        1 MOL1        -0.0677
      18    H12     20.037820   19.146734   18.754987 H          1 MOL1         0.1026
      19    H13     20.504591   20.816459   19.187185 H          1 MOL1         0.1026
      20    H14     21.761831   19.612160   18.788847 H          1 MOL1         0.1026
@<TRIPOS>BOND
    1     1     2    1
    2     1     3    1
    3     1     4    1
    4     1     5    1
    5     5     6    1
    6     5     7    1
    7     5     8    1
    8     8     9    1
    9     8    10    1
   10     8    11    1
   11    11    12    1
   12    11    13    1
   13    11    14    1
   14    14    15    1
   15    14    16    1
   16    14    17    1
   17    17    18    1
   18    17    19    1
   19    17    20    1
@<TRIPOS>SUBSTRUCTURE
       1 MOL1            1 RESIDUE      1      MOL     
@<SCITEGIC>MOL_PROPERTY
VConf Rank
SciTegic.value.IntegerValue
176

@<SCITEGIC>MOL_PROPERTY
Conf_Id
SciTegic.value.IntegerValue
50

@<SCITEGIC>MOL_PROPERTY
Delta U+W
SciTegic.value.DoubleValue
0.319

@<SCITEGIC>MOL_PROPERTY
U+W
SciTegic.value.DoubleValue
15.657

@<SCITEGIC>MOL_PROPERTY
Grad RMS
SciTegic.value.DoubleValue
0.000000

@<SCITEGIC>MOL_PROPERTY
U
SciTegic.value.DoubleValue
69.962

@<SCITEGIC>MOL_PROPERTY
W
SciTegic.value.DoubleValue
-54.305

@<SCITEGIC>MOL_PROPERTY
W(PB)
SciTegic.value.DoubleValue
-56.223

@<SCITEGIC>MOL_PROPERTY
W(SA)
SciTegic.value.DoubleValue
1.918

@<SCITEGIC>MOL_PROPERTY
Valence
SciTegic.value.DoubleValue
0.982

@<SCITEGIC>MOL_PROPERTY
Coulomb
SciTegic.value.DoubleValue
69.058

@<SCITEGIC>MOL_PROPERTY
VdW
SciTegic.value.DoubleValue
-0.078

@<SCITEGIC>MOL_PROPERTY
VdW6
SciTegic.value.DoubleValue
-3.548

@<SCITEGIC>MOL_PROPERTY
VdW12
SciTegic.value.DoubleValue
3.471

@<SCITEGIC>MOL_PROPERTY
Bond
SciTegic.value.DoubleValue
0.105

@<SCITEGIC>MOL_PROPERTY
Angle
SciTegic.value.DoubleValue
0.408

@<SCITEGIC>MOL_PROPERTY
Pdih
SciTegic.value.DoubleValue
0.469

@<SCITEGIC>MOL_PROPERTY
Idih
SciTegic.value.DoubleValue
0.000

@<SCITEGIC>MOL_PROPERTY
Tether
SciTegic.value.DoubleValue
0.000

@<TRIPOS>MOLECULE
guest-s9_confgen4.mol2 : confsearch ligand conformer 177
          20          19           1
SMALL
USER_CHARGES
 
@<TRIPOS>ATOM
       1    C1      17.235556   17.754209   21.966802 C.3        1 MOL1        -0.2224
       2    H1      16.743192   17.247678   22.807058 H          1 MOL1         0.1052
       3    H2      16.558762   18.539046   21.604656 H          1 MOL1         0.1052
       4    H3      17.367754   17.019258   21.162095 H          1 MOL1         0.1052
       5    C2      18.591583   18.347622   22.406207 C.3        1 MOL1        -0.1209
       6    H4      19.225543   17.541136   22.798851 H          1 MOL1         0.1041
       7    H5      18.429222   19.054295   23.232388 H          1 MOL1         0.1041
       8    C3      19.306777   19.067342   21.238436 C.3        1 MOL1        -0.1274
       9    H6      19.497652   18.360253   20.420238 H          1 MOL1         0.1041
      10    H7      18.645498   19.843935   20.831625 H          1 MOL1         0.1041
      11    C4      20.631313   19.730866   21.666085 C.3        1 MOL1         0.0313
      12    H8      20.444326   20.429863   22.485154 H          1 MOL1         0.1015
      13    H9      21.040817   20.295212   20.824396 H          1 MOL1         0.1015
      14    N1      21.696265   18.750349   22.120346 N.4        1 MOL1        -0.4809
      15    H10     21.891666   18.066433   21.373267 H          1 MOL1         0.3726
      16    H11     21.351640   18.195412   22.917674 H          1 MOL1         0.3726
      17    C5      22.964831   19.501091   22.502399 C.3        1 MOL1        -0.0677
      18    H12     23.722111   18.784158   22.827242 H          1 MOL1         0.1026
      19    H13     23.330352   20.054730   21.634837 H          1 MOL1         0.1026
      20    H14     22.741423   20.194606   23.315982 H          1 MOL1         0.1026
@<TRIPOS>BOND
    1     1     2    1
    2     1     3    1
    3     1     4    1
    4     1     5    1
    5     5     6    1
    6     5     7    1
    7     5     8    1
    8     8     9    1
    9     8    10    1
   10     8    11    1
   11    11    12    1
   12    11    13    1
   13    11    14    1
   14    14    15    1
   15    14    16    1
   16    14    17    1
   17    17    18    1
   18    17    19    1
   19    17    20    1
@<TRIPOS>SUBSTRUCTURE
       1 MOL1            1 RESIDUE      1      MOL     
@<SCITEGIC>MOL_PROPERTY
VConf Rank
SciTegic.value.IntegerValue
177

@<SCITEGIC>MOL_PROPERTY
Conf_Id
SciTegic.value.IntegerValue
35

@<SCITEGIC>MOL_PROPERTY
Delta U+W
SciTegic.value.DoubleValue
0.360

@<SCITEGIC>MOL_PROPERTY
U+W
SciTegic.value.DoubleValue
15.698

@<SCITEGIC>MOL_PROPERTY
Grad RMS
SciTegic.value.DoubleValue
0.000000

@<SCITEGIC>MOL_PROPERTY
U
SciTegic.value.DoubleValue
69.962

@<SCITEGIC>MOL_PROPERTY
W
SciTegic.value.DoubleValue
-54.264

@<SCITEGIC>MOL_PROPERTY
W(PB)
SciTegic.value.DoubleValue
-56.166

@<SCITEGIC>MOL_PROPERTY
W(SA)
SciTegic.value.DoubleValue
1.902

@<SCITEGIC>MOL_PROPERTY
Valence
SciTegic.value.DoubleValue
0.982

@<SCITEGIC>MOL_PROPERTY
Coulomb
SciTegic.value.DoubleValue
69.058

@<SCITEGIC>MOL_PROPERTY
VdW
SciTegic.value.DoubleValue
-0.078

@<SCITEGIC>MOL_PROPERTY
VdW6
SciTegic.value.DoubleValue
-3.548

@<SCITEGIC>MOL_PROPERTY
VdW12
SciTegic.value.DoubleValue
3.471

@<SCITEGIC>MOL_PROPERTY
Bond
SciTegic.value.DoubleValue
0.105

@<SCITEGIC>MOL_PROPERTY
Angle
SciTegic.value.DoubleValue
0.408

@<SCITEGIC>MOL_PROPERTY
Pdih
SciTegic.value.DoubleValue
0.469

@<SCITEGIC>MOL_PROPERTY
Idih
SciTegic.value.DoubleValue
0.000

@<SCITEGIC>MOL_PROPERTY
Tether
SciTegic.value.DoubleValue
0.000

@<TRIPOS>MOLECULE
guest-s9_confgen4.mol2 : confsearch ligand conformer 178
          20          19           1
SMALL
USER_CHARGES
 
@<TRIPOS>ATOM
       1    C1      22.267425   19.173029   20.774706 C.3        1 MOL1        -0.2224
       2    H1      21.879161   20.178229   20.981816 H          1 MOL1         0.1052
       3    H2      23.342766   19.268317   20.575869 H          1 MOL1         0.1052
       4    H3      21.789236   18.802918   19.858492 H          1 MOL1         0.1052
       5    C2      22.018176   18.211972   21.959803 C.3        1 MOL1        -0.1209
       6    H4      22.502103   18.607472   22.863995 H          1 MOL1         0.1041
       7    H5      22.501586   17.247986   21.747597 H          1 MOL1         0.1041
       8    C3      20.515635   17.970797   22.235626 C.3        1 MOL1        -0.1274
       9    H6      20.045915   17.540993   21.341567 H          1 MOL1         0.1041
      10    H7      20.414071   17.224101   23.034154 H          1 MOL1         0.1041
      11    C4      19.775322   19.259899   22.652300 C.3        1 MOL1         0.0313
      12    H8      19.810857   19.988687   21.839058 H          1 MOL1         0.1015
      13    H9      20.280462   19.694414   23.518672 H          1 MOL1         0.1015
      14    N1      18.317722   19.057158   23.032685 N.4        1 MOL1        -0.4809
      15    H10     17.946202   19.924270   23.451369 H          1 MOL1         0.3726
      16    H11     18.237994   18.348905   23.778165 H          1 MOL1         0.3726
      17    C5      17.478371   18.666754   21.820892 C.3        1 MOL1        -0.0677
      18    H12     17.836125   17.714997   21.423323 H          1 MOL1         0.1026
      19    H13     16.434440   18.566763   22.126133 H          1 MOL1         0.1026
      20    H14     17.565691   19.443217   21.057887 H          1 MOL1         0.1026
@<TRIPOS>BOND
    1     1     2    1
    2     1     3    1
    3     1     4    1
    4     1     5    1
    5     5     6    1
    6     5     7    1
    7     5     8    1
    8     8     9    1
    9     8    10    1
   10     8    11    1
   11    11    12    1
   12    11    13    1
   13    11    14    1
   14    14    15    1
   15    14    16    1
   16    14    17    1
   17    17    18    1
   18    17    19    1
   19    17    20    1
@<TRIPOS>SUBSTRUCTURE
       1 MOL1            1 RESIDUE      1      MOL     
@<SCITEGIC>MOL_PROPERTY
VConf Rank
SciTegic.value.IntegerValue
178

@<SCITEGIC>MOL_PROPERTY
Conf_Id
SciTegic.value.IntegerValue
33

@<SCITEGIC>MOL_PROPERTY
Delta U+W
SciTegic.value.DoubleValue
0.372

@<SCITEGIC>MOL_PROPERTY
U+W
SciTegic.value.DoubleValue
15.711

@<SCITEGIC>MOL_PROPERTY
Grad RMS
SciTegic.value.DoubleValue
0.000000

@<SCITEGIC>MOL_PROPERTY
U
SciTegic.value.DoubleValue
70.163

@<SCITEGIC>MOL_PROPERTY
W
SciTegic.value.DoubleValue
-54.452

@<SCITEGIC>MOL_PROPERTY
W(PB)
SciTegic.value.DoubleValue
-56.363

@<SCITEGIC>MOL_PROPERTY
W(SA)
SciTegic.value.DoubleValue
1.911

@<SCITEGIC>MOL_PROPERTY
Valence
SciTegic.value.DoubleValue
1.420

@<SCITEGIC>MOL_PROPERTY
Coulomb
SciTegic.value.DoubleValue
68.566

@<SCITEGIC>MOL_PROPERTY
VdW
SciTegic.value.DoubleValue
0.177

@<SCITEGIC>MOL_PROPERTY
VdW6
SciTegic.value.DoubleValue
-4.267

@<SCITEGIC>MOL_PROPERTY
VdW12
SciTegic.value.DoubleValue
4.445

@<SCITEGIC>MOL_PROPERTY
Bond
SciTegic.value.DoubleValue
0.146

@<SCITEGIC>MOL_PROPERTY
Angle
SciTegic.value.DoubleValue
0.581

@<SCITEGIC>MOL_PROPERTY
Pdih
SciTegic.value.DoubleValue
0.693

@<SCITEGIC>MOL_PROPERTY
Idih
SciTegic.value.DoubleValue
0.000

@<SCITEGIC>MOL_PROPERTY
Tether
SciTegic.value.DoubleValue
0.000

@<TRIPOS>MOLECULE
guest-s9_confgen4.mol2 : confsearch ligand conformer 179
          20          19           1
SMALL
USER_CHARGES
 
@<TRIPOS>ATOM
       1    C1      20.686469   17.791120   24.297143 C.3        1 MOL1        -0.2224
       2    H1      20.884602   17.049911   25.082208 H          1 MOL1         0.1052
       3    H2      21.655824   18.133430   23.913418 H          1 MOL1         0.1052
       4    H3      20.181334   18.646488   24.764347 H          1 MOL1         0.1052
       5    C2      19.816942   17.175266   23.176938 C.3        1 MOL1        -0.1209
       6    H4      18.898696   16.765047   23.620255 H          1 MOL1         0.1041
       7    H5      20.346722   16.325822   22.723126 H          1 MOL1         0.1041
       8    C3      19.433064   18.196282   22.080561 C.3        1 MOL1        -0.1274
       9    H6      18.756613   17.713227   21.363214 H          1 MOL1         0.1041
      10    H7      18.871950   19.023474   22.534008 H          1 MOL1         0.1041
      11    C4      20.662610   18.744721   21.324986 C.3        1 MOL1         0.0313
      12    H8      21.229709   17.905417   20.914454 H          1 MOL1         0.1015
      13    H9      21.312613   19.286686   22.016018 H          1 MOL1         0.1015
      14    N1      20.331553   19.675607   20.169887 N.4        1 MOL1        -0.4809
      15    H10     19.690520   19.211077   19.508822 H          1 MOL1         0.3726
      16    H11     21.185720   19.863245   19.621801 H          1 MOL1         0.3726
      17    C5      19.738434   20.988639   20.669413 C.3        1 MOL1        -0.0677
      18    H12     19.549103   21.643208   19.815800 H          1 MOL1         0.1026
      19    H13     18.800906   20.787738   21.191494 H          1 MOL1         0.1026
      20    H14     20.446196   21.466986   21.349821 H          1 MOL1         0.1026
@<TRIPOS>BOND
    1     1     2    1
    2     1     3    1
    3     1     4    1
    4     1     5    1
    5     5     6    1
    6     5     7    1
    7     5     8    1
    8     8     9    1
    9     8    10    1
   10     8    11    1
   11    11    12    1
   12    11    13    1
   13    11    14    1
   14    14    15    1
   15    14    16    1
   16    14    17    1
   17    17    18    1
   18    17    19    1
   19    17    20    1
@<TRIPOS>SUBSTRUCTURE
       1 MOL1            1 RESIDUE      1      MOL     
@<SCITEGIC>MOL_PROPERTY
VConf Rank
SciTegic.value.IntegerValue
179

@<SCITEGIC>MOL_PROPERTY
Conf_Id
SciTegic.value.IntegerValue
53

@<SCITEGIC>MOL_PROPERTY
Delta U+W
SciTegic.value.DoubleValue
0.379

@<SCITEGIC>MOL_PROPERTY
U+W
SciTegic.value.DoubleValue
15.717

@<SCITEGIC>MOL_PROPERTY
Grad RMS
SciTegic.value.DoubleValue
0.000000

@<SCITEGIC>MOL_PROPERTY
U
SciTegic.value.DoubleValue
70.163

@<SCITEGIC>MOL_PROPERTY
W
SciTegic.value.DoubleValue
-54.446

@<SCITEGIC>MOL_PROPERTY
W(PB)
SciTegic.value.DoubleValue
-56.322

@<SCITEGIC>MOL_PROPERTY
W(SA)
SciTegic.value.DoubleValue
1.876

@<SCITEGIC>MOL_PROPERTY
Valence
SciTegic.value.DoubleValue
1.420

@<SCITEGIC>MOL_PROPERTY
Coulomb
SciTegic.value.DoubleValue
68.566

@<SCITEGIC>MOL_PROPERTY
VdW
SciTegic.value.DoubleValue
0.177

@<SCITEGIC>MOL_PROPERTY
VdW6
SciTegic.value.DoubleValue
-4.267

@<SCITEGIC>MOL_PROPERTY
VdW12
SciTegic.value.DoubleValue
4.445

@<SCITEGIC>MOL_PROPERTY
Bond
SciTegic.value.DoubleValue
0.146

@<SCITEGIC>MOL_PROPERTY
Angle
SciTegic.value.DoubleValue
0.581

@<SCITEGIC>MOL_PROPERTY
Pdih
SciTegic.value.DoubleValue
0.693

@<SCITEGIC>MOL_PROPERTY
Idih
SciTegic.value.DoubleValue
0.000

@<SCITEGIC>MOL_PROPERTY
Tether
SciTegic.value.DoubleValue
0.000

@<TRIPOS>MOLECULE
guest-s9_confgen4.mol2 : confsearch ligand conformer 180
          20          19           1
SMALL
USER_CHARGES
 
@<TRIPOS>ATOM
       1    C1      20.066891   20.176415   24.441890 C.3        1 MOL1        -0.2224
       2    H1      19.574226   21.127000   24.684108 H          1 MOL1         0.1052
       3    H2      19.891436   19.484997   25.276337 H          1 MOL1         0.1052
       4    H3      21.146395   20.364627   24.375480 H          1 MOL1         0.1052
       5    C2      19.520540   19.600595   23.117543 C.3        1 MOL1        -0.1209
       6    H4      19.678753   20.334201   22.315391 H          1 MOL1         0.1041
       7    H5      18.434760   19.453282   23.204500 H          1 MOL1         0.1041
       8    C3      20.200899   18.260355   22.752040 C.3        1 MOL1        -0.1274
       9    H6      21.282552   18.407244   22.637187 H          1 MOL1         0.1041
      10    H7      20.073033   17.550902   23.580275 H          1 MOL1         0.1041
      11    C4      19.619199   17.621004   21.471604 C.3        1 MOL1         0.0313
      12    H8      18.554088   17.428550   21.623686 H          1 MOL1         0.1015
      13    H9      20.109619   16.661638   21.288305 H          1 MOL1         0.1015
      14    N1      19.754282   18.455552   20.206728 N.4        1 MOL1        -0.4809
      15    H10     19.306110   19.374340   20.337113 H          1 MOL1         0.3726
      16    H11     19.226020   18.008890   19.440793 H          1 MOL1         0.3726
      17    C5      21.215584   18.617754   19.802717 C.3        1 MOL1        -0.0677
      18    H12     21.658642   17.630921   19.652659 H          1 MOL1         0.1026
      19    H13     21.268704   19.190020   18.873943 H          1 MOL1         0.1026
      20    H14     21.752314   19.148815   20.591330 H          1 MOL1         0.1026
@<TRIPOS>BOND
    1     1     2    1
    2     1     3    1
    3     1     4    1
    4     1     5    1
    5     5     6    1
    6     5     7    1
    7     5     8    1
    8     8     9    1
    9     8    10    1
   10     8    11    1
   11    11    12    1
   12    11    13    1
   13    11    14    1
   14    14    15    1
   15    14    16    1
   16    14    17    1
   17    17    18    1
   18    17    19    1
   19    17    20    1
@<TRIPOS>SUBSTRUCTURE
       1 MOL1            1 RESIDUE      1      MOL     
@<SCITEGIC>MOL_PROPERTY
VConf Rank
SciTegic.value.IntegerValue
180

@<SCITEGIC>MOL_PROPERTY
Conf_Id
SciTegic.value.IntegerValue
49

@<SCITEGIC>MOL_PROPERTY
Delta U+W
SciTegic.value.DoubleValue
0.268

@<SCITEGIC>MOL_PROPERTY
U+W
SciTegic.value.DoubleValue
15.607

@<SCITEGIC>MOL_PROPERTY
Grad RMS
SciTegic.value.DoubleValue
0.000000

@<SCITEGIC>MOL_PROPERTY
U
SciTegic.value.DoubleValue
70.298

@<SCITEGIC>MOL_PROPERTY
W
SciTegic.value.DoubleValue
-54.692

@<SCITEGIC>MOL_PROPERTY
W(PB)
SciTegic.value.DoubleValue
-56.576

@<SCITEGIC>MOL_PROPERTY
W(SA)
SciTegic.value.DoubleValue
1.885

@<SCITEGIC>MOL_PROPERTY
Valence
SciTegic.value.DoubleValue
1.245

@<SCITEGIC>MOL_PROPERTY
Coulomb
SciTegic.value.DoubleValue
68.933

@<SCITEGIC>MOL_PROPERTY
VdW
SciTegic.value.DoubleValue
0.120

@<SCITEGIC>MOL_PROPERTY
VdW6
SciTegic.value.DoubleValue
-4.430

@<SCITEGIC>MOL_PROPERTY
VdW12
SciTegic.value.DoubleValue
4.550

@<SCITEGIC>MOL_PROPERTY
Bond
SciTegic.value.DoubleValue
0.148

@<SCITEGIC>MOL_PROPERTY
Angle
SciTegic.value.DoubleValue
0.587

@<SCITEGIC>MOL_PROPERTY
Pdih
SciTegic.value.DoubleValue
0.509

@<SCITEGIC>MOL_PROPERTY
Idih
SciTegic.value.DoubleValue
0.000

@<SCITEGIC>MOL_PROPERTY
Tether
SciTegic.value.DoubleValue
0.000

@<TRIPOS>MOLECULE
guest-s9_confgen4.mol2 : confsearch ligand conformer 181
          20          19           1
SMALL
USER_CHARGES
 
@<TRIPOS>ATOM
       1    C1      18.274814   17.263823   20.442883 C.3        1 MOL1        -0.2224
       2    H1      17.547068   16.943270   21.199720 H          1 MOL1         0.1052
       3    H2      17.755553   17.907019   19.720521 H          1 MOL1         0.1052
       4    H3      18.619986   16.369347   19.908310 H          1 MOL1         0.1052
       5    C2      19.464019   18.003488   21.093281 C.3        1 MOL1        -0.1209
       6    H4      20.187482   18.286566   20.315812 H          1 MOL1         0.1041
       7    H5      19.978242   17.314933   21.776665 H          1 MOL1         0.1041
       8    C3      19.003178   19.263171   21.862988 C.3        1 MOL1        -0.1274
       9    H6      18.391450   19.886115   21.197041 H          1 MOL1         0.1041
      10    H7      18.350715   18.971187   22.696411 H          1 MOL1         0.1041
      11    C4      20.161163   20.135359   22.398889 C.3        1 MOL1         0.0313
      12    H8      19.726160   21.023672   22.864095 H          1 MOL1         0.1015
      13    H9      20.796847   20.470742   21.575650 H          1 MOL1         0.1015
      14    N1      21.046062   19.480998   23.448663 N.4        1 MOL1        -0.4809
      15    H10     20.495766   18.829104   24.027496 H          1 MOL1         0.3726
      16    H11     21.380902   20.200794   24.108045 H          1 MOL1         0.3726
      17    C5      22.246022   18.786850   22.812346 C.3        1 MOL1        -0.0677
      18    H12     22.865408   18.351607   23.599673 H          1 MOL1         0.1026
      19    H13     21.903749   17.999786   22.139524 H          1 MOL1         0.1026
      20    H14     22.828651   19.521394   22.252278 H          1 MOL1         0.1026
@<TRIPOS>BOND
    1     1     2    1
    2     1     3    1
    3     1     4    1
    4     1     5    1
    5     5     6    1
    6     5     7    1
    7     5     8    1
    8     8     9    1
    9     8    10    1
   10     8    11    1
   11    11    12    1
   12    11    13    1
   13    11    14    1
   14    14    15    1
   15    14    16    1
   16    14    17    1
   17    17    18    1
   18    17    19    1
   19    17    20    1
@<TRIPOS>SUBSTRUCTURE
       1 MOL1            1 RESIDUE      1      MOL     
@<SCITEGIC>MOL_PROPERTY
VConf Rank
SciTegic.value.IntegerValue
181

@<SCITEGIC>MOL_PROPERTY
Conf_Id
SciTegic.value.IntegerValue
65

@<SCITEGIC>MOL_PROPERTY
Delta U+W
SciTegic.value.DoubleValue
1.775

@<SCITEGIC>MOL_PROPERTY
U+W
SciTegic.value.DoubleValue
17.114

@<SCITEGIC>MOL_PROPERTY
Grad RMS
SciTegic.value.DoubleValue
0.000000

@<SCITEGIC>MOL_PROPERTY
U
SciTegic.value.DoubleValue
71.726

@<SCITEGIC>MOL_PROPERTY
W
SciTegic.value.DoubleValue
-54.613

@<SCITEGIC>MOL_PROPERTY
W(PB)
SciTegic.value.DoubleValue
-56.495

@<SCITEGIC>MOL_PROPERTY
W(SA)
SciTegic.value.DoubleValue
1.883

@<SCITEGIC>MOL_PROPERTY
Valence
SciTegic.value.DoubleValue
2.885

@<SCITEGIC>MOL_PROPERTY
Coulomb
SciTegic.value.DoubleValue
68.822

@<SCITEGIC>MOL_PROPERTY
VdW
SciTegic.value.DoubleValue
0.019

@<SCITEGIC>MOL_PROPERTY
VdW6
SciTegic.value.DoubleValue
-4.600

@<SCITEGIC>MOL_PROPERTY
VdW12
SciTegic.value.DoubleValue
4.619

@<SCITEGIC>MOL_PROPERTY
Bond
SciTegic.value.DoubleValue
0.152

@<SCITEGIC>MOL_PROPERTY
Angle
SciTegic.value.DoubleValue
0.862

@<SCITEGIC>MOL_PROPERTY
Pdih
SciTegic.value.DoubleValue
1.871

@<SCITEGIC>MOL_PROPERTY
Idih
SciTegic.value.DoubleValue
0.000

@<SCITEGIC>MOL_PROPERTY
Tether
SciTegic.value.DoubleValue
0.000

@<TRIPOS>MOLECULE
guest-s9_confgen4.mol2 : confsearch ligand conformer 182
          20          19           1
SMALL
USER_CHARGES
 
@<TRIPOS>ATOM
       1    C1      18.876420   20.786117   21.838086 C.3        1 MOL1        -0.2224
       2    H1      19.934043   20.806160   21.546480 H          1 MOL1         0.1052
       3    H2      18.320189   21.385798   21.105986 H          1 MOL1         0.1052
       4    H3      18.780984   21.278083   22.814781 H          1 MOL1         0.1052
       5    C2      18.325776   19.342307   21.886806 C.3        1 MOL1        -0.1209
       6    H4      18.431621   18.872670   20.899462 H          1 MOL1         0.1041
       7    H5      17.246272   19.378609   22.090175 H          1 MOL1         0.1041
       8    C3      19.007633   18.468529   22.969202 C.3        1 MOL1        -0.1274
       9    H6      18.804213   18.896917   23.959591 H          1 MOL1         0.1041
      10    H7      18.553833   17.468624   22.969986 H          1 MOL1         0.1041
      11    C4      20.534840   18.332418   22.795771 C.3        1 MOL1         0.0313
      12    H8      20.939976   17.730377   23.613054 H          1 MOL1         0.1015
      13    H9      20.999711   19.320183   22.840291 H          1 MOL1         0.1015
      14    N1      20.951073   17.677840   21.492359 N.4        1 MOL1        -0.4809
      15    H10     20.580215   18.214561   20.694309 H          1 MOL1         0.3726
      16    H11     20.528346   16.740218   21.414481 H          1 MOL1         0.3726
      17    C5      22.469230   17.588498   21.416628 C.3        1 MOL1        -0.0677
      18    H12     22.836489   16.990113   22.253180 H          1 MOL1         0.1026
      19    H13     22.754387   17.116904   20.473625 H          1 MOL1         0.1026
      20    H14     22.891973   18.594188   21.467985 H          1 MOL1         0.1026
@<TRIPOS>BOND
    1     1     2    1
    2     1     3    1
    3     1     4    1
    4     1     5    1
    5     5     6    1
    6     5     7    1
    7     5     8    1
    8     8     9    1
    9     8    10    1
   10     8    11    1
   11    11    12    1
   12    11    13    1
   13    11    14    1
   14    14    15    1
   15    14    16    1
   16    14    17    1
   17    17    18    1
   18    17    19    1
   19    17    20    1
@<TRIPOS>SUBSTRUCTURE
       1 MOL1            1 RESIDUE      1      MOL     
@<SCITEGIC>MOL_PROPERTY
VConf Rank
SciTegic.value.IntegerValue
182

@<SCITEGIC>MOL_PROPERTY
Conf_Id
SciTegic.value.IntegerValue
23

@<SCITEGIC>MOL_PROPERTY
Delta U+W
SciTegic.value.DoubleValue
0.896

@<SCITEGIC>MOL_PROPERTY
U+W
SciTegic.value.DoubleValue
16.234

@<SCITEGIC>MOL_PROPERTY
Grad RMS
SciTegic.value.DoubleValue
0.000000

@<SCITEGIC>MOL_PROPERTY
U
SciTegic.value.DoubleValue
70.374

@<SCITEGIC>MOL_PROPERTY
W
SciTegic.value.DoubleValue
-54.140

@<SCITEGIC>MOL_PROPERTY
W(PB)
SciTegic.value.DoubleValue
-56.046

@<SCITEGIC>MOL_PROPERTY
W(SA)
SciTegic.value.DoubleValue
1.907

@<SCITEGIC>MOL_PROPERTY
Valence
SciTegic.value.DoubleValue
1.257

@<SCITEGIC>MOL_PROPERTY
Coulomb
SciTegic.value.DoubleValue
69.240

@<SCITEGIC>MOL_PROPERTY
VdW
SciTegic.value.DoubleValue
-0.123

@<SCITEGIC>MOL_PROPERTY
VdW6
SciTegic.value.DoubleValue
-4.336

@<SCITEGIC>MOL_PROPERTY
VdW12
SciTegic.value.DoubleValue
4.213

@<SCITEGIC>MOL_PROPERTY
Bond
SciTegic.value.DoubleValue
0.128

@<SCITEGIC>MOL_PROPERTY
Angle
SciTegic.value.DoubleValue
0.603

@<SCITEGIC>MOL_PROPERTY
Pdih
SciTegic.value.DoubleValue
0.526

@<SCITEGIC>MOL_PROPERTY
Idih
SciTegic.value.DoubleValue
0.000

@<SCITEGIC>MOL_PROPERTY
Tether
SciTegic.value.DoubleValue
0.000

@<TRIPOS>MOLECULE
guest-s9_confgen4.mol2 : confsearch ligand conformer 183
          20          19           1
SMALL
USER_CHARGES
 
@<TRIPOS>ATOM
       1    C1      21.196106   18.378546   19.947619 C.3        1 MOL1        -0.2224
       2    H1      21.454370   17.317341   19.837108 H          1 MOL1         0.1052
       3    H2      21.478315   18.889789   19.018120 H          1 MOL1         0.1052
       4    H3      21.809607   18.797990   20.754891 H          1 MOL1         0.1052
       5    C2      19.686152   18.556889   20.227621 C.3        1 MOL1        -0.1209
       6    H4      19.117478   18.208436   19.354011 H          1 MOL1         0.1041
       7    H5      19.453304   19.625177   20.333238 H          1 MOL1         0.1041
       8    C3      19.204460   17.779558   21.478112 C.3        1 MOL1        -0.1274
       9    H6      18.123459   17.925379   21.604268 H          1 MOL1         0.1041
      10    H7      19.350172   16.703860   21.312561 H          1 MOL1         0.1041
      11    C4      19.925915   18.179258   22.782225 C.3        1 MOL1         0.0313
      12    H8      20.997882   17.993497   22.681510 H          1 MOL1         0.1015
      13    H9      19.551862   17.565754   23.605777 H          1 MOL1         0.1015
      14    N1      19.737554   19.633529   23.169812 N.4        1 MOL1        -0.4809
      15    H10     18.733690   19.846828   23.273059 H          1 MOL1         0.3726
      16    H11     20.073080   20.246481   22.412051 H          1 MOL1         0.3726
      17    C5      20.483177   19.927675   24.464434 C.3        1 MOL1        -0.0677
      18    H12     21.546902   19.726046   24.320930 H          1 MOL1         0.1026
      19    H13     20.339967   20.977269   24.730541 H          1 MOL1         0.1026
      20    H14     20.090020   19.289660   25.258870 H          1 MOL1         0.1026
@<TRIPOS>BOND
    1     1     2    1
    2     1     3    1
    3     1     4    1
    4     1     5    1
    5     5     6    1
    6     5     7    1
    7     5     8    1
    8     8     9    1
    9     8    10    1
   10     8    11    1
   11    11    12    1
   12    11    13    1
   13    11    14    1
   14    14    15    1
   15    14    16    1
   16    14    17    1
   17    17    18    1
   18    17    19    1
   19    17    20    1
@<TRIPOS>SUBSTRUCTURE
       1 MOL1            1 RESIDUE      1      MOL     
@<SCITEGIC>MOL_PROPERTY
VConf Rank
SciTegic.value.IntegerValue
183

@<SCITEGIC>MOL_PROPERTY
Conf_Id
SciTegic.value.IntegerValue
24

@<SCITEGIC>MOL_PROPERTY
Delta U+W
SciTegic.value.DoubleValue
0.792

@<SCITEGIC>MOL_PROPERTY
U+W
SciTegic.value.DoubleValue
16.130

@<SCITEGIC>MOL_PROPERTY
Grad RMS
SciTegic.value.DoubleValue
0.000000

@<SCITEGIC>MOL_PROPERTY
U
SciTegic.value.DoubleValue
70.374

@<SCITEGIC>MOL_PROPERTY
W
SciTegic.value.DoubleValue
-54.243

@<SCITEGIC>MOL_PROPERTY
W(PB)
SciTegic.value.DoubleValue
-56.130

@<SCITEGIC>MOL_PROPERTY
W(SA)
SciTegic.value.DoubleValue
1.887

@<SCITEGIC>MOL_PROPERTY
Valence
SciTegic.value.DoubleValue
1.257

@<SCITEGIC>MOL_PROPERTY
Coulomb
SciTegic.value.DoubleValue
69.240

@<SCITEGIC>MOL_PROPERTY
VdW
SciTegic.value.DoubleValue
-0.123

@<SCITEGIC>MOL_PROPERTY
VdW6
SciTegic.value.DoubleValue
-4.336

@<SCITEGIC>MOL_PROPERTY
VdW12
SciTegic.value.DoubleValue
4.213

@<SCITEGIC>MOL_PROPERTY
Bond
SciTegic.value.DoubleValue
0.128

@<SCITEGIC>MOL_PROPERTY
Angle
SciTegic.value.DoubleValue
0.603

@<SCITEGIC>MOL_PROPERTY
Pdih
SciTegic.value.DoubleValue
0.526

@<SCITEGIC>MOL_PROPERTY
Idih
SciTegic.value.DoubleValue
0.000

@<SCITEGIC>MOL_PROPERTY
Tether
SciTegic.value.DoubleValue
0.000

@<TRIPOS>MOLECULE
guest-s9_confgen4.mol2 : confsearch ligand conformer 184
          20          19           1
SMALL
USER_CHARGES
 
@<TRIPOS>ATOM
       1    C1      20.856705   16.820817   22.422895 C.3        1 MOL1        -0.2224
       2    H1      21.542569   16.029175   22.751700 H          1 MOL1         0.1052
       3    H2      20.579860   17.395984   23.314292 H          1 MOL1         0.1052
       4    H3      19.958635   16.335342   22.019226 H          1 MOL1         0.1052
       5    C2      21.539301   17.712657   21.360753 C.3        1 MOL1        -0.1209
       6    H4      21.984860   17.064661   20.592869 H          1 MOL1         0.1041
       7    H5      22.376138   18.255504   21.822407 H          1 MOL1         0.1041
       8    C3      20.589807   18.717971   20.660292 C.3        1 MOL1        -0.1274
       9    H6      21.164827   19.242271   19.885515 H          1 MOL1         0.1041
      10    H7      19.789895   18.183207   20.131262 H          1 MOL1         0.1041
      11    C4      19.982801   19.782734   21.598433 C.3        1 MOL1         0.0313
      12    H8      19.652344   20.637217   21.002447 H          1 MOL1         0.1015
      13    H9      20.743480   20.133136   22.300479 H          1 MOL1         0.1015
      14    N1      18.780610   19.305832   22.391088 N.4        1 MOL1        -0.4809
      15    H10     19.026453   18.464903   22.932399 H          1 MOL1         0.3726
      16    H11     18.028463   19.009525   21.750398 H          1 MOL1         0.3726
      17    C5      18.291530   20.414139   23.313515 C.3        1 MOL1        -0.0677
      18    H12     19.092808   20.688246   24.003143 H          1 MOL1         0.1026
      19    H13     18.007216   21.281634   22.714030 H          1 MOL1         0.1026
      20    H14     17.426789   20.056817   23.876999 H          1 MOL1         0.1026
@<TRIPOS>BOND
    1     1     2    1
    2     1     3    1
    3     1     4    1
    4     1     5    1
    5     5     6    1
    6     5     7    1
    7     5     8    1
    8     8     9    1
    9     8    10    1
   10     8    11    1
   11    11    12    1
   12    11    13    1
   13    11    14    1
   14    14    15    1
   15    14    16    1
   16    14    17    1
   17    17    18    1
   18    17    19    1
   19    17    20    1
@<TRIPOS>SUBSTRUCTURE
       1 MOL1            1 RESIDUE      1      MOL     
@<SCITEGIC>MOL_PROPERTY
VConf Rank
SciTegic.value.IntegerValue
184

@<SCITEGIC>MOL_PROPERTY
Conf_Id
SciTegic.value.IntegerValue
26

@<SCITEGIC>MOL_PROPERTY
Delta U+W
SciTegic.value.DoubleValue
2.888

@<SCITEGIC>MOL_PROPERTY
U+W
SciTegic.value.DoubleValue
18.226

@<SCITEGIC>MOL_PROPERTY
Grad RMS
SciTegic.value.DoubleValue
0.000000

@<SCITEGIC>MOL_PROPERTY
U
SciTegic.value.DoubleValue
72.042

@<SCITEGIC>MOL_PROPERTY
W
SciTegic.value.DoubleValue
-53.816

@<SCITEGIC>MOL_PROPERTY
W(PB)
SciTegic.value.DoubleValue
-55.689

@<SCITEGIC>MOL_PROPERTY
W(SA)
SciTegic.value.DoubleValue
1.873

@<SCITEGIC>MOL_PROPERTY
Valence
SciTegic.value.DoubleValue
2.428

@<SCITEGIC>MOL_PROPERTY
Coulomb
SciTegic.value.DoubleValue
69.829

@<SCITEGIC>MOL_PROPERTY
VdW
SciTegic.value.DoubleValue
-0.215

@<SCITEGIC>MOL_PROPERTY
VdW6
SciTegic.value.DoubleValue
-4.563

@<SCITEGIC>MOL_PROPERTY
VdW12
SciTegic.value.DoubleValue
4.348

@<SCITEGIC>MOL_PROPERTY
Bond
SciTegic.value.DoubleValue
0.137

@<SCITEGIC>MOL_PROPERTY
Angle
SciTegic.value.DoubleValue
0.936

@<SCITEGIC>MOL_PROPERTY
Pdih
SciTegic.value.DoubleValue
1.356

@<SCITEGIC>MOL_PROPERTY
Idih
SciTegic.value.DoubleValue
0.000

@<SCITEGIC>MOL_PROPERTY
Tether
SciTegic.value.DoubleValue
0.000

@<TRIPOS>MOLECULE
guest-s9_confgen4.mol2 : confsearch ligand conformer 185
          20          19           1
SMALL
USER_CHARGES
 
@<TRIPOS>ATOM
       1    C1      19.920053   20.217201   23.773255 C.3        1 MOL1        -0.2224
       2    H1      19.626165   21.044504   24.432360 H          1 MOL1         0.1052
       3    H2      20.683325   19.628959   24.299137 H          1 MOL1         0.1052
       4    H3      20.369334   20.664024   22.878523 H          1 MOL1         0.1052
       5    C2      18.688794   19.352298   23.419129 C.3        1 MOL1        -0.1209
       6    H4      17.988511   19.944135   22.812961 H          1 MOL1         0.1041
       7    H5      18.153995   19.107045   24.347519 H          1 MOL1         0.1041
       8    C3      19.023577   18.029070   22.684403 C.3        1 MOL1        -0.1274
       9    H6      19.663097   17.394548   23.312178 H          1 MOL1         0.1041
      10    H7      18.087229   17.471741   22.548555 H          1 MOL1         0.1041
      11    C4      19.666870   18.216015   21.293897 C.3        1 MOL1         0.0313
      12    H8      19.173216   19.035588   20.765797 H          1 MOL1         0.1015
      13    H9      19.526380   17.303047   20.709691 H          1 MOL1         0.1015
      14    N1      21.157665   18.494333   21.326610 N.4        1 MOL1        -0.4809
      15    H10     21.654146   17.713323   21.782169 H          1 MOL1         0.3726
      16    H11     21.349337   19.319529   21.912215 H          1 MOL1         0.3726
      17    C5      21.679317   18.706983   19.912018 C.3        1 MOL1        -0.0677
      18    H12     21.163163   19.557857   19.462166 H          1 MOL1         0.1026
      19    H13     22.752545   18.906012   19.951254 H          1 MOL1         0.1026
      20    H14     21.493225   17.807540   19.321138 H          1 MOL1         0.1026
@<TRIPOS>BOND
    1     1     2    1
    2     1     3    1
    3     1     4    1
    4     1     5    1
    5     5     6    1
    6     5     7    1
    7     5     8    1
    8     8     9    1
    9     8    10    1
   10     8    11    1
   11    11    12    1
   12    11    13    1
   13    11    14    1
   14    14    15    1
   15    14    16    1
   16    14    17    1
   17    17    18    1
   18    17    19    1
   19    17    20    1
@<TRIPOS>SUBSTRUCTURE
       1 MOL1            1 RESIDUE      1      MOL     
@<SCITEGIC>MOL_PROPERTY
VConf Rank
SciTegic.value.IntegerValue
185

@<SCITEGIC>MOL_PROPERTY
Conf_Id
SciTegic.value.IntegerValue
5

@<SCITEGIC>MOL_PROPERTY
Delta U+W
SciTegic.value.DoubleValue
2.950

@<SCITEGIC>MOL_PROPERTY
U+W
SciTegic.value.DoubleValue
18.289

@<SCITEGIC>MOL_PROPERTY
Grad RMS
SciTegic.value.DoubleValue
0.000000

@<SCITEGIC>MOL_PROPERTY
U
SciTegic.value.DoubleValue
72.042

@<SCITEGIC>MOL_PROPERTY
W
SciTegic.value.DoubleValue
-53.753

@<SCITEGIC>MOL_PROPERTY
W(PB)
SciTegic.value.DoubleValue
-55.644

@<SCITEGIC>MOL_PROPERTY
W(SA)
SciTegic.value.DoubleValue
1.891

@<SCITEGIC>MOL_PROPERTY
Valence
SciTegic.value.DoubleValue
2.428

@<SCITEGIC>MOL_PROPERTY
Coulomb
SciTegic.value.DoubleValue
69.829

@<SCITEGIC>MOL_PROPERTY
VdW
SciTegic.value.DoubleValue
-0.215

@<SCITEGIC>MOL_PROPERTY
VdW6
SciTegic.value.DoubleValue
-4.563

@<SCITEGIC>MOL_PROPERTY
VdW12
SciTegic.value.DoubleValue
4.348

@<SCITEGIC>MOL_PROPERTY
Bond
SciTegic.value.DoubleValue
0.137

@<SCITEGIC>MOL_PROPERTY
Angle
SciTegic.value.DoubleValue
0.936

@<SCITEGIC>MOL_PROPERTY
Pdih
SciTegic.value.DoubleValue
1.356

@<SCITEGIC>MOL_PROPERTY
Idih
SciTegic.value.DoubleValue
0.000

@<SCITEGIC>MOL_PROPERTY
Tether
SciTegic.value.DoubleValue
0.000

@<TRIPOS>MOLECULE
guest-s9_confgen4.mol2 : confsearch ligand conformer 186
          20          19           1
SMALL
USER_CHARGES
 
@<TRIPOS>ATOM
       1    C1      19.456688   16.592458   21.318135 C.3        1 MOL1        -0.2224
       2    H1      19.463392   15.873140   22.147348 H          1 MOL1         0.1052
       3    H2      18.529751   17.176265   21.379233 H          1 MOL1         0.1052
       4    H3      19.427147   16.021780   20.380893 H          1 MOL1         0.1052
       5    C2      20.706943   17.500858   21.360702 C.3        1 MOL1        -0.1209
       6    H4      20.680096   18.208407   20.520812 H          1 MOL1         0.1041
       7    H5      21.602720   16.882842   21.207295 H          1 MOL1         0.1041
       8    C3      20.854143   18.268958   22.697732 C.3        1 MOL1        -0.1274
       9    H6      20.975504   17.547753   23.516676 H          1 MOL1         0.1041
      10    H7      21.778384   18.860685   22.677983 H          1 MOL1         0.1041
      11    C4      19.658324   19.191135   23.028093 C.3        1 MOL1         0.0313
      12    H8      19.838820   19.696565   23.980133 H          1 MOL1         0.1015
      13    H9      18.758832   18.580776   23.139699 H          1 MOL1         0.1015
      14    N1      19.357306   20.258987   21.987706 N.4        1 MOL1        -0.4809
      15    H10     18.468949   20.729273   22.221605 H          1 MOL1         0.3726
      16    H11     19.194080   19.820554   21.069426 H          1 MOL1         0.3726
      17    C5      20.482130   21.285020   21.906164 C.3        1 MOL1        -0.0677
      18    H12     21.403893   20.787657   21.597986 H          1 MOL1         0.1026
      19    H13     20.216065   22.050431   21.173866 H          1 MOL1         0.1026
      20    H14     20.619820   21.745888   22.886611 H          1 MOL1         0.1026
@<TRIPOS>BOND
    1     1     2    1
    2     1     3    1
    3     1     4    1
    4     1     5    1
    5     5     6    1
    6     5     7    1
    7     5     8    1
    8     8     9    1
    9     8    10    1
   10     8    11    1
   11    11    12    1
   12    11    13    1
   13    11    14    1
   14    14    15    1
   15    14    16    1
   16    14    17    1
   17    17    18    1
   18    17    19    1
   19    17    20    1
@<TRIPOS>SUBSTRUCTURE
       1 MOL1            1 RESIDUE      1      MOL     
@<SCITEGIC>MOL_PROPERTY
VConf Rank
SciTegic.value.IntegerValue
186

@<SCITEGIC>MOL_PROPERTY
Conf_Id
SciTegic.value.IntegerValue
52

@<SCITEGIC>MOL_PROPERTY
Delta U+W
SciTegic.value.DoubleValue
0.784

@<SCITEGIC>MOL_PROPERTY
U+W
SciTegic.value.DoubleValue
16.122

@<SCITEGIC>MOL_PROPERTY
Grad RMS
SciTegic.value.DoubleValue
0.000000

@<SCITEGIC>MOL_PROPERTY
U
SciTegic.value.DoubleValue
70.777

@<SCITEGIC>MOL_PROPERTY
W
SciTegic.value.DoubleValue
-54.655

@<SCITEGIC>MOL_PROPERTY
W(PB)
SciTegic.value.DoubleValue
-56.491

@<SCITEGIC>MOL_PROPERTY
W(SA)
SciTegic.value.DoubleValue
1.836

@<SCITEGIC>MOL_PROPERTY
Valence
SciTegic.value.DoubleValue
1.529

@<SCITEGIC>MOL_PROPERTY
Coulomb
SciTegic.value.DoubleValue
69.166

@<SCITEGIC>MOL_PROPERTY
VdW
SciTegic.value.DoubleValue
0.082

@<SCITEGIC>MOL_PROPERTY
VdW6
SciTegic.value.DoubleValue
-5.166

@<SCITEGIC>MOL_PROPERTY
VdW12
SciTegic.value.DoubleValue
5.248

@<SCITEGIC>MOL_PROPERTY
Bond
SciTegic.value.DoubleValue
0.171

@<SCITEGIC>MOL_PROPERTY
Angle
SciTegic.value.DoubleValue
0.752

@<SCITEGIC>MOL_PROPERTY
Pdih
SciTegic.value.DoubleValue
0.605

@<SCITEGIC>MOL_PROPERTY
Idih
SciTegic.value.DoubleValue
0.000

@<SCITEGIC>MOL_PROPERTY
Tether
SciTegic.value.DoubleValue
0.000

@<TRIPOS>MOLECULE
guest-s9_confgen4.mol2 : confsearch ligand conformer 187
          20          19           1
SMALL
USER_CHARGES
 
@<TRIPOS>ATOM
       1    C1      19.276375   18.654848   20.086088 C.3        1 MOL1        -0.2224
       2    H1      18.767005   18.659868   19.113624 H          1 MOL1         0.1052
       3    H2      20.218154   19.200325   19.957011 H          1 MOL1         0.1052
       4    H3      19.502487   17.610427   20.337813 H          1 MOL1         0.1052
       5    C2      18.381621   19.311164   21.162206 C.3        1 MOL1        -0.1209
       6    H4      17.373804   18.878803   21.088767 H          1 MOL1         0.1041
       7    H5      18.268790   20.382237   20.942913 H          1 MOL1         0.1041
       8    C3      18.885341   19.125012   22.616316 C.3        1 MOL1        -0.1274
       9    H6      18.128244   19.546331   23.290764 H          1 MOL1         0.1041
      10    H7      18.942731   18.057777   22.864549 H          1 MOL1         0.1041
      11    C4      20.228418   19.826064   22.926513 C.3        1 MOL1         0.0313
      12    H8      20.337320   19.931731   24.008824 H          1 MOL1         0.1015
      13    H9      20.215140   20.829495   22.493595 H          1 MOL1         0.1015
      14    N1      21.475769   19.116890   22.422827 N.4        1 MOL1        -0.4809
      15    H10     22.289123   19.746495   22.507739 H          1 MOL1         0.3726
      16    H11     21.388665   18.921757   21.415763 H          1 MOL1         0.3726
      17    C5      21.733614   17.831602   23.201463 C.3        1 MOL1        -0.0677
      18    H12     21.836833   18.068943   24.262433 H          1 MOL1         0.1026
      19    H13     20.898014   17.144536   23.055417 H          1 MOL1         0.1026
      20    H14     22.654272   17.370985   22.836587 H          1 MOL1         0.1026
@<TRIPOS>BOND
    1     1     2    1
    2     1     3    1
    3     1     4    1
    4     1     5    1
    5     5     6    1
    6     5     7    1
    7     5     8    1
    8     8     9    1
    9     8    10    1
   10     8    11    1
   11    11    12    1
   12    11    13    1
   13    11    14    1
   14    14    15    1
   15    14    16    1
   16    14    17    1
   17    17    18    1
   18    17    19    1
   19    17    20    1
@<TRIPOS>SUBSTRUCTURE
       1 MOL1            1 RESIDUE      1      MOL     
@<SCITEGIC>MOL_PROPERTY
VConf Rank
SciTegic.value.IntegerValue
187

@<SCITEGIC>MOL_PROPERTY
Conf_Id
SciTegic.value.IntegerValue
55

@<SCITEGIC>MOL_PROPERTY
Delta U+W
SciTegic.value.DoubleValue
2.745

@<SCITEGIC>MOL_PROPERTY
U+W
SciTegic.value.DoubleValue
18.083

@<SCITEGIC>MOL_PROPERTY
Grad RMS
SciTegic.value.DoubleValue
0.000000

@<SCITEGIC>MOL_PROPERTY
U
SciTegic.value.DoubleValue
72.490

@<SCITEGIC>MOL_PROPERTY
W
SciTegic.value.DoubleValue
-54.407

@<SCITEGIC>MOL_PROPERTY
W(PB)
SciTegic.value.DoubleValue
-56.269

@<SCITEGIC>MOL_PROPERTY
W(SA)
SciTegic.value.DoubleValue
1.861

@<SCITEGIC>MOL_PROPERTY
Valence
SciTegic.value.DoubleValue
2.738

@<SCITEGIC>MOL_PROPERTY
Coulomb
SciTegic.value.DoubleValue
69.795

@<SCITEGIC>MOL_PROPERTY
VdW
SciTegic.value.DoubleValue
-0.043

@<SCITEGIC>MOL_PROPERTY
VdW6
SciTegic.value.DoubleValue
-5.333

@<SCITEGIC>MOL_PROPERTY
VdW12
SciTegic.value.DoubleValue
5.290

@<SCITEGIC>MOL_PROPERTY
Bond
SciTegic.value.DoubleValue
0.182

@<SCITEGIC>MOL_PROPERTY
Angle
SciTegic.value.DoubleValue
1.135

@<SCITEGIC>MOL_PROPERTY
Pdih
SciTegic.value.DoubleValue
1.422

@<SCITEGIC>MOL_PROPERTY
Idih
SciTegic.value.DoubleValue
0.000

@<SCITEGIC>MOL_PROPERTY
Tether
SciTegic.value.DoubleValue
0.000

@<TRIPOS>MOLECULE
guest-s9_confgen4.mol2 : confsearch ligand conformer 188
          20          19           1
SMALL
USER_CHARGES
 
@<TRIPOS>ATOM
       1    C1      19.788645   17.419438   20.472967 C.3        1 MOL1        -0.2224
       2    H1      19.768809   16.815798   19.556236 H          1 MOL1         0.1052
       3    H2      20.042352   16.750923   21.306050 H          1 MOL1         0.1052
       4    H3      18.774030   17.805200   20.624277 H          1 MOL1         0.1052
       5    C2      20.818340   18.564329   20.337603 C.3        1 MOL1        -0.1209
       6    H4      20.476546   19.277570   19.574398 H          1 MOL1         0.1041
       7    H5      21.760238   18.143149   19.958841 H          1 MOL1         0.1041
       8    C3      21.119215   19.316378   21.659242 C.3        1 MOL1        -0.1274
       9    H6      21.518946   18.621861   22.408751 H          1 MOL1         0.1041
      10    H7      21.925205   20.035149   21.460912 H          1 MOL1         0.1041
      11    C4      19.921635   20.106028   22.237003 C.3        1 MOL1         0.0313
      12    H8      19.421217   20.639469   21.424913 H          1 MOL1         0.1015
      13    H9      20.290696   20.850577   22.946837 H          1 MOL1         0.1015
      14    N1      18.874912   19.278758   22.966732 N.4        1 MOL1        -0.4809
      15    H10     18.549944   18.509632   22.364503 H          1 MOL1         0.3726
      16    H11     18.038578   19.857299   23.142786 H          1 MOL1         0.3726
      17    C5      19.417269   18.739445   24.285712 C.3        1 MOL1        -0.0677
      18    H12     20.262261   18.077387   24.087502 H          1 MOL1         0.1026
      19    H13     19.740183   19.575328   24.909943 H          1 MOL1         0.1026
      20    H14     18.628131   18.182936   24.796075 H          1 MOL1         0.1026
@<TRIPOS>BOND
    1     1     2    1
    2     1     3    1
    3     1     4    1
    4     1     5    1
    5     5     6    1
    6     5     7    1
    7     5     8    1
    8     8     9    1
    9     8    10    1
   10     8    11    1
   11    11    12    1
   12    11    13    1
   13    11    14    1
   14    14    15    1
   15    14    16    1
   16    14    17    1
   17    17    18    1
   18    17    19    1
   19    17    20    1
@<TRIPOS>SUBSTRUCTURE
       1 MOL1            1 RESIDUE      1      MOL     
@<SCITEGIC>MOL_PROPERTY
VConf Rank
SciTegic.value.IntegerValue
188

@<SCITEGIC>MOL_PROPERTY
Conf_Id
SciTegic.value.IntegerValue
76

@<SCITEGIC>MOL_PROPERTY
Delta U+W
SciTegic.value.DoubleValue
2.799

@<SCITEGIC>MOL_PROPERTY
U+W
SciTegic.value.DoubleValue
18.137

@<SCITEGIC>MOL_PROPERTY
Grad RMS
SciTegic.value.DoubleValue
0.000000

@<SCITEGIC>MOL_PROPERTY
U
SciTegic.value.DoubleValue
72.490

@<SCITEGIC>MOL_PROPERTY
W
SciTegic.value.DoubleValue
-54.353

@<SCITEGIC>MOL_PROPERTY
W(PB)
SciTegic.value.DoubleValue
-56.201

@<SCITEGIC>MOL_PROPERTY
W(SA)
SciTegic.value.DoubleValue
1.848

@<SCITEGIC>MOL_PROPERTY
Valence
SciTegic.value.DoubleValue
2.738

@<SCITEGIC>MOL_PROPERTY
Coulomb
SciTegic.value.DoubleValue
69.795

@<SCITEGIC>MOL_PROPERTY
VdW
SciTegic.value.DoubleValue
-0.043

@<SCITEGIC>MOL_PROPERTY
VdW6
SciTegic.value.DoubleValue
-5.334

@<SCITEGIC>MOL_PROPERTY
VdW12
SciTegic.value.DoubleValue
5.290

@<SCITEGIC>MOL_PROPERTY
Bond
SciTegic.value.DoubleValue
0.182

@<SCITEGIC>MOL_PROPERTY
Angle
SciTegic.value.DoubleValue
1.135

@<SCITEGIC>MOL_PROPERTY
Pdih
SciTegic.value.DoubleValue
1.421

@<SCITEGIC>MOL_PROPERTY
Idih
SciTegic.value.DoubleValue
0.000

@<SCITEGIC>MOL_PROPERTY
Tether
SciTegic.value.DoubleValue
0.000

@<TRIPOS>MOLECULE
guest-s9_confgen4.mol2 : confsearch ligand conformer 189
          20          19           1
SMALL
USER_CHARGES
 
@<TRIPOS>ATOM
       1    C1      19.429186   18.487895   24.023757 C.3        1 MOL1        -0.2224
       2    H1      18.885524   19.246111   23.447049 H          1 MOL1         0.1052
       3    H2      18.744209   17.652867   24.219938 H          1 MOL1         0.1052
       4    H3      19.696731   18.934946   24.989889 H          1 MOL1         0.1052
       5    C2      20.695661   18.003475   23.280830 C.3        1 MOL1        -0.1209
       6    H4      21.239757   17.302260   23.928972 H          1 MOL1         0.1041
       7    H5      21.379934   18.844998   23.112393 H          1 MOL1         0.1041
       8    C3      20.380065   17.295482   21.940461 C.3        1 MOL1        -0.1274
       9    H6      21.315257   16.940035   21.488265 H          1 MOL1         0.1041
      10    H7      19.786780   16.395678   22.150249 H          1 MOL1         0.1041
      11    C4      19.611079   18.149698   20.905253 C.3        1 MOL1         0.0313
      12    H8      18.678530   18.524677   21.333401 H          1 MOL1         0.1015
      13    H9      19.350403   17.500996   20.065075 H          1 MOL1         0.1015
      14    N1      20.380562   19.324941   20.320751 N.4        1 MOL1        -0.4809
      15    H10     20.064081   19.489626   19.352496 H          1 MOL1         0.3726
      16    H11     21.380894   19.091614   20.233929 H          1 MOL1         0.3726
      17    C5      20.174914   20.596451   21.136973 C.3        1 MOL1        -0.0677
      18    H12     20.719815   21.416233   20.663720 H          1 MOL1         0.1026
      19    H13     19.109435   20.834028   21.167022 H          1 MOL1         0.1026
      20    H14     20.547155   20.448081   22.151095 H          1 MOL1         0.1026
@<TRIPOS>BOND
    1     1     2    1
    2     1     3    1
    3     1     4    1
    4     1     5    1
    5     5     6    1
    6     5     7    1
    7     5     8    1
    8     8     9    1
    9     8    10    1
   10     8    11    1
   11    11    12    1
   12    11    13    1
   13    11    14    1
   14    14    15    1
   15    14    16    1
   16    14    17    1
   17    17    18    1
   18    17    19    1
   19    17    20    1
@<TRIPOS>SUBSTRUCTURE
       1 MOL1            1 RESIDUE      1      MOL     
@<SCITEGIC>MOL_PROPERTY
VConf Rank
SciTegic.value.IntegerValue
189

@<SCITEGIC>MOL_PROPERTY
Conf_Id
SciTegic.value.IntegerValue
60

@<SCITEGIC>MOL_PROPERTY
Delta U+W
SciTegic.value.DoubleValue
1.788

@<SCITEGIC>MOL_PROPERTY
U+W
SciTegic.value.DoubleValue
17.127

@<SCITEGIC>MOL_PROPERTY
Grad RMS
SciTegic.value.DoubleValue
0.000000

@<SCITEGIC>MOL_PROPERTY
U
SciTegic.value.DoubleValue
72.122

@<SCITEGIC>MOL_PROPERTY
W
SciTegic.value.DoubleValue
-54.995

@<SCITEGIC>MOL_PROPERTY
W(PB)
SciTegic.value.DoubleValue
-56.810

@<SCITEGIC>MOL_PROPERTY
W(SA)
SciTegic.value.DoubleValue
1.815

@<SCITEGIC>MOL_PROPERTY
Valence
SciTegic.value.DoubleValue
3.197

@<SCITEGIC>MOL_PROPERTY
Coulomb
SciTegic.value.DoubleValue
69.115

@<SCITEGIC>MOL_PROPERTY
VdW
SciTegic.value.DoubleValue
-0.190

@<SCITEGIC>MOL_PROPERTY
VdW6
SciTegic.value.DoubleValue
-5.585

@<SCITEGIC>MOL_PROPERTY
VdW12
SciTegic.value.DoubleValue
5.395

@<SCITEGIC>MOL_PROPERTY
Bond
SciTegic.value.DoubleValue
0.177

@<SCITEGIC>MOL_PROPERTY
Angle
SciTegic.value.DoubleValue
1.207

@<SCITEGIC>MOL_PROPERTY
Pdih
SciTegic.value.DoubleValue
1.813

@<SCITEGIC>MOL_PROPERTY
Idih
SciTegic.value.DoubleValue
0.000

@<SCITEGIC>MOL_PROPERTY
Tether
SciTegic.value.DoubleValue
0.000

@<TRIPOS>MOLECULE
guest-s9_confgen4.mol2 : confsearch ligand conformer 190
          20          19           1
SMALL
USER_CHARGES
 
@<TRIPOS>ATOM
       1    C1      19.411352   20.751997   22.447173 C.3        1 MOL1        -0.2224
       2    H1      18.429997   21.243630   22.437999 H          1 MOL1         0.1052
       3    H2      20.127433   21.443470   22.909822 H          1 MOL1         0.1052
       4    H3      19.713553   20.596051   21.404385 H          1 MOL1         0.1052
       5    C2      19.343278   19.419452   23.228359 C.3        1 MOL1        -0.1209
       6    H4      18.607347   18.748315   22.767118 H          1 MOL1         0.1041
       7    H5      18.968129   19.621792   24.241352 H          1 MOL1         0.1041
       8    C3      20.715288   18.710688   23.341009 C.3        1 MOL1        -0.1274
       9    H6      21.399941   19.359163   23.903483 H          1 MOL1         0.1041
      10    H7      20.604647   17.798116   23.941323 H          1 MOL1         0.1041
      11    C4      21.387705   18.351573   21.995064 C.3        1 MOL1         0.0313
      12    H8      22.389129   17.971819   22.213248 H          1 MOL1         0.1015
      13    H9      21.501683   19.242328   21.372867 H          1 MOL1         0.1015
      14    N1      20.687551   17.277321   21.176097 N.4        1 MOL1        -0.4809
      15    H10     20.251295   16.579705   21.797112 H          1 MOL1         0.3726
      16    H11     21.391643   16.747443   20.639177 H          1 MOL1         0.3726
      17    C5      19.670042   17.876454   20.211233 C.3        1 MOL1        -0.0677
      18    H12     20.178592   18.574321   19.542691 H          1 MOL1         0.1026
      19    H13     19.216969   17.073022   19.626298 H          1 MOL1         0.1026
      20    H14     18.895705   18.401847   20.771041 H          1 MOL1         0.1026
@<TRIPOS>BOND
    1     1     2    1
    2     1     3    1
    3     1     4    1
    4     1     5    1
    5     5     6    1
    6     5     7    1
    7     5     8    1
    8     8     9    1
    9     8    10    1
   10     8    11    1
   11    11    12    1
   12    11    13    1
   13    11    14    1
   14    14    15    1
   15    14    16    1
   16    14    17    1
   17    17    18    1
   18    17    19    1
   19    17    20    1
@<TRIPOS>SUBSTRUCTURE
       1 MOL1            1 RESIDUE      1      MOL     
@<SCITEGIC>MOL_PROPERTY
VConf Rank
SciTegic.value.IntegerValue
190

@<SCITEGIC>MOL_PROPERTY
Conf_Id
SciTegic.value.IntegerValue
54

@<SCITEGIC>MOL_PROPERTY
Delta U+W
SciTegic.value.DoubleValue
1.880

@<SCITEGIC>MOL_PROPERTY
U+W
SciTegic.value.DoubleValue
17.218

@<SCITEGIC>MOL_PROPERTY
Grad RMS
SciTegic.value.DoubleValue
0.000000

@<SCITEGIC>MOL_PROPERTY
U
SciTegic.value.DoubleValue
72.122

@<SCITEGIC>MOL_PROPERTY
W
SciTegic.value.DoubleValue
-54.903

@<SCITEGIC>MOL_PROPERTY
W(PB)
SciTegic.value.DoubleValue
-56.724

@<SCITEGIC>MOL_PROPERTY
W(SA)
SciTegic.value.DoubleValue
1.821

@<SCITEGIC>MOL_PROPERTY
Valence
SciTegic.value.DoubleValue
3.197

@<SCITEGIC>MOL_PROPERTY
Coulomb
SciTegic.value.DoubleValue
69.115

@<SCITEGIC>MOL_PROPERTY
VdW
SciTegic.value.DoubleValue
-0.190

@<SCITEGIC>MOL_PROPERTY
VdW6
SciTegic.value.DoubleValue
-5.585

@<SCITEGIC>MOL_PROPERTY
VdW12
SciTegic.value.DoubleValue
5.395

@<SCITEGIC>MOL_PROPERTY
Bond
SciTegic.value.DoubleValue
0.177

@<SCITEGIC>MOL_PROPERTY
Angle
SciTegic.value.DoubleValue
1.207

@<SCITEGIC>MOL_PROPERTY
Pdih
SciTegic.value.DoubleValue
1.813

@<SCITEGIC>MOL_PROPERTY
Idih
SciTegic.value.DoubleValue
0.000

@<SCITEGIC>MOL_PROPERTY
Tether
SciTegic.value.DoubleValue
0.000

@<TRIPOS>MOLECULE
guest-s9_confgen4.mol2 : confsearch ligand conformer 191
          20          19           1
SMALL
USER_CHARGES
 
@<TRIPOS>ATOM
       1    C1      21.418480   21.484525   20.849228 C.3        1 MOL1        -0.2224
       2    H1      20.789780   21.584108   19.954802 H          1 MOL1         0.1052
       3    H2      21.632632   22.494017   21.223515 H          1 MOL1         0.1052
       4    H3      22.370748   21.028680   20.548283 H          1 MOL1         0.1052
       5    C2      20.714683   20.638840   21.932611 C.3        1 MOL1        -0.1209
       6    H4      19.783845   21.137669   22.237673 H          1 MOL1         0.1041
       7    H5      21.352404   20.586535   22.826438 H          1 MOL1         0.1041
       8    C3      20.400594   19.211376   21.433156 C.3        1 MOL1        -0.1274
       9    H6      19.760630   19.264419   20.542314 H          1 MOL1         0.1041
      10    H7      21.331351   18.712569   21.131745 H          1 MOL1         0.1041
      11    C4      19.699095   18.374493   22.519022 C.3        1 MOL1         0.0313
      12    H8      18.764406   18.860289   22.810305 H          1 MOL1         0.1015
      13    H9      20.340221   18.306539   23.401535 H          1 MOL1         0.1015
      14    N1      19.370518   16.963197   22.072946 N.4        1 MOL1        -0.4809
      15    H10     20.229628   16.472197   21.781388 H          1 MOL1         0.3726
      16    H11     18.770595   16.984902   21.234032 H          1 MOL1         0.3726
      17    C5      18.681682   16.208425   23.202105 C.3        1 MOL1        -0.0677
      18    H12     17.758474   16.726489   23.470626 H          1 MOL1         0.1026
      19    H13     18.450881   15.194619   22.867531 H          1 MOL1         0.1026
      20    H14     19.347666   16.167960   24.066765 H          1 MOL1         0.1026
@<TRIPOS>BOND
    1     1     2    1
    2     1     3    1
    3     1     4    1
    4     1     5    1
    5     5     6    1
    6     5     7    1
    7     5     8    1
    8     8     9    1
    9     8    10    1
   10     8    11    1
   11    11    12    1
   12    11    13    1
   13    11    14    1
   14    14    15    1
   15    14    16    1
   16    14    17    1
   17    17    18    1
   18    17    19    1
   19    17    20    1
@<TRIPOS>SUBSTRUCTURE
       1 MOL1            1 RESIDUE      1      MOL     
@<SCITEGIC>MOL_PROPERTY
VConf Rank
SciTegic.value.IntegerValue
191

@<SCITEGIC>MOL_PROPERTY
Conf_Id
SciTegic.value.IntegerValue
67

@<SCITEGIC>MOL_PROPERTY
Delta U+W
SciTegic.value.DoubleValue
0.000

@<SCITEGIC>MOL_PROPERTY
U+W
SciTegic.value.DoubleValue
15.338

@<SCITEGIC>MOL_PROPERTY
Grad RMS
SciTegic.value.DoubleValue
0.000000

@<SCITEGIC>MOL_PROPERTY
U
SciTegic.value.DoubleValue
69.277

@<SCITEGIC>MOL_PROPERTY
W
SciTegic.value.DoubleValue
-53.939

@<SCITEGIC>MOL_PROPERTY
W(PB)
SciTegic.value.DoubleValue
-55.889

@<SCITEGIC>MOL_PROPERTY
W(SA)
SciTegic.value.DoubleValue
1.950

@<SCITEGIC>MOL_PROPERTY
Valence
SciTegic.value.DoubleValue
0.846

@<SCITEGIC>MOL_PROPERTY
Coulomb
SciTegic.value.DoubleValue
68.557

@<SCITEGIC>MOL_PROPERTY
VdW
SciTegic.value.DoubleValue
-0.127

@<SCITEGIC>MOL_PROPERTY
VdW6
SciTegic.value.DoubleValue
-3.008

@<SCITEGIC>MOL_PROPERTY
VdW12
SciTegic.value.DoubleValue
2.882

@<SCITEGIC>MOL_PROPERTY
Bond
SciTegic.value.DoubleValue
0.088

@<SCITEGIC>MOL_PROPERTY
Angle
SciTegic.value.DoubleValue
0.332

@<SCITEGIC>MOL_PROPERTY
Pdih
SciTegic.value.DoubleValue
0.426

@<SCITEGIC>MOL_PROPERTY
Idih
SciTegic.value.DoubleValue
0.000

@<SCITEGIC>MOL_PROPERTY
Tether
SciTegic.value.DoubleValue
0.000

@<TRIPOS>MOLECULE
guest-s9_confgen4.mol2 : confsearch ligand conformer 192
          20          19           1
SMALL
USER_CHARGES
 
@<TRIPOS>ATOM
       1    C1      17.805168   18.448484   20.077313 C.3        1 MOL1        -0.2224
       2    H1      18.014440   17.370915   20.062508 H          1 MOL1         0.1052
       3    H2      16.719548   18.581270   19.983421 H          1 MOL1         0.1052
       4    H3      18.276552   18.900091   19.194694 H          1 MOL1         0.1052
       5    C2      18.323771   19.098119   21.378581 C.3        1 MOL1        -0.1209
       6    H4      17.809449   18.650034   22.240567 H          1 MOL1         0.1041
       7    H5      18.068786   20.167366   21.379578 H          1 MOL1         0.1041
       8    C3      19.850579   18.926919   21.537440 C.3        1 MOL1        -0.1274
       9    H6      20.100374   17.858109   21.535839 H          1 MOL1         0.1041
      10    H7      20.363858   19.378529   20.678245 H          1 MOL1         0.1041
      11    C4      20.359187   19.580267   22.839142 C.3        1 MOL1         0.0313
      12    H8      19.888861   19.102856   23.702423 H          1 MOL1         0.1015
      13    H9      20.075430   20.635804   22.840438 H          1 MOL1         0.1015
      14    N1      21.865680   19.517441   23.032263 N.4        1 MOL1        -0.4809
      15    H10     22.136296   20.112714   23.830827 H          1 MOL1         0.3726
      16    H11     22.347754   19.931052   22.219670 H          1 MOL1         0.3726
      17    C5      22.335201   18.086410   23.271460 C.3        1 MOL1        -0.0677
      18    H12     22.104859   17.477707   22.394928 H          1 MOL1         0.1026
      19    H13     23.413910   18.087897   23.442794 H          1 MOL1         0.1026
      20    H14     21.824231   17.682163   24.147931 H          1 MOL1         0.1026
@<TRIPOS>BOND
    1     1     2    1
    2     1     3    1
    3     1     4    1
    4     1     5    1
    5     5     6    1
    6     5     7    1
    7     5     8    1
    8     8     9    1
    9     8    10    1
   10     8    11    1
   11    11    12    1
   12    11    13    1
   13    11    14    1
   14    14    15    1
   15    14    16    1
   16    14    17    1
   17    17    18    1
   18    17    19    1
   19    17    20    1
@<TRIPOS>SUBSTRUCTURE
       1 MOL1            1 RESIDUE      1      MOL     
@<SCITEGIC>MOL_PROPERTY
VConf Rank
SciTegic.value.IntegerValue
192

@<SCITEGIC>MOL_PROPERTY
Conf_Id
SciTegic.value.IntegerValue
37

@<SCITEGIC>MOL_PROPERTY
Delta U+W
SciTegic.value.DoubleValue
-0.021

@<SCITEGIC>MOL_PROPERTY
U+W
SciTegic.value.DoubleValue
15.318

@<SCITEGIC>MOL_PROPERTY
Grad RMS
SciTegic.value.DoubleValue
0.000000

@<SCITEGIC>MOL_PROPERTY
U
SciTegic.value.DoubleValue
69.657

@<SCITEGIC>MOL_PROPERTY
W
SciTegic.value.DoubleValue
-54.340

@<SCITEGIC>MOL_PROPERTY
W(PB)
SciTegic.value.DoubleValue
-56.238

@<SCITEGIC>MOL_PROPERTY
W(SA)
SciTegic.value.DoubleValue
1.899

@<SCITEGIC>MOL_PROPERTY
Valence
SciTegic.value.DoubleValue
1.137

@<SCITEGIC>MOL_PROPERTY
Coulomb
SciTegic.value.DoubleValue
68.383

@<SCITEGIC>MOL_PROPERTY
VdW
SciTegic.value.DoubleValue
0.138

@<SCITEGIC>MOL_PROPERTY
VdW6
SciTegic.value.DoubleValue
-3.703

@<SCITEGIC>MOL_PROPERTY
VdW12
SciTegic.value.DoubleValue
3.841

@<SCITEGIC>MOL_PROPERTY
Bond
SciTegic.value.DoubleValue
0.125

@<SCITEGIC>MOL_PROPERTY
Angle
SciTegic.value.DoubleValue
0.468

@<SCITEGIC>MOL_PROPERTY
Pdih
SciTegic.value.DoubleValue
0.543

@<SCITEGIC>MOL_PROPERTY
Idih
SciTegic.value.DoubleValue
0.000

@<SCITEGIC>MOL_PROPERTY
Tether
SciTegic.value.DoubleValue
0.000

@<TRIPOS>MOLECULE
guest-s9_confgen4.mol2 : confsearch ligand conformer 193
          20          19           1
SMALL
USER_CHARGES
 
@<TRIPOS>ATOM
       1    C1      20.443116   15.866299   22.540303 C.3        1 MOL1        -0.2224
       2    H1      21.197051   15.167201   22.924834 H          1 MOL1         0.1052
       3    H2      19.594041   15.861035   23.236157 H          1 MOL1         0.1052
       4    H3      20.093615   15.484559   21.572164 H          1 MOL1         0.1052
       5    C2      21.036666   17.284605   22.397562 C.3        1 MOL1        -0.1209
       6    H4      21.904541   17.251032   21.723786 H          1 MOL1         0.1041
       7    H5      21.408309   17.624953   23.374481 H          1 MOL1         0.1041
       8    C3      19.996898   18.290967   21.857374 C.3        1 MOL1        -0.1274
       9    H6      19.629304   17.952605   20.879618 H          1 MOL1         0.1041
      10    H7      19.132450   18.321070   22.533081 H          1 MOL1         0.1041
      11    C4      20.599517   19.704145   21.716851 C.3        1 MOL1         0.0313
      12    H8      21.477079   19.652412   21.067323 H          1 MOL1         0.1015
      13    H9      20.923991   20.068232   22.694880 H          1 MOL1         0.1015
      14    N1      19.657279   20.737743   21.121351 N.4        1 MOL1        -0.4809
      15    H10     19.302850   20.414299   20.208367 H          1 MOL1         0.3726
      16    H11     20.181505   21.601360   20.910072 H          1 MOL1         0.3726
      17    C5      18.505712   21.050939   22.070728 C.3        1 MOL1        -0.0677
      18    H12     18.909687   21.409551   23.019890 H          1 MOL1         0.1026
      19    H13     17.874359   21.822609   21.624755 H          1 MOL1         0.1026
      20    H14     17.916423   20.147050   22.236889 H          1 MOL1         0.1026
@<TRIPOS>BOND
    1     1     2    1
    2     1     3    1
    3     1     4    1
    4     1     5    1
    5     5     6    1
    6     5     7    1
    7     5     8    1
    8     8     9    1
    9     8    10    1
   10     8    11    1
   11    11    12    1
   12    11    13    1
   13    11    14    1
   14    14    15    1
   15    14    16    1
   16    14    17    1
   17    17    18    1
   18    17    19    1
   19    17    20    1
@<TRIPOS>SUBSTRUCTURE
       1 MOL1            1 RESIDUE      1      MOL     
@<SCITEGIC>MOL_PROPERTY
VConf Rank
SciTegic.value.IntegerValue
193

@<SCITEGIC>MOL_PROPERTY
Conf_Id
SciTegic.value.IntegerValue
2

@<SCITEGIC>MOL_PROPERTY
Delta U+W
SciTegic.value.DoubleValue
0.069

@<SCITEGIC>MOL_PROPERTY
U+W
SciTegic.value.DoubleValue
15.407

@<SCITEGIC>MOL_PROPERTY
Grad RMS
SciTegic.value.DoubleValue
0.000000

@<SCITEGIC>MOL_PROPERTY
U
SciTegic.value.DoubleValue
69.657

@<SCITEGIC>MOL_PROPERTY
W
SciTegic.value.DoubleValue
-54.250

@<SCITEGIC>MOL_PROPERTY
W(PB)
SciTegic.value.DoubleValue
-56.176

@<SCITEGIC>MOL_PROPERTY
W(SA)
SciTegic.value.DoubleValue
1.926

@<SCITEGIC>MOL_PROPERTY
Valence
SciTegic.value.DoubleValue
1.137

@<SCITEGIC>MOL_PROPERTY
Coulomb
SciTegic.value.DoubleValue
68.383

@<SCITEGIC>MOL_PROPERTY
VdW
SciTegic.value.DoubleValue
0.138

@<SCITEGIC>MOL_PROPERTY
VdW6
SciTegic.value.DoubleValue
-3.703

@<SCITEGIC>MOL_PROPERTY
VdW12
SciTegic.value.DoubleValue
3.841

@<SCITEGIC>MOL_PROPERTY
Bond
SciTegic.value.DoubleValue
0.125

@<SCITEGIC>MOL_PROPERTY
Angle
SciTegic.value.DoubleValue
0.468

@<SCITEGIC>MOL_PROPERTY
Pdih
SciTegic.value.DoubleValue
0.543

@<SCITEGIC>MOL_PROPERTY
Idih
SciTegic.value.DoubleValue
0.000

@<SCITEGIC>MOL_PROPERTY
Tether
SciTegic.value.DoubleValue
0.000

@<TRIPOS>MOLECULE
guest-s9_confgen4.mol2 : confsearch ligand conformer 194
          20          19           1
SMALL
USER_CHARGES
 
@<TRIPOS>ATOM
       1    C1      22.243037   18.112754   20.691423 C.3        1 MOL1        -0.2224
       2    H1      22.435549   18.201086   21.768084 H          1 MOL1         0.1052
       3    H2      21.957799   17.074384   20.478051 H          1 MOL1         0.1052
       4    H3      23.187337   18.314244   20.169227 H          1 MOL1         0.1052
       5    C2      21.145877   19.098095   20.227062 C.3        1 MOL1        -0.1209
       6    H4      21.052781   19.041418   19.133383 H          1 MOL1         0.1041
       7    H5      21.453152   20.127973   20.457584 H          1 MOL1         0.1041
       8    C3      19.766129   18.810882   20.864230 C.3        1 MOL1        -0.1274
       9    H6      19.023867   19.495509   20.432732 H          1 MOL1         0.1041
      10    H7      19.445010   17.793606   20.603661 H          1 MOL1         0.1041
      11    C4      19.774070   18.974683   22.396663 C.3        1 MOL1         0.0313
      12    H8      20.091362   19.987890   22.655722 H          1 MOL1         0.1015
      13    H9      20.481633   18.269283   22.838852 H          1 MOL1         0.1015
      14    N1      18.420218   18.733135   23.034792 N.4        1 MOL1        -0.4809
      15    H10     18.081235   17.786526   22.804332 H          1 MOL1         0.3726
      16    H11     17.719132   19.377994   22.638890 H          1 MOL1         0.3726
      17    C5      18.517898   18.912247   24.543921 C.3        1 MOL1        -0.0677
      18    H12     18.844979   19.930535   24.765077 H          1 MOL1         0.1026
      19    H13     17.536841   18.735645   24.990400 H          1 MOL1         0.1026
      20    H14     19.239075   18.197011   24.945345 H          1 MOL1         0.1026
@<TRIPOS>BOND
    1     1     2    1
    2     1     3    1
    3     1     4    1
    4     1     5    1
    5     5     6    1
    6     5     7    1
    7     5     8    1
    8     8     9    1
    9     8    10    1
   10     8    11    1
   11    11    12    1
   12    11    13    1
   13    11    14    1
   14    14    15    1
   15    14    16    1
   16    14    17    1
   17    17    18    1
   18    17    19    1
   19    17    20    1
@<TRIPOS>SUBSTRUCTURE
       1 MOL1            1 RESIDUE      1      MOL     
@<SCITEGIC>MOL_PROPERTY
VConf Rank
SciTegic.value.IntegerValue
194

@<SCITEGIC>MOL_PROPERTY
Conf_Id
SciTegic.value.IntegerValue
34

@<SCITEGIC>MOL_PROPERTY
Delta U+W
SciTegic.value.DoubleValue
0.276

@<SCITEGIC>MOL_PROPERTY
U+W
SciTegic.value.DoubleValue
15.615

@<SCITEGIC>MOL_PROPERTY
Grad RMS
SciTegic.value.DoubleValue
0.000000

@<SCITEGIC>MOL_PROPERTY
U
SciTegic.value.DoubleValue
69.798

@<SCITEGIC>MOL_PROPERTY
W
SciTegic.value.DoubleValue
-54.184

@<SCITEGIC>MOL_PROPERTY
W(PB)
SciTegic.value.DoubleValue
-56.116

@<SCITEGIC>MOL_PROPERTY
W(SA)
SciTegic.value.DoubleValue
1.933

@<SCITEGIC>MOL_PROPERTY
Valence
SciTegic.value.DoubleValue
1.134

@<SCITEGIC>MOL_PROPERTY
Coulomb
SciTegic.value.DoubleValue
68.735

@<SCITEGIC>MOL_PROPERTY
VdW
SciTegic.value.DoubleValue
-0.070

@<SCITEGIC>MOL_PROPERTY
VdW6
SciTegic.value.DoubleValue
-3.565

@<SCITEGIC>MOL_PROPERTY
VdW12
SciTegic.value.DoubleValue
3.494

@<SCITEGIC>MOL_PROPERTY
Bond
SciTegic.value.DoubleValue
0.108

@<SCITEGIC>MOL_PROPERTY
Angle
SciTegic.value.DoubleValue
0.456

@<SCITEGIC>MOL_PROPERTY
Pdih
SciTegic.value.DoubleValue
0.569

@<SCITEGIC>MOL_PROPERTY
Idih
SciTegic.value.DoubleValue
0.000

@<SCITEGIC>MOL_PROPERTY
Tether
SciTegic.value.DoubleValue
0.000

@<TRIPOS>MOLECULE
guest-s9_confgen4.mol2 : confsearch ligand conformer 195
          20          19           1
SMALL
USER_CHARGES
 
@<TRIPOS>ATOM
       1    C1      22.019823   17.258283   23.703502 C.3        1 MOL1        -0.2224
       2    H1      22.505901   16.496359   23.080310 H          1 MOL1         0.1052
       3    H2      22.790282   17.713725   24.339105 H          1 MOL1         0.1052
       4    H3      21.298292   16.753666   24.359197 H          1 MOL1         0.1052
       5    C2      21.326556   18.329367   22.833913 C.3        1 MOL1        -0.1209
       6    H4      22.078492   18.837177   22.213392 H          1 MOL1         0.1041
       7    H5      20.887444   19.093897   23.489024 H          1 MOL1         0.1041
       8    C3      20.234667   17.712421   21.928186 C.3        1 MOL1        -0.1274
       9    H6      20.680982   16.923851   21.307828 H          1 MOL1         0.1041
      10    H7      19.464789   17.227401   22.542921 H          1 MOL1         0.1041
      11    C4      19.573845   18.748762   20.997138 C.3        1 MOL1         0.0313
      12    H8      18.879942   18.238897   20.323969 H          1 MOL1         0.1015
      13    H9      20.339491   19.237630   20.389496 H          1 MOL1         0.1015
      14    N1      18.794345   19.827229   21.725955 N.4        1 MOL1        -0.4809
      15    H10     19.413337   20.337090   22.373523 H          1 MOL1         0.3726
      16    H11     18.066906   19.400248   22.319727 H          1 MOL1         0.3726
      17    C5      18.169114   20.785435   20.721083 C.3        1 MOL1        -0.0677
      18    H12     18.959122   21.249711   20.126840 H          1 MOL1         0.1026
      19    H13     17.492802   20.230385   20.067396 H          1 MOL1         0.1026
      20    H14     17.611715   21.555763   21.258569 H          1 MOL1         0.1026
@<TRIPOS>BOND
    1     1     2    1
    2     1     3    1
    3     1     4    1
    4     1     5    1
    5     5     6    1
    6     5     7    1
    7     5     8    1
    8     8     9    1
    9     8    10    1
   10     8    11    1
   11    11    12    1
   12    11    13    1
   13    11    14    1
   14    14    15    1
   15    14    16    1
   16    14    17    1
   17    17    18    1
   18    17    19    1
   19    17    20    1
@<TRIPOS>SUBSTRUCTURE
       1 MOL1            1 RESIDUE      1      MOL     
@<SCITEGIC>MOL_PROPERTY
VConf Rank
SciTegic.value.IntegerValue
195

@<SCITEGIC>MOL_PROPERTY
Conf_Id
SciTegic.value.IntegerValue
50

@<SCITEGIC>MOL_PROPERTY
Delta U+W
SciTegic.value.DoubleValue
0.319

@<SCITEGIC>MOL_PROPERTY
U+W
SciTegic.value.DoubleValue
15.657

@<SCITEGIC>MOL_PROPERTY
Grad RMS
SciTegic.value.DoubleValue
0.000000

@<SCITEGIC>MOL_PROPERTY
U
SciTegic.value.DoubleValue
69.962

@<SCITEGIC>MOL_PROPERTY
W
SciTegic.value.DoubleValue
-54.305

@<SCITEGIC>MOL_PROPERTY
W(PB)
SciTegic.value.DoubleValue
-56.223

@<SCITEGIC>MOL_PROPERTY
W(SA)
SciTegic.value.DoubleValue
1.918

@<SCITEGIC>MOL_PROPERTY
Valence
SciTegic.value.DoubleValue
0.982

@<SCITEGIC>MOL_PROPERTY
Coulomb
SciTegic.value.DoubleValue
69.058

@<SCITEGIC>MOL_PROPERTY
VdW
SciTegic.value.DoubleValue
-0.078

@<SCITEGIC>MOL_PROPERTY
VdW6
SciTegic.value.DoubleValue
-3.548

@<SCITEGIC>MOL_PROPERTY
VdW12
SciTegic.value.DoubleValue
3.471

@<SCITEGIC>MOL_PROPERTY
Bond
SciTegic.value.DoubleValue
0.105

@<SCITEGIC>MOL_PROPERTY
Angle
SciTegic.value.DoubleValue
0.408

@<SCITEGIC>MOL_PROPERTY
Pdih
SciTegic.value.DoubleValue
0.469

@<SCITEGIC>MOL_PROPERTY
Idih
SciTegic.value.DoubleValue
0.000

@<SCITEGIC>MOL_PROPERTY
Tether
SciTegic.value.DoubleValue
0.000

@<TRIPOS>MOLECULE
guest-s9_confgen4.mol2 : confsearch ligand conformer 196
          20          19           1
SMALL
USER_CHARGES
 
@<TRIPOS>ATOM
       1    C1      19.254571   19.241895   24.903010 C.3        1 MOL1        -0.2224
       2    H1      18.367852   19.796762   25.235995 H          1 MOL1         0.1052
       3    H2      19.252329   18.268903   25.411391 H          1 MOL1         0.1052
       4    H3      20.142154   19.797431   25.232795 H          1 MOL1         0.1052
       5    C2      19.245427   19.068406   23.368787 C.3        1 MOL1        -0.1209
       6    H4      19.207161   20.059178   22.896133 H          1 MOL1         0.1041
       7    H5      18.331001   18.537794   23.067790 H          1 MOL1         0.1041
       8    C3      20.486569   18.289037   22.873470 C.3        1 MOL1        -0.1274
       9    H6      21.403631   18.828003   23.146177 H          1 MOL1         0.1041
      10    H7      20.532262   17.317691   23.383647 H          1 MOL1         0.1041
      11    C4      20.468266   18.039397   21.351994 C.3        1 MOL1         0.0313
      12    H8      19.552801   17.509171   21.077733 H          1 MOL1         0.1015
      13    H9      21.319837   17.411053   21.078812 H          1 MOL1         0.1015
      14    N1      20.546233   19.303411   20.516483 N.4        1 MOL1        -0.4809
      15    H10     21.395914   19.836594   20.756914 H          1 MOL1         0.3726
      16    H11     19.757328   19.927472   20.741498 H          1 MOL1         0.3726
      17    C5      20.539384   18.948706   19.035613 C.3        1 MOL1        -0.0677
      18    H12     20.595674   19.866674   18.446413 H          1 MOL1         0.1026
      19    H13     21.400933   18.315364   18.813363 H          1 MOL1         0.1026
      20    H14     19.616957   18.414546   18.797720 H          1 MOL1         0.1026
@<TRIPOS>BOND
    1     1     2    1
    2     1     3    1
    3     1     4    1
    4     1     5    1
    5     5     6    1
    6     5     7    1
    7     5     8    1
    8     8     9    1
    9     8    10    1
   10     8    11    1
   11    11    12    1
   12    11    13    1
   13    11    14    1
   14    14    15    1
   15    14    16    1
   16    14    17    1
   17    17    18    1
   18    17    19    1
   19    17    20    1
@<TRIPOS>SUBSTRUCTURE
       1 MOL1            1 RESIDUE      1      MOL     
@<SCITEGIC>MOL_PROPERTY
VConf Rank
SciTegic.value.IntegerValue
196

@<SCITEGIC>MOL_PROPERTY
Conf_Id
SciTegic.value.IntegerValue
35

@<SCITEGIC>MOL_PROPERTY
Delta U+W
SciTegic.value.DoubleValue
0.360

@<SCITEGIC>MOL_PROPERTY
U+W
SciTegic.value.DoubleValue
15.698

@<SCITEGIC>MOL_PROPERTY
Grad RMS
SciTegic.value.DoubleValue
0.000000

@<SCITEGIC>MOL_PROPERTY
U
SciTegic.value.DoubleValue
69.962

@<SCITEGIC>MOL_PROPERTY
W
SciTegic.value.DoubleValue
-54.264

@<SCITEGIC>MOL_PROPERTY
W(PB)
SciTegic.value.DoubleValue
-56.166

@<SCITEGIC>MOL_PROPERTY
W(SA)
SciTegic.value.DoubleValue
1.902

@<SCITEGIC>MOL_PROPERTY
Valence
SciTegic.value.DoubleValue
0.982

@<SCITEGIC>MOL_PROPERTY
Coulomb
SciTegic.value.DoubleValue
69.058

@<SCITEGIC>MOL_PROPERTY
VdW
SciTegic.value.DoubleValue
-0.078

@<SCITEGIC>MOL_PROPERTY
VdW6
SciTegic.value.DoubleValue
-3.548

@<SCITEGIC>MOL_PROPERTY
VdW12
SciTegic.value.DoubleValue
3.471

@<SCITEGIC>MOL_PROPERTY
Bond
SciTegic.value.DoubleValue
0.105

@<SCITEGIC>MOL_PROPERTY
Angle
SciTegic.value.DoubleValue
0.408

@<SCITEGIC>MOL_PROPERTY
Pdih
SciTegic.value.DoubleValue
0.469

@<SCITEGIC>MOL_PROPERTY
Idih
SciTegic.value.DoubleValue
0.000

@<SCITEGIC>MOL_PROPERTY
Tether
SciTegic.value.DoubleValue
0.000

@<TRIPOS>MOLECULE
guest-s9_confgen4.mol2 : confsearch ligand conformer 197
          20          19           1
SMALL
USER_CHARGES
 
@<TRIPOS>ATOM
       1    C1      22.510855   18.095234   21.639548 C.3        1 MOL1        -0.2224
       2    H1      21.949791   17.220539   21.287146 H          1 MOL1         0.1052
       3    H2      23.516824   18.040483   21.203656 H          1 MOL1         0.1052
       4    H3      22.614054   18.019784   22.729847 H          1 MOL1         0.1052
       5    C2      21.816353   19.416346   21.236385 C.3        1 MOL1        -0.1209
       6    H4      21.720992   19.464461   20.142421 H          1 MOL1         0.1041
       7    H5      22.456009   20.261257   21.527850 H          1 MOL1         0.1041
       8    C3      20.425184   19.590583   21.889198 C.3        1 MOL1        -0.1274
       9    H6      20.531778   19.579243   22.981544 H          1 MOL1         0.1041
      10    H7      20.026141   20.578024   21.622286 H          1 MOL1         0.1041
      11    C4      19.422317   18.503763   21.445862 C.3        1 MOL1         0.0313
      12    H8      19.774750   17.519996   21.764841 H          1 MOL1         0.1015
      13    H9      19.359387   18.503477   20.354711 H          1 MOL1         0.1015
      14    N1      18.011630   18.689086   21.980664 N.4        1 MOL1        -0.4809
      15    H10     17.374635   18.026030   21.511834 H          1 MOL1         0.3726
      16    H11     17.653350   19.622668   21.728119 H          1 MOL1         0.3726
      17    C5      17.959395   18.477535   23.489931 C.3        1 MOL1        -0.0677
      18    H12     18.584455   19.224748   23.982741 H          1 MOL1         0.1026
      19    H13     16.926796   18.582049   23.830192 H          1 MOL1         0.1026
      20    H14     18.324567   17.475571   23.725334 H          1 MOL1         0.1026
@<TRIPOS>BOND
    1     1     2    1
    2     1     3    1
    3     1     4    1
    4     1     5    1
    5     5     6    1
    6     5     7    1
    7     5     8    1
    8     8     9    1
    9     8    10    1
   10     8    11    1
   11    11    12    1
   12    11    13    1
   13    11    14    1
   14    14    15    1
   15    14    16    1
   16    14    17    1
   17    17    18    1
   18    17    19    1
   19    17    20    1
@<TRIPOS>SUBSTRUCTURE
       1 MOL1            1 RESIDUE      1      MOL     
@<SCITEGIC>MOL_PROPERTY
VConf Rank
SciTegic.value.IntegerValue
197

@<SCITEGIC>MOL_PROPERTY
Conf_Id
SciTegic.value.IntegerValue
33

@<SCITEGIC>MOL_PROPERTY
Delta U+W
SciTegic.value.DoubleValue
0.372

@<SCITEGIC>MOL_PROPERTY
U+W
SciTegic.value.DoubleValue
15.711

@<SCITEGIC>MOL_PROPERTY
Grad RMS
SciTegic.value.DoubleValue
0.000000

@<SCITEGIC>MOL_PROPERTY
U
SciTegic.value.DoubleValue
70.163

@<SCITEGIC>MOL_PROPERTY
W
SciTegic.value.DoubleValue
-54.452

@<SCITEGIC>MOL_PROPERTY
W(PB)
SciTegic.value.DoubleValue
-56.363

@<SCITEGIC>MOL_PROPERTY
W(SA)
SciTegic.value.DoubleValue
1.911

@<SCITEGIC>MOL_PROPERTY
Valence
SciTegic.value.DoubleValue
1.420

@<SCITEGIC>MOL_PROPERTY
Coulomb
SciTegic.value.DoubleValue
68.566

@<SCITEGIC>MOL_PROPERTY
VdW
SciTegic.value.DoubleValue
0.177

@<SCITEGIC>MOL_PROPERTY
VdW6
SciTegic.value.DoubleValue
-4.267

@<SCITEGIC>MOL_PROPERTY
VdW12
SciTegic.value.DoubleValue
4.445

@<SCITEGIC>MOL_PROPERTY
Bond
SciTegic.value.DoubleValue
0.146

@<SCITEGIC>MOL_PROPERTY
Angle
SciTegic.value.DoubleValue
0.581

@<SCITEGIC>MOL_PROPERTY
Pdih
SciTegic.value.DoubleValue
0.693

@<SCITEGIC>MOL_PROPERTY
Idih
SciTegic.value.DoubleValue
0.000

@<SCITEGIC>MOL_PROPERTY
Tether
SciTegic.value.DoubleValue
0.000

@<TRIPOS>MOLECULE
guest-s9_confgen4.mol2 : confsearch ligand conformer 198
          20          19           1
SMALL
USER_CHARGES
 
@<TRIPOS>ATOM
       1    C1      18.330101   20.663721   21.974254 C.3        1 MOL1        -0.2224
       2    H1      17.562544   21.371915   22.312323 H          1 MOL1         0.1052
       3    H2      19.277668   21.212418   21.902720 H          1 MOL1         0.1052
       4    H3      18.053026   20.325443   20.967332 H          1 MOL1         0.1052
       5    C2      18.436131   19.471186   22.952430 C.3        1 MOL1        -0.1209
       6    H4      17.445275   19.008539   23.062643 H          1 MOL1         0.1041
       7    H5      18.719121   19.835896   23.949962 H          1 MOL1         0.1041
       8    C3      19.444067   18.395181   22.485355 C.3        1 MOL1        -0.1274
       9    H6      19.411352   17.547870   23.182857 H          1 MOL1         0.1041
      10    H7      19.135384   18.008193   21.505730 H          1 MOL1         0.1041
      11    C4      20.889905   18.931074   22.408974 C.3        1 MOL1         0.0313
      12    H8      21.165360   19.347488   23.381235 H          1 MOL1         0.1015
      13    H9      20.951199   19.731812   21.668153 H          1 MOL1         0.1015
      14    N1      21.933814   17.885466   22.052096 N.4        1 MOL1        -0.4809
      15    H10     21.886301   17.093448   22.711011 H          1 MOL1         0.3726
      16    H11     22.877945   18.281403   22.182698 H          1 MOL1         0.3726
      17    C5      21.768180   17.406005   20.614025 C.3        1 MOL1        -0.0677
      18    H12     22.556388   16.685690   20.384165 H          1 MOL1         0.1026
      19    H13     20.792533   16.929389   20.500714 H          1 MOL1         0.1026
      20    H14     21.843286   18.261253   19.939038 H          1 MOL1         0.1026
@<TRIPOS>BOND
    1     1     2    1
    2     1     3    1
    3     1     4    1
    4     1     5    1
    5     5     6    1
    6     5     7    1
    7     5     8    1
    8     8     9    1
    9     8    10    1
   10     8    11    1
   11    11    12    1
   12    11    13    1
   13    11    14    1
   14    14    15    1
   15    14    16    1
   16    14    17    1
   17    17    18    1
   18    17    19    1
   19    17    20    1
@<TRIPOS>SUBSTRUCTURE
       1 MOL1            1 RESIDUE      1      MOL     
@<SCITEGIC>MOL_PROPERTY
VConf Rank
SciTegic.value.IntegerValue
198

@<SCITEGIC>MOL_PROPERTY
Conf_Id
SciTegic.value.IntegerValue
53

@<SCITEGIC>MOL_PROPERTY
Delta U+W
SciTegic.value.DoubleValue
0.379

@<SCITEGIC>MOL_PROPERTY
U+W
SciTegic.value.DoubleValue
15.717

@<SCITEGIC>MOL_PROPERTY
Grad RMS
SciTegic.value.DoubleValue
0.000000

@<SCITEGIC>MOL_PROPERTY
U
SciTegic.value.DoubleValue
70.163

@<SCITEGIC>MOL_PROPERTY
W
SciTegic.value.DoubleValue
-54.446

@<SCITEGIC>MOL_PROPERTY
W(PB)
SciTegic.value.DoubleValue
-56.322

@<SCITEGIC>MOL_PROPERTY
W(SA)
SciTegic.value.DoubleValue
1.876

@<SCITEGIC>MOL_PROPERTY
Valence
SciTegic.value.DoubleValue
1.420

@<SCITEGIC>MOL_PROPERTY
Coulomb
SciTegic.value.DoubleValue
68.566

@<SCITEGIC>MOL_PROPERTY
VdW
SciTegic.value.DoubleValue
0.177

@<SCITEGIC>MOL_PROPERTY
VdW6
SciTegic.value.DoubleValue
-4.267

@<SCITEGIC>MOL_PROPERTY
VdW12
SciTegic.value.DoubleValue
4.445

@<SCITEGIC>MOL_PROPERTY
Bond
SciTegic.value.DoubleValue
0.146

@<SCITEGIC>MOL_PROPERTY
Angle
SciTegic.value.DoubleValue
0.581

@<SCITEGIC>MOL_PROPERTY
Pdih
SciTegic.value.DoubleValue
0.693

@<SCITEGIC>MOL_PROPERTY
Idih
SciTegic.value.DoubleValue
0.000

@<SCITEGIC>MOL_PROPERTY
Tether
SciTegic.value.DoubleValue
0.000

@<TRIPOS>MOLECULE
guest-s9_confgen4.mol2 : confsearch ligand conformer 199
          20          19           1
SMALL
USER_CHARGES
 
@<TRIPOS>ATOM
       1    C1      22.010607   18.670836   19.934007 C.3        1 MOL1        -0.2224
       2    H1      22.048456   17.945977   19.110510 H          1 MOL1         0.1052
       3    H2      22.259077   19.658368   19.523898 H          1 MOL1         0.1052
       4    H3      22.787918   18.396705   20.659128 H          1 MOL1         0.1052
       5    C2      20.613834   18.676709   20.591999 C.3        1 MOL1        -0.1209
       6    H4      20.384407   17.665695   20.955140 H          1 MOL1         0.1041
       7    H5      19.855456   18.922839   19.835385 H          1 MOL1         0.1041
       8    C3      20.534596   19.689659   21.758350 C.3        1 MOL1        -0.1274
       9    H6      21.271721   19.432534   22.529891 H          1 MOL1         0.1041
      10    H7      20.808728   20.687578   21.391394 H          1 MOL1         0.1041
      11    C4      19.125499   19.773919   22.386050 C.3        1 MOL1         0.0313
      12    H8      18.413330   20.086718   21.618195 H          1 MOL1         0.1015
      13    H9      19.122299   20.531535   23.173769 H          1 MOL1         0.1015
      14    N1      18.602560   18.479556   22.990855 N.4        1 MOL1        -0.4809
      15    H10     18.591606   17.733582   22.279917 H          1 MOL1         0.3726
      16    H11     17.614557   18.600788   23.263577 H          1 MOL1         0.3726
      17    C5      19.427261   18.060908   24.203099 C.3        1 MOL1        -0.0677
      18    H12     19.405016   18.860633   24.946473 H          1 MOL1         0.1026
      19    H13     19.000279   17.150422   24.629284 H          1 MOL1         0.1026
      20    H14     20.456842   17.872139   23.892709 H          1 MOL1         0.1026
@<TRIPOS>BOND
    1     1     2    1
    2     1     3    1
    3     1     4    1
    4     1     5    1
    5     5     6    1
    6     5     7    1
    7     5     8    1
    8     8     9    1
    9     8    10    1
   10     8    11    1
   11    11    12    1
   12    11    13    1
   13    11    14    1
   14    14    15    1
   15    14    16    1
   16    14    17    1
   17    17    18    1
   18    17    19    1
   19    17    20    1
@<TRIPOS>SUBSTRUCTURE
       1 MOL1            1 RESIDUE      1      MOL     
@<SCITEGIC>MOL_PROPERTY
VConf Rank
SciTegic.value.IntegerValue
199

@<SCITEGIC>MOL_PROPERTY
Conf_Id
SciTegic.value.IntegerValue
49

@<SCITEGIC>MOL_PROPERTY
Delta U+W
SciTegic.value.DoubleValue
0.268

@<SCITEGIC>MOL_PROPERTY
U+W
SciTegic.value.DoubleValue
15.607

@<SCITEGIC>MOL_PROPERTY
Grad RMS
SciTegic.value.DoubleValue
0.000000

@<SCITEGIC>MOL_PROPERTY
U
SciTegic.value.DoubleValue
70.298

@<SCITEGIC>MOL_PROPERTY
W
SciTegic.value.DoubleValue
-54.692

@<SCITEGIC>MOL_PROPERTY
W(PB)
SciTegic.value.DoubleValue
-56.576

@<SCITEGIC>MOL_PROPERTY
W(SA)
SciTegic.value.DoubleValue
1.885

@<SCITEGIC>MOL_PROPERTY
Valence
SciTegic.value.DoubleValue
1.245

@<SCITEGIC>MOL_PROPERTY
Coulomb
SciTegic.value.DoubleValue
68.933

@<SCITEGIC>MOL_PROPERTY
VdW
SciTegic.value.DoubleValue
0.120

@<SCITEGIC>MOL_PROPERTY
VdW6
SciTegic.value.DoubleValue
-4.430

@<SCITEGIC>MOL_PROPERTY
VdW12
SciTegic.value.DoubleValue
4.550

@<SCITEGIC>MOL_PROPERTY
Bond
SciTegic.value.DoubleValue
0.148

@<SCITEGIC>MOL_PROPERTY
Angle
SciTegic.value.DoubleValue
0.587

@<SCITEGIC>MOL_PROPERTY
Pdih
SciTegic.value.DoubleValue
0.509

@<SCITEGIC>MOL_PROPERTY
Idih
SciTegic.value.DoubleValue
0.000

@<SCITEGIC>MOL_PROPERTY
Tether
SciTegic.value.DoubleValue
0.000

@<TRIPOS>MOLECULE
guest-s9_confgen4.mol2 : confsearch ligand conformer 200
          20          19           1
SMALL
USER_CHARGES
 
@<TRIPOS>ATOM
       1    C1      19.695052   18.909240   24.720054 C.3        1 MOL1        -0.2224
       2    H1      19.519462   19.984108   24.857890 H          1 MOL1         0.1052
       3    H2      18.786246   18.373062   25.022915 H          1 MOL1         0.1052
       4    H3      20.503244   18.610691   25.400269 H          1 MOL1         0.1052
       5    C2      20.068384   18.590170   23.256105 C.3        1 MOL1        -0.1209
       6    H4      20.265157   17.513519   23.155640 H          1 MOL1         0.1041
       7    H5      21.001143   19.112912   23.006609 H          1 MOL1         0.1041
       8    C3      18.949755   19.011565   22.274923 C.3        1 MOL1        -0.1274
       9    H6      17.998950   18.573273   22.606022 H          1 MOL1         0.1041
      10    H7      18.815347   20.100703   22.310537 H          1 MOL1         0.1041
      11    C4      19.192370   18.571850   20.813205 C.3        1 MOL1         0.0313
      12    H8      18.317901   18.861603   20.224910 H          1 MOL1         0.1015
      13    H9      19.285535   17.484609   20.753839 H          1 MOL1         0.1015
      14    N1      20.402573   19.192087   20.132048 N.4        1 MOL1        -0.4809
      15    H10     20.563048   20.147742   20.483915 H          1 MOL1         0.3726
      16    H11     20.203122   19.311360   19.126562 H          1 MOL1         0.3726
      17    C5      21.643156   18.320107   20.297128 C.3        1 MOL1        -0.0677
      18    H12     22.480670   18.788621   19.775569 H          1 MOL1         0.1026
      19    H13     21.883812   18.216384   21.355729 H          1 MOL1         0.1026
      20    H14     21.448311   17.335621   19.866420 H          1 MOL1         0.1026
@<TRIPOS>BOND
    1     1     2    1
    2     1     3    1
    3     1     4    1
    4     1     5    1
    5     5     6    1
    6     5     7    1
    7     5     8    1
    8     8     9    1
    9     8    10    1
   10     8    11    1
   11    11    12    1
   12    11    13    1
   13    11    14    1
   14    14    15    1
   15    14    16    1
   16    14    17    1
   17    17    18    1
   18    17    19    1
   19    17    20    1
@<TRIPOS>SUBSTRUCTURE
       1 MOL1            1 RESIDUE      1      MOL     
@<SCITEGIC>MOL_PROPERTY
VConf Rank
SciTegic.value.IntegerValue
200

@<SCITEGIC>MOL_PROPERTY
Conf_Id
SciTegic.value.IntegerValue
65

@<SCITEGIC>MOL_PROPERTY
Delta U+W
SciTegic.value.DoubleValue
1.775

@<SCITEGIC>MOL_PROPERTY
U+W
SciTegic.value.DoubleValue
17.114

@<SCITEGIC>MOL_PROPERTY
Grad RMS
SciTegic.value.DoubleValue
0.000000

@<SCITEGIC>MOL_PROPERTY
U
SciTegic.value.DoubleValue
71.726

@<SCITEGIC>MOL_PROPERTY
W
SciTegic.value.DoubleValue
-54.613

@<SCITEGIC>MOL_PROPERTY
W(PB)
SciTegic.value.DoubleValue
-56.495

@<SCITEGIC>MOL_PROPERTY
W(SA)
SciTegic.value.DoubleValue
1.883

@<SCITEGIC>MOL_PROPERTY
Valence
SciTegic.value.DoubleValue
2.885

@<SCITEGIC>MOL_PROPERTY
Coulomb
SciTegic.value.DoubleValue
68.822

@<SCITEGIC>MOL_PROPERTY
VdW
SciTegic.value.DoubleValue
0.019

@<SCITEGIC>MOL_PROPERTY
VdW6
SciTegic.value.DoubleValue
-4.600

@<SCITEGIC>MOL_PROPERTY
VdW12
SciTegic.value.DoubleValue
4.619

@<SCITEGIC>MOL_PROPERTY
Bond
SciTegic.value.DoubleValue
0.152

@<SCITEGIC>MOL_PROPERTY
Angle
SciTegic.value.DoubleValue
0.862

@<SCITEGIC>MOL_PROPERTY
Pdih
SciTegic.value.DoubleValue
1.871

@<SCITEGIC>MOL_PROPERTY
Idih
SciTegic.value.DoubleValue
0.000

@<SCITEGIC>MOL_PROPERTY
Tether
SciTegic.value.DoubleValue
0.000

@<TRIPOS>MOLECULE
guest-s9_confgen4.mol2 : confsearch ligand conformer 201
          20          19           1
SMALL
USER_CHARGES
 
@<TRIPOS>ATOM
       1    C1      18.751849   20.237520   23.312384 C.3        1 MOL1        -0.2224
       2    H1      19.696235   20.631215   22.915972 H          1 MOL1         0.1052
       3    H2      17.992425   21.021727   23.197172 H          1 MOL1         0.1052
       4    H3      18.881651   20.053157   24.386736 H          1 MOL1         0.1052
       5    C2      18.317301   18.949515   22.575918 C.3        1 MOL1        -0.1209
       6    H4      18.193508   19.159820   21.504911 H          1 MOL1         0.1041
       7    H5      17.325883   18.646670   22.941131 H          1 MOL1         0.1041
       8    C3      19.303777   17.772222   22.778024 C.3        1 MOL1        -0.1274
       9    H6      19.336620   17.507820   23.843284 H          1 MOL1         0.1041
      10    H7      18.924477   16.884541   22.254671 H          1 MOL1         0.1041
      11    C4      20.740627   18.067953   22.299516 C.3        1 MOL1         0.0313
      12    H8      21.376270   17.203072   22.505621 H          1 MOL1         0.1015
      13    H9      21.142939   18.922330   22.849017 H          1 MOL1         0.1015
      14    N1      20.845986   18.373278   20.817531 N.4        1 MOL1        -0.4809
      15    H10     20.252157   19.182003   20.581266 H          1 MOL1         0.3726
      16    H11     20.472852   17.586299   20.264962 H          1 MOL1         0.3726
      17    C5      22.296442   18.648720   20.444937 C.3        1 MOL1        -0.0677
      18    H12     22.900273   17.768189   20.674755 H          1 MOL1         0.1026
      19    H13     22.357133   18.868006   19.376667 H          1 MOL1         0.1026
      20    H14     22.658819   19.505057   21.017764 H          1 MOL1         0.1026
@<TRIPOS>BOND
    1     1     2    1
    2     1     3    1
    3     1     4    1
    4     1     5    1
    5     5     6    1
    6     5     7    1
    7     5     8    1
    8     8     9    1
    9     8    10    1
   10     8    11    1
   11    11    12    1
   12    11    13    1
   13    11    14    1
   14    14    15    1
   15    14    16    1
   16    14    17    1
   17    17    18    1
   18    17    19    1
   19    17    20    1
@<TRIPOS>SUBSTRUCTURE
       1 MOL1            1 RESIDUE      1      MOL     
@<SCITEGIC>MOL_PROPERTY
VConf Rank
SciTegic.value.IntegerValue
201

@<SCITEGIC>MOL_PROPERTY
Conf_Id
SciTegic.value.IntegerValue
23

@<SCITEGIC>MOL_PROPERTY
Delta U+W
SciTegic.value.DoubleValue
0.896

@<SCITEGIC>MOL_PROPERTY
U+W
SciTegic.value.DoubleValue
16.234

@<SCITEGIC>MOL_PROPERTY
Grad RMS
SciTegic.value.DoubleValue
0.000000

@<SCITEGIC>MOL_PROPERTY
U
SciTegic.value.DoubleValue
70.374

@<SCITEGIC>MOL_PROPERTY
W
SciTegic.value.DoubleValue
-54.140

@<SCITEGIC>MOL_PROPERTY
W(PB)
SciTegic.value.DoubleValue
-56.046

@<SCITEGIC>MOL_PROPERTY
W(SA)
SciTegic.value.DoubleValue
1.907

@<SCITEGIC>MOL_PROPERTY
Valence
SciTegic.value.DoubleValue
1.257

@<SCITEGIC>MOL_PROPERTY
Coulomb
SciTegic.value.DoubleValue
69.240

@<SCITEGIC>MOL_PROPERTY
VdW
SciTegic.value.DoubleValue
-0.123

@<SCITEGIC>MOL_PROPERTY
VdW6
SciTegic.value.DoubleValue
-4.336

@<SCITEGIC>MOL_PROPERTY
VdW12
SciTegic.value.DoubleValue
4.213

@<SCITEGIC>MOL_PROPERTY
Bond
SciTegic.value.DoubleValue
0.128

@<SCITEGIC>MOL_PROPERTY
Angle
SciTegic.value.DoubleValue
0.603

@<SCITEGIC>MOL_PROPERTY
Pdih
SciTegic.value.DoubleValue
0.526

@<SCITEGIC>MOL_PROPERTY
Idih
SciTegic.value.DoubleValue
0.000

@<SCITEGIC>MOL_PROPERTY
Tether
SciTegic.value.DoubleValue
0.000

@<TRIPOS>MOLECULE
guest-s9_confgen4.mol2 : confsearch ligand conformer 202
          20          19           1
SMALL
USER_CHARGES
 
@<TRIPOS>ATOM
       1    C1      19.137804   18.330155   24.147587 C.3        1 MOL1        -0.2224
       2    H1      19.789102   17.686138   24.752669 H          1 MOL1         0.1052
       3    H2      18.268142   18.597460   24.761766 H          1 MOL1         0.1052
       4    H3      18.772664   17.743631   23.295140 H          1 MOL1         0.1052
       5    C2      19.886867   19.601338   23.685885 C.3        1 MOL1        -0.1209
       6    H4      20.150203   20.200937   24.568574 H          1 MOL1         0.1041
       7    H5      19.215059   20.228375   23.084130 H          1 MOL1         0.1041
       8    C3      21.179839   19.289484   22.891550 C.3        1 MOL1        -0.1274
       9    H6      21.676056   20.230206   22.618505 H          1 MOL1         0.1041
      10    H7      21.882066   18.751511   23.542110 H          1 MOL1         0.1041
      11    C4      20.947066   18.450349   21.617722 C.3        1 MOL1         0.0313
      12    H8      20.495509   17.492197   21.885691 H          1 MOL1         0.1015
      13    H9      21.907279   18.249202   21.135987 H          1 MOL1         0.1015
      14    N1      20.050377   19.120049   20.593975 N.4        1 MOL1        -0.4809
      15    H10     20.445781   20.031601   20.317160 H          1 MOL1         0.3726
      16    H11     19.133721   19.333415   21.014340 H          1 MOL1         0.3726
      17    C5      19.883704   18.217683   19.378870 C.3        1 MOL1        -0.0677
      18    H12     19.433854   17.272793   19.691243 H          1 MOL1         0.1026
      19    H13     19.235577   18.711369   18.651426 H          1 MOL1         0.1026
      20    H14     20.862801   18.031069   18.932429 H          1 MOL1         0.1026
@<TRIPOS>BOND
    1     1     2    1
    2     1     3    1
    3     1     4    1
    4     1     5    1
    5     5     6    1
    6     5     7    1
    7     5     8    1
    8     8     9    1
    9     8    10    1
   10     8    11    1
   11    11    12    1
   12    11    13    1
   13    11    14    1
   14    14    15    1
   15    14    16    1
   16    14    17    1
   17    17    18    1
   18    17    19    1
   19    17    20    1
@<TRIPOS>SUBSTRUCTURE
       1 MOL1            1 RESIDUE      1      MOL     
@<SCITEGIC>MOL_PROPERTY
VConf Rank
SciTegic.value.IntegerValue
202

@<SCITEGIC>MOL_PROPERTY
Conf_Id
SciTegic.value.IntegerValue
24

@<SCITEGIC>MOL_PROPERTY
Delta U+W
SciTegic.value.DoubleValue
0.792

@<SCITEGIC>MOL_PROPERTY
U+W
SciTegic.value.DoubleValue
16.130

@<SCITEGIC>MOL_PROPERTY
Grad RMS
SciTegic.value.DoubleValue
0.000000

@<SCITEGIC>MOL_PROPERTY
U
SciTegic.value.DoubleValue
70.374

@<SCITEGIC>MOL_PROPERTY
W
SciTegic.value.DoubleValue
-54.243

@<SCITEGIC>MOL_PROPERTY
W(PB)
SciTegic.value.DoubleValue
-56.130

@<SCITEGIC>MOL_PROPERTY
W(SA)
SciTegic.value.DoubleValue
1.887

@<SCITEGIC>MOL_PROPERTY
Valence
SciTegic.value.DoubleValue
1.257

@<SCITEGIC>MOL_PROPERTY
Coulomb
SciTegic.value.DoubleValue
69.240

@<SCITEGIC>MOL_PROPERTY
VdW
SciTegic.value.DoubleValue
-0.123

@<SCITEGIC>MOL_PROPERTY
VdW6
SciTegic.value.DoubleValue
-4.336

@<SCITEGIC>MOL_PROPERTY
VdW12
SciTegic.value.DoubleValue
4.213

@<SCITEGIC>MOL_PROPERTY
Bond
SciTegic.value.DoubleValue
0.128

@<SCITEGIC>MOL_PROPERTY
Angle
SciTegic.value.DoubleValue
0.603

@<SCITEGIC>MOL_PROPERTY
Pdih
SciTegic.value.DoubleValue
0.526

@<SCITEGIC>MOL_PROPERTY
Idih
SciTegic.value.DoubleValue
0.000

@<SCITEGIC>MOL_PROPERTY
Tether
SciTegic.value.DoubleValue
0.000

@<TRIPOS>MOLECULE
guest-s9_confgen4.mol2 : confsearch ligand conformer 203
          20          19           1
SMALL
USER_CHARGES
 
@<TRIPOS>ATOM
       1    C1      18.292291   18.855612   23.431951 C.3        1 MOL1        -0.2224
       2    H1      17.692018   18.819227   24.350412 H          1 MOL1         0.1052
       3    H2      19.070625   19.612005   23.587240 H          1 MOL1         0.1052
       4    H3      17.633499   19.184501   22.617711 H          1 MOL1         0.1052
       5    C2      18.901499   17.466132   23.135853 C.3        1 MOL1        -0.1209
       6    H4      18.103995   16.712611   23.201130 H          1 MOL1         0.1041
       7    H5      19.626097   17.209758   23.921559 H          1 MOL1         0.1041
       8    C3      19.576072   17.343902   21.745584 C.3        1 MOL1        -0.1274
       9    H6      19.906880   16.304289   21.620728 H          1 MOL1         0.1041
      10    H7      18.843275   17.524381   20.948000 H          1 MOL1         0.1041
      11    C4      20.805396   18.256478   21.550000 C.3        1 MOL1         0.0313
      12    H8      21.421240   17.857396   20.740054 H          1 MOL1         0.1015
      13    H9      21.408098   18.264530   22.461575 H          1 MOL1         0.1015
      14    N1      20.468784   19.689526   21.183853 N.4        1 MOL1        -0.4809
      15    H10     19.842705   20.096676   21.892988 H          1 MOL1         0.3726
      16    H11     19.935966   19.713993   20.300951 H          1 MOL1         0.3726
      17    C5      21.745733   20.509668   21.060638 C.3        1 MOL1        -0.0677
      18    H12     22.275721   20.496155   22.015467 H          1 MOL1         0.1026
      19    H13     22.377127   20.077141   20.281519 H          1 MOL1         0.1026
      20    H14     21.488070   21.537792   20.796930 H          1 MOL1         0.1026
@<TRIPOS>BOND
    1     1     2    1
    2     1     3    1
    3     1     4    1
    4     1     5    1
    5     5     6    1
    6     5     7    1
    7     5     8    1
    8     8     9    1
    9     8    10    1
   10     8    11    1
   11    11    12    1
   12    11    13    1
   13    11    14    1
   14    14    15    1
   15    14    16    1
   16    14    17    1
   17    17    18    1
   18    17    19    1
   19    17    20    1
@<TRIPOS>SUBSTRUCTURE
       1 MOL1            1 RESIDUE      1      MOL     
@<SCITEGIC>MOL_PROPERTY
VConf Rank
SciTegic.value.IntegerValue
203

@<SCITEGIC>MOL_PROPERTY
Conf_Id
SciTegic.value.IntegerValue
26

@<SCITEGIC>MOL_PROPERTY
Delta U+W
SciTegic.value.DoubleValue
2.888

@<SCITEGIC>MOL_PROPERTY
U+W
SciTegic.value.DoubleValue
18.226

@<SCITEGIC>MOL_PROPERTY
Grad RMS
SciTegic.value.DoubleValue
0.000000

@<SCITEGIC>MOL_PROPERTY
U
SciTegic.value.DoubleValue
72.042

@<SCITEGIC>MOL_PROPERTY
W
SciTegic.value.DoubleValue
-53.816

@<SCITEGIC>MOL_PROPERTY
W(PB)
SciTegic.value.DoubleValue
-55.689

@<SCITEGIC>MOL_PROPERTY
W(SA)
SciTegic.value.DoubleValue
1.873

@<SCITEGIC>MOL_PROPERTY
Valence
SciTegic.value.DoubleValue
2.428

@<SCITEGIC>MOL_PROPERTY
Coulomb
SciTegic.value.DoubleValue
69.829

@<SCITEGIC>MOL_PROPERTY
VdW
SciTegic.value.DoubleValue
-0.215

@<SCITEGIC>MOL_PROPERTY
VdW6
SciTegic.value.DoubleValue
-4.563

@<SCITEGIC>MOL_PROPERTY
VdW12
SciTegic.value.DoubleValue
4.348

@<SCITEGIC>MOL_PROPERTY
Bond
SciTegic.value.DoubleValue
0.137

@<SCITEGIC>MOL_PROPERTY
Angle
SciTegic.value.DoubleValue
0.936

@<SCITEGIC>MOL_PROPERTY
Pdih
SciTegic.value.DoubleValue
1.356

@<SCITEGIC>MOL_PROPERTY
Idih
SciTegic.value.DoubleValue
0.000

@<SCITEGIC>MOL_PROPERTY
Tether
SciTegic.value.DoubleValue
0.000

@<TRIPOS>MOLECULE
guest-s9_confgen4.mol2 : confsearch ligand conformer 204
          20          19           1
SMALL
USER_CHARGES
 
@<TRIPOS>ATOM
       1    C1      20.229677   17.247814   20.625982 C.3        1 MOL1        -0.2224
       2    H1      20.480097   16.647154   19.741835 H          1 MOL1         0.1052
       3    H2      19.552870   16.651390   21.251581 H          1 MOL1         0.1052
       4    H3      19.694468   18.135759   20.269393 H          1 MOL1         0.1052
       5    C2      21.515285   17.629963   21.394509 C.3        1 MOL1        -0.1209
       6    H4      22.124898   18.303011   20.775248 H          1 MOL1         0.1041
       7    H5      22.118654   16.723043   21.541169 H          1 MOL1         0.1041
       8    C3      21.266093   18.279859   22.779563 C.3        1 MOL1        -0.1274
       9    H6      20.721984   17.586697   23.434680 H          1 MOL1         0.1041
      10    H7      22.241517   18.442217   23.257064 H          1 MOL1         0.1041
      11    C4      20.535888   19.638581   22.725157 C.3        1 MOL1         0.0313
      12    H8      20.923095   20.232878   21.893793 H          1 MOL1         0.1015
      13    H9      20.729249   20.185333   23.651557 H          1 MOL1         0.1015
      14    N1      19.029544   19.533883   22.580363 N.4        1 MOL1        -0.4809
      15    H10     18.632137   19.013613   23.377478 H          1 MOL1         0.3726
      16    H11     18.793486   18.978583   21.745774 H          1 MOL1         0.3726
      17    C5      18.416643   20.924830   22.490758 C.3        1 MOL1        -0.0677
      18    H12     18.827448   21.443892   21.622091 H          1 MOL1         0.1026
      19    H13     17.333170   20.833752   22.387013 H          1 MOL1         0.1026
      20    H14     18.653743   21.481502   23.399969 H          1 MOL1         0.1026
@<TRIPOS>BOND
    1     1     2    1
    2     1     3    1
    3     1     4    1
    4     1     5    1
    5     5     6    1
    6     5     7    1
    7     5     8    1
    8     8     9    1
    9     8    10    1
   10     8    11    1
   11    11    12    1
   12    11    13    1
   13    11    14    1
   14    14    15    1
   15    14    16    1
   16    14    17    1
   17    17    18    1
   18    17    19    1
   19    17    20    1
@<TRIPOS>SUBSTRUCTURE
       1 MOL1            1 RESIDUE      1      MOL     
@<SCITEGIC>MOL_PROPERTY
VConf Rank
SciTegic.value.IntegerValue
204

@<SCITEGIC>MOL_PROPERTY
Conf_Id
SciTegic.value.IntegerValue
5

@<SCITEGIC>MOL_PROPERTY
Delta U+W
SciTegic.value.DoubleValue
2.950

@<SCITEGIC>MOL_PROPERTY
U+W
SciTegic.value.DoubleValue
18.289

@<SCITEGIC>MOL_PROPERTY
Grad RMS
SciTegic.value.DoubleValue
0.000000

@<SCITEGIC>MOL_PROPERTY
U
SciTegic.value.DoubleValue
72.042

@<SCITEGIC>MOL_PROPERTY
W
SciTegic.value.DoubleValue
-53.753

@<SCITEGIC>MOL_PROPERTY
W(PB)
SciTegic.value.DoubleValue
-55.644

@<SCITEGIC>MOL_PROPERTY
W(SA)
SciTegic.value.DoubleValue
1.891

@<SCITEGIC>MOL_PROPERTY
Valence
SciTegic.value.DoubleValue
2.428

@<SCITEGIC>MOL_PROPERTY
Coulomb
SciTegic.value.DoubleValue
69.829

@<SCITEGIC>MOL_PROPERTY
VdW
SciTegic.value.DoubleValue
-0.215

@<SCITEGIC>MOL_PROPERTY
VdW6
SciTegic.value.DoubleValue
-4.563

@<SCITEGIC>MOL_PROPERTY
VdW12
SciTegic.value.DoubleValue
4.348

@<SCITEGIC>MOL_PROPERTY
Bond
SciTegic.value.DoubleValue
0.137

@<SCITEGIC>MOL_PROPERTY
Angle
SciTegic.value.DoubleValue
0.936

@<SCITEGIC>MOL_PROPERTY
Pdih
SciTegic.value.DoubleValue
1.356

@<SCITEGIC>MOL_PROPERTY
Idih
SciTegic.value.DoubleValue
0.000

@<SCITEGIC>MOL_PROPERTY
Tether
SciTegic.value.DoubleValue
0.000

@<TRIPOS>MOLECULE
guest-s9_confgen4.mol2 : confsearch ligand conformer 205
          20          19           1
SMALL
USER_CHARGES
 
@<TRIPOS>ATOM
       1    C1      20.168691   21.217189   21.393622 C.3        1 MOL1        -0.2224
       2    H1      20.709498   21.394527   20.454933 H          1 MOL1         0.1052
       3    H2      19.161866   20.858482   21.145811 H          1 MOL1         0.1052
       4    H3      20.059600   22.182867   21.904044 H          1 MOL1         0.1052
       5    C2      20.927621   20.212417   22.290617 C.3        1 MOL1        -0.1209
       6    H4      20.370326   20.053988   23.223937 H          1 MOL1         0.1041
       7    H5      21.890839   20.652725   22.584273 H          1 MOL1         0.1041
       8    C3      21.191967   18.854983   21.592914 C.3        1 MOL1        -0.1274
       9    H6      21.829956   19.019013   20.714507 H          1 MOL1         0.1041
      10    H7      21.766757   18.205536   22.265659 H          1 MOL1         0.1041
      11    C4      19.909493   18.121126   21.138773 C.3        1 MOL1         0.0313
      12    H8      20.179192   17.176104   20.660635 H          1 MOL1         0.1015
      13    H9      19.392495   18.734715   20.396951 H          1 MOL1         0.1015
      14    N1      18.914131   17.811205   22.246260 N.4        1 MOL1        -0.4809
      15    H10     18.038647   17.452358   21.834179 H          1 MOL1         0.3726
      16    H11     18.644964   18.679583   22.731619 H          1 MOL1         0.3726
      17    C5      19.480122   16.793400   23.230308 C.3        1 MOL1        -0.0677
      18    H12     20.371219   17.207246   23.706404 H          1 MOL1         0.1026
      19    H13     18.727186   16.573211   23.990249 H          1 MOL1         0.1026
      20    H14     19.738414   15.878755   22.692401 H          1 MOL1         0.1026
@<TRIPOS>BOND
    1     1     2    1
    2     1     3    1
    3     1     4    1
    4     1     5    1
    5     5     6    1
    6     5     7    1
    7     5     8    1
    8     8     9    1
    9     8    10    1
   10     8    11    1
   11    11    12    1
   12    11    13    1
   13    11    14    1
   14    14    15    1
   15    14    16    1
   16    14    17    1
   17    17    18    1
   18    17    19    1
   19    17    20    1
@<TRIPOS>SUBSTRUCTURE
       1 MOL1            1 RESIDUE      1      MOL     
@<SCITEGIC>MOL_PROPERTY
VConf Rank
SciTegic.value.IntegerValue
205

@<SCITEGIC>MOL_PROPERTY
Conf_Id
SciTegic.value.IntegerValue
52

@<SCITEGIC>MOL_PROPERTY
Delta U+W
SciTegic.value.DoubleValue
0.784

@<SCITEGIC>MOL_PROPERTY
U+W
SciTegic.value.DoubleValue
16.122

@<SCITEGIC>MOL_PROPERTY
Grad RMS
SciTegic.value.DoubleValue
0.000000

@<SCITEGIC>MOL_PROPERTY
U
SciTegic.value.DoubleValue
70.777

@<SCITEGIC>MOL_PROPERTY
W
SciTegic.value.DoubleValue
-54.655

@<SCITEGIC>MOL_PROPERTY
W(PB)
SciTegic.value.DoubleValue
-56.491

@<SCITEGIC>MOL_PROPERTY
W(SA)
SciTegic.value.DoubleValue
1.836

@<SCITEGIC>MOL_PROPERTY
Valence
SciTegic.value.DoubleValue
1.529

@<SCITEGIC>MOL_PROPERTY
Coulomb
SciTegic.value.DoubleValue
69.166

@<SCITEGIC>MOL_PROPERTY
VdW
SciTegic.value.DoubleValue
0.082

@<SCITEGIC>MOL_PROPERTY
VdW6
SciTegic.value.DoubleValue
-5.166

@<SCITEGIC>MOL_PROPERTY
VdW12
SciTegic.value.DoubleValue
5.248

@<SCITEGIC>MOL_PROPERTY
Bond
SciTegic.value.DoubleValue
0.171

@<SCITEGIC>MOL_PROPERTY
Angle
SciTegic.value.DoubleValue
0.752

@<SCITEGIC>MOL_PROPERTY
Pdih
SciTegic.value.DoubleValue
0.605

@<SCITEGIC>MOL_PROPERTY
Idih
SciTegic.value.DoubleValue
0.000

@<SCITEGIC>MOL_PROPERTY
Tether
SciTegic.value.DoubleValue
0.000

@<TRIPOS>MOLECULE
guest-s9_confgen4.mol2 : confsearch ligand conformer 206
          20          19           1
SMALL
USER_CHARGES
 
@<TRIPOS>ATOM
       1    C1      21.844380   19.919788   22.419723 C.3        1 MOL1        -0.2224
       2    H1      22.814850   20.315313   22.746705 H          1 MOL1         0.1052
       3    H2      22.023456   19.353086   21.498890 H          1 MOL1         0.1052
       4    H3      21.196680   20.775856   22.189637 H          1 MOL1         0.1052
       5    C2      21.229231   19.030664   23.524447 C.3        1 MOL1        -0.1209
       6    H4      21.287423   19.571140   24.479709 H          1 MOL1         0.1041
       7    H5      21.840137   18.125703   23.650370 H          1 MOL1         0.1041
       8    C3      19.750799   18.634096   23.279915 C.3        1 MOL1        -0.1274
       9    H6      19.398000   18.089572   24.165699 H          1 MOL1         0.1041
      10    H7      19.122934   19.531493   23.213836 H          1 MOL1         0.1041
      11    C4      19.524022   17.722918   22.051144 C.3        1 MOL1         0.0313
      12    H8      18.552577   17.230683   22.142898 H          1 MOL1         0.1015
      13    H9      20.291582   16.945012   22.037644 H          1 MOL1         0.1015
      14    N1      19.541798   18.419666   20.699575 N.4        1 MOL1        -0.4809
      15    H10     19.574207   17.713699   19.947432 H          1 MOL1         0.3726
      16    H11     20.408095   18.966019   20.595319 H          1 MOL1         0.3726
      17    C5      18.317118   19.310021   20.520269 C.3        1 MOL1        -0.0677
      18    H12     17.414402   18.703633   20.620461 H          1 MOL1         0.1026
      19    H13     18.323081   20.093428   21.280436 H          1 MOL1         0.1026
      20    H14     18.346945   19.763498   19.527102 H          1 MOL1         0.1026
@<TRIPOS>BOND
    1     1     2    1
    2     1     3    1
    3     1     4    1
    4     1     5    1
    5     5     6    1
    6     5     7    1
    7     5     8    1
    8     8     9    1
    9     8    10    1
   10     8    11    1
   11    11    12    1
   12    11    13    1
   13    11    14    1
   14    14    15    1
   15    14    16    1
   16    14    17    1
   17    17    18    1
   18    17    19    1
   19    17    20    1
@<TRIPOS>SUBSTRUCTURE
       1 MOL1            1 RESIDUE      1      MOL     
@<SCITEGIC>MOL_PROPERTY
VConf Rank
SciTegic.value.IntegerValue
206

@<SCITEGIC>MOL_PROPERTY
Conf_Id
SciTegic.value.IntegerValue
55

@<SCITEGIC>MOL_PROPERTY
Delta U+W
SciTegic.value.DoubleValue
2.745

@<SCITEGIC>MOL_PROPERTY
U+W
SciTegic.value.DoubleValue
18.083

@<SCITEGIC>MOL_PROPERTY
Grad RMS
SciTegic.value.DoubleValue
0.000000

@<SCITEGIC>MOL_PROPERTY
U
SciTegic.value.DoubleValue
72.490

@<SCITEGIC>MOL_PROPERTY
W
SciTegic.value.DoubleValue
-54.407

@<SCITEGIC>MOL_PROPERTY
W(PB)
SciTegic.value.DoubleValue
-56.269

@<SCITEGIC>MOL_PROPERTY
W(SA)
SciTegic.value.DoubleValue
1.861

@<SCITEGIC>MOL_PROPERTY
Valence
SciTegic.value.DoubleValue
2.738

@<SCITEGIC>MOL_PROPERTY
Coulomb
SciTegic.value.DoubleValue
69.795

@<SCITEGIC>MOL_PROPERTY
VdW
SciTegic.value.DoubleValue
-0.043

@<SCITEGIC>MOL_PROPERTY
VdW6
SciTegic.value.DoubleValue
-5.333

@<SCITEGIC>MOL_PROPERTY
VdW12
SciTegic.value.DoubleValue
5.290

@<SCITEGIC>MOL_PROPERTY
Bond
SciTegic.value.DoubleValue
0.182

@<SCITEGIC>MOL_PROPERTY
Angle
SciTegic.value.DoubleValue
1.135

@<SCITEGIC>MOL_PROPERTY
Pdih
SciTegic.value.DoubleValue
1.422

@<SCITEGIC>MOL_PROPERTY
Idih
SciTegic.value.DoubleValue
0.000

@<SCITEGIC>MOL_PROPERTY
Tether
SciTegic.value.DoubleValue
0.000

@<TRIPOS>MOLECULE
guest-s9_confgen4.mol2 : confsearch ligand conformer 207
          20          19           1
SMALL
USER_CHARGES
 
@<TRIPOS>ATOM
       1    C1      19.319368   20.772804   22.513948 C.3        1 MOL1        -0.2224
       2    H1      18.949914   21.803712   22.590767 H          1 MOL1         0.1052
       3    H2      19.013623   20.241126   23.424522 H          1 MOL1         0.1052
       4    H3      20.413655   20.826212   22.485087 H          1 MOL1         0.1052
       5    C2      18.749320   20.093013   21.248127 C.3        1 MOL1        -0.1209
       6    H4      19.164929   20.576299   20.352739 H          1 MOL1         0.1041
       7    H5      17.665496   20.272439   21.214098 H          1 MOL1         0.1041
       8    C3      18.990988   18.563510   21.177072 C.3        1 MOL1        -0.1274
       9    H6      18.526162   18.065321   22.037099 H          1 MOL1         0.1041
      10    H7      18.464984   18.180905   20.292471 H          1 MOL1         0.1041
      11    C4      20.476382   18.152147   21.050816 C.3        1 MOL1         0.0313
      12    H8      20.965170   18.801208   20.319875 H          1 MOL1         0.1015
      13    H9      20.535013   17.126704   20.677384 H          1 MOL1         0.1015
      14    N1      21.287594   18.202728   22.336073 N.4        1 MOL1        -0.4809
      15    H10     21.200679   19.131220   22.772176 H          1 MOL1         0.3726
      16    H11     22.290564   18.099361   22.115790 H          1 MOL1         0.3726
      17    C5      20.855979   17.108239   23.305878 C.3        1 MOL1        -0.0677
      18    H12     19.811610   17.260862   23.584478 H          1 MOL1         0.1026
      19    H13     20.972349   16.135089   22.824136 H          1 MOL1         0.1026
      20    H14     21.483375   17.153755   24.198746 H          1 MOL1         0.1026
@<TRIPOS>BOND
    1     1     2    1
    2     1     3    1
    3     1     4    1
    4     1     5    1
    5     5     6    1
    6     5     7    1
    7     5     8    1
    8     8     9    1
    9     8    10    1
   10     8    11    1
   11    11    12    1
   12    11    13    1
   13    11    14    1
   14    14    15    1
   15    14    16    1
   16    14    17    1
   17    17    18    1
   18    17    19    1
   19    17    20    1
@<TRIPOS>SUBSTRUCTURE
       1 MOL1            1 RESIDUE      1      MOL     
@<SCITEGIC>MOL_PROPERTY
VConf Rank
SciTegic.value.IntegerValue
207

@<SCITEGIC>MOL_PROPERTY
Conf_Id
SciTegic.value.IntegerValue
76

@<SCITEGIC>MOL_PROPERTY
Delta U+W
SciTegic.value.DoubleValue
2.799

@<SCITEGIC>MOL_PROPERTY
U+W
SciTegic.value.DoubleValue
18.137

@<SCITEGIC>MOL_PROPERTY
Grad RMS
SciTegic.value.DoubleValue
0.000000

@<SCITEGIC>MOL_PROPERTY
U
SciTegic.value.DoubleValue
72.490

@<SCITEGIC>MOL_PROPERTY
W
SciTegic.value.DoubleValue
-54.353

@<SCITEGIC>MOL_PROPERTY
W(PB)
SciTegic.value.DoubleValue
-56.201

@<SCITEGIC>MOL_PROPERTY
W(SA)
SciTegic.value.DoubleValue
1.848

@<SCITEGIC>MOL_PROPERTY
Valence
SciTegic.value.DoubleValue
2.738

@<SCITEGIC>MOL_PROPERTY
Coulomb
SciTegic.value.DoubleValue
69.795

@<SCITEGIC>MOL_PROPERTY
VdW
SciTegic.value.DoubleValue
-0.043

@<SCITEGIC>MOL_PROPERTY
VdW6
SciTegic.value.DoubleValue
-5.334

@<SCITEGIC>MOL_PROPERTY
VdW12
SciTegic.value.DoubleValue
5.290

@<SCITEGIC>MOL_PROPERTY
Bond
SciTegic.value.DoubleValue
0.182

@<SCITEGIC>MOL_PROPERTY
Angle
SciTegic.value.DoubleValue
1.135

@<SCITEGIC>MOL_PROPERTY
Pdih
SciTegic.value.DoubleValue
1.421

@<SCITEGIC>MOL_PROPERTY
Idih
SciTegic.value.DoubleValue
0.000

@<SCITEGIC>MOL_PROPERTY
Tether
SciTegic.value.DoubleValue
0.000

@<TRIPOS>MOLECULE
guest-s9_confgen4.mol2 : confsearch ligand conformer 208
          20          19           1
SMALL
USER_CHARGES
 
@<TRIPOS>ATOM
       1    C1      21.290460   17.869904   23.542358 C.3        1 MOL1        -0.2224
       2    H1      20.237315   17.563663   23.554724 H          1 MOL1         0.1052
       3    H2      21.895469   16.998746   23.259517 H          1 MOL1         0.1052
       4    H3      21.566339   18.150079   24.567169 H          1 MOL1         0.1052
       5    C2      21.531475   19.050589   22.573618 C.3        1 MOL1        -0.1209
       6    H4      22.581841   19.364232   22.652300 H          1 MOL1         0.1041
       7    H5      20.937375   19.920213   22.882746 H          1 MOL1         0.1041
       8    C3      21.230109   18.695817   21.096878 C.3        1 MOL1        -0.1274
       9    H6      21.462377   19.560074   20.460860 H          1 MOL1         0.1041
      10    H7      21.914909   17.897710   20.781095 H          1 MOL1         0.1041
      11    C4      19.782931   18.231387   20.809372 C.3        1 MOL1         0.0313
      12    H8      19.522072   17.376164   21.437156 H          1 MOL1         0.1015
      13    H9      19.739055   17.901363   19.768303 H          1 MOL1         0.1015
      14    N1      18.706676   19.294644   20.970940 N.4        1 MOL1        -0.4809
      15    H10     17.941399   19.106506   20.304790 H          1 MOL1         0.3726
      16    H11     19.071454   20.219203   20.697494 H          1 MOL1         0.3726
      17    C5      18.142429   19.316160   22.387417 C.3        1 MOL1        -0.0677
      18    H12     17.355487   20.071245   22.446540 H          1 MOL1         0.1026
      19    H13     17.726122   18.334142   22.621766 H          1 MOL1         0.1026
      20    H14     18.934678   19.558251   23.096471 H          1 MOL1         0.1026
@<TRIPOS>BOND
    1     1     2    1
    2     1     3    1
    3     1     4    1
    4     1     5    1
    5     5     6    1
    6     5     7    1
    7     5     8    1
    8     8     9    1
    9     8    10    1
   10     8    11    1
   11    11    12    1
   12    11    13    1
   13    11    14    1
   14    14    15    1
   15    14    16    1
   16    14    17    1
   17    17    18    1
   18    17    19    1
   19    17    20    1
@<TRIPOS>SUBSTRUCTURE
       1 MOL1            1 RESIDUE      1      MOL     
@<SCITEGIC>MOL_PROPERTY
VConf Rank
SciTegic.value.IntegerValue
208

@<SCITEGIC>MOL_PROPERTY
Conf_Id
SciTegic.value.IntegerValue
60

@<SCITEGIC>MOL_PROPERTY
Delta U+W
SciTegic.value.DoubleValue
1.788

@<SCITEGIC>MOL_PROPERTY
U+W
SciTegic.value.DoubleValue
17.127

@<SCITEGIC>MOL_PROPERTY
Grad RMS
SciTegic.value.DoubleValue
0.000000

@<SCITEGIC>MOL_PROPERTY
U
SciTegic.value.DoubleValue
72.122

@<SCITEGIC>MOL_PROPERTY
W
SciTegic.value.DoubleValue
-54.995

@<SCITEGIC>MOL_PROPERTY
W(PB)
SciTegic.value.DoubleValue
-56.810

@<SCITEGIC>MOL_PROPERTY
W(SA)
SciTegic.value.DoubleValue
1.815

@<SCITEGIC>MOL_PROPERTY
Valence
SciTegic.value.DoubleValue
3.197

@<SCITEGIC>MOL_PROPERTY
Coulomb
SciTegic.value.DoubleValue
69.115

@<SCITEGIC>MOL_PROPERTY
VdW
SciTegic.value.DoubleValue
-0.190

@<SCITEGIC>MOL_PROPERTY
VdW6
SciTegic.value.DoubleValue
-5.585

@<SCITEGIC>MOL_PROPERTY
VdW12
SciTegic.value.DoubleValue
5.395

@<SCITEGIC>MOL_PROPERTY
Bond
SciTegic.value.DoubleValue
0.177

@<SCITEGIC>MOL_PROPERTY
Angle
SciTegic.value.DoubleValue
1.207

@<SCITEGIC>MOL_PROPERTY
Pdih
SciTegic.value.DoubleValue
1.813

@<SCITEGIC>MOL_PROPERTY
Idih
SciTegic.value.DoubleValue
0.000

@<SCITEGIC>MOL_PROPERTY
Tether
SciTegic.value.DoubleValue
0.000

@<TRIPOS>MOLECULE
guest-s9_confgen4.mol2 : confsearch ligand conformer 209
          20          19           1
SMALL
USER_CHARGES
 
@<TRIPOS>ATOM
       1    C1      21.713132   20.022731   22.778912 C.3        1 MOL1        -0.2224
       2    H1      21.900193   21.101958   22.850467 H          1 MOL1         0.1052
       3    H2      22.490937   19.509378   23.358946 H          1 MOL1         0.1052
       4    H3      21.827777   19.735663   21.726534 H          1 MOL1         0.1052
       5    C2      20.304133   19.679627   23.315162 C.3        1 MOL1        -0.1209
       6    H4      19.539651   20.217651   22.739958 H          1 MOL1         0.1041
       7    H5      20.217605   20.050975   24.345913 H          1 MOL1         0.1041
       8    C3      20.005532   18.160332   23.309674 C.3        1 MOL1        -0.1274
       9    H6      20.716976   17.660616   23.980328 H          1 MOL1         0.1041
      10    H7      19.011399   17.983842   23.740903 H          1 MOL1         0.1041
      11    C4      20.084671   17.474814   21.925305 C.3        1 MOL1         0.0313
      12    H8      19.973618   16.398404   22.079182 H          1 MOL1         0.1015
      13    H9      21.062853   17.642961   21.468739 H          1 MOL1         0.1015
      14    N1      19.010246   17.881439   20.927704 N.4        1 MOL1        -0.4809
      15    H10     18.123096   18.076514   21.415102 H          1 MOL1         0.3726
      16    H11     18.800595   17.081656   20.310295 H          1 MOL1         0.3726
      17    C5      19.449876   19.068018   20.076822 C.3        1 MOL1        -0.0677
      18    H12     20.365807   18.805811   19.543055 H          1 MOL1         0.1026
      19    H13     18.661691   19.303238   19.358238 H          1 MOL1         0.1026
      20    H14     19.631492   19.932880   20.715610 H          1 MOL1         0.1026
@<TRIPOS>BOND
    1     1     2    1
    2     1     3    1
    3     1     4    1
    4     1     5    1
    5     5     6    1
    6     5     7    1
    7     5     8    1
    8     8     9    1
    9     8    10    1
   10     8    11    1
   11    11    12    1
   12    11    13    1
   13    11    14    1
   14    14    15    1
   15    14    16    1
   16    14    17    1
   17    17    18    1
   18    17    19    1
   19    17    20    1
@<TRIPOS>SUBSTRUCTURE
       1 MOL1            1 RESIDUE      1      MOL     
@<SCITEGIC>MOL_PROPERTY
VConf Rank
SciTegic.value.IntegerValue
209

@<SCITEGIC>MOL_PROPERTY
Conf_Id
SciTegic.value.IntegerValue
54

@<SCITEGIC>MOL_PROPERTY
Delta U+W
SciTegic.value.DoubleValue
1.880

@<SCITEGIC>MOL_PROPERTY
U+W
SciTegic.value.DoubleValue
17.218

@<SCITEGIC>MOL_PROPERTY
Grad RMS
SciTegic.value.DoubleValue
0.000000

@<SCITEGIC>MOL_PROPERTY
U
SciTegic.value.DoubleValue
72.122

@<SCITEGIC>MOL_PROPERTY
W
SciTegic.value.DoubleValue
-54.903

@<SCITEGIC>MOL_PROPERTY
W(PB)
SciTegic.value.DoubleValue
-56.724

@<SCITEGIC>MOL_PROPERTY
W(SA)
SciTegic.value.DoubleValue
1.821

@<SCITEGIC>MOL_PROPERTY
Valence
SciTegic.value.DoubleValue
3.197

@<SCITEGIC>MOL_PROPERTY
Coulomb
SciTegic.value.DoubleValue
69.115

@<SCITEGIC>MOL_PROPERTY
VdW
SciTegic.value.DoubleValue
-0.190

@<SCITEGIC>MOL_PROPERTY
VdW6
SciTegic.value.DoubleValue
-5.585

@<SCITEGIC>MOL_PROPERTY
VdW12
SciTegic.value.DoubleValue
5.395

@<SCITEGIC>MOL_PROPERTY
Bond
SciTegic.value.DoubleValue
0.177

@<SCITEGIC>MOL_PROPERTY
Angle
SciTegic.value.DoubleValue
1.207

@<SCITEGIC>MOL_PROPERTY
Pdih
SciTegic.value.DoubleValue
1.813

@<SCITEGIC>MOL_PROPERTY
Idih
SciTegic.value.DoubleValue
0.000

@<SCITEGIC>MOL_PROPERTY
Tether
SciTegic.value.DoubleValue
0.000

@<TRIPOS>MOLECULE
guest-s9_confgen4.mol2 : confsearch ligand conformer 210
          20          19           1
SMALL
USER_CHARGES
 
@<TRIPOS>ATOM
       1    C1      20.004612   15.981554   20.504114 C.3        1 MOL1        -0.2224
       2    H1      19.016498   15.656775   20.855293 H          1 MOL1         0.1052
       3    H2      20.128021   15.626626   19.472697 H          1 MOL1         0.1052
       4    H3      20.765903   15.488437   21.122537 H          1 MOL1         0.1052
       5    C2      20.142009   17.518002   20.572527 C.3        1 MOL1        -0.1209
       6    H4      19.390552   17.981296   19.917530 H          1 MOL1         0.1041
       7    H5      21.126214   17.814271   20.182762 H          1 MOL1         0.1041
       8    C3      19.972572   18.046365   22.014015 C.3        1 MOL1        -0.1274
       9    H6      18.987765   17.752983   22.401373 H          1 MOL1         0.1041
      10    H7      20.725738   17.585606   22.667014 H          1 MOL1         0.1041
      11    C4      20.111027   19.578953   22.073890 C.3        1 MOL1         0.0313
      12    H8      19.352698   20.041278   21.436959 H          1 MOL1         0.1015
      13    H9      21.096280   19.873336   21.703614 H          1 MOL1         0.1015
      14    N1      19.951624   20.143732   23.471860 N.4        1 MOL1        -0.4809
      15    H10     20.647548   19.724338   24.107435 H          1 MOL1         0.3726
      16    H11     19.033212   19.879877   23.860516 H          1 MOL1         0.3726
      17    C5      20.102388   21.658811   23.440528 C.3        1 MOL1        -0.0677
      18    H12     19.334962   22.083496   22.789754 H          1 MOL1         0.1026
      19    H13     19.985384   22.052022   24.452805 H          1 MOL1         0.1026
      20    H14     21.093309   21.914092   23.058798 H          1 MOL1         0.1026
@<TRIPOS>BOND
    1     1     2    1
    2     1     3    1
    3     1     4    1
    4     1     5    1
    5     5     6    1
    6     5     7    1
    7     5     8    1
    8     8     9    1
    9     8    10    1
   10     8    11    1
   11    11    12    1
   12    11    13    1
   13    11    14    1
   14    14    15    1
   15    14    16    1
   16    14    17    1
   17    17    18    1
   18    17    19    1
   19    17    20    1
@<TRIPOS>SUBSTRUCTURE
       1 MOL1            1 RESIDUE      1      MOL     
@<SCITEGIC>MOL_PROPERTY
VConf Rank
SciTegic.value.IntegerValue
210

@<SCITEGIC>MOL_PROPERTY
Conf_Id
SciTegic.value.IntegerValue
67

@<SCITEGIC>MOL_PROPERTY
Delta U+W
SciTegic.value.DoubleValue
0.000

@<SCITEGIC>MOL_PROPERTY
U+W
SciTegic.value.DoubleValue
15.338

@<SCITEGIC>MOL_PROPERTY
Grad RMS
SciTegic.value.DoubleValue
0.000000

@<SCITEGIC>MOL_PROPERTY
U
SciTegic.value.DoubleValue
69.277

@<SCITEGIC>MOL_PROPERTY
W
SciTegic.value.DoubleValue
-53.939

@<SCITEGIC>MOL_PROPERTY
W(PB)
SciTegic.value.DoubleValue
-55.889

@<SCITEGIC>MOL_PROPERTY
W(SA)
SciTegic.value.DoubleValue
1.950

@<SCITEGIC>MOL_PROPERTY
Valence
SciTegic.value.DoubleValue
0.846

@<SCITEGIC>MOL_PROPERTY
Coulomb
SciTegic.value.DoubleValue
68.557

@<SCITEGIC>MOL_PROPERTY
VdW
SciTegic.value.DoubleValue
-0.127

@<SCITEGIC>MOL_PROPERTY
VdW6
SciTegic.value.DoubleValue
-3.008

@<SCITEGIC>MOL_PROPERTY
VdW12
SciTegic.value.DoubleValue
2.882

@<SCITEGIC>MOL_PROPERTY
Bond
SciTegic.value.DoubleValue
0.088

@<SCITEGIC>MOL_PROPERTY
Angle
SciTegic.value.DoubleValue
0.332

@<SCITEGIC>MOL_PROPERTY
Pdih
SciTegic.value.DoubleValue
0.426

@<SCITEGIC>MOL_PROPERTY
Idih
SciTegic.value.DoubleValue
0.000

@<SCITEGIC>MOL_PROPERTY
Tether
SciTegic.value.DoubleValue
0.000

@<TRIPOS>MOLECULE
guest-s9_confgen4.mol2 : confsearch ligand conformer 211
          20          19           1
SMALL
USER_CHARGES
 
@<TRIPOS>ATOM
       1    C1      22.128813   16.708023   22.363304 C.3        1 MOL1        -0.2224
       2    H1      22.192474   16.573358   21.275654 H          1 MOL1         0.1052
       3    H2      23.125962   16.523594   22.783661 H          1 MOL1         0.1052
       4    H3      21.449138   15.944086   22.762817 H          1 MOL1         0.1052
       5    C2      21.640415   18.128673   22.720367 C.3        1 MOL1        -0.1209
       6    H4      22.357743   18.868401   22.337525 H          1 MOL1         0.1041
       7    H5      21.620894   18.244031   23.813353 H          1 MOL1         0.1041
       8    C3      20.237692   18.416531   22.141404 C.3        1 MOL1        -0.1274
       9    H6      20.262008   18.300113   21.050254 H          1 MOL1         0.1041
      10    H7      19.520858   17.679912   22.527622 H          1 MOL1         0.1041
      11    C4      19.758027   19.837090   22.504598 C.3        1 MOL1         0.0313
      12    H8      20.440539   20.578682   22.081986 H          1 MOL1         0.1015
      13    H9      19.769561   19.948052   23.591903 H          1 MOL1         0.1015
      14    N1      18.352486   20.170888   22.031528 N.4        1 MOL1        -0.4809
      15    H10     18.049878   21.063668   22.451836 H          1 MOL1         0.3726
      16    H11     17.681103   19.472116   22.384711 H          1 MOL1         0.3726
      17    C5      18.286927   20.266631   20.510985 C.3        1 MOL1        -0.0677
      18    H12     18.543995   19.299246   20.075132 H          1 MOL1         0.1026
      19    H13     17.273330   20.544328   20.213531 H          1 MOL1         0.1026
      20    H14     18.992089   21.026724   20.167893 H          1 MOL1         0.1026
@<TRIPOS>BOND
    1     1     2    1
    2     1     3    1
    3     1     4    1
    4     1     5    1
    5     5     6    1
    6     5     7    1
    7     5     8    1
    8     8     9    1
    9     8    10    1
   10     8    11    1
   11    11    12    1
   12    11    13    1
   13    11    14    1
   14    14    15    1
   15    14    16    1
   16    14    17    1
   17    17    18    1
   18    17    19    1
   19    17    20    1
@<TRIPOS>SUBSTRUCTURE
       1 MOL1            1 RESIDUE      1      MOL     
@<SCITEGIC>MOL_PROPERTY
VConf Rank
SciTegic.value.IntegerValue
211

@<SCITEGIC>MOL_PROPERTY
Conf_Id
SciTegic.value.IntegerValue
37

@<SCITEGIC>MOL_PROPERTY
Delta U+W
SciTegic.value.DoubleValue
-0.021

@<SCITEGIC>MOL_PROPERTY
U+W
SciTegic.value.DoubleValue
15.318

@<SCITEGIC>MOL_PROPERTY
Grad RMS
SciTegic.value.DoubleValue
0.000000

@<SCITEGIC>MOL_PROPERTY
U
SciTegic.value.DoubleValue
69.657

@<SCITEGIC>MOL_PROPERTY
W
SciTegic.value.DoubleValue
-54.340

@<SCITEGIC>MOL_PROPERTY
W(PB)
SciTegic.value.DoubleValue
-56.238

@<SCITEGIC>MOL_PROPERTY
W(SA)
SciTegic.value.DoubleValue
1.899

@<SCITEGIC>MOL_PROPERTY
Valence
SciTegic.value.DoubleValue
1.137

@<SCITEGIC>MOL_PROPERTY
Coulomb
SciTegic.value.DoubleValue
68.383

@<SCITEGIC>MOL_PROPERTY
VdW
SciTegic.value.DoubleValue
0.138

@<SCITEGIC>MOL_PROPERTY
VdW6
SciTegic.value.DoubleValue
-3.703

@<SCITEGIC>MOL_PROPERTY
VdW12
SciTegic.value.DoubleValue
3.841

@<SCITEGIC>MOL_PROPERTY
Bond
SciTegic.value.DoubleValue
0.125

@<SCITEGIC>MOL_PROPERTY
Angle
SciTegic.value.DoubleValue
0.468

@<SCITEGIC>MOL_PROPERTY
Pdih
SciTegic.value.DoubleValue
0.543

@<SCITEGIC>MOL_PROPERTY
Idih
SciTegic.value.DoubleValue
0.000

@<SCITEGIC>MOL_PROPERTY
Tether
SciTegic.value.DoubleValue
0.000

@<TRIPOS>MOLECULE
guest-s9_confgen4.mol2 : confsearch ligand conformer 212
          20          19           1
SMALL
USER_CHARGES
 
@<TRIPOS>ATOM
       1    C1      17.952715   20.875554   21.263585 C.3        1 MOL1        -0.2224
       2    H1      17.292771   21.192258   20.445543 H          1 MOL1         0.1052
       3    H2      17.319599   20.555720   22.101463 H          1 MOL1         0.1052
       4    H3      18.530804   21.750955   21.587092 H          1 MOL1         0.1052
       5    C2      18.883927   19.733469   20.802333 C.3        1 MOL1        -0.1209
       6    H4      19.478435   20.072115   19.941990 H          1 MOL1         0.1041
       7    H5      18.277119   18.886100   20.452939 H          1 MOL1         0.1041
       8    C3      19.825450   19.267032   21.934435 C.3        1 MOL1        -0.1274
       9    H6      20.434282   20.112929   22.279985 H          1 MOL1         0.1041
      10    H7      19.227630   18.929969   22.791030 H          1 MOL1         0.1041
      11    C4      20.752531   18.127355   21.463664 C.3        1 MOL1         0.0313
      12    H8      21.317419   18.467061   20.591781 H          1 MOL1         0.1015
      13    H9      20.155052   17.262931   21.163380 H          1 MOL1         0.1015
      14    N1      21.760835   17.661946   22.501679 N.4        1 MOL1        -0.4809
      15    H10     22.324571   18.458820   22.834798 H          1 MOL1         0.3726
      16    H11     22.441138   17.023692   22.059971 H          1 MOL1         0.3726
      17    C5      21.073061   16.958717   23.666990 C.3        1 MOL1        -0.0677
      18    H12     20.501313   16.109202   23.287339 H          1 MOL1         0.1026
      19    H13     21.831215   16.606974   24.370162 H          1 MOL1         0.1026
      20    H14     20.404523   17.659867   24.170311 H          1 MOL1         0.1026
@<TRIPOS>BOND
    1     1     2    1
    2     1     3    1
    3     1     4    1
    4     1     5    1
    5     5     6    1
    6     5     7    1
    7     5     8    1
    8     8     9    1
    9     8    10    1
   10     8    11    1
   11    11    12    1
   12    11    13    1
   13    11    14    1
   14    14    15    1
   15    14    16    1
   16    14    17    1
   17    17    18    1
   18    17    19    1
   19    17    20    1
@<TRIPOS>SUBSTRUCTURE
       1 MOL1            1 RESIDUE      1      MOL     
@<SCITEGIC>MOL_PROPERTY
VConf Rank
SciTegic.value.IntegerValue
212

@<SCITEGIC>MOL_PROPERTY
Conf_Id
SciTegic.value.IntegerValue
2

@<SCITEGIC>MOL_PROPERTY
Delta U+W
SciTegic.value.DoubleValue
0.069

@<SCITEGIC>MOL_PROPERTY
U+W
SciTegic.value.DoubleValue
15.407

@<SCITEGIC>MOL_PROPERTY
Grad RMS
SciTegic.value.DoubleValue
0.000000

@<SCITEGIC>MOL_PROPERTY
U
SciTegic.value.DoubleValue
69.657

@<SCITEGIC>MOL_PROPERTY
W
SciTegic.value.DoubleValue
-54.250

@<SCITEGIC>MOL_PROPERTY
W(PB)
SciTegic.value.DoubleValue
-56.176

@<SCITEGIC>MOL_PROPERTY
W(SA)
SciTegic.value.DoubleValue
1.926

@<SCITEGIC>MOL_PROPERTY
Valence
SciTegic.value.DoubleValue
1.137

@<SCITEGIC>MOL_PROPERTY
Coulomb
SciTegic.value.DoubleValue
68.383

@<SCITEGIC>MOL_PROPERTY
VdW
SciTegic.value.DoubleValue
0.138

@<SCITEGIC>MOL_PROPERTY
VdW6
SciTegic.value.DoubleValue
-3.703

@<SCITEGIC>MOL_PROPERTY
VdW12
SciTegic.value.DoubleValue
3.841

@<SCITEGIC>MOL_PROPERTY
Bond
SciTegic.value.DoubleValue
0.125

@<SCITEGIC>MOL_PROPERTY
Angle
SciTegic.value.DoubleValue
0.468

@<SCITEGIC>MOL_PROPERTY
Pdih
SciTegic.value.DoubleValue
0.543

@<SCITEGIC>MOL_PROPERTY
Idih
SciTegic.value.DoubleValue
0.000

@<SCITEGIC>MOL_PROPERTY
Tether
SciTegic.value.DoubleValue
0.000

@<TRIPOS>MOLECULE
guest-s9_confgen4.mol2 : confsearch ligand conformer 213
          20          19           1
SMALL
USER_CHARGES
 
@<TRIPOS>ATOM
       1    C1      20.363650   17.823223   24.499644 C.3        1 MOL1        -0.2224
       2    H1      19.475319   18.463990   24.433709 H          1 MOL1         0.1052
       3    H2      20.059172   16.791307   24.281600 H          1 MOL1         0.1052
       4    H3      20.717776   17.855083   25.538186 H          1 MOL1         0.1052
       5    C2      21.475774   18.291518   23.533120 C.3        1 MOL1        -0.1209
       6    H4      22.375195   17.682088   23.699404 H          1 MOL1         0.1041
       7    H5      21.757257   19.327618   23.768643 H          1 MOL1         0.1041
       8    C3      21.066836   18.187956   22.045094 C.3        1 MOL1        -0.1274
       9    H6      21.926250   18.461278   21.418547 H          1 MOL1         0.1041
      10    H7      20.819611   17.145768   21.803041 H          1 MOL1         0.1041
      11    C4      19.874319   19.098262   21.692262 C.3        1 MOL1         0.0313
      12    H8      20.121443   20.135718   21.930984 H          1 MOL1         0.1015
      13    H9      19.002040   18.808069   22.282756 H          1 MOL1         0.1015
      14    N1      19.483167   19.037573   20.228777 N.4        1 MOL1        -0.4809
      15    H10     19.250990   18.068635   19.961675 H          1 MOL1         0.3726
      16    H11     20.284272   19.300056   19.634272 H          1 MOL1         0.3726
      17    C5      18.300401   19.960837   19.968507 C.3        1 MOL1        -0.0677
      18    H12     18.579796   20.984875   20.225582 H          1 MOL1         0.1026
      19    H13     18.029413   19.907521   18.911754 H          1 MOL1         0.1026
      20    H14     17.454298   19.643524   20.581876 H          1 MOL1         0.1026
@<TRIPOS>BOND
    1     1     2    1
    2     1     3    1
    3     1     4    1
    4     1     5    1
    5     5     6    1
    6     5     7    1
    7     5     8    1
    8     8     9    1
    9     8    10    1
   10     8    11    1
   11    11    12    1
   12    11    13    1
   13    11    14    1
   14    14    15    1
   15    14    16    1
   16    14    17    1
   17    17    18    1
   18    17    19    1
   19    17    20    1
@<TRIPOS>SUBSTRUCTURE
       1 MOL1            1 RESIDUE      1      MOL     
@<SCITEGIC>MOL_PROPERTY
VConf Rank
SciTegic.value.IntegerValue
213

@<SCITEGIC>MOL_PROPERTY
Conf_Id
SciTegic.value.IntegerValue
34

@<SCITEGIC>MOL_PROPERTY
Delta U+W
SciTegic.value.DoubleValue
0.276

@<SCITEGIC>MOL_PROPERTY
U+W
SciTegic.value.DoubleValue
15.615

@<SCITEGIC>MOL_PROPERTY
Grad RMS
SciTegic.value.DoubleValue
0.000000

@<SCITEGIC>MOL_PROPERTY
U
SciTegic.value.DoubleValue
69.798

@<SCITEGIC>MOL_PROPERTY
W
SciTegic.value.DoubleValue
-54.184

@<SCITEGIC>MOL_PROPERTY
W(PB)
SciTegic.value.DoubleValue
-56.116

@<SCITEGIC>MOL_PROPERTY
W(SA)
SciTegic.value.DoubleValue
1.933

@<SCITEGIC>MOL_PROPERTY
Valence
SciTegic.value.DoubleValue
1.134

@<SCITEGIC>MOL_PROPERTY
Coulomb
SciTegic.value.DoubleValue
68.735

@<SCITEGIC>MOL_PROPERTY
VdW
SciTegic.value.DoubleValue
-0.070

@<SCITEGIC>MOL_PROPERTY
VdW6
SciTegic.value.DoubleValue
-3.565

@<SCITEGIC>MOL_PROPERTY
VdW12
SciTegic.value.DoubleValue
3.494

@<SCITEGIC>MOL_PROPERTY
Bond
SciTegic.value.DoubleValue
0.108

@<SCITEGIC>MOL_PROPERTY
Angle
SciTegic.value.DoubleValue
0.456

@<SCITEGIC>MOL_PROPERTY
Pdih
SciTegic.value.DoubleValue
0.569

@<SCITEGIC>MOL_PROPERTY
Idih
SciTegic.value.DoubleValue
0.000

@<SCITEGIC>MOL_PROPERTY
Tether
SciTegic.value.DoubleValue
0.000

@<TRIPOS>MOLECULE
guest-s9_confgen4.mol2 : confsearch ligand conformer 214
          20          19           1
SMALL
USER_CHARGES
 
@<TRIPOS>ATOM
       1    C1      17.050522   18.452949   22.478566 C.3        1 MOL1        -0.2224
       2    H1      16.519785   19.314224   22.052310 H          1 MOL1         0.1052
       3    H2      16.474721   17.550277   22.236363 H          1 MOL1         0.1052
       4    H3      17.058808   18.563360   23.570775 H          1 MOL1         0.1052
       5    C2      18.485996   18.351028   21.919056 C.3        1 MOL1        -0.1209
       6    H4      18.443048   18.209605   20.829799 H          1 MOL1         0.1041
       7    H5      18.970690   17.457791   22.335824 H          1 MOL1         0.1041
       8    C3      19.319369   19.612204   22.247857 C.3        1 MOL1        -0.1274
       9    H6      18.802729   20.499811   21.859113 H          1 MOL1         0.1041
      10    H7      19.390269   19.744062   23.335718 H          1 MOL1         0.1041
      11    C4      20.735894   19.568365   21.640342 C.3        1 MOL1         0.0313
      12    H8      21.239910   20.519436   21.830214 H          1 MOL1         0.1015
      13    H9      20.667458   19.430026   20.558393 H          1 MOL1         0.1015
      14    N1      21.615144   18.465510   22.199376 N.4        1 MOL1        -0.4809
      15    H10     21.176923   17.546280   22.039906 H          1 MOL1         0.3726
      16    H11     21.694019   18.558593   23.223661 H          1 MOL1         0.3726
      17    C5      22.991734   18.519250   21.550568 C.3        1 MOL1        -0.0677
      18    H12     22.886614   18.385656   20.471730 H          1 MOL1         0.1026
      19    H13     23.450594   19.487957   21.759951 H          1 MOL1         0.1026
      20    H14     23.613620   17.720913   21.961550 H          1 MOL1         0.1026
@<TRIPOS>BOND
    1     1     2    1
    2     1     3    1
    3     1     4    1
    4     1     5    1
    5     5     6    1
    6     5     7    1
    7     5     8    1
    8     8     9    1
    9     8    10    1
   10     8    11    1
   11    11    12    1
   12    11    13    1
   13    11    14    1
   14    14    15    1
   15    14    16    1
   16    14    17    1
   17    17    18    1
   18    17    19    1
   19    17    20    1
@<TRIPOS>SUBSTRUCTURE
       1 MOL1            1 RESIDUE      1      MOL     
@<SCITEGIC>MOL_PROPERTY
VConf Rank
SciTegic.value.IntegerValue
214

@<SCITEGIC>MOL_PROPERTY
Conf_Id
SciTegic.value.IntegerValue
50

@<SCITEGIC>MOL_PROPERTY
Delta U+W
SciTegic.value.DoubleValue
0.319

@<SCITEGIC>MOL_PROPERTY
U+W
SciTegic.value.DoubleValue
15.657

@<SCITEGIC>MOL_PROPERTY
Grad RMS
SciTegic.value.DoubleValue
0.000000

@<SCITEGIC>MOL_PROPERTY
U
SciTegic.value.DoubleValue
69.962

@<SCITEGIC>MOL_PROPERTY
W
SciTegic.value.DoubleValue
-54.305

@<SCITEGIC>MOL_PROPERTY
W(PB)
SciTegic.value.DoubleValue
-56.223

@<SCITEGIC>MOL_PROPERTY
W(SA)
SciTegic.value.DoubleValue
1.918

@<SCITEGIC>MOL_PROPERTY
Valence
SciTegic.value.DoubleValue
0.982

@<SCITEGIC>MOL_PROPERTY
Coulomb
SciTegic.value.DoubleValue
69.058

@<SCITEGIC>MOL_PROPERTY
VdW
SciTegic.value.DoubleValue
-0.078

@<SCITEGIC>MOL_PROPERTY
VdW6
SciTegic.value.DoubleValue
-3.548

@<SCITEGIC>MOL_PROPERTY
VdW12
SciTegic.value.DoubleValue
3.471

@<SCITEGIC>MOL_PROPERTY
Bond
SciTegic.value.DoubleValue
0.105

@<SCITEGIC>MOL_PROPERTY
Angle
SciTegic.value.DoubleValue
0.408

@<SCITEGIC>MOL_PROPERTY
Pdih
SciTegic.value.DoubleValue
0.469

@<SCITEGIC>MOL_PROPERTY
Idih
SciTegic.value.DoubleValue
0.000

@<SCITEGIC>MOL_PROPERTY
Tether
SciTegic.value.DoubleValue
0.000

@<TRIPOS>MOLECULE
guest-s9_confgen4.mol2 : confsearch ligand conformer 215
          20          19           1
SMALL
USER_CHARGES
 
@<TRIPOS>ATOM
       1    C1      20.900816   16.038542   22.835050 C.3        1 MOL1        -0.2224
       2    H1      20.890117   15.657100   23.864329 H          1 MOL1         0.1052
       3    H2      20.378465   15.309914   22.201472 H          1 MOL1         0.1052
       4    H3      21.946980   16.089024   22.506154 H          1 MOL1         0.1052
       5    C2      20.226801   17.425666   22.760113 C.3        1 MOL1        -0.1209
       6    H4      20.750478   18.115720   23.435451 H          1 MOL1         0.1041
       7    H5      19.192797   17.348256   23.125032 H          1 MOL1         0.1041
       8    C3      20.229458   17.986199   21.318245 C.3        1 MOL1        -0.1274
       9    H6      21.261031   18.092864   20.957224 H          1 MOL1         0.1041
      10    H7      19.737499   17.267903   20.648984 H          1 MOL1         0.1041
      11    C4      19.499627   19.339408   21.201121 C.3        1 MOL1         0.0313
      12    H8      18.474753   19.236852   21.566568 H          1 MOL1         0.1015
      13    H9      19.457618   19.637356   20.150369 H          1 MOL1         0.1015
      14    N1      20.160920   20.467788   21.970107 N.4        1 MOL1        -0.4809
      15    H10     21.136731   20.586844   21.657587 H          1 MOL1         0.3726
      16    H11     20.220129   20.228904   22.971047 H          1 MOL1         0.3726
      17    C5      19.376594   21.758505   21.775887 C.3        1 MOL1        -0.0677
      18    H12     19.862876   22.561459   22.334264 H          1 MOL1         0.1026
      19    H13     19.354974   22.009947   20.713298 H          1 MOL1         0.1026
      20    H14     18.357621   21.619242   22.143434 H          1 MOL1         0.1026
@<TRIPOS>BOND
    1     1     2    1
    2     1     3    1
    3     1     4    1
    4     1     5    1
    5     5     6    1
    6     5     7    1
    7     5     8    1
    8     8     9    1
    9     8    10    1
   10     8    11    1
   11    11    12    1
   12    11    13    1
   13    11    14    1
   14    14    15    1
   15    14    16    1
   16    14    17    1
   17    17    18    1
   18    17    19    1
   19    17    20    1
@<TRIPOS>SUBSTRUCTURE
       1 MOL1            1 RESIDUE      1      MOL     
@<SCITEGIC>MOL_PROPERTY
VConf Rank
SciTegic.value.IntegerValue
215

@<SCITEGIC>MOL_PROPERTY
Conf_Id
SciTegic.value.IntegerValue
35

@<SCITEGIC>MOL_PROPERTY
Delta U+W
SciTegic.value.DoubleValue
0.360

@<SCITEGIC>MOL_PROPERTY
U+W
SciTegic.value.DoubleValue
15.698

@<SCITEGIC>MOL_PROPERTY
Grad RMS
SciTegic.value.DoubleValue
0.000000

@<SCITEGIC>MOL_PROPERTY
U
SciTegic.value.DoubleValue
69.962

@<SCITEGIC>MOL_PROPERTY
W
SciTegic.value.DoubleValue
-54.264

@<SCITEGIC>MOL_PROPERTY
W(PB)
SciTegic.value.DoubleValue
-56.166

@<SCITEGIC>MOL_PROPERTY
W(SA)
SciTegic.value.DoubleValue
1.902

@<SCITEGIC>MOL_PROPERTY
Valence
SciTegic.value.DoubleValue
0.982

@<SCITEGIC>MOL_PROPERTY
Coulomb
SciTegic.value.DoubleValue
69.058

@<SCITEGIC>MOL_PROPERTY
VdW
SciTegic.value.DoubleValue
-0.078

@<SCITEGIC>MOL_PROPERTY
VdW6
SciTegic.value.DoubleValue
-3.548

@<SCITEGIC>MOL_PROPERTY
VdW12
SciTegic.value.DoubleValue
3.471

@<SCITEGIC>MOL_PROPERTY
Bond
SciTegic.value.DoubleValue
0.105

@<SCITEGIC>MOL_PROPERTY
Angle
SciTegic.value.DoubleValue
0.408

@<SCITEGIC>MOL_PROPERTY
Pdih
SciTegic.value.DoubleValue
0.469

@<SCITEGIC>MOL_PROPERTY
Idih
SciTegic.value.DoubleValue
0.000

@<SCITEGIC>MOL_PROPERTY
Tether
SciTegic.value.DoubleValue
0.000

@<TRIPOS>MOLECULE
guest-s9_confgen4.mol2 : confsearch ligand conformer 216
          20          19           1
SMALL
USER_CHARGES
 
@<TRIPOS>ATOM
       1    C1      21.706037   19.988622   23.527881 C.3        1 MOL1        -0.2224
       2    H1      22.328666   19.256517   22.998328 H          1 MOL1         0.1052
       3    H2      22.372616   20.767761   23.919785 H          1 MOL1         0.1052
       4    H3      21.239211   19.485604   24.384701 H          1 MOL1         0.1052
       5    C2      20.638394   20.606745   22.596071 C.3        1 MOL1        -0.1209
       6    H4      21.130939   21.098724   21.745469 H          1 MOL1         0.1041
       7    H5      20.101096   21.396128   23.140287 H          1 MOL1         0.1041
       8    C3      19.616015   19.568666   22.077410 C.3        1 MOL1        -0.1274
       9    H6      19.100904   19.107800   22.930038 H          1 MOL1         0.1041
      10    H7      18.847831   20.086848   21.488431 H          1 MOL1         0.1041
      11    C4      20.271138   18.476972   21.204208 C.3        1 MOL1         0.0313
      12    H8      20.991061   17.908305   21.797575 H          1 MOL1         0.1015
      13    H9      20.811767   18.956193   20.384064 H          1 MOL1         0.1015
      14    N1      19.293762   17.490166   20.586674 N.4        1 MOL1        -0.4809
      15    H10     19.786240   16.903001   19.895364 H          1 MOL1         0.3726
      16    H11     18.575117   17.991648   20.042814 H          1 MOL1         0.3726
      17    C5      18.651273   16.607417   21.651254 C.3        1 MOL1        -0.0677
      18    H12     18.077873   17.229919   22.340886 H          1 MOL1         0.1026
      19    H13     17.985976   15.889423   21.166665 H          1 MOL1         0.1026
      20    H14     19.433344   16.074417   22.196205 H          1 MOL1         0.1026
@<TRIPOS>BOND
    1     1     2    1
    2     1     3    1
    3     1     4    1
    4     1     5    1
    5     5     6    1
    6     5     7    1
    7     5     8    1
    8     8     9    1
    9     8    10    1
   10     8    11    1
   11    11    12    1
   12    11    13    1
   13    11    14    1
   14    14    15    1
   15    14    16    1
   16    14    17    1
   17    17    18    1
   18    17    19    1
   19    17    20    1
@<TRIPOS>SUBSTRUCTURE
       1 MOL1            1 RESIDUE      1      MOL     
@<SCITEGIC>MOL_PROPERTY
VConf Rank
SciTegic.value.IntegerValue
216

@<SCITEGIC>MOL_PROPERTY
Conf_Id
SciTegic.value.IntegerValue
33

@<SCITEGIC>MOL_PROPERTY
Delta U+W
SciTegic.value.DoubleValue
0.372

@<SCITEGIC>MOL_PROPERTY
U+W
SciTegic.value.DoubleValue
15.711

@<SCITEGIC>MOL_PROPERTY
Grad RMS
SciTegic.value.DoubleValue
0.000000

@<SCITEGIC>MOL_PROPERTY
U
SciTegic.value.DoubleValue
70.163

@<SCITEGIC>MOL_PROPERTY
W
SciTegic.value.DoubleValue
-54.452

@<SCITEGIC>MOL_PROPERTY
W(PB)
SciTegic.value.DoubleValue
-56.363

@<SCITEGIC>MOL_PROPERTY
W(SA)
SciTegic.value.DoubleValue
1.911

@<SCITEGIC>MOL_PROPERTY
Valence
SciTegic.value.DoubleValue
1.420

@<SCITEGIC>MOL_PROPERTY
Coulomb
SciTegic.value.DoubleValue
68.566

@<SCITEGIC>MOL_PROPERTY
VdW
SciTegic.value.DoubleValue
0.177

@<SCITEGIC>MOL_PROPERTY
VdW6
SciTegic.value.DoubleValue
-4.267

@<SCITEGIC>MOL_PROPERTY
VdW12
SciTegic.value.DoubleValue
4.445

@<SCITEGIC>MOL_PROPERTY
Bond
SciTegic.value.DoubleValue
0.146

@<SCITEGIC>MOL_PROPERTY
Angle
SciTegic.value.DoubleValue
0.581

@<SCITEGIC>MOL_PROPERTY
Pdih
SciTegic.value.DoubleValue
0.693

@<SCITEGIC>MOL_PROPERTY
Idih
SciTegic.value.DoubleValue
0.000

@<SCITEGIC>MOL_PROPERTY
Tether
SciTegic.value.DoubleValue
0.000

@<TRIPOS>MOLECULE
guest-s9_confgen4.mol2 : confsearch ligand conformer 217
          20          19           1
SMALL
USER_CHARGES
 
@<TRIPOS>ATOM
       1    C1      20.633948   17.387316   19.931341 C.3        1 MOL1        -0.2224
       2    H1      20.980777   17.093183   18.932257 H          1 MOL1         0.1052
       3    H2      21.414348   17.104128   20.648871 H          1 MOL1         0.1052
       4    H3      19.732097   16.803775   20.157704 H          1 MOL1         0.1052
       5    C2      20.341471   18.904686   19.978875 C.3        1 MOL1        -0.1209
       6    H4      19.624254   19.156722   19.185109 H          1 MOL1         0.1041
       7    H5      21.260018   19.464980   19.754137 H          1 MOL1         0.1041
       8    C3      19.768561   19.366632   21.339118 C.3        1 MOL1        -0.1274
       9    H6      19.513828   20.432782   21.276267 H          1 MOL1         0.1041
      10    H7      18.831998   18.830857   21.540376 H          1 MOL1         0.1041
      11    C4      20.759663   19.151825   22.503178 C.3        1 MOL1         0.0313
      12    H8      21.698677   19.658961   22.267308 H          1 MOL1         0.1015
      13    H9      20.970617   18.086210   22.620302 H          1 MOL1         0.1015
      14    N1      20.283204   19.682589   23.845445 N.4        1 MOL1        -0.4809
      15    H10     20.041211   20.682252   23.769085 H          1 MOL1         0.3726
      16    H11     21.059321   19.649890   24.524988 H          1 MOL1         0.3726
      17    C5      19.100572   18.876344   24.371485 C.3        1 MOL1        -0.0677
      18    H12     18.811669   19.262973   25.351289 H          1 MOL1         0.1026
      19    H13     18.261443   18.969642   23.679353 H          1 MOL1         0.1026
      20    H14     19.391902   17.827644   24.461227 H          1 MOL1         0.1026
@<TRIPOS>BOND
    1     1     2    1
    2     1     3    1
    3     1     4    1
    4     1     5    1
    5     5     6    1
    6     5     7    1
    7     5     8    1
    8     8     9    1
    9     8    10    1
   10     8    11    1
   11    11    12    1
   12    11    13    1
   13    11    14    1
   14    14    15    1
   15    14    16    1
   16    14    17    1
   17    17    18    1
   18    17    19    1
   19    17    20    1
@<TRIPOS>SUBSTRUCTURE
       1 MOL1            1 RESIDUE      1      MOL     
@<SCITEGIC>MOL_PROPERTY
VConf Rank
SciTegic.value.IntegerValue
217

@<SCITEGIC>MOL_PROPERTY
Conf_Id
SciTegic.value.IntegerValue
53

@<SCITEGIC>MOL_PROPERTY
Delta U+W
SciTegic.value.DoubleValue
0.379

@<SCITEGIC>MOL_PROPERTY
U+W
SciTegic.value.DoubleValue
15.717

@<SCITEGIC>MOL_PROPERTY
Grad RMS
SciTegic.value.DoubleValue
0.000000

@<SCITEGIC>MOL_PROPERTY
U
SciTegic.value.DoubleValue
70.163

@<SCITEGIC>MOL_PROPERTY
W
SciTegic.value.DoubleValue
-54.446

@<SCITEGIC>MOL_PROPERTY
W(PB)
SciTegic.value.DoubleValue
-56.322

@<SCITEGIC>MOL_PROPERTY
W(SA)
SciTegic.value.DoubleValue
1.876

@<SCITEGIC>MOL_PROPERTY
Valence
SciTegic.value.DoubleValue
1.420

@<SCITEGIC>MOL_PROPERTY
Coulomb
SciTegic.value.DoubleValue
68.566

@<SCITEGIC>MOL_PROPERTY
VdW
SciTegic.value.DoubleValue
0.177

@<SCITEGIC>MOL_PROPERTY
VdW6
SciTegic.value.DoubleValue
-4.267

@<SCITEGIC>MOL_PROPERTY
VdW12
SciTegic.value.DoubleValue
4.445

@<SCITEGIC>MOL_PROPERTY
Bond
SciTegic.value.DoubleValue
0.146

@<SCITEGIC>MOL_PROPERTY
Angle
SciTegic.value.DoubleValue
0.581

@<SCITEGIC>MOL_PROPERTY
Pdih
SciTegic.value.DoubleValue
0.693

@<SCITEGIC>MOL_PROPERTY
Idih
SciTegic.value.DoubleValue
0.000

@<SCITEGIC>MOL_PROPERTY
Tether
SciTegic.value.DoubleValue
0.000

@<TRIPOS>MOLECULE
guest-s9_confgen4.mol2 : confsearch ligand conformer 218
          20          19           1
SMALL
USER_CHARGES
 
@<TRIPOS>ATOM
       1    C1      22.446206   20.149775   21.153671 C.3        1 MOL1        -0.2224
       2    H1      22.977411   20.039579   20.199375 H          1 MOL1         0.1052
       3    H2      22.426721   21.218039   21.405820 H          1 MOL1         0.1052
       4    H3      23.027834   19.627464   21.924426 H          1 MOL1         0.1052
       5    C2      21.016518   19.575688   21.051797 C.3        1 MOL1        -0.1209
       6    H4      21.074823   18.518029   20.760909 H          1 MOL1         0.1041
       7    H5      20.470823   20.096103   20.252067 H          1 MOL1         0.1041
       8    C3      20.246363   19.716964   22.385823 C.3        1 MOL1        -0.1274
       9    H6      20.772908   19.176052   23.182632 H          1 MOL1         0.1041
      10    H7      20.233555   20.772724   22.687243 H          1 MOL1         0.1041
      11    C4      18.786044   19.221719   22.291684 C.3        1 MOL1         0.0313
      12    H8      18.260452   19.809149   21.534513 H          1 MOL1         0.1015
      13    H9      18.283965   19.383848   23.248828 H          1 MOL1         0.1015
      14    N1      18.617301   17.754436   21.926669 N.4        1 MOL1        -0.4809
      15    H10     19.080659   17.555827   21.027845 H          1 MOL1         0.3726
      16    H11     17.618757   17.552963   21.760710 H          1 MOL1         0.3726
      17    C5      19.153998   16.844189   23.025915 C.3        1 MOL1        -0.0677
      18    H12     18.632465   17.062887   23.960170 H          1 MOL1         0.1026
      19    H13     18.982612   15.803033   22.743862 H          1 MOL1         0.1026
      20    H14     20.224636   17.018636   23.149670 H          1 MOL1         0.1026
@<TRIPOS>BOND
    1     1     2    1
    2     1     3    1
    3     1     4    1
    4     1     5    1
    5     5     6    1
    6     5     7    1
    7     5     8    1
    8     8     9    1
    9     8    10    1
   10     8    11    1
   11    11    12    1
   12    11    13    1
   13    11    14    1
   14    14    15    1
   15    14    16    1
   16    14    17    1
   17    17    18    1
   18    17    19    1
   19    17    20    1
@<TRIPOS>SUBSTRUCTURE
       1 MOL1            1 RESIDUE      1      MOL     
@<SCITEGIC>MOL_PROPERTY
VConf Rank
SciTegic.value.IntegerValue
218

@<SCITEGIC>MOL_PROPERTY
Conf_Id
SciTegic.value.IntegerValue
49

@<SCITEGIC>MOL_PROPERTY
Delta U+W
SciTegic.value.DoubleValue
0.268

@<SCITEGIC>MOL_PROPERTY
U+W
SciTegic.value.DoubleValue
15.607

@<SCITEGIC>MOL_PROPERTY
Grad RMS
SciTegic.value.DoubleValue
0.000000

@<SCITEGIC>MOL_PROPERTY
U
SciTegic.value.DoubleValue
70.298

@<SCITEGIC>MOL_PROPERTY
W
SciTegic.value.DoubleValue
-54.692

@<SCITEGIC>MOL_PROPERTY
W(PB)
SciTegic.value.DoubleValue
-56.576

@<SCITEGIC>MOL_PROPERTY
W(SA)
SciTegic.value.DoubleValue
1.885

@<SCITEGIC>MOL_PROPERTY
Valence
SciTegic.value.DoubleValue
1.245

@<SCITEGIC>MOL_PROPERTY
Coulomb
SciTegic.value.DoubleValue
68.933

@<SCITEGIC>MOL_PROPERTY
VdW
SciTegic.value.DoubleValue
0.120

@<SCITEGIC>MOL_PROPERTY
VdW6
SciTegic.value.DoubleValue
-4.430

@<SCITEGIC>MOL_PROPERTY
VdW12
SciTegic.value.DoubleValue
4.550

@<SCITEGIC>MOL_PROPERTY
Bond
SciTegic.value.DoubleValue
0.148

@<SCITEGIC>MOL_PROPERTY
Angle
SciTegic.value.DoubleValue
0.587

@<SCITEGIC>MOL_PROPERTY
Pdih
SciTegic.value.DoubleValue
0.509

@<SCITEGIC>MOL_PROPERTY
Idih
SciTegic.value.DoubleValue
0.000

@<SCITEGIC>MOL_PROPERTY
Tether
SciTegic.value.DoubleValue
0.000

@<TRIPOS>MOLECULE
guest-s9_confgen4.mol2 : confsearch ligand conformer 219
          20          19           1
SMALL
USER_CHARGES
 
@<TRIPOS>ATOM
       1    C1      20.673728   16.407874   20.619816 C.3        1 MOL1        -0.2224
       2    H1      20.265211   15.646909   21.297471 H          1 MOL1         0.1052
       3    H2      20.123293   16.351803   19.671651 H          1 MOL1         0.1052
       4    H3      21.720815   16.149057   20.415801 H          1 MOL1         0.1052
       5    C2      20.571369   17.817889   21.240870 C.3        1 MOL1        -0.1209
       6    H4      21.012635   18.552900   20.553096 H          1 MOL1         0.1041
       7    H5      21.166019   17.842371   22.163552 H          1 MOL1         0.1041
       8    C3      19.105577   18.203144   21.548529 C.3        1 MOL1        -0.1274
       9    H6      18.500395   18.061609   20.643279 H          1 MOL1         0.1041
      10    H7      18.693119   17.521434   22.303980 H          1 MOL1         0.1041
      11    C4      18.921453   19.663552   22.019844 C.3        1 MOL1         0.0313
      12    H8      17.850734   19.844698   22.144309 H          1 MOL1         0.1015
      13    H9      19.288144   20.357465   21.259370 H          1 MOL1         0.1015
      14    N1      19.581222   20.015364   23.344305 N.4        1 MOL1        -0.4809
      15    H10     19.582077   19.199015   23.973919 H          1 MOL1         0.3726
      16    H11     19.010025   20.723467   23.831472 H          1 MOL1         0.3726
      17    C5      20.989720   20.563096   23.137501 C.3        1 MOL1        -0.0677
      18    H12     21.417321   20.823854   24.108130 H          1 MOL1         0.1026
      19    H13     21.612272   19.809105   22.654555 H          1 MOL1         0.1026
      20    H14     20.938107   21.454620   22.508843 H          1 MOL1         0.1026
@<TRIPOS>BOND
    1     1     2    1
    2     1     3    1
    3     1     4    1
    4     1     5    1
    5     5     6    1
    6     5     7    1
    7     5     8    1
    8     8     9    1
    9     8    10    1
   10     8    11    1
   11    11    12    1
   12    11    13    1
   13    11    14    1
   14    14    15    1
   15    14    16    1
   16    14    17    1
   17    17    18    1
   18    17    19    1
   19    17    20    1
@<TRIPOS>SUBSTRUCTURE
       1 MOL1            1 RESIDUE      1      MOL     
@<SCITEGIC>MOL_PROPERTY
VConf Rank
SciTegic.value.IntegerValue
219

@<SCITEGIC>MOL_PROPERTY
Conf_Id
SciTegic.value.IntegerValue
65

@<SCITEGIC>MOL_PROPERTY
Delta U+W
SciTegic.value.DoubleValue
1.775

@<SCITEGIC>MOL_PROPERTY
U+W
SciTegic.value.DoubleValue
17.114

@<SCITEGIC>MOL_PROPERTY
Grad RMS
SciTegic.value.DoubleValue
0.000000

@<SCITEGIC>MOL_PROPERTY
U
SciTegic.value.DoubleValue
71.726

@<SCITEGIC>MOL_PROPERTY
W
SciTegic.value.DoubleValue
-54.613

@<SCITEGIC>MOL_PROPERTY
W(PB)
SciTegic.value.DoubleValue
-56.495

@<SCITEGIC>MOL_PROPERTY
W(SA)
SciTegic.value.DoubleValue
1.883

@<SCITEGIC>MOL_PROPERTY
Valence
SciTegic.value.DoubleValue
2.885

@<SCITEGIC>MOL_PROPERTY
Coulomb
SciTegic.value.DoubleValue
68.822

@<SCITEGIC>MOL_PROPERTY
VdW
SciTegic.value.DoubleValue
0.019

@<SCITEGIC>MOL_PROPERTY
VdW6
SciTegic.value.DoubleValue
-4.600

@<SCITEGIC>MOL_PROPERTY
VdW12
SciTegic.value.DoubleValue
4.619

@<SCITEGIC>MOL_PROPERTY
Bond
SciTegic.value.DoubleValue
0.152

@<SCITEGIC>MOL_PROPERTY
Angle
SciTegic.value.DoubleValue
0.862

@<SCITEGIC>MOL_PROPERTY
Pdih
SciTegic.value.DoubleValue
1.871

@<SCITEGIC>MOL_PROPERTY
Idih
SciTegic.value.DoubleValue
0.000

@<SCITEGIC>MOL_PROPERTY
Tether
SciTegic.value.DoubleValue
0.000

@<TRIPOS>MOLECULE
guest-s9_confgen4.mol2 : confsearch ligand conformer 220
          20          19           1
SMALL
USER_CHARGES
 
@<TRIPOS>ATOM
       1    C1      19.594016   16.653748   21.019066 C.3        1 MOL1        -0.2224
       2    H1      20.104945   17.398691   20.396157 H          1 MOL1         0.1052
       3    H2      20.049376   15.677586   20.807561 H          1 MOL1         0.1052
       4    H3      18.543122   16.607438   20.705141 H          1 MOL1         0.1052
       5    C2      19.710431   16.991907   22.523150 C.3        1 MOL1        -0.1209
       6    H4      20.769391   17.031564   22.812356 H          1 MOL1         0.1041
       7    H5      19.267645   16.173669   23.108328 H          1 MOL1         0.1041
       8    C3      19.003206   18.316509   22.904279 C.3        1 MOL1        -0.1274
       9    H6      17.927683   18.221852   22.704136 H          1 MOL1         0.1041
      10    H7      19.099069   18.483261   23.985366 H          1 MOL1         0.1041
      11    C4      19.537366   19.552681   22.150941 C.3        1 MOL1         0.0313
      12    H8      18.967378   20.435046   22.452747 H          1 MOL1         0.1015
      13    H9      19.403152   19.414570   21.075451 H          1 MOL1         0.1015
      14    N1      21.004038   19.843403   22.405804 N.4        1 MOL1        -0.4809
      15    H10     21.576285   19.028498   22.139432 H          1 MOL1         0.3726
      16    H11     21.169578   19.978714   23.414856 H          1 MOL1         0.3726
      17    C5      21.433671   21.076627   21.622802 C.3        1 MOL1        -0.0677
      18    H12     20.836096   21.932619   21.943654 H          1 MOL1         0.1026
      19    H13     22.490822   21.273190   21.814541 H          1 MOL1         0.1026
      20    H14     21.279955   20.897545   20.556471 H          1 MOL1         0.1026
@<TRIPOS>BOND
    1     1     2    1
    2     1     3    1
    3     1     4    1
    4     1     5    1
    5     5     6    1
    6     5     7    1
    7     5     8    1
    8     8     9    1
    9     8    10    1
   10     8    11    1
   11    11    12    1
   12    11    13    1
   13    11    14    1
   14    14    15    1
   15    14    16    1
   16    14    17    1
   17    17    18    1
   18    17    19    1
   19    17    20    1
@<TRIPOS>SUBSTRUCTURE
       1 MOL1            1 RESIDUE      1      MOL     
@<SCITEGIC>MOL_PROPERTY
VConf Rank
SciTegic.value.IntegerValue
220

@<SCITEGIC>MOL_PROPERTY
Conf_Id
SciTegic.value.IntegerValue
23

@<SCITEGIC>MOL_PROPERTY
Delta U+W
SciTegic.value.DoubleValue
0.896

@<SCITEGIC>MOL_PROPERTY
U+W
SciTegic.value.DoubleValue
16.234

@<SCITEGIC>MOL_PROPERTY
Grad RMS
SciTegic.value.DoubleValue
0.000000

@<SCITEGIC>MOL_PROPERTY
U
SciTegic.value.DoubleValue
70.374

@<SCITEGIC>MOL_PROPERTY
W
SciTegic.value.DoubleValue
-54.140

@<SCITEGIC>MOL_PROPERTY
W(PB)
SciTegic.value.DoubleValue
-56.046

@<SCITEGIC>MOL_PROPERTY
W(SA)
SciTegic.value.DoubleValue
1.907

@<SCITEGIC>MOL_PROPERTY
Valence
SciTegic.value.DoubleValue
1.257

@<SCITEGIC>MOL_PROPERTY
Coulomb
SciTegic.value.DoubleValue
69.240

@<SCITEGIC>MOL_PROPERTY
VdW
SciTegic.value.DoubleValue
-0.123

@<SCITEGIC>MOL_PROPERTY
VdW6
SciTegic.value.DoubleValue
-4.336

@<SCITEGIC>MOL_PROPERTY
VdW12
SciTegic.value.DoubleValue
4.213

@<SCITEGIC>MOL_PROPERTY
Bond
SciTegic.value.DoubleValue
0.128

@<SCITEGIC>MOL_PROPERTY
Angle
SciTegic.value.DoubleValue
0.603

@<SCITEGIC>MOL_PROPERTY
Pdih
SciTegic.value.DoubleValue
0.526

@<SCITEGIC>MOL_PROPERTY
Idih
SciTegic.value.DoubleValue
0.000

@<SCITEGIC>MOL_PROPERTY
Tether
SciTegic.value.DoubleValue
0.000

@<TRIPOS>MOLECULE
guest-s9_confgen4.mol2 : confsearch ligand conformer 221
          20          19           1
SMALL
USER_CHARGES
 
@<TRIPOS>ATOM
       1    C1      21.195327   20.897171   22.073089 C.3        1 MOL1        -0.2224
       2    H1      22.286929   20.782629   22.054211 H          1 MOL1         0.1052
       3    H2      20.971487   21.971529   22.047992 H          1 MOL1         0.1052
       4    H3      20.826366   20.504956   23.029143 H          1 MOL1         0.1052
       5    C2      20.540172   20.178582   20.871186 C.3        1 MOL1        -0.1209
       6    H4      20.867875   20.665780   19.942072 H          1 MOL1         0.1041
       7    H5      19.450165   20.308253   20.912171 H          1 MOL1         0.1041
       8    C3      20.895988   18.672658   20.796460 C.3        1 MOL1        -0.1274
       9    H6      20.423897   18.229868   19.909437 H          1 MOL1         0.1041
      10    H7      21.979126   18.564573   20.651906 H          1 MOL1         0.1041
      11    C4      20.483189   17.867282   22.046234 C.3        1 MOL1         0.0313
      12    H8      20.985393   18.272828   22.927760 H          1 MOL1         0.1015
      13    H9      20.796518   16.827063   21.926612 H          1 MOL1         0.1015
      14    N1      18.990534   17.869807   22.315644 N.4        1 MOL1        -0.4809
      15    H10     18.481620   17.493235   21.501336 H          1 MOL1         0.3726
      16    H11     18.654246   18.837755   22.427344 H          1 MOL1         0.3726
      17    C5      18.685592   17.051172   23.562789 C.3        1 MOL1        -0.0677
      18    H12     19.208371   17.487660   24.416570 H          1 MOL1         0.1026
      19    H13     17.608766   17.062694   23.745225 H          1 MOL1         0.1026
      20    H14     19.021910   16.023466   23.409576 H          1 MOL1         0.1026
@<TRIPOS>BOND
    1     1     2    1
    2     1     3    1
    3     1     4    1
    4     1     5    1
    5     5     6    1
    6     5     7    1
    7     5     8    1
    8     8     9    1
    9     8    10    1
   10     8    11    1
   11    11    12    1
   12    11    13    1
   13    11    14    1
   14    14    15    1
   15    14    16    1
   16    14    17    1
   17    17    18    1
   18    17    19    1
   19    17    20    1
@<TRIPOS>SUBSTRUCTURE
       1 MOL1            1 RESIDUE      1      MOL     
@<SCITEGIC>MOL_PROPERTY
VConf Rank
SciTegic.value.IntegerValue
221

@<SCITEGIC>MOL_PROPERTY
Conf_Id
SciTegic.value.IntegerValue
24

@<SCITEGIC>MOL_PROPERTY
Delta U+W
SciTegic.value.DoubleValue
0.792

@<SCITEGIC>MOL_PROPERTY
U+W
SciTegic.value.DoubleValue
16.130

@<SCITEGIC>MOL_PROPERTY
Grad RMS
SciTegic.value.DoubleValue
0.000000

@<SCITEGIC>MOL_PROPERTY
U
SciTegic.value.DoubleValue
70.374

@<SCITEGIC>MOL_PROPERTY
W
SciTegic.value.DoubleValue
-54.243

@<SCITEGIC>MOL_PROPERTY
W(PB)
SciTegic.value.DoubleValue
-56.130

@<SCITEGIC>MOL_PROPERTY
W(SA)
SciTegic.value.DoubleValue
1.887

@<SCITEGIC>MOL_PROPERTY
Valence
SciTegic.value.DoubleValue
1.257

@<SCITEGIC>MOL_PROPERTY
Coulomb
SciTegic.value.DoubleValue
69.240

@<SCITEGIC>MOL_PROPERTY
VdW
SciTegic.value.DoubleValue
-0.123

@<SCITEGIC>MOL_PROPERTY
VdW6
SciTegic.value.DoubleValue
-4.336

@<SCITEGIC>MOL_PROPERTY
VdW12
SciTegic.value.DoubleValue
4.213

@<SCITEGIC>MOL_PROPERTY
Bond
SciTegic.value.DoubleValue
0.128

@<SCITEGIC>MOL_PROPERTY
Angle
SciTegic.value.DoubleValue
0.603

@<SCITEGIC>MOL_PROPERTY
Pdih
SciTegic.value.DoubleValue
0.526

@<SCITEGIC>MOL_PROPERTY
Idih
SciTegic.value.DoubleValue
0.000

@<SCITEGIC>MOL_PROPERTY
Tether
SciTegic.value.DoubleValue
0.000

@<TRIPOS>MOLECULE
guest-s9_confgen4.mol2 : confsearch ligand conformer 222
          20          19           1
SMALL
USER_CHARGES
 
@<TRIPOS>ATOM
       1    C1      18.384018   19.993076   22.912437 C.3        1 MOL1        -0.2224
       2    H1      17.850566   20.787933   23.449886 H          1 MOL1         0.1052
       3    H2      18.973930   20.477955   22.125706 H          1 MOL1         0.1052
       4    H3      17.630959   19.345421   22.444881 H          1 MOL1         0.1052
       5    C2      19.282123   19.197950   23.887446 C.3        1 MOL1        -0.1209
       6    H4      18.682943   18.915063   24.764387 H          1 MOL1         0.1041
       7    H5      20.081196   19.851899   24.264193 H          1 MOL1         0.1041
       8    C3      19.902809   17.911758   23.284705 C.3        1 MOL1        -0.1274
       9    H6      20.457646   17.398850   24.081512 H          1 MOL1         0.1041
      10    H7      19.112667   17.216162   22.972412 H          1 MOL1         0.1041
      11    C4      20.879318   18.161358   22.115768 C.3        1 MOL1         0.0313
      12    H8      21.532915   17.292450   22.004618 H          1 MOL1         0.1015
      13    H9      21.504842   19.029932   22.336182 H          1 MOL1         0.1015
      14    N1      20.206104   18.382002   20.774464 N.4        1 MOL1        -0.4809
      15    H10     19.536120   19.161356   20.840400 H          1 MOL1         0.3726
      16    H11     19.642350   17.556288   20.520719 H          1 MOL1         0.3726
      17    C5      21.253445   18.663323   19.705657 C.3        1 MOL1        -0.0677
      18    H12     21.815200   19.559091   19.979150 H          1 MOL1         0.1026
      19    H13     21.931246   17.810053   19.632981 H          1 MOL1         0.1026
      20    H14     20.754694   18.819851   18.746638 H          1 MOL1         0.1026
@<TRIPOS>BOND
    1     1     2    1
    2     1     3    1
    3     1     4    1
    4     1     5    1
    5     5     6    1
    6     5     7    1
    7     5     8    1
    8     8     9    1
    9     8    10    1
   10     8    11    1
   11    11    12    1
   12    11    13    1
   13    11    14    1
   14    14    15    1
   15    14    16    1
   16    14    17    1
   17    17    18    1
   18    17    19    1
   19    17    20    1
@<TRIPOS>SUBSTRUCTURE
       1 MOL1            1 RESIDUE      1      MOL     
@<SCITEGIC>MOL_PROPERTY
VConf Rank
SciTegic.value.IntegerValue
222

@<SCITEGIC>MOL_PROPERTY
Conf_Id
SciTegic.value.IntegerValue
26

@<SCITEGIC>MOL_PROPERTY
Delta U+W
SciTegic.value.DoubleValue
2.888

@<SCITEGIC>MOL_PROPERTY
U+W
SciTegic.value.DoubleValue
18.226

@<SCITEGIC>MOL_PROPERTY
Grad RMS
SciTegic.value.DoubleValue
0.000000

@<SCITEGIC>MOL_PROPERTY
U
SciTegic.value.DoubleValue
72.042

@<SCITEGIC>MOL_PROPERTY
W
SciTegic.value.DoubleValue
-53.816

@<SCITEGIC>MOL_PROPERTY
W(PB)
SciTegic.value.DoubleValue
-55.689

@<SCITEGIC>MOL_PROPERTY
W(SA)
SciTegic.value.DoubleValue
1.873

@<SCITEGIC>MOL_PROPERTY
Valence
SciTegic.value.DoubleValue
2.428

@<SCITEGIC>MOL_PROPERTY
Coulomb
SciTegic.value.DoubleValue
69.829

@<SCITEGIC>MOL_PROPERTY
VdW
SciTegic.value.DoubleValue
-0.215

@<SCITEGIC>MOL_PROPERTY
VdW6
SciTegic.value.DoubleValue
-4.563

@<SCITEGIC>MOL_PROPERTY
VdW12
SciTegic.value.DoubleValue
4.348

@<SCITEGIC>MOL_PROPERTY
Bond
SciTegic.value.DoubleValue
0.137

@<SCITEGIC>MOL_PROPERTY
Angle
SciTegic.value.DoubleValue
0.936

@<SCITEGIC>MOL_PROPERTY
Pdih
SciTegic.value.DoubleValue
1.356

@<SCITEGIC>MOL_PROPERTY
Idih
SciTegic.value.DoubleValue
0.000

@<SCITEGIC>MOL_PROPERTY
Tether
SciTegic.value.DoubleValue
0.000

@<TRIPOS>MOLECULE
guest-s9_confgen4.mol2 : confsearch ligand conformer 223
          20          19           1
SMALL
USER_CHARGES
 
@<TRIPOS>ATOM
       1    C1      21.397406   20.552160   21.495784 C.3        1 MOL1        -0.2224
       2    H1      21.824568   21.418925   20.974757 H          1 MOL1         0.1052
       3    H2      22.099715   20.261926   22.288054 H          1 MOL1         0.1052
       4    H3      21.331030   19.738631   20.763790 H          1 MOL1         0.1052
       5    C2      20.009934   20.907967   22.076974 C.3        1 MOL1        -0.1209
       6    H4      19.307418   21.100835   21.253943 H          1 MOL1         0.1041
       7    H5      20.094144   21.853109   22.631665 H          1 MOL1         0.1041
       8    C3      19.417455   19.835627   23.026654 C.3        1 MOL1        -0.1274
       9    H6      20.074876   19.687679   23.893612 H          1 MOL1         0.1041
      10    H7      18.472592   20.225018   23.428432 H          1 MOL1         0.1041
      11    C4      19.119631   18.479770   22.351942 C.3        1 MOL1         0.0313
      12    H8      18.686158   18.646847   21.362765 H          1 MOL1         0.1015
      13    H9      18.389072   17.933890   22.954306 H          1 MOL1         0.1015
      14    N1      20.329457   17.577384   22.200216 N.4        1 MOL1        -0.4809
      15    H10     20.733334   17.367380   23.125844 H          1 MOL1         0.3726
      16    H11     21.072196   18.067882   21.682172 H          1 MOL1         0.3726
      17    C5      19.934791   16.292399   21.485050 C.3        1 MOL1        -0.0677
      18    H12     19.540925   16.537192   20.496256 H          1 MOL1         0.1026
      19    H13     20.814727   15.653412   21.383164 H          1 MOL1         0.1026
      20    H14     19.170516   15.775720   22.069594 H          1 MOL1         0.1026
@<TRIPOS>BOND
    1     1     2    1
    2     1     3    1
    3     1     4    1
    4     1     5    1
    5     5     6    1
    6     5     7    1
    7     5     8    1
    8     8     9    1
    9     8    10    1
   10     8    11    1
   11    11    12    1
   12    11    13    1
   13    11    14    1
   14    14    15    1
   15    14    16    1
   16    14    17    1
   17    17    18    1
   18    17    19    1
   19    17    20    1
@<TRIPOS>SUBSTRUCTURE
       1 MOL1            1 RESIDUE      1      MOL     
@<SCITEGIC>MOL_PROPERTY
VConf Rank
SciTegic.value.IntegerValue
223

@<SCITEGIC>MOL_PROPERTY
Conf_Id
SciTegic.value.IntegerValue
5

@<SCITEGIC>MOL_PROPERTY
Delta U+W
SciTegic.value.DoubleValue
2.950

@<SCITEGIC>MOL_PROPERTY
U+W
SciTegic.value.DoubleValue
18.289

@<SCITEGIC>MOL_PROPERTY
Grad RMS
SciTegic.value.DoubleValue
0.000000

@<SCITEGIC>MOL_PROPERTY
U
SciTegic.value.DoubleValue
72.042

@<SCITEGIC>MOL_PROPERTY
W
SciTegic.value.DoubleValue
-53.753

@<SCITEGIC>MOL_PROPERTY
W(PB)
SciTegic.value.DoubleValue
-55.644

@<SCITEGIC>MOL_PROPERTY
W(SA)
SciTegic.value.DoubleValue
1.891

@<SCITEGIC>MOL_PROPERTY
Valence
SciTegic.value.DoubleValue
2.428

@<SCITEGIC>MOL_PROPERTY
Coulomb
SciTegic.value.DoubleValue
69.829

@<SCITEGIC>MOL_PROPERTY
VdW
SciTegic.value.DoubleValue
-0.215

@<SCITEGIC>MOL_PROPERTY
VdW6
SciTegic.value.DoubleValue
-4.563

@<SCITEGIC>MOL_PROPERTY
VdW12
SciTegic.value.DoubleValue
4.348

@<SCITEGIC>MOL_PROPERTY
Bond
SciTegic.value.DoubleValue
0.137

@<SCITEGIC>MOL_PROPERTY
Angle
SciTegic.value.DoubleValue
0.936

@<SCITEGIC>MOL_PROPERTY
Pdih
SciTegic.value.DoubleValue
1.356

@<SCITEGIC>MOL_PROPERTY
Idih
SciTegic.value.DoubleValue
0.000

@<SCITEGIC>MOL_PROPERTY
Tether
SciTegic.value.DoubleValue
0.000

@<TRIPOS>MOLECULE
guest-s9_confgen4.mol2 : confsearch ligand conformer 224
          20          19           1
SMALL
USER_CHARGES
 
@<TRIPOS>ATOM
       1    C1      19.041004   17.525754   23.782788 C.3        1 MOL1        -0.2224
       2    H1      18.310363   16.799054   23.404465 H          1 MOL1         0.1052
       3    H2      20.046100   17.118254   23.616950 H          1 MOL1         0.1052
       4    H3      18.894317   17.613587   24.867101 H          1 MOL1         0.1052
       5    C2      18.862632   18.900480   23.098351 C.3        1 MOL1        -0.1209
       6    H4      19.600761   19.610840   23.494983 H          1 MOL1         0.1041
       7    H5      17.877199   19.307196   23.365555 H          1 MOL1         0.1041
       8    C3      18.970573   18.828825   21.554813 C.3        1 MOL1        -0.1274
       9    H6      18.166460   18.190162   21.166166 H          1 MOL1         0.1041
      10    H7      18.794973   19.825867   21.130758 H          1 MOL1         0.1041
      11    C4      20.323073   18.281921   21.043765 C.3        1 MOL1         0.0313
      12    H8      20.320985   18.265208   19.951000 H          1 MOL1         0.1015
      13    H9      20.445622   17.253735   21.392901 H          1 MOL1         0.1015
      14    N1      21.548514   19.063575   21.491688 N.4        1 MOL1        -0.4809
      15    H10     22.403049   18.550924   21.223333 H          1 MOL1         0.3726
      16    H11     21.578439   19.113154   22.520644 H          1 MOL1         0.3726
      17    C5      21.567748   20.460456   20.880972 C.3        1 MOL1        -0.0677
      18    H12     20.691223   21.015847   21.220435 H          1 MOL1         0.1026
      19    H13     22.475464   20.977815   21.199244 H          1 MOL1         0.1026
      20    H14     21.554486   20.376777   19.792185 H          1 MOL1         0.1026
@<TRIPOS>BOND
    1     1     2    1
    2     1     3    1
    3     1     4    1
    4     1     5    1
    5     5     6    1
    6     5     7    1
    7     5     8    1
    8     8     9    1
    9     8    10    1
   10     8    11    1
   11    11    12    1
   12    11    13    1
   13    11    14    1
   14    14    15    1
   15    14    16    1
   16    14    17    1
   17    17    18    1
   18    17    19    1
   19    17    20    1
@<TRIPOS>SUBSTRUCTURE
       1 MOL1            1 RESIDUE      1      MOL     
@<SCITEGIC>MOL_PROPERTY
VConf Rank
SciTegic.value.IntegerValue
224

@<SCITEGIC>MOL_PROPERTY
Conf_Id
SciTegic.value.IntegerValue
52

@<SCITEGIC>MOL_PROPERTY
Delta U+W
SciTegic.value.DoubleValue
0.784

@<SCITEGIC>MOL_PROPERTY
U+W
SciTegic.value.DoubleValue
16.122

@<SCITEGIC>MOL_PROPERTY
Grad RMS
SciTegic.value.DoubleValue
0.000000

@<SCITEGIC>MOL_PROPERTY
U
SciTegic.value.DoubleValue
70.777

@<SCITEGIC>MOL_PROPERTY
W
SciTegic.value.DoubleValue
-54.655

@<SCITEGIC>MOL_PROPERTY
W(PB)
SciTegic.value.DoubleValue
-56.491

@<SCITEGIC>MOL_PROPERTY
W(SA)
SciTegic.value.DoubleValue
1.836

@<SCITEGIC>MOL_PROPERTY
Valence
SciTegic.value.DoubleValue
1.529

@<SCITEGIC>MOL_PROPERTY
Coulomb
SciTegic.value.DoubleValue
69.166

@<SCITEGIC>MOL_PROPERTY
VdW
SciTegic.value.DoubleValue
0.082

@<SCITEGIC>MOL_PROPERTY
VdW6
SciTegic.value.DoubleValue
-5.166

@<SCITEGIC>MOL_PROPERTY
VdW12
SciTegic.value.DoubleValue
5.248

@<SCITEGIC>MOL_PROPERTY
Bond
SciTegic.value.DoubleValue
0.171

@<SCITEGIC>MOL_PROPERTY
Angle
SciTegic.value.DoubleValue
0.752

@<SCITEGIC>MOL_PROPERTY
Pdih
SciTegic.value.DoubleValue
0.605

@<SCITEGIC>MOL_PROPERTY
Idih
SciTegic.value.DoubleValue
0.000

@<SCITEGIC>MOL_PROPERTY
Tether
SciTegic.value.DoubleValue
0.000

@<TRIPOS>MOLECULE
guest-s9_confgen4.mol2 : confsearch ligand conformer 225
          20          19           1
SMALL
USER_CHARGES
 
@<TRIPOS>ATOM
       1    C1      20.720452   20.807914   22.632685 C.3        1 MOL1        -0.2224
       2    H1      21.195157   21.705758   23.049460 H          1 MOL1         0.1052
       3    H2      21.156683   20.646483   21.640317 H          1 MOL1         0.1052
       4    H3      19.649235   21.020045   22.519531 H          1 MOL1         0.1052
       5    C2      20.958169   19.596284   23.562635 C.3        1 MOL1        -0.1209
       6    H4      20.716897   19.894637   24.592585 H          1 MOL1         0.1041
       7    H5      22.026552   19.338264   23.564071 H          1 MOL1         0.1041
       8    C3      20.117544   18.342421   23.210495 C.3        1 MOL1        -0.1274
       9    H6      20.298139   17.587728   23.987289 H          1 MOL1         0.1041
      10    H7      19.046760   18.575235   23.266373 H          1 MOL1         0.1041
      11    C4      20.461456   17.699671   21.846622 C.3        1 MOL1         0.0313
      12    H8      20.085933   16.673488   21.827824 H          1 MOL1         0.1015
      13    H9      21.547952   17.658792   21.735615 H          1 MOL1         0.1015
      14    N1      19.893374   18.401855   20.623212 N.4        1 MOL1        -0.4809
      15    H10     20.329484   18.017179   19.770573 H          1 MOL1         0.3726
      16    H11     20.154142   19.397700   20.634778 H          1 MOL1         0.3726
      17    C5      18.379091   18.241153   20.546759 C.3        1 MOL1        -0.0677
      18    H12     18.131591   17.177811   20.520522 H          1 MOL1         0.1026
      19    H13     17.919772   18.706684   21.420786 H          1 MOL1         0.1026
      20    H14     18.013335   18.726186   19.639081 H          1 MOL1         0.1026
@<TRIPOS>BOND
    1     1     2    1
    2     1     3    1
    3     1     4    1
    4     1     5    1
    5     5     6    1
    6     5     7    1
    7     5     8    1
    8     8     9    1
    9     8    10    1
   10     8    11    1
   11    11    12    1
   12    11    13    1
   13    11    14    1
   14    14    15    1
   15    14    16    1
   16    14    17    1
   17    17    18    1
   18    17    19    1
   19    17    20    1
@<TRIPOS>SUBSTRUCTURE
       1 MOL1            1 RESIDUE      1      MOL     
@<SCITEGIC>MOL_PROPERTY
VConf Rank
SciTegic.value.IntegerValue
225

@<SCITEGIC>MOL_PROPERTY
Conf_Id
SciTegic.value.IntegerValue
55

@<SCITEGIC>MOL_PROPERTY
Delta U+W
SciTegic.value.DoubleValue
2.745

@<SCITEGIC>MOL_PROPERTY
U+W
SciTegic.value.DoubleValue
18.083

@<SCITEGIC>MOL_PROPERTY
Grad RMS
SciTegic.value.DoubleValue
0.000000

@<SCITEGIC>MOL_PROPERTY
U
SciTegic.value.DoubleValue
72.490

@<SCITEGIC>MOL_PROPERTY
W
SciTegic.value.DoubleValue
-54.407

@<SCITEGIC>MOL_PROPERTY
W(PB)
SciTegic.value.DoubleValue
-56.269

@<SCITEGIC>MOL_PROPERTY
W(SA)
SciTegic.value.DoubleValue
1.861

@<SCITEGIC>MOL_PROPERTY
Valence
SciTegic.value.DoubleValue
2.738

@<SCITEGIC>MOL_PROPERTY
Coulomb
SciTegic.value.DoubleValue
69.795

@<SCITEGIC>MOL_PROPERTY
VdW
SciTegic.value.DoubleValue
-0.043

@<SCITEGIC>MOL_PROPERTY
VdW6
SciTegic.value.DoubleValue
-5.333

@<SCITEGIC>MOL_PROPERTY
VdW12
SciTegic.value.DoubleValue
5.290

@<SCITEGIC>MOL_PROPERTY
Bond
SciTegic.value.DoubleValue
0.182

@<SCITEGIC>MOL_PROPERTY
Angle
SciTegic.value.DoubleValue
1.135

@<SCITEGIC>MOL_PROPERTY
Pdih
SciTegic.value.DoubleValue
1.422

@<SCITEGIC>MOL_PROPERTY
Idih
SciTegic.value.DoubleValue
0.000

@<SCITEGIC>MOL_PROPERTY
Tether
SciTegic.value.DoubleValue
0.000

@<TRIPOS>MOLECULE
guest-s9_confgen4.mol2 : confsearch ligand conformer 226
          20          19           1
SMALL
USER_CHARGES
 
@<TRIPOS>ATOM
       1    C1      20.932285   16.964996   21.982347 C.3        1 MOL1        -0.2224
       2    H1      21.584162   16.085972   21.895505 H          1 MOL1         0.1052
       3    H2      20.306506   16.828299   22.873987 H          1 MOL1         0.1052
       4    H3      20.288465   16.974978   21.095472 H          1 MOL1         0.1052
       5    C2      21.781193   18.252807   22.083693 C.3        1 MOL1        -0.1209
       6    H4      22.306458   18.422376   21.133240 H          1 MOL1         0.1041
       7    H5      22.564082   18.095787   22.838978 H          1 MOL1         0.1041
       8    C3      20.979122   19.521216   22.471834 C.3        1 MOL1        -0.1274
       9    H6      20.500312   19.383302   23.449394 H          1 MOL1         0.1041
      10    H7      21.694461   20.343484   22.605068 H          1 MOL1         0.1041
      11    C4      19.940264   19.972612   21.418947 C.3        1 MOL1         0.0313
      12    H8      20.391014   19.913178   20.425086 H          1 MOL1         0.1015
      13    H9      19.673389   21.016550   21.601690 H          1 MOL1         0.1015
      14    N1      18.641718   19.181738   21.390565 N.4        1 MOL1        -0.4809
      15    H10     18.842622   18.176214   21.298922 H          1 MOL1         0.3726
      16    H11     18.104940   19.429276   20.544544 H          1 MOL1         0.3726
      17    C5      17.801537   19.453306   22.633572 C.3        1 MOL1        -0.0677
      18    H12     18.349800   19.129988   23.520415 H          1 MOL1         0.1026
      19    H13     17.590714   20.522905   22.697996 H          1 MOL1         0.1026
      20    H14     16.864110   18.897669   22.560025 H          1 MOL1         0.1026
@<TRIPOS>BOND
    1     1     2    1
    2     1     3    1
    3     1     4    1
    4     1     5    1
    5     5     6    1
    6     5     7    1
    7     5     8    1
    8     8     9    1
    9     8    10    1
   10     8    11    1
   11    11    12    1
   12    11    13    1
   13    11    14    1
   14    14    15    1
   15    14    16    1
   16    14    17    1
   17    17    18    1
   18    17    19    1
   19    17    20    1
@<TRIPOS>SUBSTRUCTURE
       1 MOL1            1 RESIDUE      1      MOL     
@<SCITEGIC>MOL_PROPERTY
VConf Rank
SciTegic.value.IntegerValue
226

@<SCITEGIC>MOL_PROPERTY
Conf_Id
SciTegic.value.IntegerValue
76

@<SCITEGIC>MOL_PROPERTY
Delta U+W
SciTegic.value.DoubleValue
2.799

@<SCITEGIC>MOL_PROPERTY
U+W
SciTegic.value.DoubleValue
18.137

@<SCITEGIC>MOL_PROPERTY
Grad RMS
SciTegic.value.DoubleValue
0.000000

@<SCITEGIC>MOL_PROPERTY
U
SciTegic.value.DoubleValue
72.490

@<SCITEGIC>MOL_PROPERTY
W
SciTegic.value.DoubleValue
-54.353

@<SCITEGIC>MOL_PROPERTY
W(PB)
SciTegic.value.DoubleValue
-56.201

@<SCITEGIC>MOL_PROPERTY
W(SA)
SciTegic.value.DoubleValue
1.848

@<SCITEGIC>MOL_PROPERTY
Valence
SciTegic.value.DoubleValue
2.738

@<SCITEGIC>MOL_PROPERTY
Coulomb
SciTegic.value.DoubleValue
69.795

@<SCITEGIC>MOL_PROPERTY
VdW
SciTegic.value.DoubleValue
-0.043

@<SCITEGIC>MOL_PROPERTY
VdW6
SciTegic.value.DoubleValue
-5.334

@<SCITEGIC>MOL_PROPERTY
VdW12
SciTegic.value.DoubleValue
5.290

@<SCITEGIC>MOL_PROPERTY
Bond
SciTegic.value.DoubleValue
0.182

@<SCITEGIC>MOL_PROPERTY
Angle
SciTegic.value.DoubleValue
1.135

@<SCITEGIC>MOL_PROPERTY
Pdih
SciTegic.value.DoubleValue
1.421

@<SCITEGIC>MOL_PROPERTY
Idih
SciTegic.value.DoubleValue
0.000

@<SCITEGIC>MOL_PROPERTY
Tether
SciTegic.value.DoubleValue
0.000

@<TRIPOS>MOLECULE
guest-s9_confgen4.mol2 : confsearch ligand conformer 227
          20          19           1
SMALL
USER_CHARGES
 
@<TRIPOS>ATOM
       1    C1      18.624752   20.248316   21.603185 C.3        1 MOL1        -0.2224
       2    H1      18.651428   19.887061   22.638479 H          1 MOL1         0.1052
       3    H2      18.995524   21.281455   21.593005 H          1 MOL1         0.1052
       4    H3      17.574247   20.266936   21.285478 H          1 MOL1         0.1052
       5    C2      19.460269   19.349971   20.662201 C.3        1 MOL1        -0.1209
       6    H4      19.342295   19.711237   19.630987 H          1 MOL1         0.1041
       7    H5      19.063461   18.326600   20.666132 H          1 MOL1         0.1041
       8    C3      20.968231   19.339210   21.013457 C.3        1 MOL1        -0.1274
       9    H6      21.506820   18.720118   20.284037 H          1 MOL1         0.1041
      10    H7      21.363474   20.356637   20.893995 H          1 MOL1         0.1041
      11    C4      21.312297   18.852651   22.440888 C.3        1 MOL1         0.0313
      12    H8      20.781098   19.447157   23.187852 H          1 MOL1         0.1015
      13    H9      22.382924   19.007565   22.597176 H          1 MOL1         0.1015
      14    N1      21.044352   17.380481   22.716323 N.4        1 MOL1        -0.4809
      15    H10     21.731312   17.033582   23.403743 H          1 MOL1         0.3726
      16    H11     21.215222   16.819677   21.868415 H          1 MOL1         0.3726
      17    C5      19.637054   17.154516   23.258266 C.3        1 MOL1        -0.0677
      18    H12     19.502200   16.091265   23.468593 H          1 MOL1         0.1026
      19    H13     19.511504   17.728747   24.178639 H          1 MOL1         0.1026
      20    H14     18.901509   17.476912   22.520664 H          1 MOL1         0.1026
@<TRIPOS>BOND
    1     1     2    1
    2     1     3    1
    3     1     4    1
    4     1     5    1
    5     5     6    1
    6     5     7    1
    7     5     8    1
    8     8     9    1
    9     8    10    1
   10     8    11    1
   11    11    12    1
   12    11    13    1
   13    11    14    1
   14    14    15    1
   15    14    16    1
   16    14    17    1
   17    17    18    1
   18    17    19    1
   19    17    20    1
@<TRIPOS>SUBSTRUCTURE
       1 MOL1            1 RESIDUE      1      MOL     
@<SCITEGIC>MOL_PROPERTY
VConf Rank
SciTegic.value.IntegerValue
227

@<SCITEGIC>MOL_PROPERTY
Conf_Id
SciTegic.value.IntegerValue
60

@<SCITEGIC>MOL_PROPERTY
Delta U+W
SciTegic.value.DoubleValue
1.788

@<SCITEGIC>MOL_PROPERTY
U+W
SciTegic.value.DoubleValue
17.127

@<SCITEGIC>MOL_PROPERTY
Grad RMS
SciTegic.value.DoubleValue
0.000000

@<SCITEGIC>MOL_PROPERTY
U
SciTegic.value.DoubleValue
72.122

@<SCITEGIC>MOL_PROPERTY
W
SciTegic.value.DoubleValue
-54.995

@<SCITEGIC>MOL_PROPERTY
W(PB)
SciTegic.value.DoubleValue
-56.810

@<SCITEGIC>MOL_PROPERTY
W(SA)
SciTegic.value.DoubleValue
1.815

@<SCITEGIC>MOL_PROPERTY
Valence
SciTegic.value.DoubleValue
3.197

@<SCITEGIC>MOL_PROPERTY
Coulomb
SciTegic.value.DoubleValue
69.115

@<SCITEGIC>MOL_PROPERTY
VdW
SciTegic.value.DoubleValue
-0.190

@<SCITEGIC>MOL_PROPERTY
VdW6
SciTegic.value.DoubleValue
-5.585

@<SCITEGIC>MOL_PROPERTY
VdW12
SciTegic.value.DoubleValue
5.395

@<SCITEGIC>MOL_PROPERTY
Bond
SciTegic.value.DoubleValue
0.177

@<SCITEGIC>MOL_PROPERTY
Angle
SciTegic.value.DoubleValue
1.207

@<SCITEGIC>MOL_PROPERTY
Pdih
SciTegic.value.DoubleValue
1.813

@<SCITEGIC>MOL_PROPERTY
Idih
SciTegic.value.DoubleValue
0.000

@<SCITEGIC>MOL_PROPERTY
Tether
SciTegic.value.DoubleValue
0.000

@<TRIPOS>MOLECULE
guest-s9_confgen4.mol2 : confsearch ligand conformer 228
          20          19           1
SMALL
USER_CHARGES
 
@<TRIPOS>ATOM
       1    C1      21.777473   19.791326   21.038896 C.3        1 MOL1        -0.2224
       2    H1      22.827334   19.994533   21.286572 H          1 MOL1         0.1052
       3    H2      21.614126   20.098165   19.997686 H          1 MOL1         0.1052
       4    H3      21.156361   20.426179   21.682504 H          1 MOL1         0.1052
       5    C2      21.454951   18.291600   21.232188 C.3        1 MOL1        -0.1209
       6    H4      21.644671   17.995330   22.271897 H          1 MOL1         0.1041
       7    H5      22.150311   17.698495   20.621833 H          1 MOL1         0.1041
       8    C3      20.005736   17.925086   20.828589 C.3        1 MOL1        -0.1274
       9    H6      19.877831   18.128789   19.757239 H          1 MOL1         0.1041
      10    H7      19.857532   16.843865   20.948603 H          1 MOL1         0.1041
      11    C4      18.893849   18.675942   21.598394 C.3        1 MOL1         0.0313
      12    H8      17.936589   18.416953   21.138779 H          1 MOL1         0.1015
      13    H9      19.023196   19.756567   21.503080 H          1 MOL1         0.1015
      14    N1      18.770255   18.333223   23.075624 N.4        1 MOL1        -0.4809
      15    H10     19.000495   17.341056   23.234498 H          1 MOL1         0.3726
      16    H11     17.783366   18.423352   23.363247 H          1 MOL1         0.3726
      17    C5      19.628885   19.248897   23.941383 C.3        1 MOL1        -0.0677
      18    H12     19.324122   20.284813   23.778327 H          1 MOL1         0.1026
      19    H13     19.484512   18.985539   24.991491 H          1 MOL1         0.1026
      20    H14     20.679685   19.128798   23.676021 H          1 MOL1         0.1026
@<TRIPOS>BOND
    1     1     2    1
    2     1     3    1
    3     1     4    1
    4     1     5    1
    5     5     6    1
    6     5     7    1
    7     5     8    1
    8     8     9    1
    9     8    10    1
   10     8    11    1
   11    11    12    1
   12    11    13    1
   13    11    14    1
   14    14    15    1
   15    14    16    1
   16    14    17    1
   17    17    18    1
   18    17    19    1
   19    17    20    1
@<TRIPOS>SUBSTRUCTURE
       1 MOL1            1 RESIDUE      1      MOL     
@<SCITEGIC>MOL_PROPERTY
VConf Rank
SciTegic.value.IntegerValue
228

@<SCITEGIC>MOL_PROPERTY
Conf_Id
SciTegic.value.IntegerValue
54

@<SCITEGIC>MOL_PROPERTY
Delta U+W
SciTegic.value.DoubleValue
1.880

@<SCITEGIC>MOL_PROPERTY
U+W
SciTegic.value.DoubleValue
17.218

@<SCITEGIC>MOL_PROPERTY
Grad RMS
SciTegic.value.DoubleValue
0.000000

@<SCITEGIC>MOL_PROPERTY
U
SciTegic.value.DoubleValue
72.122

@<SCITEGIC>MOL_PROPERTY
W
SciTegic.value.DoubleValue
-54.903

@<SCITEGIC>MOL_PROPERTY
W(PB)
SciTegic.value.DoubleValue
-56.724

@<SCITEGIC>MOL_PROPERTY
W(SA)
SciTegic.value.DoubleValue
1.821

@<SCITEGIC>MOL_PROPERTY
Valence
SciTegic.value.DoubleValue
3.197

@<SCITEGIC>MOL_PROPERTY
Coulomb
SciTegic.value.DoubleValue
69.115

@<SCITEGIC>MOL_PROPERTY
VdW
SciTegic.value.DoubleValue
-0.190

@<SCITEGIC>MOL_PROPERTY
VdW6
SciTegic.value.DoubleValue
-5.585

@<SCITEGIC>MOL_PROPERTY
VdW12
SciTegic.value.DoubleValue
5.395

@<SCITEGIC>MOL_PROPERTY
Bond
SciTegic.value.DoubleValue
0.177

@<SCITEGIC>MOL_PROPERTY
Angle
SciTegic.value.DoubleValue
1.207

@<SCITEGIC>MOL_PROPERTY
Pdih
SciTegic.value.DoubleValue
1.813

@<SCITEGIC>MOL_PROPERTY
Idih
SciTegic.value.DoubleValue
0.000

@<SCITEGIC>MOL_PROPERTY
Tether
SciTegic.value.DoubleValue
0.000

@<TRIPOS>MOLECULE
guest-s9_confgen4.mol2 : confsearch ligand conformer 229
          20          19           1
SMALL
USER_CHARGES
 
@<TRIPOS>ATOM
       1    C1      19.118090   17.738908   24.882508 C.3        1 MOL1        -0.2224
       2    H1      18.985913   16.687207   24.596794 H          1 MOL1         0.1052
       3    H2      19.514787   17.761803   25.905803 H          1 MOL1         0.1052
       4    H3      18.129617   18.216351   24.894539 H          1 MOL1         0.1052
       5    C2      20.074141   18.463572   23.910366 C.3        1 MOL1        -0.1209
       6    H4      21.063186   17.985207   23.946527 H          1 MOL1         0.1041
       7    H5      20.213553   19.502330   24.241873 H          1 MOL1         0.1041
       8    C3      19.540738   18.447023   22.460894 C.3        1 MOL1        -0.1274
       9    H6      19.405067   17.408954   22.129272 H          1 MOL1         0.1041
      10    H7      18.554179   18.928045   22.425049 H          1 MOL1         0.1041
      11    C4      20.499433   19.171549   21.497802 C.3        1 MOL1         0.0313
      12    H8      21.478164   18.685640   21.519429 H          1 MOL1         0.1015
      13    H9      20.624409   20.209616   21.816058 H          1 MOL1         0.1015
      14    N1      20.016176   19.180524   20.060762 N.4        1 MOL1        -0.4809
      15    H10     19.087741   19.625959   19.999492 H          1 MOL1         0.3726
      16    H11     19.878261   18.214970   19.724845 H          1 MOL1         0.3726
      17    C5      21.018941   19.913791   19.179878 C.3        1 MOL1        -0.0677
      18    H12     21.984105   19.405435   19.233177 H          1 MOL1         0.1026
      19    H13     20.658807   19.912672   18.148709 H          1 MOL1         0.1026
      20    H14     21.123007   20.942294   19.532245 H          1 MOL1         0.1026
@<TRIPOS>BOND
    1     1     2    1
    2     1     3    1
    3     1     4    1
    4     1     5    1
    5     5     6    1
    6     5     7    1
    7     5     8    1
    8     8     9    1
    9     8    10    1
   10     8    11    1
   11    11    12    1
   12    11    13    1
   13    11    14    1
   14    14    15    1
   15    14    16    1
   16    14    17    1
   17    17    18    1
   18    17    19    1
   19    17    20    1
@<TRIPOS>SUBSTRUCTURE
       1 MOL1            1 RESIDUE      1      MOL     
@<SCITEGIC>MOL_PROPERTY
VConf Rank
SciTegic.value.IntegerValue
229

@<SCITEGIC>MOL_PROPERTY
Conf_Id
SciTegic.value.IntegerValue
67

@<SCITEGIC>MOL_PROPERTY
Delta U+W
SciTegic.value.DoubleValue
0.000

@<SCITEGIC>MOL_PROPERTY
U+W
SciTegic.value.DoubleValue
15.338

@<SCITEGIC>MOL_PROPERTY
Grad RMS
SciTegic.value.DoubleValue
0.000000

@<SCITEGIC>MOL_PROPERTY
U
SciTegic.value.DoubleValue
69.277

@<SCITEGIC>MOL_PROPERTY
W
SciTegic.value.DoubleValue
-53.939

@<SCITEGIC>MOL_PROPERTY
W(PB)
SciTegic.value.DoubleValue
-55.889

@<SCITEGIC>MOL_PROPERTY
W(SA)
SciTegic.value.DoubleValue
1.950

@<SCITEGIC>MOL_PROPERTY
Valence
SciTegic.value.DoubleValue
0.846

@<SCITEGIC>MOL_PROPERTY
Coulomb
SciTegic.value.DoubleValue
68.557

@<SCITEGIC>MOL_PROPERTY
VdW
SciTegic.value.DoubleValue
-0.127

@<SCITEGIC>MOL_PROPERTY
VdW6
SciTegic.value.DoubleValue
-3.008

@<SCITEGIC>MOL_PROPERTY
VdW12
SciTegic.value.DoubleValue
2.882

@<SCITEGIC>MOL_PROPERTY
Bond
SciTegic.value.DoubleValue
0.088

@<SCITEGIC>MOL_PROPERTY
Angle
SciTegic.value.DoubleValue
0.332

@<SCITEGIC>MOL_PROPERTY
Pdih
SciTegic.value.DoubleValue
0.426

@<SCITEGIC>MOL_PROPERTY
Idih
SciTegic.value.DoubleValue
0.000

@<SCITEGIC>MOL_PROPERTY
Tether
SciTegic.value.DoubleValue
0.000

@<TRIPOS>MOLECULE
guest-s9_confgen4.mol2 : confsearch ligand conformer 230
          20          19           1
SMALL
USER_CHARGES
 
@<TRIPOS>ATOM
       1    C1      22.788672   19.677951   23.031144 C.3        1 MOL1        -0.2224
       2    H1      23.162338   18.660675   22.855950 H          1 MOL1         0.1052
       3    H2      23.614726   20.376239   22.843932 H          1 MOL1         0.1052
       4    H3      22.510867   19.762131   24.089872 H          1 MOL1         0.1052
       5    C2      21.587646   19.995134   22.113973 C.3        1 MOL1        -0.1209
       6    H4      21.905082   19.936404   21.063206 H          1 MOL1         0.1041
       7    H5      21.259209   21.029739   22.287265 H          1 MOL1         0.1041
       8    C3      20.408517   19.027232   22.355863 C.3        1 MOL1        -0.1274
       9    H6      20.741056   17.995794   22.181775 H          1 MOL1         0.1041
      10    H7      20.089152   19.089602   23.404547 H          1 MOL1         0.1041
      11    C4      19.213393   19.352987   21.436332 C.3        1 MOL1         0.0313
      12    H8      19.510118   19.245792   20.389983 H          1 MOL1         0.1015
      13    H9      18.914378   20.391783   21.598103 H          1 MOL1         0.1015
      14    N1      17.984283   18.488390   21.665514 N.4        1 MOL1        -0.4809
      15    H10     17.187510   18.873678   21.134485 H          1 MOL1         0.3726
      16    H11     17.691588   18.537896   22.653266 H          1 MOL1         0.3726
      17    C5      18.235714   17.044117   21.245547 C.3        1 MOL1        -0.0677
      18    H12     19.035439   16.622337   21.857453 H          1 MOL1         0.1026
      19    H13     17.320681   16.465367   21.389544 H          1 MOL1         0.1026
      20    H14     18.523564   17.020901   20.192308 H          1 MOL1         0.1026
@<TRIPOS>BOND
    1     1     2    1
    2     1     3    1
    3     1     4    1
    4     1     5    1
    5     5     6    1
    6     5     7    1
    7     5     8    1
    8     8     9    1
    9     8    10    1
   10     8    11    1
   11    11    12    1
   12    11    13    1
   13    11    14    1
   14    14    15    1
   15    14    16    1
   16    14    17    1
   17    17    18    1
   18    17    19    1
   19    17    20    1
@<TRIPOS>SUBSTRUCTURE
       1 MOL1            1 RESIDUE      1      MOL     
@<SCITEGIC>MOL_PROPERTY
VConf Rank
SciTegic.value.IntegerValue
230

@<SCITEGIC>MOL_PROPERTY
Conf_Id
SciTegic.value.IntegerValue
37

@<SCITEGIC>MOL_PROPERTY
Delta U+W
SciTegic.value.DoubleValue
-0.021

@<SCITEGIC>MOL_PROPERTY
U+W
SciTegic.value.DoubleValue
15.318

@<SCITEGIC>MOL_PROPERTY
Grad RMS
SciTegic.value.DoubleValue
0.000000

@<SCITEGIC>MOL_PROPERTY
U
SciTegic.value.DoubleValue
69.657

@<SCITEGIC>MOL_PROPERTY
W
SciTegic.value.DoubleValue
-54.340

@<SCITEGIC>MOL_PROPERTY
W(PB)
SciTegic.value.DoubleValue
-56.238

@<SCITEGIC>MOL_PROPERTY
W(SA)
SciTegic.value.DoubleValue
1.899

@<SCITEGIC>MOL_PROPERTY
Valence
SciTegic.value.DoubleValue
1.137

@<SCITEGIC>MOL_PROPERTY
Coulomb
SciTegic.value.DoubleValue
68.383

@<SCITEGIC>MOL_PROPERTY
VdW
SciTegic.value.DoubleValue
0.138

@<SCITEGIC>MOL_PROPERTY
VdW6
SciTegic.value.DoubleValue
-3.703

@<SCITEGIC>MOL_PROPERTY
VdW12
SciTegic.value.DoubleValue
3.841

@<SCITEGIC>MOL_PROPERTY
Bond
SciTegic.value.DoubleValue
0.125

@<SCITEGIC>MOL_PROPERTY
Angle
SciTegic.value.DoubleValue
0.468

@<SCITEGIC>MOL_PROPERTY
Pdih
SciTegic.value.DoubleValue
0.543

@<SCITEGIC>MOL_PROPERTY
Idih
SciTegic.value.DoubleValue
0.000

@<SCITEGIC>MOL_PROPERTY
Tether
SciTegic.value.DoubleValue
0.000

@<TRIPOS>MOLECULE
guest-s9_confgen4.mol2 : confsearch ligand conformer 231
          20          19           1
SMALL
USER_CHARGES
 
@<TRIPOS>ATOM
       1    C1      18.643266   16.196838   22.708615 C.3        1 MOL1        -0.2224
       2    H1      17.720356   15.626758   22.540486 H          1 MOL1         0.1052
       3    H2      19.472238   15.634274   22.259733 H          1 MOL1         0.1052
       4    H3      18.813214   16.249332   23.791912 H          1 MOL1         0.1052
       5    C2      18.531944   17.608943   22.093932 C.3        1 MOL1        -0.1209
       6    H4      17.673568   18.133392   22.537163 H          1 MOL1         0.1041
       7    H5      18.328088   17.523457   21.017149 H          1 MOL1         0.1041
       8    C3      19.817931   18.435214   22.315739 C.3        1 MOL1        -0.1274
       9    H6      20.018561   18.523834   23.391618 H          1 MOL1         0.1041
      10    H7      20.672024   17.907842   21.871713 H          1 MOL1         0.1041
      11    C4      19.696468   19.844362   21.699689 C.3        1 MOL1         0.0313
      12    H8      18.824043   20.344547   22.127904 H          1 MOL1         0.1015
      13    H9      19.544912   19.765739   20.620230 H          1 MOL1         0.1015
      14    N1      20.896760   20.745730   21.939670 N.4        1 MOL1        -0.4809
      15    H10     21.092273   20.819248   22.949692 H          1 MOL1         0.3726
      16    H11     20.670052   21.708249   21.643957 H          1 MOL1         0.3726
      17    C5      22.124242   20.248089   21.183921 C.3        1 MOL1        -0.0677
      18    H12     21.894576   20.199744   20.117327 H          1 MOL1         0.1026
      19    H13     22.952085   20.940762   21.350813 H          1 MOL1         0.1026
      20    H14     22.397791   19.256311   21.549207 H          1 MOL1         0.1026
@<TRIPOS>BOND
    1     1     2    1
    2     1     3    1
    3     1     4    1
    4     1     5    1
    5     5     6    1
    6     5     7    1
    7     5     8    1
    8     8     9    1
    9     8    10    1
   10     8    11    1
   11    11    12    1
   12    11    13    1
   13    11    14    1
   14    14    15    1
   15    14    16    1
   16    14    17    1
   17    17    18    1
   18    17    19    1
   19    17    20    1
@<TRIPOS>SUBSTRUCTURE
       1 MOL1            1 RESIDUE      1      MOL     
@<SCITEGIC>MOL_PROPERTY
VConf Rank
SciTegic.value.IntegerValue
231

@<SCITEGIC>MOL_PROPERTY
Conf_Id
SciTegic.value.IntegerValue
2

@<SCITEGIC>MOL_PROPERTY
Delta U+W
SciTegic.value.DoubleValue
0.069

@<SCITEGIC>MOL_PROPERTY
U+W
SciTegic.value.DoubleValue
15.407

@<SCITEGIC>MOL_PROPERTY
Grad RMS
SciTegic.value.DoubleValue
0.000000

@<SCITEGIC>MOL_PROPERTY
U
SciTegic.value.DoubleValue
69.657

@<SCITEGIC>MOL_PROPERTY
W
SciTegic.value.DoubleValue
-54.250

@<SCITEGIC>MOL_PROPERTY
W(PB)
SciTegic.value.DoubleValue
-56.176

@<SCITEGIC>MOL_PROPERTY
W(SA)
SciTegic.value.DoubleValue
1.926

@<SCITEGIC>MOL_PROPERTY
Valence
SciTegic.value.DoubleValue
1.137

@<SCITEGIC>MOL_PROPERTY
Coulomb
SciTegic.value.DoubleValue
68.383

@<SCITEGIC>MOL_PROPERTY
VdW
SciTegic.value.DoubleValue
0.138

@<SCITEGIC>MOL_PROPERTY
VdW6
SciTegic.value.DoubleValue
-3.703

@<SCITEGIC>MOL_PROPERTY
VdW12
SciTegic.value.DoubleValue
3.841

@<SCITEGIC>MOL_PROPERTY
Bond
SciTegic.value.DoubleValue
0.125

@<SCITEGIC>MOL_PROPERTY
Angle
SciTegic.value.DoubleValue
0.468

@<SCITEGIC>MOL_PROPERTY
Pdih
SciTegic.value.DoubleValue
0.543

@<SCITEGIC>MOL_PROPERTY
Idih
SciTegic.value.DoubleValue
0.000

@<SCITEGIC>MOL_PROPERTY
Tether
SciTegic.value.DoubleValue
0.000

@<TRIPOS>MOLECULE
guest-s9_confgen4.mol2 : confsearch ligand conformer 232
          20          19           1
SMALL
USER_CHARGES
 
@<TRIPOS>ATOM
       1    C1      21.022092   21.138764   21.390874 C.3        1 MOL1        -0.2224
       2    H1      20.418691   20.730921   20.570122 H          1 MOL1         0.1052
       3    H2      20.360702   21.719066   22.047314 H          1 MOL1         0.1052
       4    H3      21.750719   21.832768   20.952182 H          1 MOL1         0.1052
       5    C2      21.744122   20.019923   22.176467 C.3        1 MOL1        -0.1209
       6    H4      22.406386   20.477480   22.924839 H          1 MOL1         0.1041
       7    H5      22.393766   19.451412   21.496052 H          1 MOL1         0.1041
       8    C3      20.768068   19.056476   22.891496 C.3        1 MOL1        -0.1274
       9    H6      21.347090   18.339466   23.488562 H          1 MOL1         0.1041
      10    H7      20.143706   19.621372   23.596429 H          1 MOL1         0.1041
      11    C4      19.868301   18.284136   21.907040 C.3        1 MOL1         0.0313
      12    H8      20.489830   17.720105   21.207079 H          1 MOL1         0.1015
      13    H9      19.258740   18.987950   21.335334 H          1 MOL1         0.1015
      14    N1      18.930321   17.307265   22.588500 N.4        1 MOL1        -0.4809
      15    H10     18.331138   17.802374   23.266686 H          1 MOL1         0.3726
      16    H11     19.468226   16.626063   23.145926 H          1 MOL1         0.3726
      17    C5      18.079630   16.591793   21.547579 C.3        1 MOL1        -0.0677
      18    H12     18.732378   16.047290   20.861839 H          1 MOL1         0.1026
      19    H13     17.409405   15.891907   22.051527 H          1 MOL1         0.1026
      20    H14     17.493670   17.328366   20.993585 H          1 MOL1         0.1026
@<TRIPOS>BOND
    1     1     2    1
    2     1     3    1
    3     1     4    1
    4     1     5    1
    5     5     6    1
    6     5     7    1
    7     5     8    1
    8     8     9    1
    9     8    10    1
   10     8    11    1
   11    11    12    1
   12    11    13    1
   13    11    14    1
   14    14    15    1
   15    14    16    1
   16    14    17    1
   17    17    18    1
   18    17    19    1
   19    17    20    1
@<TRIPOS>SUBSTRUCTURE
       1 MOL1            1 RESIDUE      1      MOL     
@<SCITEGIC>MOL_PROPERTY
VConf Rank
SciTegic.value.IntegerValue
232

@<SCITEGIC>MOL_PROPERTY
Conf_Id
SciTegic.value.IntegerValue
34

@<SCITEGIC>MOL_PROPERTY
Delta U+W
SciTegic.value.DoubleValue
0.276

@<SCITEGIC>MOL_PROPERTY
U+W
SciTegic.value.DoubleValue
15.615

@<SCITEGIC>MOL_PROPERTY
Grad RMS
SciTegic.value.DoubleValue
0.000000

@<SCITEGIC>MOL_PROPERTY
U
SciTegic.value.DoubleValue
69.798

@<SCITEGIC>MOL_PROPERTY
W
SciTegic.value.DoubleValue
-54.184

@<SCITEGIC>MOL_PROPERTY
W(PB)
SciTegic.value.DoubleValue
-56.116

@<SCITEGIC>MOL_PROPERTY
W(SA)
SciTegic.value.DoubleValue
1.933

@<SCITEGIC>MOL_PROPERTY
Valence
SciTegic.value.DoubleValue
1.134

@<SCITEGIC>MOL_PROPERTY
Coulomb
SciTegic.value.DoubleValue
68.735

@<SCITEGIC>MOL_PROPERTY
VdW
SciTegic.value.DoubleValue
-0.070

@<SCITEGIC>MOL_PROPERTY
VdW6
SciTegic.value.DoubleValue
-3.565

@<SCITEGIC>MOL_PROPERTY
VdW12
SciTegic.value.DoubleValue
3.494

@<SCITEGIC>MOL_PROPERTY
Bond
SciTegic.value.DoubleValue
0.108

@<SCITEGIC>MOL_PROPERTY
Angle
SciTegic.value.DoubleValue
0.456

@<SCITEGIC>MOL_PROPERTY
Pdih
SciTegic.value.DoubleValue
0.569

@<SCITEGIC>MOL_PROPERTY
Idih
SciTegic.value.DoubleValue
0.000

@<SCITEGIC>MOL_PROPERTY
Tether
SciTegic.value.DoubleValue
0.000

@<TRIPOS>MOLECULE
guest-s9_confgen4.mol2 : confsearch ligand conformer 233
          20          19           1
SMALL
USER_CHARGES
 
@<TRIPOS>ATOM
       1    C1      20.310196   21.813569   22.213693 C.3        1 MOL1        -0.2224
       2    H1      21.024608   22.158368   21.454813 H          1 MOL1         0.1052
       3    H2      19.473609   22.523997   22.234643 H          1 MOL1         0.1052
       4    H3      20.806941   21.850312   23.191995 H          1 MOL1         0.1052
       5    C2      19.807778   20.388032   21.898344 C.3        1 MOL1        -0.1209
       6    H4      19.288511   20.390981   20.929490 H          1 MOL1         0.1041
       7    H5      19.067087   20.093541   22.654088 H          1 MOL1         0.1041
       8    C3      20.969004   19.366499   21.863562 C.3        1 MOL1        -0.1274
       9    H6      21.719252   19.695021   21.132068 H          1 MOL1         0.1041
      10    H7      21.474953   19.337686   22.837750 H          1 MOL1         0.1041
      11    C4      20.505363   17.946531   21.481114 C.3        1 MOL1         0.0313
      12    H8      21.377809   17.295038   21.386173 H          1 MOL1         0.1015
      13    H9      19.995238   17.974413   20.514972 H          1 MOL1         0.1015
      14    N1      19.566770   17.309619   22.488722 N.4        1 MOL1        -0.4809
      15    H10     18.725249   17.892646   22.608624 H          1 MOL1         0.3726
      16    H11     20.012807   17.276051   23.418222 H          1 MOL1         0.3726
      17    C5      19.183717   15.909284   22.029191 C.3        1 MOL1        -0.0677
      18    H12     18.684343   15.972559   21.059958 H          1 MOL1         0.1026
      19    H13     20.085948   15.300207   21.940924 H          1 MOL1         0.1026
      20    H14     18.508663   15.462940   22.762723 H          1 MOL1         0.1026
@<TRIPOS>BOND
    1     1     2    1
    2     1     3    1
    3     1     4    1
    4     1     5    1
    5     5     6    1
    6     5     7    1
    7     5     8    1
    8     8     9    1
    9     8    10    1
   10     8    11    1
   11    11    12    1
   12    11    13    1
   13    11    14    1
   14    14    15    1
   15    14    16    1
   16    14    17    1
   17    17    18    1
   18    17    19    1
   19    17    20    1
@<TRIPOS>SUBSTRUCTURE
       1 MOL1            1 RESIDUE      1      MOL     
@<SCITEGIC>MOL_PROPERTY
VConf Rank
SciTegic.value.IntegerValue
233

@<SCITEGIC>MOL_PROPERTY
Conf_Id
SciTegic.value.IntegerValue
50

@<SCITEGIC>MOL_PROPERTY
Delta U+W
SciTegic.value.DoubleValue
0.319

@<SCITEGIC>MOL_PROPERTY
U+W
SciTegic.value.DoubleValue
15.657

@<SCITEGIC>MOL_PROPERTY
Grad RMS
SciTegic.value.DoubleValue
0.000000

@<SCITEGIC>MOL_PROPERTY
U
SciTegic.value.DoubleValue
69.962

@<SCITEGIC>MOL_PROPERTY
W
SciTegic.value.DoubleValue
-54.305

@<SCITEGIC>MOL_PROPERTY
W(PB)
SciTegic.value.DoubleValue
-56.223

@<SCITEGIC>MOL_PROPERTY
W(SA)
SciTegic.value.DoubleValue
1.918

@<SCITEGIC>MOL_PROPERTY
Valence
SciTegic.value.DoubleValue
0.982

@<SCITEGIC>MOL_PROPERTY
Coulomb
SciTegic.value.DoubleValue
69.058

@<SCITEGIC>MOL_PROPERTY
VdW
SciTegic.value.DoubleValue
-0.078

@<SCITEGIC>MOL_PROPERTY
VdW6
SciTegic.value.DoubleValue
-3.548

@<SCITEGIC>MOL_PROPERTY
VdW12
SciTegic.value.DoubleValue
3.471

@<SCITEGIC>MOL_PROPERTY
Bond
SciTegic.value.DoubleValue
0.105

@<SCITEGIC>MOL_PROPERTY
Angle
SciTegic.value.DoubleValue
0.408

@<SCITEGIC>MOL_PROPERTY
Pdih
SciTegic.value.DoubleValue
0.469

@<SCITEGIC>MOL_PROPERTY
Idih
SciTegic.value.DoubleValue
0.000

@<SCITEGIC>MOL_PROPERTY
Tether
SciTegic.value.DoubleValue
0.000

@<TRIPOS>MOLECULE
guest-s9_confgen4.mol2 : confsearch ligand conformer 234
          20          19           1
SMALL
USER_CHARGES
 
@<TRIPOS>ATOM
       1    C1      19.401167   16.792929   24.147457 C.3        1 MOL1        -0.2224
       2    H1      18.393164   16.591410   24.532614 H          1 MOL1         0.1052
       3    H2      19.855320   15.831112   23.875754 H          1 MOL1         0.1052
       4    H3      19.991268   17.230928   24.963005 H          1 MOL1         0.1052
       5    C2      19.341036   17.743285   22.932042 C.3        1 MOL1        -0.1209
       6    H4      18.845740   18.676955   23.231104 H          1 MOL1         0.1041
       7    H5      18.718491   17.291319   22.146874 H          1 MOL1         0.1041
       8    C3      20.750701   18.043892   22.370200 C.3        1 MOL1        -0.1274
       9    H6      21.369742   18.521618   23.141188 H          1 MOL1         0.1041
      10    H7      21.247489   17.099066   22.112538 H          1 MOL1         0.1041
      11    C4      20.715801   18.934468   21.111947 C.3        1 MOL1         0.0313
      12    H8      20.094349   18.463861   20.345943 H          1 MOL1         0.1015
      13    H9      21.728341   19.035975   20.713100 H          1 MOL1         0.1015
      14    N1      20.179081   20.332119   21.357694 N.4        1 MOL1        -0.4809
      15    H10     20.737229   20.804386   22.085351 H          1 MOL1         0.3726
      16    H11     19.220880   20.283774   21.734480 H          1 MOL1         0.3726
      17    C5      20.202589   21.132929   20.062707 C.3        1 MOL1        -0.0677
      18    H12     19.813948   22.135661   20.253695 H          1 MOL1         0.1026
      19    H13     21.230424   21.199625   19.699538 H          1 MOL1         0.1026
      20    H14     19.579522   20.632181   19.318509 H          1 MOL1         0.1026
@<TRIPOS>BOND
    1     1     2    1
    2     1     3    1
    3     1     4    1
    4     1     5    1
    5     5     6    1
    6     5     7    1
    7     5     8    1
    8     8     9    1
    9     8    10    1
   10     8    11    1
   11    11    12    1
   12    11    13    1
   13    11    14    1
   14    14    15    1
   15    14    16    1
   16    14    17    1
   17    17    18    1
   18    17    19    1
   19    17    20    1
@<TRIPOS>SUBSTRUCTURE
       1 MOL1            1 RESIDUE      1      MOL     
@<SCITEGIC>MOL_PROPERTY
VConf Rank
SciTegic.value.IntegerValue
234

@<SCITEGIC>MOL_PROPERTY
Conf_Id
SciTegic.value.IntegerValue
35

@<SCITEGIC>MOL_PROPERTY
Delta U+W
SciTegic.value.DoubleValue
0.360

@<SCITEGIC>MOL_PROPERTY
U+W
SciTegic.value.DoubleValue
15.698

@<SCITEGIC>MOL_PROPERTY
Grad RMS
SciTegic.value.DoubleValue
0.000000

@<SCITEGIC>MOL_PROPERTY
U
SciTegic.value.DoubleValue
69.962

@<SCITEGIC>MOL_PROPERTY
W
SciTegic.value.DoubleValue
-54.264

@<SCITEGIC>MOL_PROPERTY
W(PB)
SciTegic.value.DoubleValue
-56.166

@<SCITEGIC>MOL_PROPERTY
W(SA)
SciTegic.value.DoubleValue
1.902

@<SCITEGIC>MOL_PROPERTY
Valence
SciTegic.value.DoubleValue
0.982

@<SCITEGIC>MOL_PROPERTY
Coulomb
SciTegic.value.DoubleValue
69.058

@<SCITEGIC>MOL_PROPERTY
VdW
SciTegic.value.DoubleValue
-0.078

@<SCITEGIC>MOL_PROPERTY
VdW6
SciTegic.value.DoubleValue
-3.548

@<SCITEGIC>MOL_PROPERTY
VdW12
SciTegic.value.DoubleValue
3.471

@<SCITEGIC>MOL_PROPERTY
Bond
SciTegic.value.DoubleValue
0.105

@<SCITEGIC>MOL_PROPERTY
Angle
SciTegic.value.DoubleValue
0.408

@<SCITEGIC>MOL_PROPERTY
Pdih
SciTegic.value.DoubleValue
0.469

@<SCITEGIC>MOL_PROPERTY
Idih
SciTegic.value.DoubleValue
0.000

@<SCITEGIC>MOL_PROPERTY
Tether
SciTegic.value.DoubleValue
0.000

@<TRIPOS>MOLECULE
guest-s9_confgen4.mol2 : confsearch ligand conformer 235
          20          19           1
SMALL
USER_CHARGES
 
@<TRIPOS>ATOM
       1    C1      19.563467   16.999216   23.831038 C.3        1 MOL1        -0.2224
       2    H1      19.200099   16.527751   22.909217 H          1 MOL1         0.1052
       3    H2      19.711896   16.203930   24.572970 H          1 MOL1         0.1052
       4    H3      18.777092   17.665995   24.208019 H          1 MOL1         0.1052
       5    C2      20.881355   17.771745   23.593177 C.3        1 MOL1        -0.1209
       6    H4      21.649034   17.083659   23.211896 H          1 MOL1         0.1041
       7    H5      21.255087   18.148289   24.555739 H          1 MOL1         0.1041
       8    C3      20.716403   18.960879   22.618177 C.3        1 MOL1        -0.1274
       9    H6      19.976069   19.663072   23.022579 H          1 MOL1         0.1041
      10    H7      21.666921   19.506954   22.556254 H          1 MOL1         0.1041
      11    C4      20.298524   18.511891   21.201402 C.3        1 MOL1         0.0313
      12    H8      19.320925   18.025397   21.238550 H          1 MOL1         0.1015
      13    H9      21.025129   17.783997   20.831559 H          1 MOL1         0.1015
      14    N1      20.221678   19.634314   20.179317 N.4        1 MOL1        -0.4809
      15    H10     20.100206   19.234408   19.235640 H          1 MOL1         0.3726
      16    H11     21.118614   20.141734   20.137482 H          1 MOL1         0.3726
      17    C5      19.072529   20.587633   20.489168 C.3        1 MOL1        -0.0677
      18    H12     19.241984   21.056332   21.460504 H          1 MOL1         0.1026
      19    H13     19.026916   21.356448   19.714697 H          1 MOL1         0.1026
      20    H14     18.135332   20.027231   20.506726 H          1 MOL1         0.1026
@<TRIPOS>BOND
    1     1     2    1
    2     1     3    1
    3     1     4    1
    4     1     5    1
    5     5     6    1
    6     5     7    1
    7     5     8    1
    8     8     9    1
    9     8    10    1
   10     8    11    1
   11    11    12    1
   12    11    13    1
   13    11    14    1
   14    14    15    1
   15    14    16    1
   16    14    17    1
   17    17    18    1
   18    17    19    1
   19    17    20    1
@<TRIPOS>SUBSTRUCTURE
       1 MOL1            1 RESIDUE      1      MOL     
@<SCITEGIC>MOL_PROPERTY
VConf Rank
SciTegic.value.IntegerValue
235

@<SCITEGIC>MOL_PROPERTY
Conf_Id
SciTegic.value.IntegerValue
33

@<SCITEGIC>MOL_PROPERTY
Delta U+W
SciTegic.value.DoubleValue
0.372

@<SCITEGIC>MOL_PROPERTY
U+W
SciTegic.value.DoubleValue
15.711

@<SCITEGIC>MOL_PROPERTY
Grad RMS
SciTegic.value.DoubleValue
0.000000

@<SCITEGIC>MOL_PROPERTY
U
SciTegic.value.DoubleValue
70.163

@<SCITEGIC>MOL_PROPERTY
W
SciTegic.value.DoubleValue
-54.452

@<SCITEGIC>MOL_PROPERTY
W(PB)
SciTegic.value.DoubleValue
-56.363

@<SCITEGIC>MOL_PROPERTY
W(SA)
SciTegic.value.DoubleValue
1.911

@<SCITEGIC>MOL_PROPERTY
Valence
SciTegic.value.DoubleValue
1.420

@<SCITEGIC>MOL_PROPERTY
Coulomb
SciTegic.value.DoubleValue
68.566

@<SCITEGIC>MOL_PROPERTY
VdW
SciTegic.value.DoubleValue
0.177

@<SCITEGIC>MOL_PROPERTY
VdW6
SciTegic.value.DoubleValue
-4.267

@<SCITEGIC>MOL_PROPERTY
VdW12
SciTegic.value.DoubleValue
4.445

@<SCITEGIC>MOL_PROPERTY
Bond
SciTegic.value.DoubleValue
0.146

@<SCITEGIC>MOL_PROPERTY
Angle
SciTegic.value.DoubleValue
0.581

@<SCITEGIC>MOL_PROPERTY
Pdih
SciTegic.value.DoubleValue
0.693

@<SCITEGIC>MOL_PROPERTY
Idih
SciTegic.value.DoubleValue
0.000

@<SCITEGIC>MOL_PROPERTY
Tether
SciTegic.value.DoubleValue
0.000

@<TRIPOS>MOLECULE
guest-s9_confgen4.mol2 : confsearch ligand conformer 236
          20          19           1
SMALL
USER_CHARGES
 
@<TRIPOS>ATOM
       1    C1      20.928737   20.153855   24.054300 C.3        1 MOL1        -0.2224
       2    H1      21.446202   20.902605   24.667958 H          1 MOL1         0.1052
       3    H2      19.905382   20.513049   23.887583 H          1 MOL1         0.1052
       4    H3      20.875252   19.224024   24.635376 H          1 MOL1         0.1052
       5    C2      21.678528   19.934057   22.720241 C.3        1 MOL1        -0.1209
       6    H4      22.722029   19.664354   22.935537 H          1 MOL1         0.1041
       7    H5      21.713492   20.877074   22.156626 H          1 MOL1         0.1041
       8    C3      21.043496   18.827441   21.846162 C.3        1 MOL1        -0.1274
       9    H6      21.667524   18.672668   20.956133 H          1 MOL1         0.1041
      10    H7      21.045511   17.879997   22.400288 H          1 MOL1         0.1041
      11    C4      19.606593   19.175234   21.401399 C.3        1 MOL1         0.0313
      12    H8      19.618480   20.139339   20.886686 H          1 MOL1         0.1015
      13    H9      18.958247   19.266480   22.276086 H          1 MOL1         0.1015
      14    N1      18.975139   18.165506   20.456880 N.4        1 MOL1        -0.4809
      15    H10     19.575412   18.025464   19.629971 H          1 MOL1         0.3726
      16    H11     18.093323   18.548343   20.081323 H          1 MOL1         0.3726
      17    C5      18.705170   16.840847   21.162405 C.3        1 MOL1        -0.0677
      18    H12     18.218969   16.156223   20.463935 H          1 MOL1         0.1026
      19    H13     19.650136   16.410050   21.499064 H          1 MOL1         0.1026
      20    H14     18.051958   17.016782   22.019761 H          1 MOL1         0.1026
@<TRIPOS>BOND
    1     1     2    1
    2     1     3    1
    3     1     4    1
    4     1     5    1
    5     5     6    1
    6     5     7    1
    7     5     8    1
    8     8     9    1
    9     8    10    1
   10     8    11    1
   11    11    12    1
   12    11    13    1
   13    11    14    1
   14    14    15    1
   15    14    16    1
   16    14    17    1
   17    17    18    1
   18    17    19    1
   19    17    20    1
@<TRIPOS>SUBSTRUCTURE
       1 MOL1            1 RESIDUE      1      MOL     
@<SCITEGIC>MOL_PROPERTY
VConf Rank
SciTegic.value.IntegerValue
236

@<SCITEGIC>MOL_PROPERTY
Conf_Id
SciTegic.value.IntegerValue
53

@<SCITEGIC>MOL_PROPERTY
Delta U+W
SciTegic.value.DoubleValue
0.379

@<SCITEGIC>MOL_PROPERTY
U+W
SciTegic.value.DoubleValue
15.717

@<SCITEGIC>MOL_PROPERTY
Grad RMS
SciTegic.value.DoubleValue
0.000000

@<SCITEGIC>MOL_PROPERTY
U
SciTegic.value.DoubleValue
70.163

@<SCITEGIC>MOL_PROPERTY
W
SciTegic.value.DoubleValue
-54.446

@<SCITEGIC>MOL_PROPERTY
W(PB)
SciTegic.value.DoubleValue
-56.322

@<SCITEGIC>MOL_PROPERTY
W(SA)
SciTegic.value.DoubleValue
1.876

@<SCITEGIC>MOL_PROPERTY
Valence
SciTegic.value.DoubleValue
1.420

@<SCITEGIC>MOL_PROPERTY
Coulomb
SciTegic.value.DoubleValue
68.566

@<SCITEGIC>MOL_PROPERTY
VdW
SciTegic.value.DoubleValue
0.177

@<SCITEGIC>MOL_PROPERTY
VdW6
SciTegic.value.DoubleValue
-4.267

@<SCITEGIC>MOL_PROPERTY
VdW12
SciTegic.value.DoubleValue
4.445

@<SCITEGIC>MOL_PROPERTY
Bond
SciTegic.value.DoubleValue
0.146

@<SCITEGIC>MOL_PROPERTY
Angle
SciTegic.value.DoubleValue
0.581

@<SCITEGIC>MOL_PROPERTY
Pdih
SciTegic.value.DoubleValue
0.693

@<SCITEGIC>MOL_PROPERTY
Idih
SciTegic.value.DoubleValue
0.000

@<SCITEGIC>MOL_PROPERTY
Tether
SciTegic.value.DoubleValue
0.000

@<TRIPOS>MOLECULE
guest-s9_confgen4.mol2 : confsearch ligand conformer 237
          20          19           1
SMALL
USER_CHARGES
 
@<TRIPOS>ATOM
       1    C1      21.573803   17.077633   23.587459 C.3        1 MOL1        -0.2224
       2    H1      21.339760   16.742018   24.606080 H          1 MOL1         0.1052
       3    H2      21.924686   16.206438   23.019086 H          1 MOL1         0.1052
       4    H3      22.399442   17.798239   23.652325 H          1 MOL1         0.1052
       5    C2      20.332814   17.712466   22.923460 C.3        1 MOL1        -0.1209
       6    H4      19.988184   18.554458   23.539038 H          1 MOL1         0.1041
       7    H5      19.515113   16.978239   22.902021 H          1 MOL1         0.1041
       8    C3      20.636980   18.196198   21.486029 C.3        1 MOL1        -0.1274
       9    H6      21.434614   18.949981   21.504268 H          1 MOL1         0.1041
      10    H7      21.021896   17.355283   20.894126 H          1 MOL1         0.1041
      11    C4      19.393179   18.765517   20.768049 C.3        1 MOL1         0.0313
      12    H8      18.630459   17.985003   20.707353 H          1 MOL1         0.1015
      13    H9      19.660700   19.051836   19.747780 H          1 MOL1         0.1015
      14    N1      18.753526   19.975499   21.432441 N.4        1 MOL1        -0.4809
      15    H10     18.487371   19.749738   22.402093 H          1 MOL1         0.3726
      16    H11     17.864454   20.199385   20.958469 H          1 MOL1         0.3726
      17    C5      19.681055   21.185060   21.392607 C.3        1 MOL1        -0.0677
      18    H12     19.930289   21.412794   20.354012 H          1 MOL1         0.1026
      19    H13     19.173948   22.039972   21.845266 H          1 MOL1         0.1026
      20    H14     20.591777   20.961347   21.951669 H          1 MOL1         0.1026
@<TRIPOS>BOND
    1     1     2    1
    2     1     3    1
    3     1     4    1
    4     1     5    1
    5     5     6    1
    6     5     7    1
    7     5     8    1
    8     8     9    1
    9     8    10    1
   10     8    11    1
   11    11    12    1
   12    11    13    1
   13    11    14    1
   14    14    15    1
   15    14    16    1
   16    14    17    1
   17    17    18    1
   18    17    19    1
   19    17    20    1
@<TRIPOS>SUBSTRUCTURE
       1 MOL1            1 RESIDUE      1      MOL     
@<SCITEGIC>MOL_PROPERTY
VConf Rank
SciTegic.value.IntegerValue
237

@<SCITEGIC>MOL_PROPERTY
Conf_Id
SciTegic.value.IntegerValue
49

@<SCITEGIC>MOL_PROPERTY
Delta U+W
SciTegic.value.DoubleValue
0.268

@<SCITEGIC>MOL_PROPERTY
U+W
SciTegic.value.DoubleValue
15.607

@<SCITEGIC>MOL_PROPERTY
Grad RMS
SciTegic.value.DoubleValue
0.000000

@<SCITEGIC>MOL_PROPERTY
U
SciTegic.value.DoubleValue
70.298

@<SCITEGIC>MOL_PROPERTY
W
SciTegic.value.DoubleValue
-54.692

@<SCITEGIC>MOL_PROPERTY
W(PB)
SciTegic.value.DoubleValue
-56.576

@<SCITEGIC>MOL_PROPERTY
W(SA)
SciTegic.value.DoubleValue
1.885

@<SCITEGIC>MOL_PROPERTY
Valence
SciTegic.value.DoubleValue
1.245

@<SCITEGIC>MOL_PROPERTY
Coulomb
SciTegic.value.DoubleValue
68.933

@<SCITEGIC>MOL_PROPERTY
VdW
SciTegic.value.DoubleValue
0.120

@<SCITEGIC>MOL_PROPERTY
VdW6
SciTegic.value.DoubleValue
-4.430

@<SCITEGIC>MOL_PROPERTY
VdW12
SciTegic.value.DoubleValue
4.550

@<SCITEGIC>MOL_PROPERTY
Bond
SciTegic.value.DoubleValue
0.148

@<SCITEGIC>MOL_PROPERTY
Angle
SciTegic.value.DoubleValue
0.587

@<SCITEGIC>MOL_PROPERTY
Pdih
SciTegic.value.DoubleValue
0.509

@<SCITEGIC>MOL_PROPERTY
Idih
SciTegic.value.DoubleValue
0.000

@<SCITEGIC>MOL_PROPERTY
Tether
SciTegic.value.DoubleValue
0.000

@<TRIPOS>MOLECULE
guest-s9_confgen4.mol2 : confsearch ligand conformer 238
          20          19           1
SMALL
USER_CHARGES
 
@<TRIPOS>ATOM
       1    C1      17.869138   18.454095   23.661596 C.3        1 MOL1        -0.2224
       2    H1      17.510601   17.453945   23.385330 H          1 MOL1         0.1052
       3    H2      18.194197   18.422999   24.709694 H          1 MOL1         0.1052
       4    H3      17.019791   19.146227   23.594052 H          1 MOL1         0.1052
       5    C2      19.017996   18.908332   22.735248 C.3        1 MOL1        -0.1209
       6    H4      19.336113   19.921725   23.017786 H          1 MOL1         0.1041
       7    H5      18.641386   18.964160   21.705396 H          1 MOL1         0.1041
       8    C3      20.224308   17.943035   22.803345 C.3        1 MOL1        -0.1274
       9    H6      20.515529   17.807085   23.853328 H          1 MOL1         0.1041
      10    H7      19.928050   16.951842   22.435482 H          1 MOL1         0.1041
      11    C4      21.467588   18.429119   22.024366 C.3        1 MOL1         0.0313
      12    H8      22.273127   17.709856   22.193222 H          1 MOL1         0.1015
      13    H9      21.802045   19.396367   22.407599 H          1 MOL1         0.1015
      14    N1      21.295272   18.546809   20.517808 N.4        1 MOL1        -0.4809
      15    H10     20.639606   17.829586   20.173519 H          1 MOL1         0.3726
      16    H11     22.191429   18.328821   20.054784 H          1 MOL1         0.3726
      17    C5      20.851080   19.949411   20.115258 C.3        1 MOL1        -0.0677
      18    H12     20.761938   19.997171   19.027724 H          1 MOL1         0.1026
      19    H13     19.886937   20.176898   20.571314 H          1 MOL1         0.1026
      20    H14     21.597107   20.671743   20.453442 H          1 MOL1         0.1026
@<TRIPOS>BOND
    1     1     2    1
    2     1     3    1
    3     1     4    1
    4     1     5    1
    5     5     6    1
    6     5     7    1
    7     5     8    1
    8     8     9    1
    9     8    10    1
   10     8    11    1
   11    11    12    1
   12    11    13    1
   13    11    14    1
   14    14    15    1
   15    14    16    1
   16    14    17    1
   17    17    18    1
   18    17    19    1
   19    17    20    1
@<TRIPOS>SUBSTRUCTURE
       1 MOL1            1 RESIDUE      1      MOL     
@<SCITEGIC>MOL_PROPERTY
VConf Rank
SciTegic.value.IntegerValue
238

@<SCITEGIC>MOL_PROPERTY
Conf_Id
SciTegic.value.IntegerValue
65

@<SCITEGIC>MOL_PROPERTY
Delta U+W
SciTegic.value.DoubleValue
1.775

@<SCITEGIC>MOL_PROPERTY
U+W
SciTegic.value.DoubleValue
17.114

@<SCITEGIC>MOL_PROPERTY
Grad RMS
SciTegic.value.DoubleValue
0.000000

@<SCITEGIC>MOL_PROPERTY
U
SciTegic.value.DoubleValue
71.726

@<SCITEGIC>MOL_PROPERTY
W
SciTegic.value.DoubleValue
-54.613

@<SCITEGIC>MOL_PROPERTY
W(PB)
SciTegic.value.DoubleValue
-56.495

@<SCITEGIC>MOL_PROPERTY
W(SA)
SciTegic.value.DoubleValue
1.883

@<SCITEGIC>MOL_PROPERTY
Valence
SciTegic.value.DoubleValue
2.885

@<SCITEGIC>MOL_PROPERTY
Coulomb
SciTegic.value.DoubleValue
68.822

@<SCITEGIC>MOL_PROPERTY
VdW
SciTegic.value.DoubleValue
0.019

@<SCITEGIC>MOL_PROPERTY
VdW6
SciTegic.value.DoubleValue
-4.600

@<SCITEGIC>MOL_PROPERTY
VdW12
SciTegic.value.DoubleValue
4.619

@<SCITEGIC>MOL_PROPERTY
Bond
SciTegic.value.DoubleValue
0.152

@<SCITEGIC>MOL_PROPERTY
Angle
SciTegic.value.DoubleValue
0.862

@<SCITEGIC>MOL_PROPERTY
Pdih
SciTegic.value.DoubleValue
1.871

@<SCITEGIC>MOL_PROPERTY
Idih
SciTegic.value.DoubleValue
0.000

@<SCITEGIC>MOL_PROPERTY
Tether
SciTegic.value.DoubleValue
0.000

@<TRIPOS>MOLECULE
guest-s9_confgen4.mol2 : confsearch ligand conformer 239
          20          19           1
SMALL
USER_CHARGES
 
@<TRIPOS>ATOM
       1    C1      22.463666   18.694448   22.113271 C.3        1 MOL1        -0.2224
       2    H1      21.986290   18.253529   21.229130 H          1 MOL1         0.1052
       3    H2      23.345260   19.251146   21.769965 H          1 MOL1         0.1052
       4    H3      22.814191   17.877071   22.756776 H          1 MOL1         0.1052
       5    C2      21.496672   19.627835   22.877391 C.3        1 MOL1        -0.1209
       6    H4      21.161357   20.436301   22.213648 H          1 MOL1         0.1041
       7    H5      22.044021   20.116089   23.695940 H          1 MOL1         0.1041
       8    C3      20.274672   18.882518   23.470029 C.3        1 MOL1        -0.1274
       9    H6      20.623175   18.148204   24.208333 H          1 MOL1         0.1041
      10    H7      19.645303   19.594097   24.020751 H          1 MOL1         0.1041
      11    C4      19.413805   18.152504   22.417910 C.3        1 MOL1         0.0313
      12    H8      18.595548   17.629330   22.919193 H          1 MOL1         0.1015
      13    H9      20.021714   17.409287   21.896528 H          1 MOL1         0.1015
      14    N1      18.802936   19.070915   21.376775 N.4        1 MOL1        -0.4809
      15    H10     19.545712   19.589731   20.885243 H          1 MOL1         0.3726
      16    H11     18.220925   19.789326   21.833994 H          1 MOL1         0.3726
      17    C5      17.974790   18.259925   20.389361 C.3        1 MOL1        -0.0677
      18    H12     17.176303   17.744674   20.927598 H          1 MOL1         0.1026
      19    H13     17.542544   18.932995   19.645648 H          1 MOL1         0.1026
      20    H14     18.618338   17.529192   19.894752 H          1 MOL1         0.1026
@<TRIPOS>BOND
    1     1     2    1
    2     1     3    1
    3     1     4    1
    4     1     5    1
    5     5     6    1
    6     5     7    1
    7     5     8    1
    8     8     9    1
    9     8    10    1
   10     8    11    1
   11    11    12    1
   12    11    13    1
   13    11    14    1
   14    14    15    1
   15    14    16    1
   16    14    17    1
   17    17    18    1
   18    17    19    1
   19    17    20    1
@<TRIPOS>SUBSTRUCTURE
       1 MOL1            1 RESIDUE      1      MOL     
@<SCITEGIC>MOL_PROPERTY
VConf Rank
SciTegic.value.IntegerValue
239

@<SCITEGIC>MOL_PROPERTY
Conf_Id
SciTegic.value.IntegerValue
23

@<SCITEGIC>MOL_PROPERTY
Delta U+W
SciTegic.value.DoubleValue
0.896

@<SCITEGIC>MOL_PROPERTY
U+W
SciTegic.value.DoubleValue
16.234

@<SCITEGIC>MOL_PROPERTY
Grad RMS
SciTegic.value.DoubleValue
0.000000

@<SCITEGIC>MOL_PROPERTY
U
SciTegic.value.DoubleValue
70.374

@<SCITEGIC>MOL_PROPERTY
W
SciTegic.value.DoubleValue
-54.140

@<SCITEGIC>MOL_PROPERTY
W(PB)
SciTegic.value.DoubleValue
-56.046

@<SCITEGIC>MOL_PROPERTY
W(SA)
SciTegic.value.DoubleValue
1.907

@<SCITEGIC>MOL_PROPERTY
Valence
SciTegic.value.DoubleValue
1.257

@<SCITEGIC>MOL_PROPERTY
Coulomb
SciTegic.value.DoubleValue
69.240

@<SCITEGIC>MOL_PROPERTY
VdW
SciTegic.value.DoubleValue
-0.123

@<SCITEGIC>MOL_PROPERTY
VdW6
SciTegic.value.DoubleValue
-4.336

@<SCITEGIC>MOL_PROPERTY
VdW12
SciTegic.value.DoubleValue
4.213

@<SCITEGIC>MOL_PROPERTY
Bond
SciTegic.value.DoubleValue
0.128

@<SCITEGIC>MOL_PROPERTY
Angle
SciTegic.value.DoubleValue
0.603

@<SCITEGIC>MOL_PROPERTY
Pdih
SciTegic.value.DoubleValue
0.526

@<SCITEGIC>MOL_PROPERTY
Idih
SciTegic.value.DoubleValue
0.000

@<SCITEGIC>MOL_PROPERTY
Tether
SciTegic.value.DoubleValue
0.000

@<TRIPOS>MOLECULE
guest-s9_confgen4.mol2 : confsearch ligand conformer 240
          20          19           1
SMALL
USER_CHARGES
 
@<TRIPOS>ATOM
       1    C1      19.646614   17.558908   24.014075 C.3        1 MOL1        -0.2224
       2    H1      19.738742   16.478606   23.842233 H          1 MOL1         0.1052
       3    H2      19.420354   17.710106   25.077525 H          1 MOL1         0.1052
       4    H3      18.787517   17.925211   23.438074 H          1 MOL1         0.1052
       5    C2      20.948966   18.296419   23.626612 C.3        1 MOL1        -0.1209
       6    H4      21.758728   17.964034   24.291301 H          1 MOL1         0.1041
       7    H5      20.831995   19.373454   23.808060 H          1 MOL1         0.1041
       8    C3      21.374965   18.045785   22.158381 C.3        1 MOL1        -0.1274
       9    H6      22.317000   18.572757   21.956855 H          1 MOL1         0.1041
      10    H7      21.587624   16.977194   22.021789 H          1 MOL1         0.1041
      11    C4      20.320601   18.475121   21.116768 C.3        1 MOL1         0.0313
      12    H8      19.393592   17.920803   21.281545 H          1 MOL1         0.1015
      13    H9      20.684041   18.236638   20.113984 H          1 MOL1         0.1015
      14    N1      19.992016   19.955573   21.146747 N.4        1 MOL1        -0.4809
      15    H10     20.846793   20.512638   20.995310 H          1 MOL1         0.3726
      16    H11     19.651478   20.222082   22.082426 H          1 MOL1         0.3726
      17    C5      18.947934   20.278323   20.086441 C.3        1 MOL1        -0.0677
      18    H12     18.041907   19.702210   20.286364 H          1 MOL1         0.1026
      19    H13     18.720319   21.346041   20.120199 H          1 MOL1         0.1026
      20    H14     19.342285   20.017058   19.102067 H          1 MOL1         0.1026
@<TRIPOS>BOND
    1     1     2    1
    2     1     3    1
    3     1     4    1
    4     1     5    1
    5     5     6    1
    6     5     7    1
    7     5     8    1
    8     8     9    1
    9     8    10    1
   10     8    11    1
   11    11    12    1
   12    11    13    1
   13    11    14    1
   14    14    15    1
   15    14    16    1
   16    14    17    1
   17    17    18    1
   18    17    19    1
   19    17    20    1
@<TRIPOS>SUBSTRUCTURE
       1 MOL1            1 RESIDUE      1      MOL     
@<SCITEGIC>MOL_PROPERTY
VConf Rank
SciTegic.value.IntegerValue
240

@<SCITEGIC>MOL_PROPERTY
Conf_Id
SciTegic.value.IntegerValue
24

@<SCITEGIC>MOL_PROPERTY
Delta U+W
SciTegic.value.DoubleValue
0.792

@<SCITEGIC>MOL_PROPERTY
U+W
SciTegic.value.DoubleValue
16.130

@<SCITEGIC>MOL_PROPERTY
Grad RMS
SciTegic.value.DoubleValue
0.000000

@<SCITEGIC>MOL_PROPERTY
U
SciTegic.value.DoubleValue
70.374

@<SCITEGIC>MOL_PROPERTY
W
SciTegic.value.DoubleValue
-54.243

@<SCITEGIC>MOL_PROPERTY
W(PB)
SciTegic.value.DoubleValue
-56.130

@<SCITEGIC>MOL_PROPERTY
W(SA)
SciTegic.value.DoubleValue
1.887

@<SCITEGIC>MOL_PROPERTY
Valence
SciTegic.value.DoubleValue
1.257

@<SCITEGIC>MOL_PROPERTY
Coulomb
SciTegic.value.DoubleValue
69.240

@<SCITEGIC>MOL_PROPERTY
VdW
SciTegic.value.DoubleValue
-0.123

@<SCITEGIC>MOL_PROPERTY
VdW6
SciTegic.value.DoubleValue
-4.336

@<SCITEGIC>MOL_PROPERTY
VdW12
SciTegic.value.DoubleValue
4.213

@<SCITEGIC>MOL_PROPERTY
Bond
SciTegic.value.DoubleValue
0.128

@<SCITEGIC>MOL_PROPERTY
Angle
SciTegic.value.DoubleValue
0.603

@<SCITEGIC>MOL_PROPERTY
Pdih
SciTegic.value.DoubleValue
0.526

@<SCITEGIC>MOL_PROPERTY
Idih
SciTegic.value.DoubleValue
0.000

@<SCITEGIC>MOL_PROPERTY
Tether
SciTegic.value.DoubleValue
0.000

@<TRIPOS>MOLECULE
guest-s9_confgen4.mol2 : confsearch ligand conformer 241
          20          19           1
SMALL
USER_CHARGES
 
@<TRIPOS>ATOM
       1    C1      20.712052   17.281371   23.445657 C.3        1 MOL1        -0.2224
       2    H1      21.332146   16.755844   24.183578 H          1 MOL1         0.1052
       3    H2      20.441616   18.248883   23.884785 H          1 MOL1         0.1052
       4    H3      19.799180   16.689813   23.297711 H          1 MOL1         0.1052
       5    C2      21.489595   17.456149   22.121142 C.3        1 MOL1        -0.1209
       6    H4      21.919035   16.485387   21.836065 H          1 MOL1         0.1041
       7    H5      22.343083   18.129206   22.284407 H          1 MOL1         0.1041
       8    C3      20.634045   17.977777   20.938443 C.3        1 MOL1        -0.1274
       9    H6      21.269816   17.995100   20.043281 H          1 MOL1         0.1041
      10    H7      19.820338   17.274825   20.716083 H          1 MOL1         0.1041
      11    C4      20.064842   19.398234   21.139925 C.3        1 MOL1         0.0313
      12    H8      19.812917   19.823651   20.165195 H          1 MOL1         0.1015
      13    H9      20.821081   20.036829   21.603154 H          1 MOL1         0.1015
      14    N1      18.806131   19.453789   21.984649 N.4        1 MOL1        -0.4809
      15    H10     18.976541   19.014294   22.900304 H          1 MOL1         0.3726
      16    H11     18.059740   18.893097   21.545862 H          1 MOL1         0.3726
      17    C5      18.357948   20.898641   22.157700 C.3        1 MOL1        -0.0677
      18    H12     19.150109   21.464358   22.652891 H          1 MOL1         0.1026
      19    H13     18.153017   21.331574   21.176203 H          1 MOL1         0.1026
      20    H14     17.451855   20.922951   22.767105 H          1 MOL1         0.1026
@<TRIPOS>BOND
    1     1     2    1
    2     1     3    1
    3     1     4    1
    4     1     5    1
    5     5     6    1
    6     5     7    1
    7     5     8    1
    8     8     9    1
    9     8    10    1
   10     8    11    1
   11    11    12    1
   12    11    13    1
   13    11    14    1
   14    14    15    1
   15    14    16    1
   16    14    17    1
   17    17    18    1
   18    17    19    1
   19    17    20    1
@<TRIPOS>SUBSTRUCTURE
       1 MOL1            1 RESIDUE      1      MOL     
@<SCITEGIC>MOL_PROPERTY
VConf Rank
SciTegic.value.IntegerValue
241

@<SCITEGIC>MOL_PROPERTY
Conf_Id
SciTegic.value.IntegerValue
26

@<SCITEGIC>MOL_PROPERTY
Delta U+W
SciTegic.value.DoubleValue
2.888

@<SCITEGIC>MOL_PROPERTY
U+W
SciTegic.value.DoubleValue
18.226

@<SCITEGIC>MOL_PROPERTY
Grad RMS
SciTegic.value.DoubleValue
0.000000

@<SCITEGIC>MOL_PROPERTY
U
SciTegic.value.DoubleValue
72.042

@<SCITEGIC>MOL_PROPERTY
W
SciTegic.value.DoubleValue
-53.816

@<SCITEGIC>MOL_PROPERTY
W(PB)
SciTegic.value.DoubleValue
-55.689

@<SCITEGIC>MOL_PROPERTY
W(SA)
SciTegic.value.DoubleValue
1.873

@<SCITEGIC>MOL_PROPERTY
Valence
SciTegic.value.DoubleValue
2.428

@<SCITEGIC>MOL_PROPERTY
Coulomb
SciTegic.value.DoubleValue
69.829

@<SCITEGIC>MOL_PROPERTY
VdW
SciTegic.value.DoubleValue
-0.215

@<SCITEGIC>MOL_PROPERTY
VdW6
SciTegic.value.DoubleValue
-4.563

@<SCITEGIC>MOL_PROPERTY
VdW12
SciTegic.value.DoubleValue
4.348

@<SCITEGIC>MOL_PROPERTY
Bond
SciTegic.value.DoubleValue
0.137

@<SCITEGIC>MOL_PROPERTY
Angle
SciTegic.value.DoubleValue
0.936

@<SCITEGIC>MOL_PROPERTY
Pdih
SciTegic.value.DoubleValue
1.356

@<SCITEGIC>MOL_PROPERTY
Idih
SciTegic.value.DoubleValue
0.000

@<SCITEGIC>MOL_PROPERTY
Tether
SciTegic.value.DoubleValue
0.000

@<TRIPOS>MOLECULE
guest-s9_confgen4.mol2 : confsearch ligand conformer 242
          20          19           1
SMALL
USER_CHARGES
 
@<TRIPOS>ATOM
       1    C1      19.579223   18.964019   19.928727 C.3        1 MOL1        -0.2224
       2    H1      19.110939   18.753758   18.958305 H          1 MOL1         0.1052
       3    H2      20.372862   19.703716   19.760945 H          1 MOL1         0.1052
       4    H3      20.032903   18.028058   20.275429 H          1 MOL1         0.1052
       5    C2      18.524087   19.488582   20.929218 C.3        1 MOL1        -0.1209
       6    H4      17.798885   18.691832   21.146878 H          1 MOL1         0.1041
       7    H5      17.953515   20.294496   20.446500 H          1 MOL1         0.1041
       8    C3      19.112331   20.033725   22.255727 C.3        1 MOL1        -0.1274
       9    H6      19.782104   20.880896   22.057203 H          1 MOL1         0.1041
      10    H7      18.283635   20.438489   22.851752 H          1 MOL1         0.1041
      11    C4      19.838133   18.976333   23.114457 C.3        1 MOL1         0.0313
      12    H8      19.276215   18.039158   23.099152 H          1 MOL1         0.1015
      13    H9      19.884618   19.326772   24.148660 H          1 MOL1         0.1015
      14    N1      21.263163   18.689296   22.680981 N.4        1 MOL1        -0.4809
      15    H10     21.828413   19.550839   22.728316 H          1 MOL1         0.3726
      16    H11     21.279937   18.404707   21.691361 H          1 MOL1         0.3726
      17    C5      21.867388   17.604312   23.561965 C.3        1 MOL1        -0.0677
      18    H12     21.271957   16.693343   23.470510 H          1 MOL1         0.1026
      19    H13     22.892120   17.408553   23.238586 H          1 MOL1         0.1026
      20    H14     21.867519   17.942866   24.600304 H          1 MOL1         0.1026
@<TRIPOS>BOND
    1     1     2    1
    2     1     3    1
    3     1     4    1
    4     1     5    1
    5     5     6    1
    6     5     7    1
    7     5     8    1
    8     8     9    1
    9     8    10    1
   10     8    11    1
   11    11    12    1
   12    11    13    1
   13    11    14    1
   14    14    15    1
   15    14    16    1
   16    14    17    1
   17    17    18    1
   18    17    19    1
   19    17    20    1
@<TRIPOS>SUBSTRUCTURE
       1 MOL1            1 RESIDUE      1      MOL     
@<SCITEGIC>MOL_PROPERTY
VConf Rank
SciTegic.value.IntegerValue
242

@<SCITEGIC>MOL_PROPERTY
Conf_Id
SciTegic.value.IntegerValue
5

@<SCITEGIC>MOL_PROPERTY
Delta U+W
SciTegic.value.DoubleValue
2.950

@<SCITEGIC>MOL_PROPERTY
U+W
SciTegic.value.DoubleValue
18.289

@<SCITEGIC>MOL_PROPERTY
Grad RMS
SciTegic.value.DoubleValue
0.000000

@<SCITEGIC>MOL_PROPERTY
U
SciTegic.value.DoubleValue
72.042

@<SCITEGIC>MOL_PROPERTY
W
SciTegic.value.DoubleValue
-53.753

@<SCITEGIC>MOL_PROPERTY
W(PB)
SciTegic.value.DoubleValue
-55.644

@<SCITEGIC>MOL_PROPERTY
W(SA)
SciTegic.value.DoubleValue
1.891

@<SCITEGIC>MOL_PROPERTY
Valence
SciTegic.value.DoubleValue
2.428

@<SCITEGIC>MOL_PROPERTY
Coulomb
SciTegic.value.DoubleValue
69.829

@<SCITEGIC>MOL_PROPERTY
VdW
SciTegic.value.DoubleValue
-0.215

@<SCITEGIC>MOL_PROPERTY
VdW6
SciTegic.value.DoubleValue
-4.563

@<SCITEGIC>MOL_PROPERTY
VdW12
SciTegic.value.DoubleValue
4.348

@<SCITEGIC>MOL_PROPERTY
Bond
SciTegic.value.DoubleValue
0.137

@<SCITEGIC>MOL_PROPERTY
Angle
SciTegic.value.DoubleValue
0.936

@<SCITEGIC>MOL_PROPERTY
Pdih
SciTegic.value.DoubleValue
1.356

@<SCITEGIC>MOL_PROPERTY
Idih
SciTegic.value.DoubleValue
0.000

@<SCITEGIC>MOL_PROPERTY
Tether
SciTegic.value.DoubleValue
0.000

@<TRIPOS>MOLECULE
guest-s9_confgen4.mol2 : confsearch ligand conformer 243
          20          19           1
SMALL
USER_CHARGES
 
@<TRIPOS>ATOM
       1    C1      19.486783   16.700010   21.015083 C.3        1 MOL1        -0.2224
       2    H1      19.998870   15.853665   21.491029 H          1 MOL1         0.1052
       3    H2      18.649217   16.998396   21.657909 H          1 MOL1         0.1052
       4    H3      19.065158   16.344620   20.065927 H          1 MOL1         0.1052
       5    C2      20.463335   17.873050   20.769187 C.3        1 MOL1        -0.1209
       6    H4      19.930151   18.705239   20.289667 H          1 MOL1         0.1041
       7    H5      21.232382   17.553104   20.052183 H          1 MOL1         0.1041
       8    C3      21.160637   18.363841   22.062319 C.3        1 MOL1        -0.1274
       9    H6      21.766025   17.547532   22.477867 H          1 MOL1         0.1041
      10    H7      21.867070   19.166103   21.813163 H          1 MOL1         0.1041
      11    C4      20.184463   18.857081   23.154716 C.3        1 MOL1         0.0313
      12    H8      20.751077   19.186993   24.029087 H          1 MOL1         0.1015
      13    H9      19.547552   18.024923   23.464454 H          1 MOL1         0.1015
      14    N1      19.270329   19.999200   22.738489 N.4        1 MOL1        -0.4809
      15    H10     18.566696   20.165199   23.474968 H          1 MOL1         0.3726
      16    H11     18.726875   19.730134   21.905203 H          1 MOL1         0.3726
      17    C5      20.062401   21.276069   22.479936 C.3        1 MOL1        -0.0677
      18    H12     20.760926   21.108309   21.657799 H          1 MOL1         0.1026
      19    H13     19.370806   22.078937   22.215348 H          1 MOL1         0.1026
      20    H14     20.612233   21.547025   23.383762 H          1 MOL1         0.1026
@<TRIPOS>BOND
    1     1     2    1
    2     1     3    1
    3     1     4    1
    4     1     5    1
    5     5     6    1
    6     5     7    1
    7     5     8    1
    8     8     9    1
    9     8    10    1
   10     8    11    1
   11    11    12    1
   12    11    13    1
   13    11    14    1
   14    14    15    1
   15    14    16    1
   16    14    17    1
   17    17    18    1
   18    17    19    1
   19    17    20    1
@<TRIPOS>SUBSTRUCTURE
       1 MOL1            1 RESIDUE      1      MOL     
@<SCITEGIC>MOL_PROPERTY
VConf Rank
SciTegic.value.IntegerValue
243

@<SCITEGIC>MOL_PROPERTY
Conf_Id
SciTegic.value.IntegerValue
52

@<SCITEGIC>MOL_PROPERTY
Delta U+W
SciTegic.value.DoubleValue
0.784

@<SCITEGIC>MOL_PROPERTY
U+W
SciTegic.value.DoubleValue
16.122

@<SCITEGIC>MOL_PROPERTY
Grad RMS
SciTegic.value.DoubleValue
0.000000

@<SCITEGIC>MOL_PROPERTY
U
SciTegic.value.DoubleValue
70.777

@<SCITEGIC>MOL_PROPERTY
W
SciTegic.value.DoubleValue
-54.655

@<SCITEGIC>MOL_PROPERTY
W(PB)
SciTegic.value.DoubleValue
-56.491

@<SCITEGIC>MOL_PROPERTY
W(SA)
SciTegic.value.DoubleValue
1.836

@<SCITEGIC>MOL_PROPERTY
Valence
SciTegic.value.DoubleValue
1.529

@<SCITEGIC>MOL_PROPERTY
Coulomb
SciTegic.value.DoubleValue
69.166

@<SCITEGIC>MOL_PROPERTY
VdW
SciTegic.value.DoubleValue
0.082

@<SCITEGIC>MOL_PROPERTY
VdW6
SciTegic.value.DoubleValue
-5.166

@<SCITEGIC>MOL_PROPERTY
VdW12
SciTegic.value.DoubleValue
5.248

@<SCITEGIC>MOL_PROPERTY
Bond
SciTegic.value.DoubleValue
0.171

@<SCITEGIC>MOL_PROPERTY
Angle
SciTegic.value.DoubleValue
0.752

@<SCITEGIC>MOL_PROPERTY
Pdih
SciTegic.value.DoubleValue
0.605

@<SCITEGIC>MOL_PROPERTY
Idih
SciTegic.value.DoubleValue
0.000

@<SCITEGIC>MOL_PROPERTY
Tether
SciTegic.value.DoubleValue
0.000

@<TRIPOS>MOLECULE
guest-s9_confgen4.mol2 : confsearch ligand conformer 244
          20          19           1
SMALL
USER_CHARGES
 
@<TRIPOS>ATOM
       1    C1      20.580038   20.328373   23.487186 C.3        1 MOL1        -0.2224
       2    H1      20.754075   21.182147   24.154981 H          1 MOL1         0.1052
       3    H2      19.820134   19.698747   23.963914 H          1 MOL1         0.1052
       4    H3      21.518403   19.762555   23.419141 H          1 MOL1         0.1052
       5    C2      20.119358   20.821875   22.096649 C.3        1 MOL1        -0.1209
       6    H4      20.797085   21.622606   21.768713 H          1 MOL1         0.1041
       7    H5      19.124786   21.282011   22.181022 H          1 MOL1         0.1041
       8    C3      20.097287   19.725162   21.001405 C.3        1 MOL1        -0.1274
       9    H6      19.848878   20.208148   20.047150 H          1 MOL1         0.1041
      10    H7      21.100793   19.302181   20.867376 H          1 MOL1         0.1041
      11    C4      19.062764   18.600333   21.238206 C.3        1 MOL1         0.0313
      12    H8      18.878170   18.077480   20.296415 H          1 MOL1         0.1015
      13    H9      18.119008   19.046345   21.562038 H          1 MOL1         0.1015
      14    N1      19.455768   17.545697   22.260851 N.4        1 MOL1        -0.4809
      15    H10     18.636454   16.959367   22.484680 H          1 MOL1         0.3726
      16    H11     19.717405   17.995421   23.149185 H          1 MOL1         0.3726
      17    C5      20.591980   16.670297   21.743725 C.3        1 MOL1        -0.0677
      18    H12     20.282749   16.194512   20.810641 H          1 MOL1         0.1026
      19    H13     21.475545   17.287229   21.569587 H          1 MOL1         0.1026
      20    H14     20.821037   15.904802   22.488348 H          1 MOL1         0.1026
@<TRIPOS>BOND
    1     1     2    1
    2     1     3    1
    3     1     4    1
    4     1     5    1
    5     5     6    1
    6     5     7    1
    7     5     8    1
    8     8     9    1
    9     8    10    1
   10     8    11    1
   11    11    12    1
   12    11    13    1
   13    11    14    1
   14    14    15    1
   15    14    16    1
   16    14    17    1
   17    17    18    1
   18    17    19    1
   19    17    20    1
@<TRIPOS>SUBSTRUCTURE
       1 MOL1            1 RESIDUE      1      MOL     
@<SCITEGIC>MOL_PROPERTY
VConf Rank
SciTegic.value.IntegerValue
244

@<SCITEGIC>MOL_PROPERTY
Conf_Id
SciTegic.value.IntegerValue
55

@<SCITEGIC>MOL_PROPERTY
Delta U+W
SciTegic.value.DoubleValue
2.745

@<SCITEGIC>MOL_PROPERTY
U+W
SciTegic.value.DoubleValue
18.083

@<SCITEGIC>MOL_PROPERTY
Grad RMS
SciTegic.value.DoubleValue
0.000000

@<SCITEGIC>MOL_PROPERTY
U
SciTegic.value.DoubleValue
72.490

@<SCITEGIC>MOL_PROPERTY
W
SciTegic.value.DoubleValue
-54.407

@<SCITEGIC>MOL_PROPERTY
W(PB)
SciTegic.value.DoubleValue
-56.269

@<SCITEGIC>MOL_PROPERTY
W(SA)
SciTegic.value.DoubleValue
1.861

@<SCITEGIC>MOL_PROPERTY
Valence
SciTegic.value.DoubleValue
2.738

@<SCITEGIC>MOL_PROPERTY
Coulomb
SciTegic.value.DoubleValue
69.795

@<SCITEGIC>MOL_PROPERTY
VdW
SciTegic.value.DoubleValue
-0.043

@<SCITEGIC>MOL_PROPERTY
VdW6
SciTegic.value.DoubleValue
-5.333

@<SCITEGIC>MOL_PROPERTY
VdW12
SciTegic.value.DoubleValue
5.290

@<SCITEGIC>MOL_PROPERTY
Bond
SciTegic.value.DoubleValue
0.182

@<SCITEGIC>MOL_PROPERTY
Angle
SciTegic.value.DoubleValue
1.135

@<SCITEGIC>MOL_PROPERTY
Pdih
SciTegic.value.DoubleValue
1.422

@<SCITEGIC>MOL_PROPERTY
Idih
SciTegic.value.DoubleValue
0.000

@<SCITEGIC>MOL_PROPERTY
Tether
SciTegic.value.DoubleValue
0.000

@<TRIPOS>MOLECULE
guest-s9_confgen4.mol2 : confsearch ligand conformer 245
          20          19           1
SMALL
USER_CHARGES
 
@<TRIPOS>ATOM
       1    C1      20.373613   16.768882   22.127901 C.3        1 MOL1        -0.2224
       2    H1      20.422854   15.678946   22.249490 H          1 MOL1         0.1052
       3    H2      20.925166   17.026962   21.214396 H          1 MOL1         0.1052
       4    H3      20.887645   17.210632   22.989168 H          1 MOL1         0.1052
       5    C2      18.901215   17.232085   22.045080 C.3        1 MOL1        -0.1209
       6    H4      18.408369   17.064682   23.013118 H          1 MOL1         0.1041
       7    H5      18.374790   16.592977   21.322278 H          1 MOL1         0.1041
       8    C3      18.716521   18.709063   21.612347 C.3        1 MOL1        -0.1274
       9    H6      19.152739   18.870951   20.618663 H          1 MOL1         0.1041
      10    H7      17.640236   18.893577   21.497669 H          1 MOL1         0.1041
      11    C4      19.263201   19.747588   22.619403 C.3        1 MOL1         0.0313
      12    H8      18.973404   19.450578   23.630477 H          1 MOL1         0.1015
      13    H9      18.808948   20.720364   22.414990 H          1 MOL1         0.1015
      14    N1      20.770202   19.950783   22.606514 N.4        1 MOL1        -0.4809
      15    H10     21.249407   19.046344   22.716935 H          1 MOL1         0.3726
      16    H11     21.050599   20.508413   23.428454 H          1 MOL1         0.3726
      17    C5      21.223127   20.649307   21.329156 C.3        1 MOL1        -0.0677
      18    H12     20.980588   20.024248   20.467707 H          1 MOL1         0.1026
      19    H13     20.711906   21.610651   21.244840 H          1 MOL1         0.1026
      20    H14     22.302624   20.809621   21.372696 H          1 MOL1         0.1026
@<TRIPOS>BOND
    1     1     2    1
    2     1     3    1
    3     1     4    1
    4     1     5    1
    5     5     6    1
    6     5     7    1
    7     5     8    1
    8     8     9    1
    9     8    10    1
   10     8    11    1
   11    11    12    1
   12    11    13    1
   13    11    14    1
   14    14    15    1
   15    14    16    1
   16    14    17    1
   17    17    18    1
   18    17    19    1
   19    17    20    1
@<TRIPOS>SUBSTRUCTURE
       1 MOL1            1 RESIDUE      1      MOL     
@<SCITEGIC>MOL_PROPERTY
VConf Rank
SciTegic.value.IntegerValue
245

@<SCITEGIC>MOL_PROPERTY
Conf_Id
SciTegic.value.IntegerValue
76

@<SCITEGIC>MOL_PROPERTY
Delta U+W
SciTegic.value.DoubleValue
2.799

@<SCITEGIC>MOL_PROPERTY
U+W
SciTegic.value.DoubleValue
18.137

@<SCITEGIC>MOL_PROPERTY
Grad RMS
SciTegic.value.DoubleValue
0.000000

@<SCITEGIC>MOL_PROPERTY
U
SciTegic.value.DoubleValue
72.490

@<SCITEGIC>MOL_PROPERTY
W
SciTegic.value.DoubleValue
-54.353

@<SCITEGIC>MOL_PROPERTY
W(PB)
SciTegic.value.DoubleValue
-56.201

@<SCITEGIC>MOL_PROPERTY
W(SA)
SciTegic.value.DoubleValue
1.848

@<SCITEGIC>MOL_PROPERTY
Valence
SciTegic.value.DoubleValue
2.738

@<SCITEGIC>MOL_PROPERTY
Coulomb
SciTegic.value.DoubleValue
69.795

@<SCITEGIC>MOL_PROPERTY
VdW
SciTegic.value.DoubleValue
-0.043

@<SCITEGIC>MOL_PROPERTY
VdW6
SciTegic.value.DoubleValue
-5.334

@<SCITEGIC>MOL_PROPERTY
VdW12
SciTegic.value.DoubleValue
5.290

@<SCITEGIC>MOL_PROPERTY
Bond
SciTegic.value.DoubleValue
0.182

@<SCITEGIC>MOL_PROPERTY
Angle
SciTegic.value.DoubleValue
1.135

@<SCITEGIC>MOL_PROPERTY
Pdih
SciTegic.value.DoubleValue
1.421

@<SCITEGIC>MOL_PROPERTY
Idih
SciTegic.value.DoubleValue
0.000

@<SCITEGIC>MOL_PROPERTY
Tether
SciTegic.value.DoubleValue
0.000

@<TRIPOS>MOLECULE
guest-s9_confgen4.mol2 : confsearch ligand conformer 246
          20          19           1
SMALL
USER_CHARGES
 
@<TRIPOS>ATOM
       1    C1      19.635163   18.767177   24.091396 C.3        1 MOL1        -0.2224
       2    H1      19.336864   17.848239   23.572145 H          1 MOL1         0.1052
       3    H2      20.464263   18.522605   24.767953 H          1 MOL1         0.1052
       4    H3      18.785832   19.090912   24.706765 H          1 MOL1         0.1052
       5    C2      20.040303   19.880032   23.097425 C.3        1 MOL1        -0.1209
       6    H4      20.259612   20.796727   23.662586 H          1 MOL1         0.1041
       7    H5      19.194514   20.128822   22.443586 H          1 MOL1         0.1041
       8    C3      21.281848   19.513227   22.248035 C.3        1 MOL1        -0.1274
       9    H6      21.540282   20.359422   21.597978 H          1 MOL1         0.1041
      10    H7      22.139340   19.378038   22.920402 H          1 MOL1         0.1041
      11    C4      21.140222   18.237673   21.384562 C.3        1 MOL1         0.0313
      12    H8      20.873594   17.380198   22.006826 H          1 MOL1         0.1015
      13    H9      22.114687   18.028682   20.935778 H          1 MOL1         0.1015
      14    N1      20.146398   18.327985   20.236041 N.4        1 MOL1        -0.4809
      15    H10     20.470504   17.730849   19.459392 H          1 MOL1         0.3726
      16    H11     20.134053   19.282163   19.846124 H          1 MOL1         0.3726
      17    C5      18.751139   17.882562   20.660420 C.3        1 MOL1        -0.0677
      18    H12     18.082185   17.935617   19.798670 H          1 MOL1         0.1026
      19    H13     18.799012   16.853970   21.024149 H          1 MOL1         0.1026
      20    H14     18.380158   18.535193   21.451285 H          1 MOL1         0.1026
@<TRIPOS>BOND
    1     1     2    1
    2     1     3    1
    3     1     4    1
    4     1     5    1
    5     5     6    1
    6     5     7    1
    7     5     8    1
    8     8     9    1
    9     8    10    1
   10     8    11    1
   11    11    12    1
   12    11    13    1
   13    11    14    1
   14    14    15    1
   15    14    16    1
   16    14    17    1
   17    17    18    1
   18    17    19    1
   19    17    20    1
@<TRIPOS>SUBSTRUCTURE
       1 MOL1            1 RESIDUE      1      MOL     
@<SCITEGIC>MOL_PROPERTY
VConf Rank
SciTegic.value.IntegerValue
246

@<SCITEGIC>MOL_PROPERTY
Conf_Id
SciTegic.value.IntegerValue
60

@<SCITEGIC>MOL_PROPERTY
Delta U+W
SciTegic.value.DoubleValue
1.788

@<SCITEGIC>MOL_PROPERTY
U+W
SciTegic.value.DoubleValue
17.127

@<SCITEGIC>MOL_PROPERTY
Grad RMS
SciTegic.value.DoubleValue
0.000000

@<SCITEGIC>MOL_PROPERTY
U
SciTegic.value.DoubleValue
72.122

@<SCITEGIC>MOL_PROPERTY
W
SciTegic.value.DoubleValue
-54.995

@<SCITEGIC>MOL_PROPERTY
W(PB)
SciTegic.value.DoubleValue
-56.810

@<SCITEGIC>MOL_PROPERTY
W(SA)
SciTegic.value.DoubleValue
1.815

@<SCITEGIC>MOL_PROPERTY
Valence
SciTegic.value.DoubleValue
3.197

@<SCITEGIC>MOL_PROPERTY
Coulomb
SciTegic.value.DoubleValue
69.115

@<SCITEGIC>MOL_PROPERTY
VdW
SciTegic.value.DoubleValue
-0.190

@<SCITEGIC>MOL_PROPERTY
VdW6
SciTegic.value.DoubleValue
-5.585

@<SCITEGIC>MOL_PROPERTY
VdW12
SciTegic.value.DoubleValue
5.395

@<SCITEGIC>MOL_PROPERTY
Bond
SciTegic.value.DoubleValue
0.177

@<SCITEGIC>MOL_PROPERTY
Angle
SciTegic.value.DoubleValue
1.207

@<SCITEGIC>MOL_PROPERTY
Pdih
SciTegic.value.DoubleValue
1.813

@<SCITEGIC>MOL_PROPERTY
Idih
SciTegic.value.DoubleValue
0.000

@<SCITEGIC>MOL_PROPERTY
Tether
SciTegic.value.DoubleValue
0.000

@<TRIPOS>MOLECULE
guest-s9_confgen4.mol2 : confsearch ligand conformer 247
          20          19           1
SMALL
USER_CHARGES
 
@<TRIPOS>ATOM
       1    C1      20.918120   20.046029   23.551821 C.3        1 MOL1        -0.2224
       2    H1      21.914449   20.277641   23.949978 H          1 MOL1         0.1052
       3    H2      20.202063   20.731792   24.022927 H          1 MOL1         0.1052
       4    H3      20.666426   19.024643   23.862420 H          1 MOL1         0.1052
       5    C2      20.900293   20.196760   22.013145 C.3        1 MOL1        -0.1209
       6    H4      21.636765   19.521492   21.558848 H          1 MOL1         0.1041
       7    H5      21.227916   21.213101   21.753250 H          1 MOL1         0.1041
       8    C3      19.501356   19.954465   21.395312 C.3        1 MOL1        -0.1274
       9    H6      18.809954   20.713748   21.784025 H          1 MOL1         0.1041
      10    H7      19.549590   20.119106   20.310889 H          1 MOL1         0.1041
      11    C4      18.889414   18.560227   21.667901 C.3        1 MOL1         0.0313
      12    H8      17.865741   18.564474   21.284830 H          1 MOL1         0.1015
      13    H9      18.838278   18.366460   22.741868 H          1 MOL1         0.1015
      14    N1      19.595634   17.389968   20.999554 N.4        1 MOL1        -0.4809
      15    H10     19.974927   17.674771   20.084311 H          1 MOL1         0.3726
      16    H11     18.903615   16.656512   20.780575 H          1 MOL1         0.3726
      17    C5      20.682151   16.801372   21.893020 C.3        1 MOL1        -0.0677
      18    H12     20.233227   16.471121   22.832164 H          1 MOL1         0.1026
      19    H13     21.138442   15.948739   21.385337 H          1 MOL1         0.1026
      20    H14     21.442918   17.556084   22.094674 H          1 MOL1         0.1026
@<TRIPOS>BOND
    1     1     2    1
    2     1     3    1
    3     1     4    1
    4     1     5    1
    5     5     6    1
    6     5     7    1
    7     5     8    1
    8     8     9    1
    9     8    10    1
   10     8    11    1
   11    11    12    1
   12    11    13    1
   13    11    14    1
   14    14    15    1
   15    14    16    1
   16    14    17    1
   17    17    18    1
   18    17    19    1
   19    17    20    1
@<TRIPOS>SUBSTRUCTURE
       1 MOL1            1 RESIDUE      1      MOL     
@<SCITEGIC>MOL_PROPERTY
VConf Rank
SciTegic.value.IntegerValue
247

@<SCITEGIC>MOL_PROPERTY
Conf_Id
SciTegic.value.IntegerValue
54

@<SCITEGIC>MOL_PROPERTY
Delta U+W
SciTegic.value.DoubleValue
1.880

@<SCITEGIC>MOL_PROPERTY
U+W
SciTegic.value.DoubleValue
17.218

@<SCITEGIC>MOL_PROPERTY
Grad RMS
SciTegic.value.DoubleValue
0.000000

@<SCITEGIC>MOL_PROPERTY
U
SciTegic.value.DoubleValue
72.122

@<SCITEGIC>MOL_PROPERTY
W
SciTegic.value.DoubleValue
-54.903

@<SCITEGIC>MOL_PROPERTY
W(PB)
SciTegic.value.DoubleValue
-56.724

@<SCITEGIC>MOL_PROPERTY
W(SA)
SciTegic.value.DoubleValue
1.821

@<SCITEGIC>MOL_PROPERTY
Valence
SciTegic.value.DoubleValue
3.197

@<SCITEGIC>MOL_PROPERTY
Coulomb
SciTegic.value.DoubleValue
69.115

@<SCITEGIC>MOL_PROPERTY
VdW
SciTegic.value.DoubleValue
-0.190

@<SCITEGIC>MOL_PROPERTY
VdW6
SciTegic.value.DoubleValue
-5.585

@<SCITEGIC>MOL_PROPERTY
VdW12
SciTegic.value.DoubleValue
5.395

@<SCITEGIC>MOL_PROPERTY
Bond
SciTegic.value.DoubleValue
0.177

@<SCITEGIC>MOL_PROPERTY
Angle
SciTegic.value.DoubleValue
1.207

@<SCITEGIC>MOL_PROPERTY
Pdih
SciTegic.value.DoubleValue
1.813

@<SCITEGIC>MOL_PROPERTY
Idih
SciTegic.value.DoubleValue
0.000

@<SCITEGIC>MOL_PROPERTY
Tether
SciTegic.value.DoubleValue
0.000

@<TRIPOS>MOLECULE
guest-s9_confgen4.mol2 : confsearch ligand conformer 248
          20          19           1
SMALL
USER_CHARGES
 
@<TRIPOS>ATOM
       1    C1      18.142422   18.916225   24.588077 C.3        1 MOL1        -0.2224
       2    H1      18.376779   17.913250   24.967938 H          1 MOL1         0.1052
       3    H2      18.008623   19.579986   25.452105 H          1 MOL1         0.1052
       4    H3      17.185169   18.863776   24.053202 H          1 MOL1         0.1052
       5    C2      19.266286   19.439030   23.667297 C.3        1 MOL1        -0.1209
       6    H4      20.202016   19.513365   24.239341 H          1 MOL1         0.1041
       7    H5      19.019741   20.456363   23.331733 H          1 MOL1         0.1041
       8    C3      19.477144   18.523434   22.441335 C.3        1 MOL1        -0.1274
       9    H6      19.726830   17.508199   22.777373 H          1 MOL1         0.1041
      10    H7      18.542866   18.452375   21.868585 H          1 MOL1         0.1041
      11    C4      20.599149   19.051473   21.528175 C.3        1 MOL1         0.0313
      12    H8      21.534228   19.108774   22.091053 H          1 MOL1         0.1015
      13    H9      20.346391   20.055884   21.179234 H          1 MOL1         0.1015
      14    N1      20.842305   18.183056   20.309392 N.4        1 MOL1        -0.4809
      15    H10     19.977254   18.097808   19.753895 H          1 MOL1         0.3726
      16    H11     21.077083   17.220939   20.598122 H          1 MOL1         0.3726
      17    C5      21.962671   18.775030   19.464689 C.3        1 MOL1        -0.0677
      18    H12     22.876071   18.823796   20.061454 H          1 MOL1         0.1026
      19    H13     22.127171   18.140261   18.591181 H          1 MOL1         0.1026
      20    H14     21.678116   19.778827   19.141842 H          1 MOL1         0.1026
@<TRIPOS>BOND
    1     1     2    1
    2     1     3    1
    3     1     4    1
    4     1     5    1
    5     5     6    1
    6     5     7    1
    7     5     8    1
    8     8     9    1
    9     8    10    1
   10     8    11    1
   11    11    12    1
   12    11    13    1
   13    11    14    1
   14    14    15    1
   15    14    16    1
   16    14    17    1
   17    17    18    1
   18    17    19    1
   19    17    20    1
@<TRIPOS>SUBSTRUCTURE
       1 MOL1            1 RESIDUE      1      MOL     
@<SCITEGIC>MOL_PROPERTY
VConf Rank
SciTegic.value.IntegerValue
248

@<SCITEGIC>MOL_PROPERTY
Conf_Id
SciTegic.value.IntegerValue
67

@<SCITEGIC>MOL_PROPERTY
Delta U+W
SciTegic.value.DoubleValue
0.000

@<SCITEGIC>MOL_PROPERTY
U+W
SciTegic.value.DoubleValue
15.338

@<SCITEGIC>MOL_PROPERTY
Grad RMS
SciTegic.value.DoubleValue
0.000000

@<SCITEGIC>MOL_PROPERTY
U
SciTegic.value.DoubleValue
69.277

@<SCITEGIC>MOL_PROPERTY
W
SciTegic.value.DoubleValue
-53.939

@<SCITEGIC>MOL_PROPERTY
W(PB)
SciTegic.value.DoubleValue
-55.889

@<SCITEGIC>MOL_PROPERTY
W(SA)
SciTegic.value.DoubleValue
1.950

@<SCITEGIC>MOL_PROPERTY
Valence
SciTegic.value.DoubleValue
0.846

@<SCITEGIC>MOL_PROPERTY
Coulomb
SciTegic.value.DoubleValue
68.557

@<SCITEGIC>MOL_PROPERTY
VdW
SciTegic.value.DoubleValue
-0.127

@<SCITEGIC>MOL_PROPERTY
VdW6
SciTegic.value.DoubleValue
-3.008

@<SCITEGIC>MOL_PROPERTY
VdW12
SciTegic.value.DoubleValue
2.882

@<SCITEGIC>MOL_PROPERTY
Bond
SciTegic.value.DoubleValue
0.088

@<SCITEGIC>MOL_PROPERTY
Angle
SciTegic.value.DoubleValue
0.332

@<SCITEGIC>MOL_PROPERTY
Pdih
SciTegic.value.DoubleValue
0.426

@<SCITEGIC>MOL_PROPERTY
Idih
SciTegic.value.DoubleValue
0.000

@<SCITEGIC>MOL_PROPERTY
Tether
SciTegic.value.DoubleValue
0.000

@<TRIPOS>MOLECULE
guest-s9_confgen4.mol2 : confsearch ligand conformer 249
          20          19           1
SMALL
USER_CHARGES
 
@<TRIPOS>ATOM
       1    C1      18.862188   18.227494   24.657407 C.3        1 MOL1        -0.2224
       2    H1      19.186762   19.200025   25.049841 H          1 MOL1         0.1052
       3    H2      17.903737   17.977194   25.130420 H          1 MOL1         0.1052
       4    H3      19.596683   17.472269   24.966145 H          1 MOL1         0.1052
       5    C2      18.718108   18.267712   23.120561 C.3        1 MOL1        -0.1209
       6    H4      17.952866   19.007080   22.844760 H          1 MOL1         0.1041
       7    H5      18.358896   17.292689   22.761943 H          1 MOL1         0.1041
       8    C3      20.053181   18.617741   22.427200 C.3        1 MOL1        -0.1274
       9    H6      20.407898   19.591674   22.788288 H          1 MOL1         0.1041
      10    H7      20.815910   17.876377   22.699682 H          1 MOL1         0.1041
      11    C4      19.899444   18.654006   20.892591 C.3        1 MOL1         0.0313
      12    H8      19.176950   19.423776   20.610032 H          1 MOL1         0.1015
      13    H9      19.515753   17.688963   20.551782 H          1 MOL1         0.1015
      14    N1      21.189067   18.920816   20.133349 N.4        1 MOL1        -0.4809
      15    H10     21.033991   18.766074   19.124740 H          1 MOL1         0.3726
      16    H11     21.909007   18.231436   20.398337 H          1 MOL1         0.3726
      17    C5      21.686884   20.343036   20.367833 C.3        1 MOL1        -0.0677
      18    H12     21.912011   20.478542   21.427476 H          1 MOL1         0.1026
      19    H13     22.591144   20.507261   19.777651 H          1 MOL1         0.1026
      20    H14     20.913456   21.049981   20.060026 H          1 MOL1         0.1026
@<TRIPOS>BOND
    1     1     2    1
    2     1     3    1
    3     1     4    1
    4     1     5    1
    5     5     6    1
    6     5     7    1
    7     5     8    1
    8     8     9    1
    9     8    10    1
   10     8    11    1
   11    11    12    1
   12    11    13    1
   13    11    14    1
   14    14    15    1
   15    14    16    1
   16    14    17    1
   17    17    18    1
   18    17    19    1
   19    17    20    1
@<TRIPOS>SUBSTRUCTURE
       1 MOL1            1 RESIDUE      1      MOL     
@<SCITEGIC>MOL_PROPERTY
VConf Rank
SciTegic.value.IntegerValue
249

@<SCITEGIC>MOL_PROPERTY
Conf_Id
SciTegic.value.IntegerValue
37

@<SCITEGIC>MOL_PROPERTY
Delta U+W
SciTegic.value.DoubleValue
-0.021

@<SCITEGIC>MOL_PROPERTY
U+W
SciTegic.value.DoubleValue
15.318

@<SCITEGIC>MOL_PROPERTY
Grad RMS
SciTegic.value.DoubleValue
0.000000

@<SCITEGIC>MOL_PROPERTY
U
SciTegic.value.DoubleValue
69.657

@<SCITEGIC>MOL_PROPERTY
W
SciTegic.value.DoubleValue
-54.340

@<SCITEGIC>MOL_PROPERTY
W(PB)
SciTegic.value.DoubleValue
-56.238

@<SCITEGIC>MOL_PROPERTY
W(SA)
SciTegic.value.DoubleValue
1.899

@<SCITEGIC>MOL_PROPERTY
Valence
SciTegic.value.DoubleValue
1.137

@<SCITEGIC>MOL_PROPERTY
Coulomb
SciTegic.value.DoubleValue
68.383

@<SCITEGIC>MOL_PROPERTY
VdW
SciTegic.value.DoubleValue
0.138

@<SCITEGIC>MOL_PROPERTY
VdW6
SciTegic.value.DoubleValue
-3.703

@<SCITEGIC>MOL_PROPERTY
VdW12
SciTegic.value.DoubleValue
3.841

@<SCITEGIC>MOL_PROPERTY
Bond
SciTegic.value.DoubleValue
0.125

@<SCITEGIC>MOL_PROPERTY
Angle
SciTegic.value.DoubleValue
0.468

@<SCITEGIC>MOL_PROPERTY
Pdih
SciTegic.value.DoubleValue
0.543

@<SCITEGIC>MOL_PROPERTY
Idih
SciTegic.value.DoubleValue
0.000

@<SCITEGIC>MOL_PROPERTY
Tether
SciTegic.value.DoubleValue
0.000

@<TRIPOS>MOLECULE
guest-s9_confgen4.mol2 : confsearch ligand conformer 250
          20          19           1
SMALL
USER_CHARGES
 
@<TRIPOS>ATOM
       1    C1      19.062864   21.228064   23.473043 C.3        1 MOL1        -0.2224
       2    H1      19.356372   21.909950   24.281686 H          1 MOL1         0.1052
       3    H2      19.053622   21.801298   22.536835 H          1 MOL1         0.1052
       4    H3      18.038884   20.887906   23.675344 H          1 MOL1         0.1052
       5    C2      20.038360   20.034369   23.384898 C.3        1 MOL1        -0.1209
       6    H4      20.051829   19.502142   24.346595 H          1 MOL1         0.1041
       7    H5      21.058343   20.407980   23.216443 H          1 MOL1         0.1041
       8    C3      19.649333   19.056635   22.254243 C.3        1 MOL1        -0.1274
       9    H6      18.632049   18.680552   22.425464 H          1 MOL1         0.1041
      10    H7      19.637164   19.592298   21.296291 H          1 MOL1         0.1041
      11    C4      20.628511   17.867129   22.175174 C.3        1 MOL1         0.0313
      12    H8      20.653549   17.363425   23.144882 H          1 MOL1         0.1015
      13    H9      21.636068   18.229668   21.956592 H          1 MOL1         0.1015
      14    N1      20.270656   16.820938   21.132014 N.4        1 MOL1        -0.4809
      15    H10     19.310738   16.476488   21.285917 H          1 MOL1         0.3726
      16    H11     20.871814   15.991058   21.255277 H          1 MOL1         0.3726
      17    C5      20.430329   17.369820   19.718243 C.3        1 MOL1        -0.0677
      18    H12     21.459343   17.707644   19.577843 H          1 MOL1         0.1026
      19    H13     20.201455   16.579561   18.999856 H          1 MOL1         0.1026
      20    H14     19.743109   18.205739   19.573827 H          1 MOL1         0.1026
@<TRIPOS>BOND
    1     1     2    1
    2     1     3    1
    3     1     4    1
    4     1     5    1
    5     5     6    1
    6     5     7    1
    7     5     8    1
    8     8     9    1
    9     8    10    1
   10     8    11    1
   11    11    12    1
   12    11    13    1
   13    11    14    1
   14    14    15    1
   15    14    16    1
   16    14    17    1
   17    17    18    1
   18    17    19    1
   19    17    20    1
@<TRIPOS>SUBSTRUCTURE
       1 MOL1            1 RESIDUE      1      MOL     
@<SCITEGIC>MOL_PROPERTY
VConf Rank
SciTegic.value.IntegerValue
250

@<SCITEGIC>MOL_PROPERTY
Conf_Id
SciTegic.value.IntegerValue
2

@<SCITEGIC>MOL_PROPERTY
Delta U+W
SciTegic.value.DoubleValue
0.069

@<SCITEGIC>MOL_PROPERTY
U+W
SciTegic.value.DoubleValue
15.407

@<SCITEGIC>MOL_PROPERTY
Grad RMS
SciTegic.value.DoubleValue
0.000000

@<SCITEGIC>MOL_PROPERTY
U
SciTegic.value.DoubleValue
69.657

@<SCITEGIC>MOL_PROPERTY
W
SciTegic.value.DoubleValue
-54.250

@<SCITEGIC>MOL_PROPERTY
W(PB)
SciTegic.value.DoubleValue
-56.176

@<SCITEGIC>MOL_PROPERTY
W(SA)
SciTegic.value.DoubleValue
1.926

@<SCITEGIC>MOL_PROPERTY
Valence
SciTegic.value.DoubleValue
1.137

@<SCITEGIC>MOL_PROPERTY
Coulomb
SciTegic.value.DoubleValue
68.383

@<SCITEGIC>MOL_PROPERTY
VdW
SciTegic.value.DoubleValue
0.138

@<SCITEGIC>MOL_PROPERTY
VdW6
SciTegic.value.DoubleValue
-3.703

@<SCITEGIC>MOL_PROPERTY
VdW12
SciTegic.value.DoubleValue
3.841

@<SCITEGIC>MOL_PROPERTY
Bond
SciTegic.value.DoubleValue
0.125

@<SCITEGIC>MOL_PROPERTY
Angle
SciTegic.value.DoubleValue
0.468

@<SCITEGIC>MOL_PROPERTY
Pdih
SciTegic.value.DoubleValue
0.543

@<SCITEGIC>MOL_PROPERTY
Idih
SciTegic.value.DoubleValue
0.000

@<SCITEGIC>MOL_PROPERTY
Tether
SciTegic.value.DoubleValue
0.000

@<TRIPOS>MOLECULE
guest-s9_confgen4.mol2 : confsearch ligand conformer 251
          20          19           1
SMALL
USER_CHARGES
 
@<TRIPOS>ATOM
       1    C1      22.405445   18.207281   20.957320 C.3        1 MOL1        -0.2224
       2    H1      21.816416   17.292504   21.099764 H          1 MOL1         0.1052
       3    H2      22.181321   18.607736   19.960072 H          1 MOL1         0.1052
       4    H3      23.465722   17.923467   20.973225 H          1 MOL1         0.1052
       5    C2      22.107561   19.252582   22.056820 C.3        1 MOL1        -0.1209
       6    H4      22.783833   20.109561   21.929314 H          1 MOL1         0.1041
       7    H5      22.334130   18.824942   23.043733 H          1 MOL1         0.1041
       8    C3      20.645976   19.757827   22.030817 C.3        1 MOL1        -0.1274
       9    H6      20.527996   20.548912   22.783229 H          1 MOL1         0.1041
      10    H7      20.432294   20.216122   21.056050 H          1 MOL1         0.1041
      11    C4      19.625356   18.637534   22.311037 C.3        1 MOL1         0.0313
      12    H8      19.836704   18.183165   23.282250 H          1 MOL1         0.1015
      13    H9      19.708041   17.863654   21.544200 H          1 MOL1         0.1015
      14    N1      18.188869   19.122041   22.326227 N.4        1 MOL1        -0.4809
      15    H10     17.953332   19.567538   21.426146 H          1 MOL1         0.3726
      16    H11     18.069134   19.860905   23.036049 H          1 MOL1         0.3726
      17    C5      17.250302   17.955946   22.606237 C.3        1 MOL1        -0.0677
      18    H12     17.495450   17.521961   23.578020 H          1 MOL1         0.1026
      19    H13     16.220060   18.318626   22.614453 H          1 MOL1         0.1026
      20    H14     17.369039   17.202592   21.824470 H          1 MOL1         0.1026
@<TRIPOS>BOND
    1     1     2    1
    2     1     3    1
    3     1     4    1
    4     1     5    1
    5     5     6    1
    6     5     7    1
    7     5     8    1
    8     8     9    1
    9     8    10    1
   10     8    11    1
   11    11    12    1
   12    11    13    1
   13    11    14    1
   14    14    15    1
   15    14    16    1
   16    14    17    1
   17    17    18    1
   18    17    19    1
   19    17    20    1
@<TRIPOS>SUBSTRUCTURE
       1 MOL1            1 RESIDUE      1      MOL     
@<SCITEGIC>MOL_PROPERTY
VConf Rank
SciTegic.value.IntegerValue
251

@<SCITEGIC>MOL_PROPERTY
Conf_Id
SciTegic.value.IntegerValue
34

@<SCITEGIC>MOL_PROPERTY
Delta U+W
SciTegic.value.DoubleValue
0.276

@<SCITEGIC>MOL_PROPERTY
U+W
SciTegic.value.DoubleValue
15.615

@<SCITEGIC>MOL_PROPERTY
Grad RMS
SciTegic.value.DoubleValue
0.000000

@<SCITEGIC>MOL_PROPERTY
U
SciTegic.value.DoubleValue
69.798

@<SCITEGIC>MOL_PROPERTY
W
SciTegic.value.DoubleValue
-54.184

@<SCITEGIC>MOL_PROPERTY
W(PB)
SciTegic.value.DoubleValue
-56.116

@<SCITEGIC>MOL_PROPERTY
W(SA)
SciTegic.value.DoubleValue
1.933

@<SCITEGIC>MOL_PROPERTY
Valence
SciTegic.value.DoubleValue
1.134

@<SCITEGIC>MOL_PROPERTY
Coulomb
SciTegic.value.DoubleValue
68.735

@<SCITEGIC>MOL_PROPERTY
VdW
SciTegic.value.DoubleValue
-0.070

@<SCITEGIC>MOL_PROPERTY
VdW6
SciTegic.value.DoubleValue
-3.565

@<SCITEGIC>MOL_PROPERTY
VdW12
SciTegic.value.DoubleValue
3.494

@<SCITEGIC>MOL_PROPERTY
Bond
SciTegic.value.DoubleValue
0.108

@<SCITEGIC>MOL_PROPERTY
Angle
SciTegic.value.DoubleValue
0.456

@<SCITEGIC>MOL_PROPERTY
Pdih
SciTegic.value.DoubleValue
0.569

@<SCITEGIC>MOL_PROPERTY
Idih
SciTegic.value.DoubleValue
0.000

@<SCITEGIC>MOL_PROPERTY
Tether
SciTegic.value.DoubleValue
0.000

@<TRIPOS>MOLECULE
guest-s9_confgen4.mol2 : confsearch ligand conformer 252
          20          19           1
SMALL
USER_CHARGES
 
@<TRIPOS>ATOM
       1    C1      23.062516   18.682048   21.945064 C.3        1 MOL1        -0.2224
       2    H1      23.429745   19.360728   21.164228 H          1 MOL1         0.1052
       3    H2      23.714458   18.794062   22.821106 H          1 MOL1         0.1052
       4    H3      23.165767   17.652337   21.578709 H          1 MOL1         0.1052
       5    C2      21.596257   18.997269   22.312142 C.3        1 MOL1        -0.1209
       6    H4      21.531362   20.022044   22.704506 H          1 MOL1         0.1041
       7    H5      21.277293   18.327035   23.121799 H          1 MOL1         0.1041
       8    C3      20.655818   18.845964   21.093181 C.3        1 MOL1        -0.1274
       9    H6      21.010179   19.492394   20.279277 H          1 MOL1         0.1041
      10    H7      20.694193   17.816466   20.713027 H          1 MOL1         0.1041
      11    C4      19.195518   19.223163   21.413780 C.3        1 MOL1         0.0313
      12    H8      18.602317   19.182543   20.496675 H          1 MOL1         0.1015
      13    H9      19.156198   20.245160   21.799020 H          1 MOL1         0.1015
      14    N1      18.530025   18.313346   22.429279 N.4        1 MOL1        -0.4809
      15    H10     19.057904   18.322551   23.314555 H          1 MOL1         0.3726
      16    H11     18.558074   17.335346   22.102515 H          1 MOL1         0.3726
      17    C5      17.092228   18.757851   22.661645 C.3        1 MOL1        -0.0677
      18    H12     17.088830   19.783062   23.038103 H          1 MOL1         0.1026
      19    H13     16.543577   18.708708   21.718590 H          1 MOL1         0.1026
      20    H14     16.625589   18.095217   23.393871 H          1 MOL1         0.1026
@<TRIPOS>BOND
    1     1     2    1
    2     1     3    1
    3     1     4    1
    4     1     5    1
    5     5     6    1
    6     5     7    1
    7     5     8    1
    8     8     9    1
    9     8    10    1
   10     8    11    1
   11    11    12    1
   12    11    13    1
   13    11    14    1
   14    14    15    1
   15    14    16    1
   16    14    17    1
   17    17    18    1
   18    17    19    1
   19    17    20    1
@<TRIPOS>SUBSTRUCTURE
       1 MOL1            1 RESIDUE      1      MOL     
@<SCITEGIC>MOL_PROPERTY
VConf Rank
SciTegic.value.IntegerValue
252

@<SCITEGIC>MOL_PROPERTY
Conf_Id
SciTegic.value.IntegerValue
50

@<SCITEGIC>MOL_PROPERTY
Delta U+W
SciTegic.value.DoubleValue
0.319

@<SCITEGIC>MOL_PROPERTY
U+W
SciTegic.value.DoubleValue
15.657

@<SCITEGIC>MOL_PROPERTY
Grad RMS
SciTegic.value.DoubleValue
0.000000

@<SCITEGIC>MOL_PROPERTY
U
SciTegic.value.DoubleValue
69.962

@<SCITEGIC>MOL_PROPERTY
W
SciTegic.value.DoubleValue
-54.305

@<SCITEGIC>MOL_PROPERTY
W(PB)
SciTegic.value.DoubleValue
-56.223

@<SCITEGIC>MOL_PROPERTY
W(SA)
SciTegic.value.DoubleValue
1.918

@<SCITEGIC>MOL_PROPERTY
Valence
SciTegic.value.DoubleValue
0.982

@<SCITEGIC>MOL_PROPERTY
Coulomb
SciTegic.value.DoubleValue
69.058

@<SCITEGIC>MOL_PROPERTY
VdW
SciTegic.value.DoubleValue
-0.078

@<SCITEGIC>MOL_PROPERTY
VdW6
SciTegic.value.DoubleValue
-3.548

@<SCITEGIC>MOL_PROPERTY
VdW12
SciTegic.value.DoubleValue
3.471

@<SCITEGIC>MOL_PROPERTY
Bond
SciTegic.value.DoubleValue
0.105

@<SCITEGIC>MOL_PROPERTY
Angle
SciTegic.value.DoubleValue
0.408

@<SCITEGIC>MOL_PROPERTY
Pdih
SciTegic.value.DoubleValue
0.469

@<SCITEGIC>MOL_PROPERTY
Idih
SciTegic.value.DoubleValue
0.000

@<SCITEGIC>MOL_PROPERTY
Tether
SciTegic.value.DoubleValue
0.000

@<TRIPOS>MOLECULE
guest-s9_confgen4.mol2 : confsearch ligand conformer 253
          20          19           1
SMALL
USER_CHARGES
 
@<TRIPOS>ATOM
       1    C1      22.747181   19.158743   23.403760 C.3        1 MOL1        -0.2224
       2    H1      23.113571   18.518740   24.216890 H          1 MOL1         0.1052
       3    H2      23.538920   19.225494   22.646223 H          1 MOL1         0.1052
       4    H3      22.582375   20.163237   23.814873 H          1 MOL1         0.1052
       5    C2      21.446896   18.584409   22.800914 C.3        1 MOL1        -0.1209
       6    H4      20.692766   18.494848   23.594489 H          1 MOL1         0.1041
       7    H5      21.636586   17.568133   22.427384 H          1 MOL1         0.1041
       8    C3      20.909023   19.469507   21.651792 C.3        1 MOL1        -0.1274
       9    H6      20.690494   20.479124   22.024317 H          1 MOL1         0.1041
      10    H7      21.687518   19.581543   20.885452 H          1 MOL1         0.1041
      11    C4      19.649346   18.882444   20.983874 C.3        1 MOL1         0.0313
      12    H8      19.862971   17.874761   20.618667 H          1 MOL1         0.1015
      13    H9      19.372184   19.502666   20.127647 H          1 MOL1         0.1015
      14    N1      18.442865   18.803045   21.900383 N.4        1 MOL1        -0.4809
      15    H10     18.217725   19.738020   22.273454 H          1 MOL1         0.3726
      16    H11     18.660060   18.223311   22.724512 H          1 MOL1         0.3726
      17    C5      17.252500   18.228953   21.143885 C.3        1 MOL1        -0.0677
      18    H12     16.392034   18.177237   21.814640 H          1 MOL1         0.1026
      19    H13     17.019376   18.875975   20.295475 H          1 MOL1         0.1026
      20    H14     17.501891   17.227300   20.787110 H          1 MOL1         0.1026
@<TRIPOS>BOND
    1     1     2    1
    2     1     3    1
    3     1     4    1
    4     1     5    1
    5     5     6    1
    6     5     7    1
    7     5     8    1
    8     8     9    1
    9     8    10    1
   10     8    11    1
   11    11    12    1
   12    11    13    1
   13    11    14    1
   14    14    15    1
   15    14    16    1
   16    14    17    1
   17    17    18    1
   18    17    19    1
   19    17    20    1
@<TRIPOS>SUBSTRUCTURE
       1 MOL1            1 RESIDUE      1      MOL     
@<SCITEGIC>MOL_PROPERTY
VConf Rank
SciTegic.value.IntegerValue
253

@<SCITEGIC>MOL_PROPERTY
Conf_Id
SciTegic.value.IntegerValue
35

@<SCITEGIC>MOL_PROPERTY
Delta U+W
SciTegic.value.DoubleValue
0.360

@<SCITEGIC>MOL_PROPERTY
U+W
SciTegic.value.DoubleValue
15.698

@<SCITEGIC>MOL_PROPERTY
Grad RMS
SciTegic.value.DoubleValue
0.000000

@<SCITEGIC>MOL_PROPERTY
U
SciTegic.value.DoubleValue
69.962

@<SCITEGIC>MOL_PROPERTY
W
SciTegic.value.DoubleValue
-54.264

@<SCITEGIC>MOL_PROPERTY
W(PB)
SciTegic.value.DoubleValue
-56.166

@<SCITEGIC>MOL_PROPERTY
W(SA)
SciTegic.value.DoubleValue
1.902

@<SCITEGIC>MOL_PROPERTY
Valence
SciTegic.value.DoubleValue
0.982

@<SCITEGIC>MOL_PROPERTY
Coulomb
SciTegic.value.DoubleValue
69.058

@<SCITEGIC>MOL_PROPERTY
VdW
SciTegic.value.DoubleValue
-0.078

@<SCITEGIC>MOL_PROPERTY
VdW6
SciTegic.value.DoubleValue
-3.548

@<SCITEGIC>MOL_PROPERTY
VdW12
SciTegic.value.DoubleValue
3.471

@<SCITEGIC>MOL_PROPERTY
Bond
SciTegic.value.DoubleValue
0.105

@<SCITEGIC>MOL_PROPERTY
Angle
SciTegic.value.DoubleValue
0.408

@<SCITEGIC>MOL_PROPERTY
Pdih
SciTegic.value.DoubleValue
0.469

@<SCITEGIC>MOL_PROPERTY
Idih
SciTegic.value.DoubleValue
0.000

@<SCITEGIC>MOL_PROPERTY
Tether
SciTegic.value.DoubleValue
0.000

@<TRIPOS>MOLECULE
guest-s9_confgen4.mol2 : confsearch ligand conformer 254
          20          19           1
SMALL
USER_CHARGES
 
@<TRIPOS>ATOM
       1    C1      17.857904   18.371826   20.705718 C.3        1 MOL1        -0.2224
       2    H1      17.789705   19.411329   21.050467 H          1 MOL1         0.1052
       3    H2      17.150862   18.251943   19.874638 H          1 MOL1         0.1052
       4    H3      17.527841   17.717322   21.522894 H          1 MOL1         0.1052
       5    C2      19.292619   18.016076   20.252680 C.3        1 MOL1        -0.1209
       6    H4      19.600149   18.687970   19.438954 H          1 MOL1         0.1041
       7    H5      19.294445   17.000748   19.831856 H          1 MOL1         0.1041
       8    C3      20.323518   18.084996   21.403493 C.3        1 MOL1        -0.1274
       9    H6      20.031206   17.384556   22.196366 H          1 MOL1         0.1041
      10    H7      21.299400   17.747879   21.029965 H          1 MOL1         0.1041
      11    C4      20.469023   19.508041   21.984214 C.3        1 MOL1         0.0313
      12    H8      19.520634   19.830587   22.420423 H          1 MOL1         0.1015
      13    H9      20.720997   20.197303   21.174278 H          1 MOL1         0.1015
      14    N1      21.543758   19.649330   23.049756 N.4        1 MOL1        -0.4809
      15    H10     21.688651   20.648525   23.263818 H          1 MOL1         0.3726
      16    H11     22.452205   19.322757   22.686723 H          1 MOL1         0.3726
      17    C5      21.165158   18.897365   24.321203 C.3        1 MOL1        -0.0677
      18    H12     21.078109   17.831808   24.100071 H          1 MOL1         0.1026
      19    H13     21.941706   19.052903   25.073363 H          1 MOL1         0.1026
      20    H14     20.211373   19.277614   24.693227 H          1 MOL1         0.1026
@<TRIPOS>BOND
    1     1     2    1
    2     1     3    1
    3     1     4    1
    4     1     5    1
    5     5     6    1
    6     5     7    1
    7     5     8    1
    8     8     9    1
    9     8    10    1
   10     8    11    1
   11    11    12    1
   12    11    13    1
   13    11    14    1
   14    14    15    1
   15    14    16    1
   16    14    17    1
   17    17    18    1
   18    17    19    1
   19    17    20    1
@<TRIPOS>SUBSTRUCTURE
       1 MOL1            1 RESIDUE      1      MOL     
@<SCITEGIC>MOL_PROPERTY
VConf Rank
SciTegic.value.IntegerValue
254

@<SCITEGIC>MOL_PROPERTY
Conf_Id
SciTegic.value.IntegerValue
33

@<SCITEGIC>MOL_PROPERTY
Delta U+W
SciTegic.value.DoubleValue
0.372

@<SCITEGIC>MOL_PROPERTY
U+W
SciTegic.value.DoubleValue
15.711

@<SCITEGIC>MOL_PROPERTY
Grad RMS
SciTegic.value.DoubleValue
0.000000

@<SCITEGIC>MOL_PROPERTY
U
SciTegic.value.DoubleValue
70.163

@<SCITEGIC>MOL_PROPERTY
W
SciTegic.value.DoubleValue
-54.452

@<SCITEGIC>MOL_PROPERTY
W(PB)
SciTegic.value.DoubleValue
-56.363

@<SCITEGIC>MOL_PROPERTY
W(SA)
SciTegic.value.DoubleValue
1.911

@<SCITEGIC>MOL_PROPERTY
Valence
SciTegic.value.DoubleValue
1.420

@<SCITEGIC>MOL_PROPERTY
Coulomb
SciTegic.value.DoubleValue
68.566

@<SCITEGIC>MOL_PROPERTY
VdW
SciTegic.value.DoubleValue
0.177

@<SCITEGIC>MOL_PROPERTY
VdW6
SciTegic.value.DoubleValue
-4.267

@<SCITEGIC>MOL_PROPERTY
VdW12
SciTegic.value.DoubleValue
4.445

@<SCITEGIC>MOL_PROPERTY
Bond
SciTegic.value.DoubleValue
0.146

@<SCITEGIC>MOL_PROPERTY
Angle
SciTegic.value.DoubleValue
0.581

@<SCITEGIC>MOL_PROPERTY
Pdih
SciTegic.value.DoubleValue
0.693

@<SCITEGIC>MOL_PROPERTY
Idih
SciTegic.value.DoubleValue
0.000

@<SCITEGIC>MOL_PROPERTY
Tether
SciTegic.value.DoubleValue
0.000

@<TRIPOS>MOLECULE
guest-s9_confgen4.mol2 : confsearch ligand conformer 255
          20          19           1
SMALL
USER_CHARGES
 
@<TRIPOS>ATOM
       1    C1      21.145969   16.654805   21.064289 C.3        1 MOL1        -0.2224
       2    H1      21.293441   15.592898   20.828539 H          1 MOL1         0.1052
       3    H2      20.664990   17.122533   20.195981 H          1 MOL1         0.1052
       4    H3      22.136703   17.109569   21.193638 H          1 MOL1         0.1052
       5    C2      20.289995   16.812808   22.342004 C.3        1 MOL1        -0.1209
       6    H4      20.762666   16.253716   23.161750 H          1 MOL1         0.1041
       7    H5      19.303424   16.354507   22.184513 H          1 MOL1         0.1041
       8    C3      20.116814   18.287706   22.773936 C.3        1 MOL1        -0.1274
       9    H6      19.567561   18.319861   23.724096 H          1 MOL1         0.1041
      10    H7      21.103317   18.728938   22.965862 H          1 MOL1         0.1041
      11    C4      19.358721   19.127611   21.723547 C.3        1 MOL1         0.0313
      12    H8      18.396772   18.651852   21.516482 H          1 MOL1         0.1015
      13    H9      19.928041   19.159716   20.791561 H          1 MOL1         0.1015
      14    N1      19.073987   20.559994   22.144983 N.4        1 MOL1        -0.4809
      15    H10     18.564415   20.574268   23.041560 H          1 MOL1         0.3726
      16    H11     18.429545   20.997603   21.467931 H          1 MOL1         0.3726
      17    C5      20.359041   21.375706   22.237815 C.3        1 MOL1        -0.0677
      18    H12     20.110708   22.404989   22.505898 H          1 MOL1         0.1026
      19    H13     21.007763   20.944682   23.002842 H          1 MOL1         0.1026
      20    H14     20.865708   21.359629   21.270484 H          1 MOL1         0.1026
@<TRIPOS>BOND
    1     1     2    1
    2     1     3    1
    3     1     4    1
    4     1     5    1
    5     5     6    1
    6     5     7    1
    7     5     8    1
    8     8     9    1
    9     8    10    1
   10     8    11    1
   11    11    12    1
   12    11    13    1
   13    11    14    1
   14    14    15    1
   15    14    16    1
   16    14    17    1
   17    17    18    1
   18    17    19    1
   19    17    20    1
@<TRIPOS>SUBSTRUCTURE
       1 MOL1            1 RESIDUE      1      MOL     
@<SCITEGIC>MOL_PROPERTY
VConf Rank
SciTegic.value.IntegerValue
255

@<SCITEGIC>MOL_PROPERTY
Conf_Id
SciTegic.value.IntegerValue
53

@<SCITEGIC>MOL_PROPERTY
Delta U+W
SciTegic.value.DoubleValue
0.379

@<SCITEGIC>MOL_PROPERTY
U+W
SciTegic.value.DoubleValue
15.717

@<SCITEGIC>MOL_PROPERTY
Grad RMS
SciTegic.value.DoubleValue
0.000000

@<SCITEGIC>MOL_PROPERTY
U
SciTegic.value.DoubleValue
70.163

@<SCITEGIC>MOL_PROPERTY
W
SciTegic.value.DoubleValue
-54.446

@<SCITEGIC>MOL_PROPERTY
W(PB)
SciTegic.value.DoubleValue
-56.322

@<SCITEGIC>MOL_PROPERTY
W(SA)
SciTegic.value.DoubleValue
1.876

@<SCITEGIC>MOL_PROPERTY
Valence
SciTegic.value.DoubleValue
1.420

@<SCITEGIC>MOL_PROPERTY
Coulomb
SciTegic.value.DoubleValue
68.566

@<SCITEGIC>MOL_PROPERTY
VdW
SciTegic.value.DoubleValue
0.177

@<SCITEGIC>MOL_PROPERTY
VdW6
SciTegic.value.DoubleValue
-4.267

@<SCITEGIC>MOL_PROPERTY
VdW12
SciTegic.value.DoubleValue
4.445

@<SCITEGIC>MOL_PROPERTY
Bond
SciTegic.value.DoubleValue
0.146

@<SCITEGIC>MOL_PROPERTY
Angle
SciTegic.value.DoubleValue
0.581

@<SCITEGIC>MOL_PROPERTY
Pdih
SciTegic.value.DoubleValue
0.693

@<SCITEGIC>MOL_PROPERTY
Idih
SciTegic.value.DoubleValue
0.000

@<SCITEGIC>MOL_PROPERTY
Tether
SciTegic.value.DoubleValue
0.000

@<TRIPOS>MOLECULE
guest-s9_confgen4.mol2 : confsearch ligand conformer 256
          20          19           1
SMALL
USER_CHARGES
 
@<TRIPOS>ATOM
       1    C1      18.611407   18.191839   24.247743 C.3        1 MOL1        -0.2224
       2    H1      18.803783   17.396088   24.979025 H          1 MOL1         0.1052
       3    H2      18.297199   19.086927   24.800225 H          1 MOL1         0.1052
       4    H3      17.774777   17.870614   23.613686 H          1 MOL1         0.1052
       5    C2      19.872868   18.473285   23.403074 C.3        1 MOL1        -0.1209
       6    H4      20.179080   17.547791   22.896762 H          1 MOL1         0.1041
       7    H5      20.699793   18.761120   24.067549 H          1 MOL1         0.1041
       8    C3      19.627344   19.590795   22.362106 C.3        1 MOL1        -0.1274
       9    H6      18.820364   19.296798   21.678667 H          1 MOL1         0.1041
      10    H7      19.279817   20.496194   22.877010 H          1 MOL1         0.1041
      11    C4      20.894847   19.948418   21.554515 C.3        1 MOL1         0.0313
      12    H8      21.669185   20.293701   22.244303 H          1 MOL1         0.1015
      13    H9      20.669717   20.767738   20.867110 H          1 MOL1         0.1015
      14    N1      21.488994   18.811760   20.736207 N.4        1 MOL1        -0.4809
      15    H10     21.714271   18.013230   21.347461 H          1 MOL1         0.3726
      16    H11     22.395532   19.108027   20.341697 H          1 MOL1         0.3726
      17    C5      20.549179   18.386567   19.613311 C.3        1 MOL1        -0.0677
      18    H12     20.343867   19.246093   18.971658 H          1 MOL1         0.1026
      19    H13     21.024825   17.596154   19.028554 H          1 MOL1         0.1026
      20    H14     19.617203   18.013965   20.042965 H          1 MOL1         0.1026
@<TRIPOS>BOND
    1     1     2    1
    2     1     3    1
    3     1     4    1
    4     1     5    1
    5     5     6    1
    6     5     7    1
    7     5     8    1
    8     8     9    1
    9     8    10    1
   10     8    11    1
   11    11    12    1
   12    11    13    1
   13    11    14    1
   14    14    15    1
   15    14    16    1
   16    14    17    1
   17    17    18    1
   18    17    19    1
   19    17    20    1
@<TRIPOS>SUBSTRUCTURE
       1 MOL1            1 RESIDUE      1      MOL     
@<SCITEGIC>MOL_PROPERTY
VConf Rank
SciTegic.value.IntegerValue
256

@<SCITEGIC>MOL_PROPERTY
Conf_Id
SciTegic.value.IntegerValue
49

@<SCITEGIC>MOL_PROPERTY
Delta U+W
SciTegic.value.DoubleValue
0.268

@<SCITEGIC>MOL_PROPERTY
U+W
SciTegic.value.DoubleValue
15.607

@<SCITEGIC>MOL_PROPERTY
Grad RMS
SciTegic.value.DoubleValue
0.000000

@<SCITEGIC>MOL_PROPERTY
U
SciTegic.value.DoubleValue
70.298

@<SCITEGIC>MOL_PROPERTY
W
SciTegic.value.DoubleValue
-54.692

@<SCITEGIC>MOL_PROPERTY
W(PB)
SciTegic.value.DoubleValue
-56.576

@<SCITEGIC>MOL_PROPERTY
W(SA)
SciTegic.value.DoubleValue
1.885

@<SCITEGIC>MOL_PROPERTY
Valence
SciTegic.value.DoubleValue
1.245

@<SCITEGIC>MOL_PROPERTY
Coulomb
SciTegic.value.DoubleValue
68.933

@<SCITEGIC>MOL_PROPERTY
VdW
SciTegic.value.DoubleValue
0.120

@<SCITEGIC>MOL_PROPERTY
VdW6
SciTegic.value.DoubleValue
-4.430

@<SCITEGIC>MOL_PROPERTY
VdW12
SciTegic.value.DoubleValue
4.550

@<SCITEGIC>MOL_PROPERTY
Bond
SciTegic.value.DoubleValue
0.148

@<SCITEGIC>MOL_PROPERTY
Angle
SciTegic.value.DoubleValue
0.587

@<SCITEGIC>MOL_PROPERTY
Pdih
SciTegic.value.DoubleValue
0.509

@<SCITEGIC>MOL_PROPERTY
Idih
SciTegic.value.DoubleValue
0.000

@<SCITEGIC>MOL_PROPERTY
Tether
SciTegic.value.DoubleValue
0.000

@<TRIPOS>MOLECULE
guest-s9_confgen4.mol2 : confsearch ligand conformer 257
          20          19           1
SMALL
USER_CHARGES
 
@<TRIPOS>ATOM
       1    C1      21.649267   20.909166   21.272156 C.3        1 MOL1        -0.2224
       2    H1      21.477226   21.592844   22.113677 H          1 MOL1         0.1052
       3    H2      22.708858   20.622131   21.276355 H          1 MOL1         0.1052
       4    H3      21.455193   21.462647   20.344259 H          1 MOL1         0.1052
       5    C2      20.735517   19.668145   21.368364 C.3        1 MOL1        -0.1209
       6    H4      20.910096   19.017750   20.499745 H          1 MOL1         0.1041
       7    H5      19.688378   19.994953   21.320978 H          1 MOL1         0.1041
       8    C3      20.981428   18.875675   22.673408 C.3        1 MOL1        -0.1274
       9    H6      22.053759   18.656998   22.763093 H          1 MOL1         0.1041
      10    H7      20.720714   19.497289   23.540114 H          1 MOL1         0.1041
      11    C4      20.214818   17.535995   22.753393 C.3        1 MOL1         0.0313
      12    H8      20.510336   17.033683   23.678107 H          1 MOL1         0.1015
      13    H9      20.495622   16.887055   21.920131 H          1 MOL1         0.1015
      14    N1      18.698175   17.646748   22.781486 N.4        1 MOL1        -0.4809
      15    H10     18.409320   18.509512   23.266296 H          1 MOL1         0.3726
      16    H11     18.311610   16.880346   23.354377 H          1 MOL1         0.3726
      17    C5      18.107395   17.570221   21.377289 C.3        1 MOL1        -0.0677
      18    H12     17.018876   17.630143   21.444316 H          1 MOL1         0.1026
      19    H13     18.482402   18.396957   20.772982 H          1 MOL1         0.1026
      20    H14     18.394246   16.620970   20.919767 H          1 MOL1         0.1026
@<TRIPOS>BOND
    1     1     2    1
    2     1     3    1
    3     1     4    1
    4     1     5    1
    5     5     6    1
    6     5     7    1
    7     5     8    1
    8     8     9    1
    9     8    10    1
   10     8    11    1
   11    11    12    1
   12    11    13    1
   13    11    14    1
   14    14    15    1
   15    14    16    1
   16    14    17    1
   17    17    18    1
   18    17    19    1
   19    17    20    1
@<TRIPOS>SUBSTRUCTURE
       1 MOL1            1 RESIDUE      1      MOL     
@<SCITEGIC>MOL_PROPERTY
VConf Rank
SciTegic.value.IntegerValue
257

@<SCITEGIC>MOL_PROPERTY
Conf_Id
SciTegic.value.IntegerValue
65

@<SCITEGIC>MOL_PROPERTY
Delta U+W
SciTegic.value.DoubleValue
1.775

@<SCITEGIC>MOL_PROPERTY
U+W
SciTegic.value.DoubleValue
17.114

@<SCITEGIC>MOL_PROPERTY
Grad RMS
SciTegic.value.DoubleValue
0.000000

@<SCITEGIC>MOL_PROPERTY
U
SciTegic.value.DoubleValue
71.726

@<SCITEGIC>MOL_PROPERTY
W
SciTegic.value.DoubleValue
-54.613

@<SCITEGIC>MOL_PROPERTY
W(PB)
SciTegic.value.DoubleValue
-56.495

@<SCITEGIC>MOL_PROPERTY
W(SA)
SciTegic.value.DoubleValue
1.883

@<SCITEGIC>MOL_PROPERTY
Valence
SciTegic.value.DoubleValue
2.885

@<SCITEGIC>MOL_PROPERTY
Coulomb
SciTegic.value.DoubleValue
68.822

@<SCITEGIC>MOL_PROPERTY
VdW
SciTegic.value.DoubleValue
0.019

@<SCITEGIC>MOL_PROPERTY
VdW6
SciTegic.value.DoubleValue
-4.600

@<SCITEGIC>MOL_PROPERTY
VdW12
SciTegic.value.DoubleValue
4.619

@<SCITEGIC>MOL_PROPERTY
Bond
SciTegic.value.DoubleValue
0.152

@<SCITEGIC>MOL_PROPERTY
Angle
SciTegic.value.DoubleValue
0.862

@<SCITEGIC>MOL_PROPERTY
Pdih
SciTegic.value.DoubleValue
1.871

@<SCITEGIC>MOL_PROPERTY
Idih
SciTegic.value.DoubleValue
0.000

@<SCITEGIC>MOL_PROPERTY
Tether
SciTegic.value.DoubleValue
0.000

@<TRIPOS>MOLECULE
guest-s9_confgen4.mol2 : confsearch ligand conformer 258
          20          19           1
SMALL
USER_CHARGES
 
@<TRIPOS>ATOM
       1    C1      18.975191   17.273911   23.522486 C.3        1 MOL1        -0.2224
       2    H1      20.022527   17.513429   23.745470 H          1 MOL1         0.1052
       3    H2      18.426589   17.272983   24.473282 H          1 MOL1         0.1052
       4    H3      18.936225   16.256095   23.113090 H          1 MOL1         0.1052
       5    C2      18.354305   18.292668   22.539223 C.3        1 MOL1        -0.1209
       6    H4      18.404444   19.301354   22.971250 H          1 MOL1         0.1041
       7    H5      17.285124   18.067665   22.419927 H          1 MOL1         0.1041
       8    C3      19.025782   18.276089   21.143214 C.3        1 MOL1        -0.1274
       9    H6      18.876261   17.290577   20.682590 H          1 MOL1         0.1041
      10    H7      18.522403   18.999035   20.487695 H          1 MOL1         0.1041
      11    C4      20.537796   18.582768   21.170185 C.3        1 MOL1         0.0313
      12    H8      20.938201   18.520445   20.155132 H          1 MOL1         0.1015
      13    H9      21.053075   17.839761   21.783532 H          1 MOL1         0.1015
      14    N1      20.878250   19.956679   21.715218 N.4        1 MOL1        -0.4809
      15    H10     20.509388   20.057383   22.672448 H          1 MOL1         0.3726
      16    H11     20.406493   20.686515   21.159625 H          1 MOL1         0.3726
      17    C5      22.386739   20.163407   21.699622 C.3        1 MOL1        -0.0677
      18    H12     22.750141   20.083414   20.672829 H          1 MOL1         0.1026
      19    H13     22.617200   21.154981   22.095399 H          1 MOL1         0.1026
      20    H14     22.861089   19.399957   22.320021 H          1 MOL1         0.1026
@<TRIPOS>BOND
    1     1     2    1
    2     1     3    1
    3     1     4    1
    4     1     5    1
    5     5     6    1
    6     5     7    1
    7     5     8    1
    8     8     9    1
    9     8    10    1
   10     8    11    1
   11    11    12    1
   12    11    13    1
   13    11    14    1
   14    14    15    1
   15    14    16    1
   16    14    17    1
   17    17    18    1
   18    17    19    1
   19    17    20    1
@<TRIPOS>SUBSTRUCTURE
       1 MOL1            1 RESIDUE      1      MOL     
@<SCITEGIC>MOL_PROPERTY
VConf Rank
SciTegic.value.IntegerValue
258

@<SCITEGIC>MOL_PROPERTY
Conf_Id
SciTegic.value.IntegerValue
23

@<SCITEGIC>MOL_PROPERTY
Delta U+W
SciTegic.value.DoubleValue
0.896

@<SCITEGIC>MOL_PROPERTY
U+W
SciTegic.value.DoubleValue
16.234

@<SCITEGIC>MOL_PROPERTY
Grad RMS
SciTegic.value.DoubleValue
0.000000

@<SCITEGIC>MOL_PROPERTY
U
SciTegic.value.DoubleValue
70.374

@<SCITEGIC>MOL_PROPERTY
W
SciTegic.value.DoubleValue
-54.140

@<SCITEGIC>MOL_PROPERTY
W(PB)
SciTegic.value.DoubleValue
-56.046

@<SCITEGIC>MOL_PROPERTY
W(SA)
SciTegic.value.DoubleValue
1.907

@<SCITEGIC>MOL_PROPERTY
Valence
SciTegic.value.DoubleValue
1.257

@<SCITEGIC>MOL_PROPERTY
Coulomb
SciTegic.value.DoubleValue
69.240

@<SCITEGIC>MOL_PROPERTY
VdW
SciTegic.value.DoubleValue
-0.123

@<SCITEGIC>MOL_PROPERTY
VdW6
SciTegic.value.DoubleValue
-4.336

@<SCITEGIC>MOL_PROPERTY
VdW12
SciTegic.value.DoubleValue
4.213

@<SCITEGIC>MOL_PROPERTY
Bond
SciTegic.value.DoubleValue
0.128

@<SCITEGIC>MOL_PROPERTY
Angle
SciTegic.value.DoubleValue
0.603

@<SCITEGIC>MOL_PROPERTY
Pdih
SciTegic.value.DoubleValue
0.526

@<SCITEGIC>MOL_PROPERTY
Idih
SciTegic.value.DoubleValue
0.000

@<SCITEGIC>MOL_PROPERTY
Tether
SciTegic.value.DoubleValue
0.000

@<TRIPOS>MOLECULE
guest-s9_confgen4.mol2 : confsearch ligand conformer 259
          20          19           1
SMALL
USER_CHARGES
 
@<TRIPOS>ATOM
       1    C1      20.913503   20.258864   23.709811 C.3        1 MOL1        -0.2224
       2    H1      20.242912   20.262319   24.578930 H          1 MOL1         0.1052
       3    H2      21.766800   20.908701   23.943425 H          1 MOL1         0.1052
       4    H3      20.378795   20.707148   22.862975 H          1 MOL1         0.1052
       5    C2      21.395775   18.826228   23.385561 C.3        1 MOL1        -0.1209
       6    H4      22.003247   18.455871   24.223307 H          1 MOL1         0.1041
       7    H5      22.064552   18.849473   22.514466 H          1 MOL1         0.1041
       8    C3      20.231284   17.834929   23.138001 C.3        1 MOL1        -0.1274
       9    H6      20.639315   16.834611   22.941488 H          1 MOL1         0.1041
      10    H7      19.632380   17.745829   24.054048 H          1 MOL1         0.1041
      11    C4      19.298546   18.239407   21.977240 C.3        1 MOL1         0.0313
      12    H8      18.851752   19.214203   22.186795 H          1 MOL1         0.1015
      13    H9      18.490750   17.508372   21.890099 H          1 MOL1         0.1015
      14    N1      19.991142   18.322083   20.630362 N.4        1 MOL1        -0.4809
      15    H10     20.427450   17.416610   20.398733 H          1 MOL1         0.3726
      16    H11     20.767351   18.998889   20.674208 H          1 MOL1         0.3726
      17    C5      18.991231   18.725076   19.555049 C.3        1 MOL1        -0.0677
      18    H12     18.567552   19.700206   19.804804 H          1 MOL1         0.1026
      19    H13     19.503302   18.781824   18.591964 H          1 MOL1         0.1026
      20    H14     18.195833   17.978316   19.505490 H          1 MOL1         0.1026
@<TRIPOS>BOND
    1     1     2    1
    2     1     3    1
    3     1     4    1
    4     1     5    1
    5     5     6    1
    6     5     7    1
    7     5     8    1
    8     8     9    1
    9     8    10    1
   10     8    11    1
   11    11    12    1
   12    11    13    1
   13    11    14    1
   14    14    15    1
   15    14    16    1
   16    14    17    1
   17    17    18    1
   18    17    19    1
   19    17    20    1
@<TRIPOS>SUBSTRUCTURE
       1 MOL1            1 RESIDUE      1      MOL     
@<SCITEGIC>MOL_PROPERTY
VConf Rank
SciTegic.value.IntegerValue
259

@<SCITEGIC>MOL_PROPERTY
Conf_Id
SciTegic.value.IntegerValue
24

@<SCITEGIC>MOL_PROPERTY
Delta U+W
SciTegic.value.DoubleValue
0.792

@<SCITEGIC>MOL_PROPERTY
U+W
SciTegic.value.DoubleValue
16.130

@<SCITEGIC>MOL_PROPERTY
Grad RMS
SciTegic.value.DoubleValue
0.000000

@<SCITEGIC>MOL_PROPERTY
U
SciTegic.value.DoubleValue
70.374

@<SCITEGIC>MOL_PROPERTY
W
SciTegic.value.DoubleValue
-54.243

@<SCITEGIC>MOL_PROPERTY
W(PB)
SciTegic.value.DoubleValue
-56.130

@<SCITEGIC>MOL_PROPERTY
W(SA)
SciTegic.value.DoubleValue
1.887

@<SCITEGIC>MOL_PROPERTY
Valence
SciTegic.value.DoubleValue
1.257

@<SCITEGIC>MOL_PROPERTY
Coulomb
SciTegic.value.DoubleValue
69.240

@<SCITEGIC>MOL_PROPERTY
VdW
SciTegic.value.DoubleValue
-0.123

@<SCITEGIC>MOL_PROPERTY
VdW6
SciTegic.value.DoubleValue
-4.336

@<SCITEGIC>MOL_PROPERTY
VdW12
SciTegic.value.DoubleValue
4.213

@<SCITEGIC>MOL_PROPERTY
Bond
SciTegic.value.DoubleValue
0.128

@<SCITEGIC>MOL_PROPERTY
Angle
SciTegic.value.DoubleValue
0.603

@<SCITEGIC>MOL_PROPERTY
Pdih
SciTegic.value.DoubleValue
0.526

@<SCITEGIC>MOL_PROPERTY
Idih
SciTegic.value.DoubleValue
0.000

@<SCITEGIC>MOL_PROPERTY
Tether
SciTegic.value.DoubleValue
0.000

@<TRIPOS>MOLECULE
guest-s9_confgen4.mol2 : confsearch ligand conformer 260
          20          19           1
SMALL
USER_CHARGES
 
@<TRIPOS>ATOM
       1    C1      20.171596   17.156068   23.487353 C.3        1 MOL1        -0.2224
       2    H1      20.245088   16.598186   24.430002 H          1 MOL1         0.1052
       3    H2      19.212590   17.687211   23.502933 H          1 MOL1         0.1052
       4    H3      20.160305   16.424612   22.668813 H          1 MOL1         0.1052
       5    C2      21.360625   18.134347   23.350815 C.3        1 MOL1        -0.1209
       6    H4      22.291066   17.585694   23.554100 H          1 MOL1         0.1041
       7    H5      21.288607   18.907948   24.128285 H          1 MOL1         0.1041
       8    C3      21.483558   18.805125   21.958772 C.3        1 MOL1        -0.1274
       9    H6      22.394701   19.418018   21.958281 H          1 MOL1         0.1041
      10    H7      21.631593   18.045245   21.180072 H          1 MOL1         0.1041
      11    C4      20.299023   19.721208   21.584667 C.3        1 MOL1         0.0313
      12    H8      20.619046   20.419168   20.806863 H          1 MOL1         0.1015
      13    H9      19.992559   20.303453   22.457223 H          1 MOL1         0.1015
      14    N1      19.085674   18.986683   21.046841 N.4        1 MOL1        -0.4809
      15    H10     18.775154   18.275843   21.724264 H          1 MOL1         0.3726
      16    H11     19.337537   18.462345   20.194994 H          1 MOL1         0.3726
      17    C5      17.965201   19.975349   20.754451 C.3        1 MOL1        -0.0677
      18    H12     17.693553   20.494397   21.676170 H          1 MOL1         0.1026
      19    H13     18.308220   20.697995   20.010888 H          1 MOL1         0.1026
      20    H14     17.099394   19.432875   20.368354 H          1 MOL1         0.1026
@<TRIPOS>BOND
    1     1     2    1
    2     1     3    1
    3     1     4    1
    4     1     5    1
    5     5     6    1
    6     5     7    1
    7     5     8    1
    8     8     9    1
    9     8    10    1
   10     8    11    1
   11    11    12    1
   12    11    13    1
   13    11    14    1
   14    14    15    1
   15    14    16    1
   16    14    17    1
   17    17    18    1
   18    17    19    1
   19    17    20    1
@<TRIPOS>SUBSTRUCTURE
       1 MOL1            1 RESIDUE      1      MOL     
@<SCITEGIC>MOL_PROPERTY
VConf Rank
SciTegic.value.IntegerValue
260

@<SCITEGIC>MOL_PROPERTY
Conf_Id
SciTegic.value.IntegerValue
26

@<SCITEGIC>MOL_PROPERTY
Delta U+W
SciTegic.value.DoubleValue
2.888

@<SCITEGIC>MOL_PROPERTY
U+W
SciTegic.value.DoubleValue
18.226

@<SCITEGIC>MOL_PROPERTY
Grad RMS
SciTegic.value.DoubleValue
0.000000

@<SCITEGIC>MOL_PROPERTY
U
SciTegic.value.DoubleValue
72.042

@<SCITEGIC>MOL_PROPERTY
W
SciTegic.value.DoubleValue
-53.816

@<SCITEGIC>MOL_PROPERTY
W(PB)
SciTegic.value.DoubleValue
-55.689

@<SCITEGIC>MOL_PROPERTY
W(SA)
SciTegic.value.DoubleValue
1.873

@<SCITEGIC>MOL_PROPERTY
Valence
SciTegic.value.DoubleValue
2.428

@<SCITEGIC>MOL_PROPERTY
Coulomb
SciTegic.value.DoubleValue
69.829

@<SCITEGIC>MOL_PROPERTY
VdW
SciTegic.value.DoubleValue
-0.215

@<SCITEGIC>MOL_PROPERTY
VdW6
SciTegic.value.DoubleValue
-4.563

@<SCITEGIC>MOL_PROPERTY
VdW12
SciTegic.value.DoubleValue
4.348

@<SCITEGIC>MOL_PROPERTY
Bond
SciTegic.value.DoubleValue
0.137

@<SCITEGIC>MOL_PROPERTY
Angle
SciTegic.value.DoubleValue
0.936

@<SCITEGIC>MOL_PROPERTY
Pdih
SciTegic.value.DoubleValue
1.356

@<SCITEGIC>MOL_PROPERTY
Idih
SciTegic.value.DoubleValue
0.000

@<SCITEGIC>MOL_PROPERTY
Tether
SciTegic.value.DoubleValue
0.000

@<TRIPOS>MOLECULE
guest-s9_confgen4.mol2 : confsearch ligand conformer 261
          20          19           1
SMALL
USER_CHARGES
 
@<TRIPOS>ATOM
       1    C1      18.517954   17.927553   20.888382 C.3        1 MOL1        -0.2224
       2    H1      17.541356   17.542115   20.567585 H          1 MOL1         0.1052
       3    H2      19.263859   17.592629   20.155841 H          1 MOL1         0.1052
       4    H3      18.741082   17.468230   21.858581 H          1 MOL1         0.1052
       5    C2      18.478480   19.469772   20.985675 C.3        1 MOL1        -0.1209
       6    H4      17.793129   19.767744   21.791661 H          1 MOL1         0.1041
       7    H5      18.046340   19.868622   20.057106 H          1 MOL1         0.1041
       8    C3      19.861288   20.134804   21.205700 C.3        1 MOL1        -0.1274
       9    H6      20.533108   19.905984   20.367842 H          1 MOL1         0.1041
      10    H7      19.719174   21.223535   21.188824 H          1 MOL1         0.1041
      11    C4      20.540309   19.768709   22.542558 C.3        1 MOL1         0.0313
      12    H8      19.796397   19.754922   23.342988 H          1 MOL1         0.1015
      13    H9      21.285212   20.530780   22.785273 H          1 MOL1         0.1015
      14    N1      21.260935   18.433938   22.533274 N.4        1 MOL1        -0.4809
      15    H10     22.000258   18.435263   21.813966 H          1 MOL1         0.3726
      16    H11     20.610997   17.684475   22.256675 H          1 MOL1         0.3726
      17    C5      21.852531   18.151475   23.907551 C.3        1 MOL1        -0.0677
      18    H12     21.048758   18.122483   24.646385 H          1 MOL1         0.1026
      19    H13     22.367626   17.188577   23.885694 H          1 MOL1         0.1026
      20    H14     22.561152   18.942143   24.163416 H          1 MOL1         0.1026
@<TRIPOS>BOND
    1     1     2    1
    2     1     3    1
    3     1     4    1
    4     1     5    1
    5     5     6    1
    6     5     7    1
    7     5     8    1
    8     8     9    1
    9     8    10    1
   10     8    11    1
   11    11    12    1
   12    11    13    1
   13    11    14    1
   14    14    15    1
   15    14    16    1
   16    14    17    1
   17    17    18    1
   18    17    19    1
   19    17    20    1
@<TRIPOS>SUBSTRUCTURE
       1 MOL1            1 RESIDUE      1      MOL     
@<SCITEGIC>MOL_PROPERTY
VConf Rank
SciTegic.value.IntegerValue
261

@<SCITEGIC>MOL_PROPERTY
Conf_Id
SciTegic.value.IntegerValue
5

@<SCITEGIC>MOL_PROPERTY
Delta U+W
SciTegic.value.DoubleValue
2.950

@<SCITEGIC>MOL_PROPERTY
U+W
SciTegic.value.DoubleValue
18.289

@<SCITEGIC>MOL_PROPERTY
Grad RMS
SciTegic.value.DoubleValue
0.000000

@<SCITEGIC>MOL_PROPERTY
U
SciTegic.value.DoubleValue
72.042

@<SCITEGIC>MOL_PROPERTY
W
SciTegic.value.DoubleValue
-53.753

@<SCITEGIC>MOL_PROPERTY
W(PB)
SciTegic.value.DoubleValue
-55.644

@<SCITEGIC>MOL_PROPERTY
W(SA)
SciTegic.value.DoubleValue
1.891

@<SCITEGIC>MOL_PROPERTY
Valence
SciTegic.value.DoubleValue
2.428

@<SCITEGIC>MOL_PROPERTY
Coulomb
SciTegic.value.DoubleValue
69.829

@<SCITEGIC>MOL_PROPERTY
VdW
SciTegic.value.DoubleValue
-0.215

@<SCITEGIC>MOL_PROPERTY
VdW6
SciTegic.value.DoubleValue
-4.563

@<SCITEGIC>MOL_PROPERTY
VdW12
SciTegic.value.DoubleValue
4.348

@<SCITEGIC>MOL_PROPERTY
Bond
SciTegic.value.DoubleValue
0.137

@<SCITEGIC>MOL_PROPERTY
Angle
SciTegic.value.DoubleValue
0.936

@<SCITEGIC>MOL_PROPERTY
Pdih
SciTegic.value.DoubleValue
1.356

@<SCITEGIC>MOL_PROPERTY
Idih
SciTegic.value.DoubleValue
0.000

@<SCITEGIC>MOL_PROPERTY
Tether
SciTegic.value.DoubleValue
0.000

@<TRIPOS>MOLECULE
guest-s9_confgen4.mol2 : confsearch ligand conformer 262
          20          19           1
SMALL
USER_CHARGES
 
@<TRIPOS>ATOM
       1    C1      19.178911   20.899862   23.003589 C.3        1 MOL1        -0.2224
       2    H1      19.961004   21.570867   23.381930 H          1 MOL1         0.1052
       3    H2      19.124008   21.018480   21.914235 H          1 MOL1         0.1052
       4    H3      18.220608   21.234384   23.421581 H          1 MOL1         0.1052
       5    C2      19.463110   19.433977   23.404279 C.3        1 MOL1        -0.1209
       6    H4      18.666731   18.782980   23.018602 H          1 MOL1         0.1041
       7    H5      19.420335   19.348385   24.499148 H          1 MOL1         0.1041
       8    C3      20.844272   18.928538   22.918254 C.3        1 MOL1        -0.1274
       9    H6      21.634083   19.529631   23.387743 H          1 MOL1         0.1041
      10    H7      20.999757   17.900119   23.268865 H          1 MOL1         0.1041
      11    C4      21.030206   18.984249   21.384678 C.3        1 MOL1         0.0313
      12    H8      22.023389   18.610538   21.123247 H          1 MOL1         0.1015
      13    H9      20.968241   20.024719   21.056558 H          1 MOL1         0.1015
      14    N1      20.011614   18.191936   20.579671 N.4        1 MOL1        -0.4809
      15    H10     20.127375   18.399310   19.575355 H          1 MOL1         0.3726
      16    H11     19.057865   18.507474   20.809677 H          1 MOL1         0.3726
      17    C5      20.159793   16.693777   20.820891 C.3        1 MOL1        -0.0677
      18    H12     19.974609   16.476936   21.874777 H          1 MOL1         0.1026
      19    H13     19.435061   16.158409   20.203598 H          1 MOL1         0.1026
      20    H14     21.172012   16.384860   20.551420 H          1 MOL1         0.1026
@<TRIPOS>BOND
    1     1     2    1
    2     1     3    1
    3     1     4    1
    4     1     5    1
    5     5     6    1
    6     5     7    1
    7     5     8    1
    8     8     9    1
    9     8    10    1
   10     8    11    1
   11    11    12    1
   12    11    13    1
   13    11    14    1
   14    14    15    1
   15    14    16    1
   16    14    17    1
   17    17    18    1
   18    17    19    1
   19    17    20    1
@<TRIPOS>SUBSTRUCTURE
       1 MOL1            1 RESIDUE      1      MOL     
@<SCITEGIC>MOL_PROPERTY
VConf Rank
SciTegic.value.IntegerValue
262

@<SCITEGIC>MOL_PROPERTY
Conf_Id
SciTegic.value.IntegerValue
52

@<SCITEGIC>MOL_PROPERTY
Delta U+W
SciTegic.value.DoubleValue
0.784

@<SCITEGIC>MOL_PROPERTY
U+W
SciTegic.value.DoubleValue
16.122

@<SCITEGIC>MOL_PROPERTY
Grad RMS
SciTegic.value.DoubleValue
0.000000

@<SCITEGIC>MOL_PROPERTY
U
SciTegic.value.DoubleValue
70.777

@<SCITEGIC>MOL_PROPERTY
W
SciTegic.value.DoubleValue
-54.655

@<SCITEGIC>MOL_PROPERTY
W(PB)
SciTegic.value.DoubleValue
-56.491

@<SCITEGIC>MOL_PROPERTY
W(SA)
SciTegic.value.DoubleValue
1.836

@<SCITEGIC>MOL_PROPERTY
Valence
SciTegic.value.DoubleValue
1.529

@<SCITEGIC>MOL_PROPERTY
Coulomb
SciTegic.value.DoubleValue
69.166

@<SCITEGIC>MOL_PROPERTY
VdW
SciTegic.value.DoubleValue
0.082

@<SCITEGIC>MOL_PROPERTY
VdW6
SciTegic.value.DoubleValue
-5.166

@<SCITEGIC>MOL_PROPERTY
VdW12
SciTegic.value.DoubleValue
5.248

@<SCITEGIC>MOL_PROPERTY
Bond
SciTegic.value.DoubleValue
0.171

@<SCITEGIC>MOL_PROPERTY
Angle
SciTegic.value.DoubleValue
0.752

@<SCITEGIC>MOL_PROPERTY
Pdih
SciTegic.value.DoubleValue
0.605

@<SCITEGIC>MOL_PROPERTY
Idih
SciTegic.value.DoubleValue
0.000

@<SCITEGIC>MOL_PROPERTY
Tether
SciTegic.value.DoubleValue
0.000

@<TRIPOS>MOLECULE
guest-s9_confgen4.mol2 : confsearch ligand conformer 263
          20          19           1
SMALL
USER_CHARGES
 
@<TRIPOS>ATOM
       1    C1      19.813363   20.839071   21.219582 C.3        1 MOL1        -0.2224
       2    H1      19.757464   21.903759   20.957890 H          1 MOL1         0.1052
       3    H2      20.743018   20.451566   20.787453 H          1 MOL1         0.1052
       4    H3      18.962781   20.334283   20.743128 H          1 MOL1         0.1052
       5    C2      19.782986   20.663128   22.754992 C.3        1 MOL1        -0.1209
       6    H4      18.957625   21.266246   23.158790 H          1 MOL1         0.1041
       7    H5      20.702925   21.077825   23.190603 H          1 MOL1         0.1041
       8    C3      19.592784   19.199767   23.229568 C.3        1 MOL1        -0.1274
       9    H6      19.492443   19.211404   24.322903 H          1 MOL1         0.1041
      10    H7      18.645619   18.797292   22.849051 H          1 MOL1         0.1041
      11    C4      20.763607   18.252387   22.878573 C.3        1 MOL1         0.0313
      12    H8      20.712742   17.366300   23.516292 H          1 MOL1         0.1015
      13    H9      21.708337   18.760134   23.088687 H          1 MOL1         0.1015
      14    N1      20.807622   17.761087   21.440103 N.4        1 MOL1        -0.4809
      15    H10     21.713542   17.300648   21.259925 H          1 MOL1         0.3726
      16    H11     20.777177   18.560942   20.792688 H          1 MOL1         0.3726
      17    C5      19.668002   16.789914   21.152331 C.3        1 MOL1        -0.0677
      18    H12     19.732983   15.945449   21.841749 H          1 MOL1         0.1026
      19    H13     18.712743   17.301799   21.282984 H          1 MOL1         0.1026
      20    H14     19.753958   16.432287   20.123921 H          1 MOL1         0.1026
@<TRIPOS>BOND
    1     1     2    1
    2     1     3    1
    3     1     4    1
    4     1     5    1
    5     5     6    1
    6     5     7    1
    7     5     8    1
    8     8     9    1
    9     8    10    1
   10     8    11    1
   11    11    12    1
   12    11    13    1
   13    11    14    1
   14    14    15    1
   15    14    16    1
   16    14    17    1
   17    17    18    1
   18    17    19    1
   19    17    20    1
@<TRIPOS>SUBSTRUCTURE
       1 MOL1            1 RESIDUE      1      MOL     
@<SCITEGIC>MOL_PROPERTY
VConf Rank
SciTegic.value.IntegerValue
263

@<SCITEGIC>MOL_PROPERTY
Conf_Id
SciTegic.value.IntegerValue
55

@<SCITEGIC>MOL_PROPERTY
Delta U+W
SciTegic.value.DoubleValue
2.745

@<SCITEGIC>MOL_PROPERTY
U+W
SciTegic.value.DoubleValue
18.083

@<SCITEGIC>MOL_PROPERTY
Grad RMS
SciTegic.value.DoubleValue
0.000000

@<SCITEGIC>MOL_PROPERTY
U
SciTegic.value.DoubleValue
72.490

@<SCITEGIC>MOL_PROPERTY
W
SciTegic.value.DoubleValue
-54.407

@<SCITEGIC>MOL_PROPERTY
W(PB)
SciTegic.value.DoubleValue
-56.269

@<SCITEGIC>MOL_PROPERTY
W(SA)
SciTegic.value.DoubleValue
1.861

@<SCITEGIC>MOL_PROPERTY
Valence
SciTegic.value.DoubleValue
2.738

@<SCITEGIC>MOL_PROPERTY
Coulomb
SciTegic.value.DoubleValue
69.795

@<SCITEGIC>MOL_PROPERTY
VdW
SciTegic.value.DoubleValue
-0.043

@<SCITEGIC>MOL_PROPERTY
VdW6
SciTegic.value.DoubleValue
-5.333

@<SCITEGIC>MOL_PROPERTY
VdW12
SciTegic.value.DoubleValue
5.290

@<SCITEGIC>MOL_PROPERTY
Bond
SciTegic.value.DoubleValue
0.182

@<SCITEGIC>MOL_PROPERTY
Angle
SciTegic.value.DoubleValue
1.135

@<SCITEGIC>MOL_PROPERTY
Pdih
SciTegic.value.DoubleValue
1.422

@<SCITEGIC>MOL_PROPERTY
Idih
SciTegic.value.DoubleValue
0.000

@<SCITEGIC>MOL_PROPERTY
Tether
SciTegic.value.DoubleValue
0.000

@<TRIPOS>MOLECULE
guest-s9_confgen4.mol2 : confsearch ligand conformer 264
          20          19           1
SMALL
USER_CHARGES
 
@<TRIPOS>ATOM
       1    C1      20.058060   17.001160   20.988476 C.3        1 MOL1        -0.2224
       2    H1      19.957014   16.006271   20.535536 H          1 MOL1         0.1052
       3    H2      20.473790   17.673048   20.226214 H          1 MOL1         0.1052
       4    H3      20.778162   16.907555   21.809355 H          1 MOL1         0.1052
       5    C2      18.684790   17.502454   21.490677 C.3        1 MOL1        -0.1209
       6    H4      18.349878   16.876993   22.330111 H          1 MOL1         0.1041
       7    H5      17.946160   17.356215   20.690011 H          1 MOL1         0.1041
       8    C3      18.659934   18.995166   21.907841 C.3        1 MOL1        -0.1274
       9    H6      18.934435   19.631702   21.057328 H          1 MOL1         0.1041
      10    H7      17.622514   19.258382   22.152921 H          1 MOL1         0.1041
      11    C4      19.530648   19.333207   23.140375 C.3        1 MOL1         0.0313
      12    H8      19.380406   18.566106   23.904215 H          1 MOL1         0.1015
      13    H9      19.205179   20.288667   23.559408 H          1 MOL1         0.1015
      14    N1      21.024834   19.448544   22.882282 N.4        1 MOL1        -0.4809
      15    H10     21.368702   18.599212   22.412996 H          1 MOL1         0.3726
      16    H11     21.529047   19.484254   23.782090 H          1 MOL1         0.3726
      17    C5      21.349525   20.689651   22.058297 C.3        1 MOL1        -0.0677
      18    H12     20.864624   20.615377   21.083119 H          1 MOL1         0.1026
      19    H13     20.988022   21.575298   22.585160 H          1 MOL1         0.1026
      20    H14     22.431430   20.757390   21.924871 H          1 MOL1         0.1026
@<TRIPOS>BOND
    1     1     2    1
    2     1     3    1
    3     1     4    1
    4     1     5    1
    5     5     6    1
    6     5     7    1
    7     5     8    1
    8     8     9    1
    9     8    10    1
   10     8    11    1
   11    11    12    1
   12    11    13    1
   13    11    14    1
   14    14    15    1
   15    14    16    1
   16    14    17    1
   17    17    18    1
   18    17    19    1
   19    17    20    1
@<TRIPOS>SUBSTRUCTURE
       1 MOL1            1 RESIDUE      1      MOL     
@<SCITEGIC>MOL_PROPERTY
VConf Rank
SciTegic.value.IntegerValue
264

@<SCITEGIC>MOL_PROPERTY
Conf_Id
SciTegic.value.IntegerValue
76

@<SCITEGIC>MOL_PROPERTY
Delta U+W
SciTegic.value.DoubleValue
2.799

@<SCITEGIC>MOL_PROPERTY
U+W
SciTegic.value.DoubleValue
18.137

@<SCITEGIC>MOL_PROPERTY
Grad RMS
SciTegic.value.DoubleValue
0.000000

@<SCITEGIC>MOL_PROPERTY
U
SciTegic.value.DoubleValue
72.490

@<SCITEGIC>MOL_PROPERTY
W
SciTegic.value.DoubleValue
-54.353

@<SCITEGIC>MOL_PROPERTY
W(PB)
SciTegic.value.DoubleValue
-56.201

@<SCITEGIC>MOL_PROPERTY
W(SA)
SciTegic.value.DoubleValue
1.848

@<SCITEGIC>MOL_PROPERTY
Valence
SciTegic.value.DoubleValue
2.738

@<SCITEGIC>MOL_PROPERTY
Coulomb
SciTegic.value.DoubleValue
69.795

@<SCITEGIC>MOL_PROPERTY
VdW
SciTegic.value.DoubleValue
-0.043

@<SCITEGIC>MOL_PROPERTY
VdW6
SciTegic.value.DoubleValue
-5.334

@<SCITEGIC>MOL_PROPERTY
VdW12
SciTegic.value.DoubleValue
5.290

@<SCITEGIC>MOL_PROPERTY
Bond
SciTegic.value.DoubleValue
0.182

@<SCITEGIC>MOL_PROPERTY
Angle
SciTegic.value.DoubleValue
1.135

@<SCITEGIC>MOL_PROPERTY
Pdih
SciTegic.value.DoubleValue
1.421

@<SCITEGIC>MOL_PROPERTY
Idih
SciTegic.value.DoubleValue
0.000

@<SCITEGIC>MOL_PROPERTY
Tether
SciTegic.value.DoubleValue
0.000

@<TRIPOS>MOLECULE
guest-s9_confgen4.mol2 : confsearch ligand conformer 265
          20          19           1
SMALL
USER_CHARGES
 
@<TRIPOS>ATOM
       1    C1      18.657584   17.162959   22.363015 C.3        1 MOL1        -0.2224
       2    H1      18.505153   17.720059   21.430569 H          1 MOL1         0.1052
       3    H2      18.976851   16.145221   22.103727 H          1 MOL1         0.1052
       4    H3      17.685881   17.090030   22.868307 H          1 MOL1         0.1052
       5    C2      19.694756   17.853181   23.278673 C.3        1 MOL1        -0.1209
       6    H4      19.756845   17.297535   24.224842 H          1 MOL1         0.1041
       7    H5      19.350682   18.860304   23.547143 H          1 MOL1         0.1041
       8    C3      21.108605   17.921655   22.651147 C.3        1 MOL1        -0.1274
       9    H6      21.802101   18.381714   23.367260 H          1 MOL1         0.1041
      10    H7      21.473152   16.897711   22.495297 H          1 MOL1         0.1041
      11    C4      21.199401   18.676227   21.303906 C.3        1 MOL1         0.0313
      12    H8      20.510959   18.243663   20.574179 H          1 MOL1         0.1015
      13    H9      22.213427   18.547190   20.916907 H          1 MOL1         0.1015
      14    N1      20.950823   20.175735   21.371931 N.4        1 MOL1        -0.4809
      15    H10     21.511023   20.645720   20.643858 H          1 MOL1         0.3726
      16    H11     21.303228   20.558075   22.262028 H          1 MOL1         0.3726
      17    C5      19.478281   20.513845   21.165658 C.3        1 MOL1        -0.0677
      18    H12     19.354161   21.598649   21.192475 H          1 MOL1         0.1026
      19    H13     19.156100   20.132222   20.194496 H          1 MOL1         0.1026
      20    H14     18.880960   20.058398   21.956098 H          1 MOL1         0.1026
@<TRIPOS>BOND
    1     1     2    1
    2     1     3    1
    3     1     4    1
    4     1     5    1
    5     5     6    1
    6     5     7    1
    7     5     8    1
    8     8     9    1
    9     8    10    1
   10     8    11    1
   11    11    12    1
   12    11    13    1
   13    11    14    1
   14    14    15    1
   15    14    16    1
   16    14    17    1
   17    17    18    1
   18    17    19    1
   19    17    20    1
@<TRIPOS>SUBSTRUCTURE
       1 MOL1            1 RESIDUE      1      MOL     
@<SCITEGIC>MOL_PROPERTY
VConf Rank
SciTegic.value.IntegerValue
265

@<SCITEGIC>MOL_PROPERTY
Conf_Id
SciTegic.value.IntegerValue
60

@<SCITEGIC>MOL_PROPERTY
Delta U+W
SciTegic.value.DoubleValue
1.788

@<SCITEGIC>MOL_PROPERTY
U+W
SciTegic.value.DoubleValue
17.127

@<SCITEGIC>MOL_PROPERTY
Grad RMS
SciTegic.value.DoubleValue
0.000000

@<SCITEGIC>MOL_PROPERTY
U
SciTegic.value.DoubleValue
72.122

@<SCITEGIC>MOL_PROPERTY
W
SciTegic.value.DoubleValue
-54.995

@<SCITEGIC>MOL_PROPERTY
W(PB)
SciTegic.value.DoubleValue
-56.810

@<SCITEGIC>MOL_PROPERTY
W(SA)
SciTegic.value.DoubleValue
1.815

@<SCITEGIC>MOL_PROPERTY
Valence
SciTegic.value.DoubleValue
3.197

@<SCITEGIC>MOL_PROPERTY
Coulomb
SciTegic.value.DoubleValue
69.115

@<SCITEGIC>MOL_PROPERTY
VdW
SciTegic.value.DoubleValue
-0.190

@<SCITEGIC>MOL_PROPERTY
VdW6
SciTegic.value.DoubleValue
-5.585

@<SCITEGIC>MOL_PROPERTY
VdW12
SciTegic.value.DoubleValue
5.395

@<SCITEGIC>MOL_PROPERTY
Bond
SciTegic.value.DoubleValue
0.177

@<SCITEGIC>MOL_PROPERTY
Angle
SciTegic.value.DoubleValue
1.207

@<SCITEGIC>MOL_PROPERTY
Pdih
SciTegic.value.DoubleValue
1.813

@<SCITEGIC>MOL_PROPERTY
Idih
SciTegic.value.DoubleValue
0.000

@<SCITEGIC>MOL_PROPERTY
Tether
SciTegic.value.DoubleValue
0.000

@<TRIPOS>MOLECULE
guest-s9_confgen4.mol2 : confsearch ligand conformer 266
          20          19           1
SMALL
USER_CHARGES
 
@<TRIPOS>ATOM
       1    C1      19.988542   20.565464   20.810034 C.3        1 MOL1        -0.2224
       2    H1      19.777697   21.624582   21.006651 H          1 MOL1         0.1052
       3    H2      20.293029   20.474599   19.759328 H          1 MOL1         0.1052
       4    H3      19.051453   20.010998   20.942256 H          1 MOL1         0.1052
       5    C2      21.097350   20.048446   21.755442 C.3        1 MOL1        -0.1209
       6    H4      20.787288   20.166851   22.801676 H          1 MOL1         0.1041
       7    H5      21.988142   20.680826   21.635369 H          1 MOL1         0.1041
       8    C3      21.493758   18.577370   21.479317 C.3        1 MOL1        -0.1274
       9    H6      21.903601   18.509407   20.462924 H          1 MOL1         0.1041
      10    H7      22.311372   18.288810   22.152850 H          1 MOL1         0.1041
      11    C4      20.346846   17.547306   21.606746 C.3        1 MOL1         0.0313
      12    H8      20.729062   16.579368   21.272568 H          1 MOL1         0.1015
      13    H9      19.514425   17.816340   20.952329 H          1 MOL1         0.1015
      14    N1      19.806124   17.335767   23.013092 N.4        1 MOL1        -0.4809
      15    H10     20.562405   17.432549   23.706863 H          1 MOL1         0.3726
      16    H11     19.484295   16.360095   23.109481 H          1 MOL1         0.3726
      17    C5      18.646443   18.277268   23.319620 C.3        1 MOL1        -0.0677
      18    H12     17.849481   18.112317   22.591448 H          1 MOL1         0.1026
      19    H13     18.273362   18.068349   24.324652 H          1 MOL1         0.1026
      20    H14     18.986606   19.311792   23.264202 H          1 MOL1         0.1026
@<TRIPOS>BOND
    1     1     2    1
    2     1     3    1
    3     1     4    1
    4     1     5    1
    5     5     6    1
    6     5     7    1
    7     5     8    1
    8     8     9    1
    9     8    10    1
   10     8    11    1
   11    11    12    1
   12    11    13    1
   13    11    14    1
   14    14    15    1
   15    14    16    1
   16    14    17    1
   17    17    18    1
   18    17    19    1
   19    17    20    1
@<TRIPOS>SUBSTRUCTURE
       1 MOL1            1 RESIDUE      1      MOL     
@<SCITEGIC>MOL_PROPERTY
VConf Rank
SciTegic.value.IntegerValue
266

@<SCITEGIC>MOL_PROPERTY
Conf_Id
SciTegic.value.IntegerValue
54

@<SCITEGIC>MOL_PROPERTY
Delta U+W
SciTegic.value.DoubleValue
1.880

@<SCITEGIC>MOL_PROPERTY
U+W
SciTegic.value.DoubleValue
17.218

@<SCITEGIC>MOL_PROPERTY
Grad RMS
SciTegic.value.DoubleValue
0.000000

@<SCITEGIC>MOL_PROPERTY
U
SciTegic.value.DoubleValue
72.122

@<SCITEGIC>MOL_PROPERTY
W
SciTegic.value.DoubleValue
-54.903

@<SCITEGIC>MOL_PROPERTY
W(PB)
SciTegic.value.DoubleValue
-56.724

@<SCITEGIC>MOL_PROPERTY
W(SA)
SciTegic.value.DoubleValue
1.821

@<SCITEGIC>MOL_PROPERTY
Valence
SciTegic.value.DoubleValue
3.197

@<SCITEGIC>MOL_PROPERTY
Coulomb
SciTegic.value.DoubleValue
69.115

@<SCITEGIC>MOL_PROPERTY
VdW
SciTegic.value.DoubleValue
-0.190

@<SCITEGIC>MOL_PROPERTY
VdW6
SciTegic.value.DoubleValue
-5.585

@<SCITEGIC>MOL_PROPERTY
VdW12
SciTegic.value.DoubleValue
5.395

@<SCITEGIC>MOL_PROPERTY
Bond
SciTegic.value.DoubleValue
0.177

@<SCITEGIC>MOL_PROPERTY
Angle
SciTegic.value.DoubleValue
1.207

@<SCITEGIC>MOL_PROPERTY
Pdih
SciTegic.value.DoubleValue
1.813

@<SCITEGIC>MOL_PROPERTY
Idih
SciTegic.value.DoubleValue
0.000

@<SCITEGIC>MOL_PROPERTY
Tether
SciTegic.value.DoubleValue
0.000

@<TRIPOS>MOLECULE
guest-s9_confgen4.mol2 : confsearch ligand conformer 267
          20          19           1
SMALL
USER_CHARGES
 
@<TRIPOS>ATOM
       1    C1      17.972932   20.739409   20.481696 C.3        1 MOL1        -0.2224
       2    H1      18.379032   20.604248   19.470760 H          1 MOL1         0.1052
       3    H2      16.881489   20.820939   20.397247 H          1 MOL1         0.1052
       4    H3      18.351372   21.690941   20.877356 H          1 MOL1         0.1052
       5    C2      18.362594   19.560762   21.399948 C.3        1 MOL1        -0.1209
       6    H4      17.940828   18.629058   20.996970 H          1 MOL1         0.1041
       7    H5      17.913468   19.707244   22.392511 H          1 MOL1         0.1041
       8    C3      19.894759   19.421716   21.537410 C.3        1 MOL1        -0.1274
       9    H6      20.342295   19.271916   20.545826 H          1 MOL1         0.1041
      10    H7      20.314923   20.351660   21.943158 H          1 MOL1         0.1041
      11    C4      20.275176   18.244521   22.454513 C.3        1 MOL1         0.0313
      12    H8      19.871590   17.314946   22.045249 H          1 MOL1         0.1015
      13    H9      19.844276   18.398236   23.447078 H          1 MOL1         0.1015
      14    N1      21.772085   18.069001   22.619312 N.4        1 MOL1        -0.4809
      15    H10     22.192791   18.931557   22.997680 H          1 MOL1         0.3726
      16    H11     22.218062   17.928521   21.699788 H          1 MOL1         0.3726
      17    C5      22.058888   16.888286   23.537370 C.3        1 MOL1        -0.0677
      18    H12     21.634835   15.981493   23.100663 H          1 MOL1         0.1026
      19    H13     23.139514   16.773372   23.647147 H          1 MOL1         0.1026
      20    H14     21.607406   17.074024   24.514342 H          1 MOL1         0.1026
@<TRIPOS>BOND
    1     1     2    1
    2     1     3    1
    3     1     4    1
    4     1     5    1
    5     5     6    1
    6     5     7    1
    7     5     8    1
    8     8     9    1
    9     8    10    1
   10     8    11    1
   11    11    12    1
   12    11    13    1
   13    11    14    1
   14    14    15    1
   15    14    16    1
   16    14    17    1
   17    17    18    1
   18    17    19    1
   19    17    20    1
@<TRIPOS>SUBSTRUCTURE
       1 MOL1            1 RESIDUE      1      MOL     
@<SCITEGIC>MOL_PROPERTY
VConf Rank
SciTegic.value.IntegerValue
267

@<SCITEGIC>MOL_PROPERTY
Conf_Id
SciTegic.value.IntegerValue
67

@<SCITEGIC>MOL_PROPERTY
Delta U+W
SciTegic.value.DoubleValue
0.000

@<SCITEGIC>MOL_PROPERTY
U+W
SciTegic.value.DoubleValue
15.338

@<SCITEGIC>MOL_PROPERTY
Grad RMS
SciTegic.value.DoubleValue
0.000000

@<SCITEGIC>MOL_PROPERTY
U
SciTegic.value.DoubleValue
69.277

@<SCITEGIC>MOL_PROPERTY
W
SciTegic.value.DoubleValue
-53.939

@<SCITEGIC>MOL_PROPERTY
W(PB)
SciTegic.value.DoubleValue
-55.889

@<SCITEGIC>MOL_PROPERTY
W(SA)
SciTegic.value.DoubleValue
1.950

@<SCITEGIC>MOL_PROPERTY
Valence
SciTegic.value.DoubleValue
0.846

@<SCITEGIC>MOL_PROPERTY
Coulomb
SciTegic.value.DoubleValue
68.557

@<SCITEGIC>MOL_PROPERTY
VdW
SciTegic.value.DoubleValue
-0.127

@<SCITEGIC>MOL_PROPERTY
VdW6
SciTegic.value.DoubleValue
-3.008

@<SCITEGIC>MOL_PROPERTY
VdW12
SciTegic.value.DoubleValue
2.882

@<SCITEGIC>MOL_PROPERTY
Bond
SciTegic.value.DoubleValue
0.088

@<SCITEGIC>MOL_PROPERTY
Angle
SciTegic.value.DoubleValue
0.332

@<SCITEGIC>MOL_PROPERTY
Pdih
SciTegic.value.DoubleValue
0.426

@<SCITEGIC>MOL_PROPERTY
Idih
SciTegic.value.DoubleValue
0.000

@<SCITEGIC>MOL_PROPERTY
Tether
SciTegic.value.DoubleValue
0.000

@<TRIPOS>MOLECULE
guest-s9_confgen4.mol2 : confsearch ligand conformer 268
          20          19           1
SMALL
USER_CHARGES
 
@<TRIPOS>ATOM
       1    C1      22.417595   20.772604   22.082196 C.3        1 MOL1        -0.2224
       2    H1      22.049706   21.278754   21.180176 H          1 MOL1         0.1052
       3    H2      22.891902   21.528277   22.721735 H          1 MOL1         0.1052
       4    H3      23.191247   20.054923   21.779599 H          1 MOL1         0.1052
       5    C2      21.267211   20.067034   22.832570 C.3        1 MOL1        -0.1209
       6    H4      20.527050   20.814345   23.151965 H          1 MOL1         0.1041
       7    H5      21.659897   19.600582   23.747189 H          1 MOL1         0.1041
       8    C3      20.580534   18.996700   21.955900 C.3        1 MOL1        -0.1274
       9    H6      20.190198   19.466875   21.044128 H          1 MOL1         0.1041
      10    H7      21.319545   18.248228   21.640822 H          1 MOL1         0.1041
      11    C4      19.434073   18.296640   22.714528 C.3        1 MOL1         0.0313
      12    H8      18.669982   19.028024   22.989526 H          1 MOL1         0.1015
      13    H9      19.831806   17.861154   23.634767 H          1 MOL1         0.1015
      14    N1      18.754650   17.177414   21.942206 N.4        1 MOL1        -0.4809
      15    H10     18.121294   16.659227   22.571197 H          1 MOL1         0.3726
      16    H11     19.450736   16.480560   21.636209 H          1 MOL1         0.3726
      17    C5      17.971037   17.720731   20.752133 C.3        1 MOL1        -0.0677
      18    H12     18.657662   18.209758   20.058385 H          1 MOL1         0.1026
      19    H13     17.468305   16.893015   20.247041 H          1 MOL1         0.1026
      20    H14     17.229504   18.439303   21.107790 H          1 MOL1         0.1026
@<TRIPOS>BOND
    1     1     2    1
    2     1     3    1
    3     1     4    1
    4     1     5    1
    5     5     6    1
    6     5     7    1
    7     5     8    1
    8     8     9    1
    9     8    10    1
   10     8    11    1
   11    11    12    1
   12    11    13    1
   13    11    14    1
   14    14    15    1
   15    14    16    1
   16    14    17    1
   17    17    18    1
   18    17    19    1
   19    17    20    1
@<TRIPOS>SUBSTRUCTURE
       1 MOL1            1 RESIDUE      1      MOL     
@<SCITEGIC>MOL_PROPERTY
VConf Rank
SciTegic.value.IntegerValue
268

@<SCITEGIC>MOL_PROPERTY
Conf_Id
SciTegic.value.IntegerValue
37

@<SCITEGIC>MOL_PROPERTY
Delta U+W
SciTegic.value.DoubleValue
-0.021

@<SCITEGIC>MOL_PROPERTY
U+W
SciTegic.value.DoubleValue
15.318

@<SCITEGIC>MOL_PROPERTY
Grad RMS
SciTegic.value.DoubleValue
0.000000

@<SCITEGIC>MOL_PROPERTY
U
SciTegic.value.DoubleValue
69.657

@<SCITEGIC>MOL_PROPERTY
W
SciTegic.value.DoubleValue
-54.340

@<SCITEGIC>MOL_PROPERTY
W(PB)
SciTegic.value.DoubleValue
-56.238

@<SCITEGIC>MOL_PROPERTY
W(SA)
SciTegic.value.DoubleValue
1.899

@<SCITEGIC>MOL_PROPERTY
Valence
SciTegic.value.DoubleValue
1.137

@<SCITEGIC>MOL_PROPERTY
Coulomb
SciTegic.value.DoubleValue
68.383

@<SCITEGIC>MOL_PROPERTY
VdW
SciTegic.value.DoubleValue
0.138

@<SCITEGIC>MOL_PROPERTY
VdW6
SciTegic.value.DoubleValue
-3.703

@<SCITEGIC>MOL_PROPERTY
VdW12
SciTegic.value.DoubleValue
3.841

@<SCITEGIC>MOL_PROPERTY
Bond
SciTegic.value.DoubleValue
0.125

@<SCITEGIC>MOL_PROPERTY
Angle
SciTegic.value.DoubleValue
0.468

@<SCITEGIC>MOL_PROPERTY
Pdih
SciTegic.value.DoubleValue
0.543

@<SCITEGIC>MOL_PROPERTY
Idih
SciTegic.value.DoubleValue
0.000

@<SCITEGIC>MOL_PROPERTY
Tether
SciTegic.value.DoubleValue
0.000

@<TRIPOS>MOLECULE
guest-s9_confgen4.mol2 : confsearch ligand conformer 269
          20          19           1
SMALL
USER_CHARGES
 
@<TRIPOS>ATOM
       1    C1      19.867675   16.921361   24.340525 C.3        1 MOL1        -0.2224
       2    H1      19.375291   16.788713   25.312627 H          1 MOL1         0.1052
       3    H2      19.540560   16.104645   23.683913 H          1 MOL1         0.1052
       4    H3      20.949926   16.822214   24.495679 H          1 MOL1         0.1052
       5    C2      19.516385   18.297324   23.734233 C.3        1 MOL1        -0.1209
       6    H4      19.823846   19.091658   24.429079 H          1 MOL1         0.1041
       7    H5      18.425892   18.379709   23.623031 H          1 MOL1         0.1041
       8    C3      20.196514   18.512135   22.364209 C.3        1 MOL1        -0.1274
       9    H6      21.285932   18.433980   22.476826 H          1 MOL1         0.1041
      10    H7      19.886703   17.716934   21.673973 H          1 MOL1         0.1041
      11    C4      19.840882   19.889619   21.767525 C.3        1 MOL1         0.0313
      12    H8      20.126114   20.668630   22.479186 H          1 MOL1         0.1015
      13    H9      18.761979   19.957219   21.606960 H          1 MOL1         0.1015
      14    N1      20.531099   20.206325   20.450690 N.4        1 MOL1        -0.4809
      15    H10     21.553805   20.121230   20.553673 H          1 MOL1         0.3726
      16    H11     20.371830   21.196560   20.207061 H          1 MOL1         0.3726
      17    C5      20.022046   19.309085   19.327594 C.3        1 MOL1        -0.0677
      18    H12     18.941762   19.435051   19.228471 H          1 MOL1         0.1026
      19    H13     20.512521   19.592103   18.393620 H          1 MOL1         0.1026
      20    H14     20.253630   18.268172   19.561591 H          1 MOL1         0.1026
@<TRIPOS>BOND
    1     1     2    1
    2     1     3    1
    3     1     4    1
    4     1     5    1
    5     5     6    1
    6     5     7    1
    7     5     8    1
    8     8     9    1
    9     8    10    1
   10     8    11    1
   11    11    12    1
   12    11    13    1
   13    11    14    1
   14    14    15    1
   15    14    16    1
   16    14    17    1
   17    17    18    1
   18    17    19    1
   19    17    20    1
@<TRIPOS>SUBSTRUCTURE
       1 MOL1            1 RESIDUE      1      MOL     
@<SCITEGIC>MOL_PROPERTY
VConf Rank
SciTegic.value.IntegerValue
269

@<SCITEGIC>MOL_PROPERTY
Conf_Id
SciTegic.value.IntegerValue
2

@<SCITEGIC>MOL_PROPERTY
Delta U+W
SciTegic.value.DoubleValue
0.069

@<SCITEGIC>MOL_PROPERTY
U+W
SciTegic.value.DoubleValue
15.407

@<SCITEGIC>MOL_PROPERTY
Grad RMS
SciTegic.value.DoubleValue
0.000000

@<SCITEGIC>MOL_PROPERTY
U
SciTegic.value.DoubleValue
69.657

@<SCITEGIC>MOL_PROPERTY
W
SciTegic.value.DoubleValue
-54.250

@<SCITEGIC>MOL_PROPERTY
W(PB)
SciTegic.value.DoubleValue
-56.176

@<SCITEGIC>MOL_PROPERTY
W(SA)
SciTegic.value.DoubleValue
1.926

@<SCITEGIC>MOL_PROPERTY
Valence
SciTegic.value.DoubleValue
1.137

@<SCITEGIC>MOL_PROPERTY
Coulomb
SciTegic.value.DoubleValue
68.383

@<SCITEGIC>MOL_PROPERTY
VdW
SciTegic.value.DoubleValue
0.138

@<SCITEGIC>MOL_PROPERTY
VdW6
SciTegic.value.DoubleValue
-3.703

@<SCITEGIC>MOL_PROPERTY
VdW12
SciTegic.value.DoubleValue
3.841

@<SCITEGIC>MOL_PROPERTY
Bond
SciTegic.value.DoubleValue
0.125

@<SCITEGIC>MOL_PROPERTY
Angle
SciTegic.value.DoubleValue
0.468

@<SCITEGIC>MOL_PROPERTY
Pdih
SciTegic.value.DoubleValue
0.543

@<SCITEGIC>MOL_PROPERTY
Idih
SciTegic.value.DoubleValue
0.000

@<SCITEGIC>MOL_PROPERTY
Tether
SciTegic.value.DoubleValue
0.000

@<TRIPOS>MOLECULE
guest-s9_confgen4.mol2 : confsearch ligand conformer 270
          20          19           1
SMALL
USER_CHARGES
 
@<TRIPOS>ATOM
       1    C1      22.353832   17.822061   21.121190 C.3        1 MOL1        -0.2224
       2    H1      22.404251   18.899882   21.320745 H          1 MOL1         0.1052
       3    H2      22.630418   17.289718   22.040544 H          1 MOL1         0.1052
       4    H3      23.110670   17.591060   20.360384 H          1 MOL1         0.1052
       5    C2      20.948850   17.398888   20.634119 C.3        1 MOL1        -0.1209
       6    H4      20.970396   16.335150   20.358420 H          1 MOL1         0.1041
       7    H5      20.694404   17.950013   19.717754 H          1 MOL1         0.1041
       8    C3      19.848060   17.619934   21.697876 C.3        1 MOL1        -0.1274
       9    H6      18.896705   17.227952   21.314300 H          1 MOL1         0.1041
      10    H7      20.086344   17.040765   22.599901 H          1 MOL1         0.1041
      11    C4      19.670044   19.105290   22.068380 C.3        1 MOL1         0.0313
      12    H8      19.430537   19.681141   21.170937 H          1 MOL1         0.1015
      13    H9      20.600732   19.494307   22.488205 H          1 MOL1         0.1015
      14    N1      18.569262   19.344765   23.082973 N.4        1 MOL1        -0.4809
      15    H10     18.755285   18.808277   23.944173 H          1 MOL1         0.3726
      16    H11     17.670765   18.985030   22.726045 H          1 MOL1         0.3726
      17    C5      18.463259   20.831929   23.393132 C.3        1 MOL1        -0.0677
      18    H12     18.232345   21.375606   22.474494 H          1 MOL1         0.1026
      19    H13     17.667442   20.990071   24.124344 H          1 MOL1         0.1026
      20    H14     19.413379   21.183059   23.801518 H          1 MOL1         0.1026
@<TRIPOS>BOND
    1     1     2    1
    2     1     3    1
    3     1     4    1
    4     1     5    1
    5     5     6    1
    6     5     7    1
    7     5     8    1
    8     8     9    1
    9     8    10    1
   10     8    11    1
   11    11    12    1
   12    11    13    1
   13    11    14    1
   14    14    15    1
   15    14    16    1
   16    14    17    1
   17    17    18    1
   18    17    19    1
   19    17    20    1
@<TRIPOS>SUBSTRUCTURE
       1 MOL1            1 RESIDUE      1      MOL     
@<SCITEGIC>MOL_PROPERTY
VConf Rank
SciTegic.value.IntegerValue
270

@<SCITEGIC>MOL_PROPERTY
Conf_Id
SciTegic.value.IntegerValue
34

@<SCITEGIC>MOL_PROPERTY
Delta U+W
SciTegic.value.DoubleValue
0.276

@<SCITEGIC>MOL_PROPERTY
U+W
SciTegic.value.DoubleValue
15.615

@<SCITEGIC>MOL_PROPERTY
Grad RMS
SciTegic.value.DoubleValue
0.000000

@<SCITEGIC>MOL_PROPERTY
U
SciTegic.value.DoubleValue
69.798

@<SCITEGIC>MOL_PROPERTY
W
SciTegic.value.DoubleValue
-54.184

@<SCITEGIC>MOL_PROPERTY
W(PB)
SciTegic.value.DoubleValue
-56.116

@<SCITEGIC>MOL_PROPERTY
W(SA)
SciTegic.value.DoubleValue
1.933

@<SCITEGIC>MOL_PROPERTY
Valence
SciTegic.value.DoubleValue
1.134

@<SCITEGIC>MOL_PROPERTY
Coulomb
SciTegic.value.DoubleValue
68.735

@<SCITEGIC>MOL_PROPERTY
VdW
SciTegic.value.DoubleValue
-0.070

@<SCITEGIC>MOL_PROPERTY
VdW6
SciTegic.value.DoubleValue
-3.565

@<SCITEGIC>MOL_PROPERTY
VdW12
SciTegic.value.DoubleValue
3.494

@<SCITEGIC>MOL_PROPERTY
Bond
SciTegic.value.DoubleValue
0.108

@<SCITEGIC>MOL_PROPERTY
Angle
SciTegic.value.DoubleValue
0.456

@<SCITEGIC>MOL_PROPERTY
Pdih
SciTegic.value.DoubleValue
0.569

@<SCITEGIC>MOL_PROPERTY
Idih
SciTegic.value.DoubleValue
0.000

@<SCITEGIC>MOL_PROPERTY
Tether
SciTegic.value.DoubleValue
0.000

@<TRIPOS>MOLECULE
guest-s9_confgen4.mol2 : confsearch ligand conformer 271
          20          19           1
SMALL
USER_CHARGES
 
@<TRIPOS>ATOM
       1    C1      21.640009   16.327934   21.282414 C.3        1 MOL1        -0.2224
       2    H1      21.565514   16.157810   20.200435 H          1 MOL1         0.1052
       3    H2      22.680709   16.145387   21.580146 H          1 MOL1         0.1052
       4    H3      21.010220   15.585052   21.789043 H          1 MOL1         0.1052
       5    C2      21.211003   17.764668   21.650889 C.3        1 MOL1        -0.1209
       6    H4      21.878939   18.482765   21.154379 H          1 MOL1         0.1041
       7    H5      21.336743   17.910192   22.732328 H          1 MOL1         0.1041
       8    C3      19.746129   18.047332   21.241708 C.3        1 MOL1        -0.1274
       9    H6      19.627377   17.859936   20.166224 H          1 MOL1         0.1041
      10    H7      19.070131   17.351401   21.756064 H          1 MOL1         0.1041
      11    C4      19.312671   19.497952   21.533866 C.3        1 MOL1         0.0313
      12    H8      18.304898   19.659488   21.142816 H          1 MOL1         0.1015
      13    H9      19.988695   20.192212   21.028467 H          1 MOL1         0.1015
      14    N1      19.292940   19.852782   23.008855 N.4        1 MOL1        -0.4809
      15    H10     20.228266   19.716128   23.419885 H          1 MOL1         0.3726
      16    H11     18.670713   19.208938   23.521051 H          1 MOL1         0.3726
      17    C5      18.836539   21.294148   23.190516 C.3        1 MOL1        -0.0677
      18    H12     19.527737   21.959095   22.668135 H          1 MOL1         0.1026
      19    H13     17.831616   21.408007   22.778265 H          1 MOL1         0.1026
      20    H14     18.826998   21.536068   24.255586 H          1 MOL1         0.1026
@<TRIPOS>BOND
    1     1     2    1
    2     1     3    1
    3     1     4    1
    4     1     5    1
    5     5     6    1
    6     5     7    1
    7     5     8    1
    8     8     9    1
    9     8    10    1
   10     8    11    1
   11    11    12    1
   12    11    13    1
   13    11    14    1
   14    14    15    1
   15    14    16    1
   16    14    17    1
   17    17    18    1
   18    17    19    1
   19    17    20    1
@<TRIPOS>SUBSTRUCTURE
       1 MOL1            1 RESIDUE      1      MOL     
@<SCITEGIC>MOL_PROPERTY
VConf Rank
SciTegic.value.IntegerValue
271

@<SCITEGIC>MOL_PROPERTY
Conf_Id
SciTegic.value.IntegerValue
50

@<SCITEGIC>MOL_PROPERTY
Delta U+W
SciTegic.value.DoubleValue
0.319

@<SCITEGIC>MOL_PROPERTY
U+W
SciTegic.value.DoubleValue
15.657

@<SCITEGIC>MOL_PROPERTY
Grad RMS
SciTegic.value.DoubleValue
0.000000

@<SCITEGIC>MOL_PROPERTY
U
SciTegic.value.DoubleValue
69.962

@<SCITEGIC>MOL_PROPERTY
W
SciTegic.value.DoubleValue
-54.305

@<SCITEGIC>MOL_PROPERTY
W(PB)
SciTegic.value.DoubleValue
-56.223

@<SCITEGIC>MOL_PROPERTY
W(SA)
SciTegic.value.DoubleValue
1.918

@<SCITEGIC>MOL_PROPERTY
Valence
SciTegic.value.DoubleValue
0.982

@<SCITEGIC>MOL_PROPERTY
Coulomb
SciTegic.value.DoubleValue
69.058

@<SCITEGIC>MOL_PROPERTY
VdW
SciTegic.value.DoubleValue
-0.078

@<SCITEGIC>MOL_PROPERTY
VdW6
SciTegic.value.DoubleValue
-3.548

@<SCITEGIC>MOL_PROPERTY
VdW12
SciTegic.value.DoubleValue
3.471

@<SCITEGIC>MOL_PROPERTY
Bond
SciTegic.value.DoubleValue
0.105

@<SCITEGIC>MOL_PROPERTY
Angle
SciTegic.value.DoubleValue
0.408

@<SCITEGIC>MOL_PROPERTY
Pdih
SciTegic.value.DoubleValue
0.469

@<SCITEGIC>MOL_PROPERTY
Idih
SciTegic.value.DoubleValue
0.000

@<SCITEGIC>MOL_PROPERTY
Tether
SciTegic.value.DoubleValue
0.000

@<TRIPOS>MOLECULE
guest-s9_confgen4.mol2 : confsearch ligand conformer 272
          20          19           1
SMALL
USER_CHARGES
 
@<TRIPOS>ATOM
       1    C1      17.479469   17.275010   21.770050 C.3        1 MOL1        -0.2224
       2    H1      17.399863   16.180475   21.796209 H          1 MOL1         0.1052
       3    H2      16.751197   17.681808   22.483706 H          1 MOL1         0.1052
       4    H3      17.194559   17.608788   20.763770 H          1 MOL1         0.1052
       5    C2      18.913929   17.726341   22.120262 C.3        1 MOL1        -0.1209
       6    H4      19.616964   17.268786   21.411121 H          1 MOL1         0.1041
       7    H5      19.180430   17.350564   23.118306 H          1 MOL1         0.1041
       8    C3      19.052815   19.266785   22.089750 C.3        1 MOL1        -0.1274
       9    H6      18.815276   19.646855   21.087263 H          1 MOL1         0.1041
      10    H7      18.317585   19.710837   22.773955 H          1 MOL1         0.1041
      11    C4      20.457349   19.749144   22.504669 C.3        1 MOL1         0.0313
      12    H8      20.698344   19.365973   23.499423 H          1 MOL1         0.1015
      13    H9      20.465470   20.841165   22.549882 H          1 MOL1         0.1015
      14    N1      21.563063   19.322647   21.557365 N.4        1 MOL1        -0.4809
      15    H10     21.363075   19.659300   20.603049 H          1 MOL1         0.3726
      16    H11     21.592863   18.294827   21.485584 H          1 MOL1         0.3726
      17    C5      22.901331   19.861739   22.044456 C.3        1 MOL1        -0.0677
      18    H12     23.687466   19.547563   21.354330 H          1 MOL1         0.1026
      19    H13     22.858048   20.952415   22.081045 H          1 MOL1         0.1026
      20    H14     23.107187   19.466470   23.041541 H          1 MOL1         0.1026
@<TRIPOS>BOND
    1     1     2    1
    2     1     3    1
    3     1     4    1
    4     1     5    1
    5     5     6    1
    6     5     7    1
    7     5     8    1
    8     8     9    1
    9     8    10    1
   10     8    11    1
   11    11    12    1
   12    11    13    1
   13    11    14    1
   14    14    15    1
   15    14    16    1
   16    14    17    1
   17    17    18    1
   18    17    19    1
   19    17    20    1
@<TRIPOS>SUBSTRUCTURE
       1 MOL1            1 RESIDUE      1      MOL     
@<SCITEGIC>MOL_PROPERTY
VConf Rank
SciTegic.value.IntegerValue
272

@<SCITEGIC>MOL_PROPERTY
Conf_Id
SciTegic.value.IntegerValue
35

@<SCITEGIC>MOL_PROPERTY
Delta U+W
SciTegic.value.DoubleValue
0.360

@<SCITEGIC>MOL_PROPERTY
U+W
SciTegic.value.DoubleValue
15.698

@<SCITEGIC>MOL_PROPERTY
Grad RMS
SciTegic.value.DoubleValue
0.000000

@<SCITEGIC>MOL_PROPERTY
U
SciTegic.value.DoubleValue
69.962

@<SCITEGIC>MOL_PROPERTY
W
SciTegic.value.DoubleValue
-54.264

@<SCITEGIC>MOL_PROPERTY
W(PB)
SciTegic.value.DoubleValue
-56.166

@<SCITEGIC>MOL_PROPERTY
W(SA)
SciTegic.value.DoubleValue
1.902

@<SCITEGIC>MOL_PROPERTY
Valence
SciTegic.value.DoubleValue
0.982

@<SCITEGIC>MOL_PROPERTY
Coulomb
SciTegic.value.DoubleValue
69.058

@<SCITEGIC>MOL_PROPERTY
VdW
SciTegic.value.DoubleValue
-0.078

@<SCITEGIC>MOL_PROPERTY
VdW6
SciTegic.value.DoubleValue
-3.548

@<SCITEGIC>MOL_PROPERTY
VdW12
SciTegic.value.DoubleValue
3.471

@<SCITEGIC>MOL_PROPERTY
Bond
SciTegic.value.DoubleValue
0.105

@<SCITEGIC>MOL_PROPERTY
Angle
SciTegic.value.DoubleValue
0.408

@<SCITEGIC>MOL_PROPERTY
Pdih
SciTegic.value.DoubleValue
0.469

@<SCITEGIC>MOL_PROPERTY
Idih
SciTegic.value.DoubleValue
0.000

@<SCITEGIC>MOL_PROPERTY
Tether
SciTegic.value.DoubleValue
0.000

@<TRIPOS>MOLECULE
guest-s9_confgen4.mol2 : confsearch ligand conformer 273
          20          19           1
SMALL
USER_CHARGES
 
@<TRIPOS>ATOM
       1    C1      19.722693   20.369330   20.035376 C.3        1 MOL1        -0.2224
       2    H1      20.455504   19.642589   19.662676 H          1 MOL1         0.1052
       3    H2      19.280657   20.869795   19.164106 H          1 MOL1         0.1052
       4    H3      20.259059   21.127690   20.620437 H          1 MOL1         0.1052
       5    C2      18.625004   19.686151   20.883052 C.3        1 MOL1        -0.1209
       6    H4      18.107681   18.929331   20.276613 H          1 MOL1         0.1041
       7    H5      17.866704   20.433034   21.157154 H          1 MOL1         0.1041
       8    C3      19.176557   19.033473   22.172112 C.3        1 MOL1        -0.1274
       9    H6      19.659024   19.800964   22.790895 H          1 MOL1         0.1041
      10    H7      18.337701   18.637380   22.759434 H          1 MOL1         0.1041
      11    C4      20.171843   17.890408   21.878388 C.3        1 MOL1         0.0313
      12    H8      21.044912   18.283420   21.352033 H          1 MOL1         0.1015
      13    H9      19.687232   17.156518   21.229445 H          1 MOL1         0.1015
      14    N1      20.665272   17.149425   23.110405 N.4        1 MOL1        -0.4809
      15    H10     21.188262   16.308030   22.821019 H          1 MOL1         0.3726
      16    H11     19.866659   16.789519   23.654835 H          1 MOL1         0.3726
      17    C5      21.553446   18.039481   23.973142 C.3        1 MOL1        -0.0677
      18    H12     20.974195   18.893545   24.329416 H          1 MOL1         0.1026
      19    H13     21.917200   17.462405   24.826154 H          1 MOL1         0.1026
      20    H14     22.399656   18.388391   23.377418 H          1 MOL1         0.1026
@<TRIPOS>BOND
    1     1     2    1
    2     1     3    1
    3     1     4    1
    4     1     5    1
    5     5     6    1
    6     5     7    1
    7     5     8    1
    8     8     9    1
    9     8    10    1
   10     8    11    1
   11    11    12    1
   12    11    13    1
   13    11    14    1
   14    14    15    1
   15    14    16    1
   16    14    17    1
   17    17    18    1
   18    17    19    1
   19    17    20    1
@<TRIPOS>SUBSTRUCTURE
       1 MOL1            1 RESIDUE      1      MOL     
@<SCITEGIC>MOL_PROPERTY
VConf Rank
SciTegic.value.IntegerValue
273

@<SCITEGIC>MOL_PROPERTY
Conf_Id
SciTegic.value.IntegerValue
33

@<SCITEGIC>MOL_PROPERTY
Delta U+W
SciTegic.value.DoubleValue
0.372

@<SCITEGIC>MOL_PROPERTY
U+W
SciTegic.value.DoubleValue
15.711

@<SCITEGIC>MOL_PROPERTY
Grad RMS
SciTegic.value.DoubleValue
0.000000

@<SCITEGIC>MOL_PROPERTY
U
SciTegic.value.DoubleValue
70.163

@<SCITEGIC>MOL_PROPERTY
W
SciTegic.value.DoubleValue
-54.452

@<SCITEGIC>MOL_PROPERTY
W(PB)
SciTegic.value.DoubleValue
-56.363

@<SCITEGIC>MOL_PROPERTY
W(SA)
SciTegic.value.DoubleValue
1.911

@<SCITEGIC>MOL_PROPERTY
Valence
SciTegic.value.DoubleValue
1.420

@<SCITEGIC>MOL_PROPERTY
Coulomb
SciTegic.value.DoubleValue
68.566

@<SCITEGIC>MOL_PROPERTY
VdW
SciTegic.value.DoubleValue
0.177

@<SCITEGIC>MOL_PROPERTY
VdW6
SciTegic.value.DoubleValue
-4.267

@<SCITEGIC>MOL_PROPERTY
VdW12
SciTegic.value.DoubleValue
4.445

@<SCITEGIC>MOL_PROPERTY
Bond
SciTegic.value.DoubleValue
0.146

@<SCITEGIC>MOL_PROPERTY
Angle
SciTegic.value.DoubleValue
0.581

@<SCITEGIC>MOL_PROPERTY
Pdih
SciTegic.value.DoubleValue
0.693

@<SCITEGIC>MOL_PROPERTY
Idih
SciTegic.value.DoubleValue
0.000

@<SCITEGIC>MOL_PROPERTY
Tether
SciTegic.value.DoubleValue
0.000

@<TRIPOS>MOLECULE
guest-s9_confgen4.mol2 : confsearch ligand conformer 274
          20          19           1
SMALL
USER_CHARGES
 
@<TRIPOS>ATOM
       1    C1      21.688515   17.637920   20.340967 C.3        1 MOL1        -0.2224
       2    H1      22.224608   16.845546   19.802708 H          1 MOL1         0.1052
       3    H2      20.816889   17.917327   19.735764 H          1 MOL1         0.1052
       4    H3      22.354397   18.508299   20.405276 H          1 MOL1         0.1052
       5    C2      21.271369   17.151211   21.747848 C.3        1 MOL1        -0.1209
       6    H4      22.163145   16.797089   22.283868 H          1 MOL1         0.1041
       7    H5      20.602333   16.284043   21.655227 H          1 MOL1         0.1041
       8    C3      20.584087   18.252592   22.588373 C.3        1 MOL1        -0.1274
       9    H6      20.386021   17.862520   23.595413 H          1 MOL1         0.1041
      10    H7      21.270905   19.100215   22.708902 H          1 MOL1         0.1041
      11    C4      19.257128   18.733806   21.963013 C.3        1 MOL1         0.0313
      12    H8      18.602180   17.871544   21.814302 H          1 MOL1         0.1015
      13    H9      19.448303   19.185982   20.986927 H          1 MOL1         0.1015
      14    N1      18.492127   19.743972   22.802502 N.4        1 MOL1        -0.4809
      15    H10     18.319839   19.366676   23.746792 H          1 MOL1         0.3726
      16    H11     17.552678   19.886928   22.399753 H          1 MOL1         0.3726
      17    C5      19.231500   21.075597   22.876471 C.3        1 MOL1        -0.0677
      18    H12     18.634776   21.784341   23.454887 H          1 MOL1         0.1026
      19    H13     20.197386   20.927586   23.363343 H          1 MOL1         0.1026
      20    H14     19.381394   21.460197   21.865376 H          1 MOL1         0.1026
@<TRIPOS>BOND
    1     1     2    1
    2     1     3    1
    3     1     4    1
    4     1     5    1
    5     5     6    1
    6     5     7    1
    7     5     8    1
    8     8     9    1
    9     8    10    1
   10     8    11    1
   11    11    12    1
   12    11    13    1
   13    11    14    1
   14    14    15    1
   15    14    16    1
   16    14    17    1
   17    17    18    1
   18    17    19    1
   19    17    20    1
@<TRIPOS>SUBSTRUCTURE
       1 MOL1            1 RESIDUE      1      MOL     
@<SCITEGIC>MOL_PROPERTY
VConf Rank
SciTegic.value.IntegerValue
274

@<SCITEGIC>MOL_PROPERTY
Conf_Id
SciTegic.value.IntegerValue
53

@<SCITEGIC>MOL_PROPERTY
Delta U+W
SciTegic.value.DoubleValue
0.379

@<SCITEGIC>MOL_PROPERTY
U+W
SciTegic.value.DoubleValue
15.717

@<SCITEGIC>MOL_PROPERTY
Grad RMS
SciTegic.value.DoubleValue
0.000000

@<SCITEGIC>MOL_PROPERTY
U
SciTegic.value.DoubleValue
70.163

@<SCITEGIC>MOL_PROPERTY
W
SciTegic.value.DoubleValue
-54.446

@<SCITEGIC>MOL_PROPERTY
W(PB)
SciTegic.value.DoubleValue
-56.322

@<SCITEGIC>MOL_PROPERTY
W(SA)
SciTegic.value.DoubleValue
1.876

@<SCITEGIC>MOL_PROPERTY
Valence
SciTegic.value.DoubleValue
1.420

@<SCITEGIC>MOL_PROPERTY
Coulomb
SciTegic.value.DoubleValue
68.566

@<SCITEGIC>MOL_PROPERTY
VdW
SciTegic.value.DoubleValue
0.177

@<SCITEGIC>MOL_PROPERTY
VdW6
SciTegic.value.DoubleValue
-4.267

@<SCITEGIC>MOL_PROPERTY
VdW12
SciTegic.value.DoubleValue
4.445

@<SCITEGIC>MOL_PROPERTY
Bond
SciTegic.value.DoubleValue
0.146

@<SCITEGIC>MOL_PROPERTY
Angle
SciTegic.value.DoubleValue
0.581

@<SCITEGIC>MOL_PROPERTY
Pdih
SciTegic.value.DoubleValue
0.693

@<SCITEGIC>MOL_PROPERTY
Idih
SciTegic.value.DoubleValue
0.000

@<SCITEGIC>MOL_PROPERTY
Tether
SciTegic.value.DoubleValue
0.000

@<TRIPOS>MOLECULE
guest-s9_confgen4.mol2 : confsearch ligand conformer 275
          20          19           1
SMALL
USER_CHARGES
 
@<TRIPOS>ATOM
       1    C1      22.365988   20.399810   22.567759 C.3        1 MOL1        -0.2224
       2    H1      23.387438   20.279014   22.184288 H          1 MOL1         0.1052
       3    H2      22.131427   21.472250   22.566596 H          1 MOL1         0.1052
       4    H3      22.353644   20.048612   23.607792 H          1 MOL1         0.1052
       5    C2      21.361135   19.609265   21.702155 C.3        1 MOL1        -0.1209
       6    H4      21.649617   18.549362   21.695866 H          1 MOL1         0.1041
       7    H5      21.419671   19.961213   20.662497 H          1 MOL1         0.1041
       8    C3      19.912699   19.761404   22.223315 C.3        1 MOL1        -0.1274
       9    H6      19.842404   19.386116   23.252372 H          1 MOL1         0.1041
      10    H7      19.652686   20.827332   22.266179 H          1 MOL1         0.1041
      11    C4      18.874950   19.044545   21.331211 C.3        1 MOL1         0.0313
      12    H8      18.918217   19.469585   20.325180 H          1 MOL1         0.1015
      13    H9      17.871242   19.221106   21.726041 H          1 MOL1         0.1015
      14    N1      19.058365   17.540190   21.197399 N.4        1 MOL1        -0.4809
      15    H10     19.997231   17.327554   20.829504 H          1 MOL1         0.3726
      16    H11     18.405656   17.175094   20.486132 H          1 MOL1         0.3726
      17    C5      18.824358   16.832449   22.527541 C.3        1 MOL1        -0.0677
      18    H12     17.817053   17.059502   22.883127 H          1 MOL1         0.1026
      19    H13     18.929350   15.754952   22.382941 H          1 MOL1         0.1026
      20    H14     19.560916   17.177749   23.255733 H          1 MOL1         0.1026
@<TRIPOS>BOND
    1     1     2    1
    2     1     3    1
    3     1     4    1
    4     1     5    1
    5     5     6    1
    6     5     7    1
    7     5     8    1
    8     8     9    1
    9     8    10    1
   10     8    11    1
   11    11    12    1
   12    11    13    1
   13    11    14    1
   14    14    15    1
   15    14    16    1
   16    14    17    1
   17    17    18    1
   18    17    19    1
   19    17    20    1
@<TRIPOS>SUBSTRUCTURE
       1 MOL1            1 RESIDUE      1      MOL     
@<SCITEGIC>MOL_PROPERTY
VConf Rank
SciTegic.value.IntegerValue
275

@<SCITEGIC>MOL_PROPERTY
Conf_Id
SciTegic.value.IntegerValue
49

@<SCITEGIC>MOL_PROPERTY
Delta U+W
SciTegic.value.DoubleValue
0.268

@<SCITEGIC>MOL_PROPERTY
U+W
SciTegic.value.DoubleValue
15.607

@<SCITEGIC>MOL_PROPERTY
Grad RMS
SciTegic.value.DoubleValue
0.000000

@<SCITEGIC>MOL_PROPERTY
U
SciTegic.value.DoubleValue
70.298

@<SCITEGIC>MOL_PROPERTY
W
SciTegic.value.DoubleValue
-54.692

@<SCITEGIC>MOL_PROPERTY
W(PB)
SciTegic.value.DoubleValue
-56.576

@<SCITEGIC>MOL_PROPERTY
W(SA)
SciTegic.value.DoubleValue
1.885

@<SCITEGIC>MOL_PROPERTY
Valence
SciTegic.value.DoubleValue
1.245

@<SCITEGIC>MOL_PROPERTY
Coulomb
SciTegic.value.DoubleValue
68.933

@<SCITEGIC>MOL_PROPERTY
VdW
SciTegic.value.DoubleValue
0.120

@<SCITEGIC>MOL_PROPERTY
VdW6
SciTegic.value.DoubleValue
-4.430

@<SCITEGIC>MOL_PROPERTY
VdW12
SciTegic.value.DoubleValue
4.550

@<SCITEGIC>MOL_PROPERTY
Bond
SciTegic.value.DoubleValue
0.148

@<SCITEGIC>MOL_PROPERTY
Angle
SciTegic.value.DoubleValue
0.587

@<SCITEGIC>MOL_PROPERTY
Pdih
SciTegic.value.DoubleValue
0.509

@<SCITEGIC>MOL_PROPERTY
Idih
SciTegic.value.DoubleValue
0.000

@<SCITEGIC>MOL_PROPERTY
Tether
SciTegic.value.DoubleValue
0.000

@<TRIPOS>MOLECULE
guest-s9_confgen4.mol2 : confsearch ligand conformer 276
          20          19           1
SMALL
USER_CHARGES
 
@<TRIPOS>ATOM
       1    C1      20.420610   21.056621   20.472388 C.3        1 MOL1        -0.2224
       2    H1      21.515307   21.101640   20.403225 H          1 MOL1         0.1052
       3    H2      20.019383   20.926174   19.458909 H          1 MOL1         0.1052
       4    H3      20.067597   22.024606   20.851053 H          1 MOL1         0.1052
       5    C2      19.969029   19.909558   21.402253 C.3        1 MOL1        -0.1209
       6    H4      18.872263   19.907427   21.473599 H          1 MOL1         0.1041
       7    H5      20.357285   20.098470   22.411766 H          1 MOL1         0.1041
       8    C3      20.463296   18.534167   20.896659 C.3        1 MOL1        -0.1274
       9    H6      20.165909   18.410367   19.846902 H          1 MOL1         0.1041
      10    H7      21.560815   18.505755   20.910857 H          1 MOL1         0.1041
      11    C4      19.908357   17.331316   21.692914 C.3        1 MOL1         0.0313
      12    H8      20.266412   16.416409   21.213866 H          1 MOL1         0.1015
      13    H9      18.816313   17.320167   21.652760 H          1 MOL1         0.1015
      14    N1      20.332728   17.255965   23.151507 N.4        1 MOL1        -0.4809
      15    H10     21.281298   17.641786   23.270655 H          1 MOL1         0.3726
      16    H11     20.413639   16.266015   23.431616 H          1 MOL1         0.3726
      17    C5      19.327132   17.953961   24.061575 C.3        1 MOL1        -0.0677
      18    H12     19.656651   17.856802   25.098366 H          1 MOL1         0.1026
      19    H13     19.259835   19.009768   23.796902 H          1 MOL1         0.1026
      20    H14     18.349377   17.482251   23.942522 H          1 MOL1         0.1026
@<TRIPOS>BOND
    1     1     2    1
    2     1     3    1
    3     1     4    1
    4     1     5    1
    5     5     6    1
    6     5     7    1
    7     5     8    1
    8     8     9    1
    9     8    10    1
   10     8    11    1
   11    11    12    1
   12    11    13    1
   13    11    14    1
   14    14    15    1
   15    14    16    1
   16    14    17    1
   17    17    18    1
   18    17    19    1
   19    17    20    1
@<TRIPOS>SUBSTRUCTURE
       1 MOL1            1 RESIDUE      1      MOL     
@<SCITEGIC>MOL_PROPERTY
VConf Rank
SciTegic.value.IntegerValue
276

@<SCITEGIC>MOL_PROPERTY
Conf_Id
SciTegic.value.IntegerValue
65

@<SCITEGIC>MOL_PROPERTY
Delta U+W
SciTegic.value.DoubleValue
1.775

@<SCITEGIC>MOL_PROPERTY
U+W
SciTegic.value.DoubleValue
17.114

@<SCITEGIC>MOL_PROPERTY
Grad RMS
SciTegic.value.DoubleValue
0.000000

@<SCITEGIC>MOL_PROPERTY
U
SciTegic.value.DoubleValue
71.726

@<SCITEGIC>MOL_PROPERTY
W
SciTegic.value.DoubleValue
-54.613

@<SCITEGIC>MOL_PROPERTY
W(PB)
SciTegic.value.DoubleValue
-56.495

@<SCITEGIC>MOL_PROPERTY
W(SA)
SciTegic.value.DoubleValue
1.883

@<SCITEGIC>MOL_PROPERTY
Valence
SciTegic.value.DoubleValue
2.885

@<SCITEGIC>MOL_PROPERTY
Coulomb
SciTegic.value.DoubleValue
68.822

@<SCITEGIC>MOL_PROPERTY
VdW
SciTegic.value.DoubleValue
0.019

@<SCITEGIC>MOL_PROPERTY
VdW6
SciTegic.value.DoubleValue
-4.600

@<SCITEGIC>MOL_PROPERTY
VdW12
SciTegic.value.DoubleValue
4.619

@<SCITEGIC>MOL_PROPERTY
Bond
SciTegic.value.DoubleValue
0.152

@<SCITEGIC>MOL_PROPERTY
Angle
SciTegic.value.DoubleValue
0.862

@<SCITEGIC>MOL_PROPERTY
Pdih
SciTegic.value.DoubleValue
1.871

@<SCITEGIC>MOL_PROPERTY
Idih
SciTegic.value.DoubleValue
0.000

@<SCITEGIC>MOL_PROPERTY
Tether
SciTegic.value.DoubleValue
0.000

@<TRIPOS>MOLECULE
guest-s9_confgen4.mol2 : confsearch ligand conformer 277
          20          19           1
SMALL
USER_CHARGES
 
@<TRIPOS>ATOM
       1    C1      18.747309   16.873671   21.447858 C.3        1 MOL1        -0.2224
       2    H1      19.652199   17.043279   20.850857 H          1 MOL1         0.1052
       3    H2      18.665453   15.793365   21.624541 H          1 MOL1         0.1052
       4    H3      17.879686   17.181253   20.849783 H          1 MOL1         0.1052
       5    C2      18.797509   17.640254   22.789499 C.3        1 MOL1        -0.1209
       6    H4      19.672200   17.314818   23.368823 H          1 MOL1         0.1041
       7    H5      17.918443   17.366913   23.389945 H          1 MOL1         0.1041
       8    C3      18.819085   19.178789   22.609381 C.3        1 MOL1        -0.1274
       9    H6      17.889174   19.497887   22.120293 H          1 MOL1         0.1041
      10    H7      18.826510   19.661456   23.595648 H          1 MOL1         0.1041
      11    C4      20.013763   19.697274   21.781805 C.3        1 MOL1         0.0313
      12    H8      19.937336   20.782397   21.675938 H          1 MOL1         0.1015
      13    H9      19.987661   19.256980   20.782192 H          1 MOL1         0.1015
      14    N1      21.367094   19.389146   22.393486 N.4        1 MOL1        -0.4809
      15    H10     21.474684   18.371424   22.516599 H          1 MOL1         0.3726
      16    H11     21.428068   19.789704   23.342029 H          1 MOL1         0.3726
      17    C5      22.476092   19.940153   21.507465 C.3        1 MOL1        -0.0677
      18    H12     22.360026   21.022337   21.417073 H          1 MOL1         0.1026
      19    H13     23.443734   19.710213   21.958869 H          1 MOL1         0.1026
      20    H14     22.411196   19.477802   20.520155 H          1 MOL1         0.1026
@<TRIPOS>BOND
    1     1     2    1
    2     1     3    1
    3     1     4    1
    4     1     5    1
    5     5     6    1
    6     5     7    1
    7     5     8    1
    8     8     9    1
    9     8    10    1
   10     8    11    1
   11    11    12    1
   12    11    13    1
   13    11    14    1
   14    14    15    1
   15    14    16    1
   16    14    17    1
   17    17    18    1
   18    17    19    1
   19    17    20    1
@<TRIPOS>SUBSTRUCTURE
       1 MOL1            1 RESIDUE      1      MOL     
@<SCITEGIC>MOL_PROPERTY
VConf Rank
SciTegic.value.IntegerValue
277

@<SCITEGIC>MOL_PROPERTY
Conf_Id
SciTegic.value.IntegerValue
23

@<SCITEGIC>MOL_PROPERTY
Delta U+W
SciTegic.value.DoubleValue
0.896

@<SCITEGIC>MOL_PROPERTY
U+W
SciTegic.value.DoubleValue
16.234

@<SCITEGIC>MOL_PROPERTY
Grad RMS
SciTegic.value.DoubleValue
0.000000

@<SCITEGIC>MOL_PROPERTY
U
SciTegic.value.DoubleValue
70.374

@<SCITEGIC>MOL_PROPERTY
W
SciTegic.value.DoubleValue
-54.140

@<SCITEGIC>MOL_PROPERTY
W(PB)
SciTegic.value.DoubleValue
-56.046

@<SCITEGIC>MOL_PROPERTY
W(SA)
SciTegic.value.DoubleValue
1.907

@<SCITEGIC>MOL_PROPERTY
Valence
SciTegic.value.DoubleValue
1.257

@<SCITEGIC>MOL_PROPERTY
Coulomb
SciTegic.value.DoubleValue
69.240

@<SCITEGIC>MOL_PROPERTY
VdW
SciTegic.value.DoubleValue
-0.123

@<SCITEGIC>MOL_PROPERTY
VdW6
SciTegic.value.DoubleValue
-4.336

@<SCITEGIC>MOL_PROPERTY
VdW12
SciTegic.value.DoubleValue
4.213

@<SCITEGIC>MOL_PROPERTY
Bond
SciTegic.value.DoubleValue
0.128

@<SCITEGIC>MOL_PROPERTY
Angle
SciTegic.value.DoubleValue
0.603

@<SCITEGIC>MOL_PROPERTY
Pdih
SciTegic.value.DoubleValue
0.526

@<SCITEGIC>MOL_PROPERTY
Idih
SciTegic.value.DoubleValue
0.000

@<SCITEGIC>MOL_PROPERTY
Tether
SciTegic.value.DoubleValue
0.000

@<TRIPOS>MOLECULE
guest-s9_confgen4.mol2 : confsearch ligand conformer 278
          20          19           1
SMALL
USER_CHARGES
 
@<TRIPOS>ATOM
       1    C1      18.588269   18.460299   20.236124 C.3        1 MOL1        -0.2224
       2    H1      18.501587   19.370158   19.628083 H          1 MOL1         0.1052
       3    H2      17.971148   17.683859   19.765716 H          1 MOL1         0.1052
       4    H3      18.161226   18.667604   21.225398 H          1 MOL1         0.1052
       5    C2      20.059751   17.996725   20.336169 C.3        1 MOL1        -0.1209
       6    H4      20.413349   17.712505   19.335073 H          1 MOL1         0.1041
       7    H5      20.119828   17.086175   20.947642 H          1 MOL1         0.1041
       8    C3      21.002105   19.085897   20.906846 C.3        1 MOL1        -0.1274
       9    H6      22.031542   18.704253   20.925588 H          1 MOL1         0.1041
      10    H7      21.008770   19.948998   20.228040 H          1 MOL1         0.1041
      11    C4      20.615848   19.573075   22.319090 C.3        1 MOL1         0.0313
      12    H8      19.609133   19.997227   22.299471 H          1 MOL1         0.1015
      13    H9      21.308063   20.358349   22.633291 H          1 MOL1         0.1015
      14    N1      20.644561   18.485097   23.375539 N.4        1 MOL1        -0.4809
      15    H10     21.582852   18.059240   23.421955 H          1 MOL1         0.3726
      16    H11     20.007219   17.719585   23.110444 H          1 MOL1         0.3726
      17    C5      20.251536   19.063027   24.728333 C.3        1 MOL1        -0.0677
      18    H12     19.243425   19.478042   24.663271 H          1 MOL1         0.1026
      19    H13     20.275296   18.269305   25.478274 H          1 MOL1         0.1026
      20    H14     20.957963   19.849543   25.002411 H          1 MOL1         0.1026
@<TRIPOS>BOND
    1     1     2    1
    2     1     3    1
    3     1     4    1
    4     1     5    1
    5     5     6    1
    6     5     7    1
    7     5     8    1
    8     8     9    1
    9     8    10    1
   10     8    11    1
   11    11    12    1
   12    11    13    1
   13    11    14    1
   14    14    15    1
   15    14    16    1
   16    14    17    1
   17    17    18    1
   18    17    19    1
   19    17    20    1
@<TRIPOS>SUBSTRUCTURE
       1 MOL1            1 RESIDUE      1      MOL     
@<SCITEGIC>MOL_PROPERTY
VConf Rank
SciTegic.value.IntegerValue
278

@<SCITEGIC>MOL_PROPERTY
Conf_Id
SciTegic.value.IntegerValue
24

@<SCITEGIC>MOL_PROPERTY
Delta U+W
SciTegic.value.DoubleValue
0.792

@<SCITEGIC>MOL_PROPERTY
U+W
SciTegic.value.DoubleValue
16.130

@<SCITEGIC>MOL_PROPERTY
Grad RMS
SciTegic.value.DoubleValue
0.000000

@<SCITEGIC>MOL_PROPERTY
U
SciTegic.value.DoubleValue
70.374

@<SCITEGIC>MOL_PROPERTY
W
SciTegic.value.DoubleValue
-54.243

@<SCITEGIC>MOL_PROPERTY
W(PB)
SciTegic.value.DoubleValue
-56.130

@<SCITEGIC>MOL_PROPERTY
W(SA)
SciTegic.value.DoubleValue
1.887

@<SCITEGIC>MOL_PROPERTY
Valence
SciTegic.value.DoubleValue
1.257

@<SCITEGIC>MOL_PROPERTY
Coulomb
SciTegic.value.DoubleValue
69.240

@<SCITEGIC>MOL_PROPERTY
VdW
SciTegic.value.DoubleValue
-0.123

@<SCITEGIC>MOL_PROPERTY
VdW6
SciTegic.value.DoubleValue
-4.336

@<SCITEGIC>MOL_PROPERTY
VdW12
SciTegic.value.DoubleValue
4.213

@<SCITEGIC>MOL_PROPERTY
Bond
SciTegic.value.DoubleValue
0.128

@<SCITEGIC>MOL_PROPERTY
Angle
SciTegic.value.DoubleValue
0.603

@<SCITEGIC>MOL_PROPERTY
Pdih
SciTegic.value.DoubleValue
0.526

@<SCITEGIC>MOL_PROPERTY
Idih
SciTegic.value.DoubleValue
0.000

@<SCITEGIC>MOL_PROPERTY
Tether
SciTegic.value.DoubleValue
0.000

@<TRIPOS>MOLECULE
guest-s9_confgen4.mol2 : confsearch ligand conformer 279
          20          19           1
SMALL
USER_CHARGES
 
@<TRIPOS>ATOM
       1    C1      17.929551   19.380030   21.568690 C.3        1 MOL1        -0.2224
       2    H1      17.022639   19.982658   21.428795 H          1 MOL1         0.1052
       3    H2      18.711777   19.828072   20.944648 H          1 MOL1         0.1052
       4    H3      17.715874   18.368278   21.200094 H          1 MOL1         0.1052
       5    C2      18.334250   19.361154   23.060442 C.3        1 MOL1        -0.1209
       6    H4      17.449031   19.107654   23.660602 H          1 MOL1         0.1041
       7    H5      18.631959   20.372531   23.371230 H          1 MOL1         0.1041
       8    C3      19.462937   18.356701   23.406819 C.3        1 MOL1        -0.1274
       9    H6      19.615280   18.381311   24.494019 H          1 MOL1         0.1041
      10    H7      19.148280   17.331671   23.170157 H          1 MOL1         0.1041
      11    C4      20.818010   18.662075   22.733910 C.3        1 MOL1         0.0313
      12    H8      21.615012   18.168083   23.295428 H          1 MOL1         0.1015
      13    H9      21.006145   19.738402   22.754185 H          1 MOL1         0.1015
      14    N1      20.926092   18.182344   21.298928 N.4        1 MOL1        -0.4809
      15    H10     20.160801   18.579771   20.735900 H          1 MOL1         0.3726
      16    H11     20.795805   17.159989   21.256201 H          1 MOL1         0.3726
      17    C5      22.278480   18.573704   20.719017 C.3        1 MOL1        -0.0677
      18    H12     22.380138   19.660799   20.744694 H          1 MOL1         0.1026
      19    H13     23.071178   18.114408   21.313526 H          1 MOL1         0.1026
      20    H14     22.341854   18.222137   19.686857 H          1 MOL1         0.1026
@<TRIPOS>BOND
    1     1     2    1
    2     1     3    1
    3     1     4    1
    4     1     5    1
    5     5     6    1
    6     5     7    1
    7     5     8    1
    8     8     9    1
    9     8    10    1
   10     8    11    1
   11    11    12    1
   12    11    13    1
   13    11    14    1
   14    14    15    1
   15    14    16    1
   16    14    17    1
   17    17    18    1
   18    17    19    1
   19    17    20    1
@<TRIPOS>SUBSTRUCTURE
       1 MOL1            1 RESIDUE      1      MOL     
@<SCITEGIC>MOL_PROPERTY
VConf Rank
SciTegic.value.IntegerValue
279

@<SCITEGIC>MOL_PROPERTY
Conf_Id
SciTegic.value.IntegerValue
26

@<SCITEGIC>MOL_PROPERTY
Delta U+W
SciTegic.value.DoubleValue
2.888

@<SCITEGIC>MOL_PROPERTY
U+W
SciTegic.value.DoubleValue
18.226

@<SCITEGIC>MOL_PROPERTY
Grad RMS
SciTegic.value.DoubleValue
0.000000

@<SCITEGIC>MOL_PROPERTY
U
SciTegic.value.DoubleValue
72.042

@<SCITEGIC>MOL_PROPERTY
W
SciTegic.value.DoubleValue
-53.816

@<SCITEGIC>MOL_PROPERTY
W(PB)
SciTegic.value.DoubleValue
-55.689

@<SCITEGIC>MOL_PROPERTY
W(SA)
SciTegic.value.DoubleValue
1.873

@<SCITEGIC>MOL_PROPERTY
Valence
SciTegic.value.DoubleValue
2.428

@<SCITEGIC>MOL_PROPERTY
Coulomb
SciTegic.value.DoubleValue
69.829

@<SCITEGIC>MOL_PROPERTY
VdW
SciTegic.value.DoubleValue
-0.215

@<SCITEGIC>MOL_PROPERTY
VdW6
SciTegic.value.DoubleValue
-4.563

@<SCITEGIC>MOL_PROPERTY
VdW12
SciTegic.value.DoubleValue
4.348

@<SCITEGIC>MOL_PROPERTY
Bond
SciTegic.value.DoubleValue
0.137

@<SCITEGIC>MOL_PROPERTY
Angle
SciTegic.value.DoubleValue
0.936

@<SCITEGIC>MOL_PROPERTY
Pdih
SciTegic.value.DoubleValue
1.356

@<SCITEGIC>MOL_PROPERTY
Idih
SciTegic.value.DoubleValue
0.000

@<SCITEGIC>MOL_PROPERTY
Tether
SciTegic.value.DoubleValue
0.000

@<TRIPOS>MOLECULE
guest-s9_confgen4.mol2 : confsearch ligand conformer 280
          20          19           1
SMALL
USER_CHARGES
 
@<TRIPOS>ATOM
       1    C1      18.468819   19.538096   23.355135 C.3        1 MOL1        -0.2224
       2    H1      17.711880   19.559370   24.149999 H          1 MOL1         0.1052
       3    H2      18.340939   20.445534   22.750678 H          1 MOL1         0.1052
       4    H3      18.254479   18.662208   22.731493 H          1 MOL1         0.1052
       5    C2      19.886053   19.465904   23.968075 C.3        1 MOL1        -0.1209
       6    H4      20.011822   18.504548   24.485844 H          1 MOL1         0.1041
       7    H5      19.972971   20.241110   24.742393 H          1 MOL1         0.1041
       8    C3      21.037188   19.662734   22.948771 C.3        1 MOL1        -0.1274
       9    H6      20.965921   20.652229   22.478106 H          1 MOL1         0.1041
      10    H7      21.984395   19.661234   23.504303 H          1 MOL1         0.1041
      11    C4      21.124576   18.567225   21.865024 C.3        1 MOL1         0.0313
      12    H8      20.941113   17.587990   22.314162 H          1 MOL1         0.1015
      13    H9      22.132410   18.562690   21.442186 H          1 MOL1         0.1015
      14    N1      20.161176   18.753382   20.708215 N.4        1 MOL1        -0.4809
      15    H10     20.342008   19.653304   20.237636 H          1 MOL1         0.3726
      16    H11     19.195611   18.817697   21.060590 H          1 MOL1         0.3726
      17    C5      20.298100   17.598867   19.724977 C.3        1 MOL1        -0.0677
      18    H12     20.070545   16.661300   20.236792 H          1 MOL1         0.1026
      19    H13     19.599381   17.746333   18.898528 H          1 MOL1         0.1026
      20    H14     21.320559   17.571997   19.342068 H          1 MOL1         0.1026
@<TRIPOS>BOND
    1     1     2    1
    2     1     3    1
    3     1     4    1
    4     1     5    1
    5     5     6    1
    6     5     7    1
    7     5     8    1
    8     8     9    1
    9     8    10    1
   10     8    11    1
   11    11    12    1
   12    11    13    1
   13    11    14    1
   14    14    15    1
   15    14    16    1
   16    14    17    1
   17    17    18    1
   18    17    19    1
   19    17    20    1
@<TRIPOS>SUBSTRUCTURE
       1 MOL1            1 RESIDUE      1      MOL     
@<SCITEGIC>MOL_PROPERTY
VConf Rank
SciTegic.value.IntegerValue
280

@<SCITEGIC>MOL_PROPERTY
Conf_Id
SciTegic.value.IntegerValue
5

@<SCITEGIC>MOL_PROPERTY
Delta U+W
SciTegic.value.DoubleValue
2.950

@<SCITEGIC>MOL_PROPERTY
U+W
SciTegic.value.DoubleValue
18.289

@<SCITEGIC>MOL_PROPERTY
Grad RMS
SciTegic.value.DoubleValue
0.000000

@<SCITEGIC>MOL_PROPERTY
U
SciTegic.value.DoubleValue
72.042

@<SCITEGIC>MOL_PROPERTY
W
SciTegic.value.DoubleValue
-53.753

@<SCITEGIC>MOL_PROPERTY
W(PB)
SciTegic.value.DoubleValue
-55.644

@<SCITEGIC>MOL_PROPERTY
W(SA)
SciTegic.value.DoubleValue
1.891

@<SCITEGIC>MOL_PROPERTY
Valence
SciTegic.value.DoubleValue
2.428

@<SCITEGIC>MOL_PROPERTY
Coulomb
SciTegic.value.DoubleValue
69.829

@<SCITEGIC>MOL_PROPERTY
VdW
SciTegic.value.DoubleValue
-0.215

@<SCITEGIC>MOL_PROPERTY
VdW6
SciTegic.value.DoubleValue
-4.563

@<SCITEGIC>MOL_PROPERTY
VdW12
SciTegic.value.DoubleValue
4.348

@<SCITEGIC>MOL_PROPERTY
Bond
SciTegic.value.DoubleValue
0.137

@<SCITEGIC>MOL_PROPERTY
Angle
SciTegic.value.DoubleValue
0.936

@<SCITEGIC>MOL_PROPERTY
Pdih
SciTegic.value.DoubleValue
1.356

@<SCITEGIC>MOL_PROPERTY
Idih
SciTegic.value.DoubleValue
0.000

@<SCITEGIC>MOL_PROPERTY
Tether
SciTegic.value.DoubleValue
0.000

@<TRIPOS>MOLECULE
guest-s9_confgen4.mol2 : confsearch ligand conformer 281
          20          19           1
SMALL
USER_CHARGES
 
@<TRIPOS>ATOM
       1    C1      22.235356   18.305205   23.009660 C.3        1 MOL1        -0.2224
       2    H1      23.053613   18.933525   22.634524 H          1 MOL1         0.1052
       3    H2      21.672790   18.883946   23.752867 H          1 MOL1         0.1052
       4    H3      22.683254   17.447536   23.528079 H          1 MOL1         0.1052
       5    C2      21.327778   17.826310   21.853329 C.3        1 MOL1        -0.1209
       6    H4      20.520036   17.197431   22.251861 H          1 MOL1         0.1041
       7    H5      21.912905   17.179614   21.184521 H          1 MOL1         0.1041
       8    C3      20.733460   18.992502   21.025030 C.3        1 MOL1        -0.1274
       9    H6      21.551201   19.554949   20.555471 H          1 MOL1         0.1041
      10    H7      20.135223   18.585250   20.199797 H          1 MOL1         0.1041
      11    C4      19.871842   19.975048   21.850712 C.3        1 MOL1         0.0313
      12    H8      19.489100   20.763190   21.197443 H          1 MOL1         0.1015
      13    H9      20.499934   20.446995   22.610215 H          1 MOL1         0.1015
      14    N1      18.683969   19.350632   22.566524 N.4        1 MOL1        -0.4809
      15    H10     18.255482   20.046047   23.197280 H          1 MOL1         0.3726
      16    H11     19.004356   18.590670   23.184515 H          1 MOL1         0.3726
      17    C5      17.645213   18.840493   21.573869 C.3        1 MOL1        -0.0677
      18    H12     18.090851   18.061470   20.952163 H          1 MOL1         0.1026
      19    H13     16.795948   18.429413   22.124023 H          1 MOL1         0.1026
      20    H14     17.310671   19.669205   20.946213 H          1 MOL1         0.1026
@<TRIPOS>BOND
    1     1     2    1
    2     1     3    1
    3     1     4    1
    4     1     5    1
    5     5     6    1
    6     5     7    1
    7     5     8    1
    8     8     9    1
    9     8    10    1
   10     8    11    1
   11    11    12    1
   12    11    13    1
   13    11    14    1
   14    14    15    1
   15    14    16    1
   16    14    17    1
   17    17    18    1
   18    17    19    1
   19    17    20    1
@<TRIPOS>SUBSTRUCTURE
       1 MOL1            1 RESIDUE      1      MOL     
@<SCITEGIC>MOL_PROPERTY
VConf Rank
SciTegic.value.IntegerValue
281

@<SCITEGIC>MOL_PROPERTY
Conf_Id
SciTegic.value.IntegerValue
52

@<SCITEGIC>MOL_PROPERTY
Delta U+W
SciTegic.value.DoubleValue
0.784

@<SCITEGIC>MOL_PROPERTY
U+W
SciTegic.value.DoubleValue
16.122

@<SCITEGIC>MOL_PROPERTY
Grad RMS
SciTegic.value.DoubleValue
0.000000

@<SCITEGIC>MOL_PROPERTY
U
SciTegic.value.DoubleValue
70.777

@<SCITEGIC>MOL_PROPERTY
W
SciTegic.value.DoubleValue
-54.655

@<SCITEGIC>MOL_PROPERTY
W(PB)
SciTegic.value.DoubleValue
-56.491

@<SCITEGIC>MOL_PROPERTY
W(SA)
SciTegic.value.DoubleValue
1.836

@<SCITEGIC>MOL_PROPERTY
Valence
SciTegic.value.DoubleValue
1.529

@<SCITEGIC>MOL_PROPERTY
Coulomb
SciTegic.value.DoubleValue
69.166

@<SCITEGIC>MOL_PROPERTY
VdW
SciTegic.value.DoubleValue
0.082

@<SCITEGIC>MOL_PROPERTY
VdW6
SciTegic.value.DoubleValue
-5.166

@<SCITEGIC>MOL_PROPERTY
VdW12
SciTegic.value.DoubleValue
5.248

@<SCITEGIC>MOL_PROPERTY
Bond
SciTegic.value.DoubleValue
0.171

@<SCITEGIC>MOL_PROPERTY
Angle
SciTegic.value.DoubleValue
0.752

@<SCITEGIC>MOL_PROPERTY
Pdih
SciTegic.value.DoubleValue
0.605

@<SCITEGIC>MOL_PROPERTY
Idih
SciTegic.value.DoubleValue
0.000

@<SCITEGIC>MOL_PROPERTY
Tether
SciTegic.value.DoubleValue
0.000

@<TRIPOS>MOLECULE
guest-s9_confgen4.mol2 : confsearch ligand conformer 282
          20          19           1
SMALL
USER_CHARGES
 
@<TRIPOS>ATOM
       1    C1      22.102359   18.960003   22.442404 C.3        1 MOL1        -0.2224
       2    H1      23.176960   19.145102   22.569449 H          1 MOL1         0.1052
       3    H2      21.613389   19.258789   23.376636 H          1 MOL1         0.1052
       4    H3      21.965410   17.880136   22.299435 H          1 MOL1         0.1052
       5    C2      21.560624   19.759750   21.235635 C.3        1 MOL1        -0.1209
       6    H4      22.231773   19.597835   20.380435 H          1 MOL1         0.1041
       7    H5      21.606084   20.835287   21.457380 H          1 MOL1         0.1041
       8    C3      20.122401   19.374786   20.804192 C.3        1 MOL1        -0.1274
       9    H6      19.884498   19.934766   19.890184 H          1 MOL1         0.1041
      10    H7      20.081435   18.315253   20.522034 H          1 MOL1         0.1041
      11    C4      19.028916   19.699727   21.848345 C.3        1 MOL1         0.0313
      12    H8      18.053922   19.715815   21.354838 H          1 MOL1         0.1015
      13    H9      19.211593   20.696588   22.257450 H          1 MOL1         0.1015
      14    N1      18.919427   18.729587   23.014258 N.4        1 MOL1        -0.4809
      15    H10     18.305134   19.130189   23.740427 H          1 MOL1         0.3726
      16    H11     19.836854   18.617472   23.467688 H          1 MOL1         0.3726
      17    C5      18.372520   17.380302   22.561438 C.3        1 MOL1        -0.0677
      18    H12     17.394138   17.526259   22.098723 H          1 MOL1         0.1026
      19    H13     19.059788   16.933040   21.840858 H          1 MOL1         0.1026
      20    H14     18.274493   16.724602   23.429402 H          1 MOL1         0.1026
@<TRIPOS>BOND
    1     1     2    1
    2     1     3    1
    3     1     4    1
    4     1     5    1
    5     5     6    1
    6     5     7    1
    7     5     8    1
    8     8     9    1
    9     8    10    1
   10     8    11    1
   11    11    12    1
   12    11    13    1
   13    11    14    1
   14    14    15    1
   15    14    16    1
   16    14    17    1
   17    17    18    1
   18    17    19    1
   19    17    20    1
@<TRIPOS>SUBSTRUCTURE
       1 MOL1            1 RESIDUE      1      MOL     
@<SCITEGIC>MOL_PROPERTY
VConf Rank
SciTegic.value.IntegerValue
282

@<SCITEGIC>MOL_PROPERTY
Conf_Id
SciTegic.value.IntegerValue
55

@<SCITEGIC>MOL_PROPERTY
Delta U+W
SciTegic.value.DoubleValue
2.745

@<SCITEGIC>MOL_PROPERTY
U+W
SciTegic.value.DoubleValue
18.083

@<SCITEGIC>MOL_PROPERTY
Grad RMS
SciTegic.value.DoubleValue
0.000000

@<SCITEGIC>MOL_PROPERTY
U
SciTegic.value.DoubleValue
72.490

@<SCITEGIC>MOL_PROPERTY
W
SciTegic.value.DoubleValue
-54.407

@<SCITEGIC>MOL_PROPERTY
W(PB)
SciTegic.value.DoubleValue
-56.269

@<SCITEGIC>MOL_PROPERTY
W(SA)
SciTegic.value.DoubleValue
1.861

@<SCITEGIC>MOL_PROPERTY
Valence
SciTegic.value.DoubleValue
2.738

@<SCITEGIC>MOL_PROPERTY
Coulomb
SciTegic.value.DoubleValue
69.795

@<SCITEGIC>MOL_PROPERTY
VdW
SciTegic.value.DoubleValue
-0.043

@<SCITEGIC>MOL_PROPERTY
VdW6
SciTegic.value.DoubleValue
-5.333

@<SCITEGIC>MOL_PROPERTY
VdW12
SciTegic.value.DoubleValue
5.290

@<SCITEGIC>MOL_PROPERTY
Bond
SciTegic.value.DoubleValue
0.182

@<SCITEGIC>MOL_PROPERTY
Angle
SciTegic.value.DoubleValue
1.135

@<SCITEGIC>MOL_PROPERTY
Pdih
SciTegic.value.DoubleValue
1.422

@<SCITEGIC>MOL_PROPERTY
Idih
SciTegic.value.DoubleValue
0.000

@<SCITEGIC>MOL_PROPERTY
Tether
SciTegic.value.DoubleValue
0.000

@<TRIPOS>MOLECULE
guest-s9_confgen4.mol2 : confsearch ligand conformer 283
          20          19           1
SMALL
USER_CHARGES
 
@<TRIPOS>ATOM
       1    C1      21.201199   20.462743   21.572511 C.3        1 MOL1        -0.2224
       2    H1      21.859707   21.242919   21.168952 H          1 MOL1         0.1052
       3    H2      20.512109   20.942232   22.280009 H          1 MOL1         0.1052
       4    H3      21.837702   19.758131   22.119811 H          1 MOL1         0.1052
       5    C2      20.434008   19.764551   20.426510 C.3        1 MOL1        -0.1209
       6    H4      21.140382   19.199177   19.802486 H          1 MOL1         0.1041
       7    H5      20.003743   20.537008   19.773665 H          1 MOL1         0.1041
       8    C3      19.288276   18.832022   20.896105 C.3        1 MOL1        -0.1274
       9    H6      18.545970   19.401551   21.469273 H          1 MOL1         0.1041
      10    H7      18.760905   18.471617   20.003035 H          1 MOL1         0.1041
      11    C4      19.754240   17.592439   21.694770 C.3        1 MOL1         0.0313
      12    H8      20.624736   17.155478   21.199017 H          1 MOL1         0.1015
      13    H9      18.958616   16.843174   21.692296 H          1 MOL1         0.1015
      14    N1      20.122210   17.843215   23.148805 N.4        1 MOL1        -0.4809
      15    H10     20.815918   18.601265   23.211801 H          1 MOL1         0.3726
      16    H11     20.594701   17.010476   23.534106 H          1 MOL1         0.3726
      17    C5      18.888474   18.169738   23.983071 C.3        1 MOL1        -0.0677
      18    H12     18.429930   19.087344   23.609768 H          1 MOL1         0.1026
      19    H13     18.177146   17.344260   23.910702 H          1 MOL1         0.1026
      20    H14     19.187181   18.307311   25.024588 H          1 MOL1         0.1026
@<TRIPOS>BOND
    1     1     2    1
    2     1     3    1
    3     1     4    1
    4     1     5    1
    5     5     6    1
    6     5     7    1
    7     5     8    1
    8     8     9    1
    9     8    10    1
   10     8    11    1
   11    11    12    1
   12    11    13    1
   13    11    14    1
   14    14    15    1
   15    14    16    1
   16    14    17    1
   17    17    18    1
   18    17    19    1
   19    17    20    1
@<TRIPOS>SUBSTRUCTURE
       1 MOL1            1 RESIDUE      1      MOL     
@<SCITEGIC>MOL_PROPERTY
VConf Rank
SciTegic.value.IntegerValue
283

@<SCITEGIC>MOL_PROPERTY
Conf_Id
SciTegic.value.IntegerValue
76

@<SCITEGIC>MOL_PROPERTY
Delta U+W
SciTegic.value.DoubleValue
2.799

@<SCITEGIC>MOL_PROPERTY
U+W
SciTegic.value.DoubleValue
18.137

@<SCITEGIC>MOL_PROPERTY
Grad RMS
SciTegic.value.DoubleValue
0.000000

@<SCITEGIC>MOL_PROPERTY
U
SciTegic.value.DoubleValue
72.490

@<SCITEGIC>MOL_PROPERTY
W
SciTegic.value.DoubleValue
-54.353

@<SCITEGIC>MOL_PROPERTY
W(PB)
SciTegic.value.DoubleValue
-56.201

@<SCITEGIC>MOL_PROPERTY
W(SA)
SciTegic.value.DoubleValue
1.848

@<SCITEGIC>MOL_PROPERTY
Valence
SciTegic.value.DoubleValue
2.738

@<SCITEGIC>MOL_PROPERTY
Coulomb
SciTegic.value.DoubleValue
69.795

@<SCITEGIC>MOL_PROPERTY
VdW
SciTegic.value.DoubleValue
-0.043

@<SCITEGIC>MOL_PROPERTY
VdW6
SciTegic.value.DoubleValue
-5.334

@<SCITEGIC>MOL_PROPERTY
VdW12
SciTegic.value.DoubleValue
5.290

@<SCITEGIC>MOL_PROPERTY
Bond
SciTegic.value.DoubleValue
0.182

@<SCITEGIC>MOL_PROPERTY
Angle
SciTegic.value.DoubleValue
1.135

@<SCITEGIC>MOL_PROPERTY
Pdih
SciTegic.value.DoubleValue
1.421

@<SCITEGIC>MOL_PROPERTY
Idih
SciTegic.value.DoubleValue
0.000

@<SCITEGIC>MOL_PROPERTY
Tether
SciTegic.value.DoubleValue
0.000

@<TRIPOS>MOLECULE
guest-s9_confgen4.mol2 : confsearch ligand conformer 284
          20          19           1
SMALL
USER_CHARGES
 
@<TRIPOS>ATOM
       1    C1      18.591856   17.182516   21.927887 C.3        1 MOL1        -0.2224
       2    H1      18.807552   17.576478   22.928546 H          1 MOL1         0.1052
       3    H2      17.578183   17.497835   21.648616 H          1 MOL1         0.1052
       4    H3      18.594586   16.086931   21.995203 H          1 MOL1         0.1052
       5    C2      19.629012   17.664709   20.887521 C.3        1 MOL1        -0.1209
       6    H4      19.410781   17.186561   19.922336 H          1 MOL1         0.1041
       7    H5      20.633314   17.322539   21.168696 H          1 MOL1         0.1041
       8    C3      19.623718   19.200607   20.691474 C.3        1 MOL1        -0.1274
       9    H6      20.348820   19.469967   19.912321 H          1 MOL1         0.1041
      10    H7      18.641183   19.501425   20.304461 H          1 MOL1         0.1041
      11    C4      19.916306   20.031575   21.962916 C.3        1 MOL1         0.0313
      12    H8      19.213291   19.775910   22.759139 H          1 MOL1         0.1015
      13    H9      19.764403   21.085235   21.715142 H          1 MOL1         0.1015
      14    N1      21.330397   19.916844   22.512577 N.4        1 MOL1        -0.4809
      15    H10     21.593995   20.808884   22.959321 H          1 MOL1         0.3726
      16    H11     22.006192   19.798740   21.743164 H          1 MOL1         0.3726
      17    C5      21.449238   18.791552   23.534752 C.3        1 MOL1        -0.0677
      18    H12     22.470234   18.767644   23.921949 H          1 MOL1         0.1026
      19    H13     20.751139   18.976893   24.353835 H          1 MOL1         0.1026
      20    H14     21.215771   17.837247   23.061659 H          1 MOL1         0.1026
@<TRIPOS>BOND
    1     1     2    1
    2     1     3    1
    3     1     4    1
    4     1     5    1
    5     5     6    1
    6     5     7    1
    7     5     8    1
    8     8     9    1
    9     8    10    1
   10     8    11    1
   11    11    12    1
   12    11    13    1
   13    11    14    1
   14    14    15    1
   15    14    16    1
   16    14    17    1
   17    17    18    1
   18    17    19    1
   19    17    20    1
@<TRIPOS>SUBSTRUCTURE
       1 MOL1            1 RESIDUE      1      MOL     
@<SCITEGIC>MOL_PROPERTY
VConf Rank
SciTegic.value.IntegerValue
284

@<SCITEGIC>MOL_PROPERTY
Conf_Id
SciTegic.value.IntegerValue
60

@<SCITEGIC>MOL_PROPERTY
Delta U+W
SciTegic.value.DoubleValue
1.788

@<SCITEGIC>MOL_PROPERTY
U+W
SciTegic.value.DoubleValue
17.127

@<SCITEGIC>MOL_PROPERTY
Grad RMS
SciTegic.value.DoubleValue
0.000000

@<SCITEGIC>MOL_PROPERTY
U
SciTegic.value.DoubleValue
72.122

@<SCITEGIC>MOL_PROPERTY
W
SciTegic.value.DoubleValue
-54.995

@<SCITEGIC>MOL_PROPERTY
W(PB)
SciTegic.value.DoubleValue
-56.810

@<SCITEGIC>MOL_PROPERTY
W(SA)
SciTegic.value.DoubleValue
1.815

@<SCITEGIC>MOL_PROPERTY
Valence
SciTegic.value.DoubleValue
3.197

@<SCITEGIC>MOL_PROPERTY
Coulomb
SciTegic.value.DoubleValue
69.115

@<SCITEGIC>MOL_PROPERTY
VdW
SciTegic.value.DoubleValue
-0.190

@<SCITEGIC>MOL_PROPERTY
VdW6
SciTegic.value.DoubleValue
-5.585

@<SCITEGIC>MOL_PROPERTY
VdW12
SciTegic.value.DoubleValue
5.395

@<SCITEGIC>MOL_PROPERTY
Bond
SciTegic.value.DoubleValue
0.177

@<SCITEGIC>MOL_PROPERTY
Angle
SciTegic.value.DoubleValue
1.207

@<SCITEGIC>MOL_PROPERTY
Pdih
SciTegic.value.DoubleValue
1.813

@<SCITEGIC>MOL_PROPERTY
Idih
SciTegic.value.DoubleValue
0.000

@<SCITEGIC>MOL_PROPERTY
Tether
SciTegic.value.DoubleValue
0.000

@<TRIPOS>MOLECULE
guest-s9_confgen4.mol2 : confsearch ligand conformer 285
          20          19           1
SMALL
USER_CHARGES
 
@<TRIPOS>ATOM
       1    C1      20.891483   17.364663   20.583104 C.3        1 MOL1        -0.2224
       2    H1      20.795221   17.210054   19.500665 H          1 MOL1         0.1052
       3    H2      21.648471   16.662188   20.955192 H          1 MOL1         0.1052
       4    H3      19.929962   17.103744   21.041852 H          1 MOL1         0.1052
       5    C2      21.293234   18.826075   20.888771 C.3        1 MOL1        -0.1209
       6    H4      20.538330   19.516483   20.491002 H          1 MOL1         0.1041
       7    H5      22.222425   19.057872   20.349598 H          1 MOL1         0.1041
       8    C3      21.517134   19.091489   22.397702 C.3        1 MOL1        -0.1274
       9    H6      22.351575   18.467229   22.743611 H          1 MOL1         0.1041
      10    H7      21.840625   20.131004   22.539717 H          1 MOL1         0.1041
      11    C4      20.297302   18.813252   23.307246 C.3        1 MOL1         0.0313
      12    H8      20.622869   18.922975   24.344856 H          1 MOL1         0.1015
      13    H9      19.948496   17.785964   23.178485 H          1 MOL1         0.1015
      14    N1      19.113338   19.751264   23.124762 N.4        1 MOL1        -0.4809
      15    H10     19.439958   20.699614   22.886857 H          1 MOL1         0.3726
      16    H11     18.624762   19.860193   24.027107 H          1 MOL1         0.3726
      17    C5      18.130641   19.224300   22.084636 C.3        1 MOL1        -0.0677
      18    H12     17.774325   18.239881   22.395359 H          1 MOL1         0.1026
      19    H13     17.286143   19.912967   22.010564 H          1 MOL1         0.1026
      20    H14     18.624986   19.147296   21.115763 H          1 MOL1         0.1026
@<TRIPOS>BOND
    1     1     2    1
    2     1     3    1
    3     1     4    1
    4     1     5    1
    5     5     6    1
    6     5     7    1
    7     5     8    1
    8     8     9    1
    9     8    10    1
   10     8    11    1
   11    11    12    1
   12    11    13    1
   13    11    14    1
   14    14    15    1
   15    14    16    1
   16    14    17    1
   17    17    18    1
   18    17    19    1
   19    17    20    1
@<TRIPOS>SUBSTRUCTURE
       1 MOL1            1 RESIDUE      1      MOL     
@<SCITEGIC>MOL_PROPERTY
VConf Rank
SciTegic.value.IntegerValue
285

@<SCITEGIC>MOL_PROPERTY
Conf_Id
SciTegic.value.IntegerValue
54

@<SCITEGIC>MOL_PROPERTY
Delta U+W
SciTegic.value.DoubleValue
1.880

@<SCITEGIC>MOL_PROPERTY
U+W
SciTegic.value.DoubleValue
17.218

@<SCITEGIC>MOL_PROPERTY
Grad RMS
SciTegic.value.DoubleValue
0.000000

@<SCITEGIC>MOL_PROPERTY
U
SciTegic.value.DoubleValue
72.122

@<SCITEGIC>MOL_PROPERTY
W
SciTegic.value.DoubleValue
-54.903

@<SCITEGIC>MOL_PROPERTY
W(PB)
SciTegic.value.DoubleValue
-56.724

@<SCITEGIC>MOL_PROPERTY
W(SA)
SciTegic.value.DoubleValue
1.821

@<SCITEGIC>MOL_PROPERTY
Valence
SciTegic.value.DoubleValue
3.197

@<SCITEGIC>MOL_PROPERTY
Coulomb
SciTegic.value.DoubleValue
69.115

@<SCITEGIC>MOL_PROPERTY
VdW
SciTegic.value.DoubleValue
-0.190

@<SCITEGIC>MOL_PROPERTY
VdW6
SciTegic.value.DoubleValue
-5.585

@<SCITEGIC>MOL_PROPERTY
VdW12
SciTegic.value.DoubleValue
5.395

@<SCITEGIC>MOL_PROPERTY
Bond
SciTegic.value.DoubleValue
0.177

@<SCITEGIC>MOL_PROPERTY
Angle
SciTegic.value.DoubleValue
1.207

@<SCITEGIC>MOL_PROPERTY
Pdih
SciTegic.value.DoubleValue
1.813

@<SCITEGIC>MOL_PROPERTY
Idih
SciTegic.value.DoubleValue
0.000

@<SCITEGIC>MOL_PROPERTY
Tether
SciTegic.value.DoubleValue
0.000

@<TRIPOS>MOLECULE
guest-s9_confgen4.mol2 : confsearch ligand conformer 286
          20          19           1
SMALL
USER_CHARGES
 
@<TRIPOS>ATOM
       1    C1      18.301894   17.811138   19.506410 C.3        1 MOL1        -0.2224
       2    H1      19.111725   17.296692   18.972842 H          1 MOL1         0.1052
       3    H2      17.382366   17.228821   19.363582 H          1 MOL1         0.1052
       4    H3      18.154049   18.792948   19.038042 H          1 MOL1         0.1052
       5    C2      18.628840   17.954941   21.008628 C.3        1 MOL1        -0.1209
       6    H4      18.736516   16.956656   21.456047 H          1 MOL1         0.1041
       7    H5      17.786426   18.441216   21.520711 H          1 MOL1         0.1041
       8    C3      19.919681   18.770969   21.240123 C.3        1 MOL1        -0.1274
       9    H6      20.761397   18.282653   20.731176 H          1 MOL1         0.1041
      10    H7      19.810051   19.769225   20.795791 H          1 MOL1         0.1041
      11    C4      20.238773   18.909982   22.740269 C.3        1 MOL1         0.0313
      12    H8      20.363852   17.918364   23.182465 H          1 MOL1         0.1015
      13    H9      19.409546   19.409837   23.247236 H          1 MOL1         0.1015
      14    N1      21.499927   19.704924   23.016426 N.4        1 MOL1        -0.4809
      15    H10     21.423764   20.648416   22.606330 H          1 MOL1         0.3726
      16    H11     22.307320   19.267481   22.546410 H          1 MOL1         0.3726
      17    C5      21.740107   19.793454   24.517643 C.3        1 MOL1        -0.0677
      18    H12     21.851899   18.786006   24.924286 H          1 MOL1         0.1026
      19    H13     22.650587   20.367932   24.702060 H          1 MOL1         0.1026
      20    H14     20.889597   20.290195   24.989544 H          1 MOL1         0.1026
@<TRIPOS>BOND
    1     1     2    1
    2     1     3    1
    3     1     4    1
    4     1     5    1
    5     5     6    1
    6     5     7    1
    7     5     8    1
    8     8     9    1
    9     8    10    1
   10     8    11    1
   11    11    12    1
   12    11    13    1
   13    11    14    1
   14    14    15    1
   15    14    16    1
   16    14    17    1
   17    17    18    1
   18    17    19    1
   19    17    20    1
@<TRIPOS>SUBSTRUCTURE
       1 MOL1            1 RESIDUE      1      MOL     
@<SCITEGIC>MOL_PROPERTY
VConf Rank
SciTegic.value.IntegerValue
286

@<SCITEGIC>MOL_PROPERTY
Conf_Id
SciTegic.value.IntegerValue
67

@<SCITEGIC>MOL_PROPERTY
Delta U+W
SciTegic.value.DoubleValue
0.000

@<SCITEGIC>MOL_PROPERTY
U+W
SciTegic.value.DoubleValue
15.338

@<SCITEGIC>MOL_PROPERTY
Grad RMS
SciTegic.value.DoubleValue
0.000000

@<SCITEGIC>MOL_PROPERTY
U
SciTegic.value.DoubleValue
69.277

@<SCITEGIC>MOL_PROPERTY
W
SciTegic.value.DoubleValue
-53.939

@<SCITEGIC>MOL_PROPERTY
W(PB)
SciTegic.value.DoubleValue
-55.889

@<SCITEGIC>MOL_PROPERTY
W(SA)
SciTegic.value.DoubleValue
1.950

@<SCITEGIC>MOL_PROPERTY
Valence
SciTegic.value.DoubleValue
0.846

@<SCITEGIC>MOL_PROPERTY
Coulomb
SciTegic.value.DoubleValue
68.557

@<SCITEGIC>MOL_PROPERTY
VdW
SciTegic.value.DoubleValue
-0.127

@<SCITEGIC>MOL_PROPERTY
VdW6
SciTegic.value.DoubleValue
-3.008

@<SCITEGIC>MOL_PROPERTY
VdW12
SciTegic.value.DoubleValue
2.882

@<SCITEGIC>MOL_PROPERTY
Bond
SciTegic.value.DoubleValue
0.088

@<SCITEGIC>MOL_PROPERTY
Angle
SciTegic.value.DoubleValue
0.332

@<SCITEGIC>MOL_PROPERTY
Pdih
SciTegic.value.DoubleValue
0.426

@<SCITEGIC>MOL_PROPERTY
Idih
SciTegic.value.DoubleValue
0.000

@<SCITEGIC>MOL_PROPERTY
Tether
SciTegic.value.DoubleValue
0.000

@<TRIPOS>MOLECULE
guest-s9_confgen4.mol2 : confsearch ligand conformer 287
          20          19           1
SMALL
USER_CHARGES
 
@<TRIPOS>ATOM
       1    C1      18.829313   20.032106   24.466122 C.3        1 MOL1        -0.2224
       2    H1      19.501532   19.431504   25.092676 H          1 MOL1         0.1052
       3    H2      18.651978   20.985141   24.981190 H          1 MOL1         0.1052
       4    H3      17.868783   19.505535   24.393507 H          1 MOL1         0.1052
       5    C2      19.438881   20.272721   23.067980 C.3        1 MOL1        -0.1209
       6    H4      20.380364   20.830652   23.171180 H          1 MOL1         0.1041
       7    H5      18.760328   20.904785   22.477752 H          1 MOL1         0.1041
       8    C3      19.699274   18.947356   22.318783 C.3        1 MOL1        -0.1274
       9    H6      20.376984   18.319721   22.911689 H          1 MOL1         0.1041
      10    H7      18.757714   18.392617   22.212248 H          1 MOL1         0.1041
      11    C4      20.306646   19.198141   20.923011 C.3        1 MOL1         0.0313
      12    H8      21.268472   19.707371   21.022801 H          1 MOL1         0.1015
      13    H9      19.636423   19.849750   20.356543 H          1 MOL1         0.1015
      14    N1      20.524868   17.943528   20.092898 N.4        1 MOL1        -0.4809
      15    H10     20.774025   18.207997   19.126842 H          1 MOL1         0.3726
      16    H11     19.642831   17.416560   20.002951 H          1 MOL1         0.3726
      17    C5      21.622051   17.067897   20.688696 C.3        1 MOL1        -0.0677
      18    H12     21.321653   16.737514   21.684936 H          1 MOL1         0.1026
      19    H13     21.774632   16.198542   20.045335 H          1 MOL1         0.1026
      20    H14     22.547182   17.644711   20.752924 H          1 MOL1         0.1026
@<TRIPOS>BOND
    1     1     2    1
    2     1     3    1
    3     1     4    1
    4     1     5    1
    5     5     6    1
    6     5     7    1
    7     5     8    1
    8     8     9    1
    9     8    10    1
   10     8    11    1
   11    11    12    1
   12    11    13    1
   13    11    14    1
   14    14    15    1
   15    14    16    1
   16    14    17    1
   17    17    18    1
   18    17    19    1
   19    17    20    1
@<TRIPOS>SUBSTRUCTURE
       1 MOL1            1 RESIDUE      1      MOL     
@<SCITEGIC>MOL_PROPERTY
VConf Rank
SciTegic.value.IntegerValue
287

@<SCITEGIC>MOL_PROPERTY
Conf_Id
SciTegic.value.IntegerValue
37

@<SCITEGIC>MOL_PROPERTY
Delta U+W
SciTegic.value.DoubleValue
-0.021

@<SCITEGIC>MOL_PROPERTY
U+W
SciTegic.value.DoubleValue
15.318

@<SCITEGIC>MOL_PROPERTY
Grad RMS
SciTegic.value.DoubleValue
0.000000

@<SCITEGIC>MOL_PROPERTY
U
SciTegic.value.DoubleValue
69.657

@<SCITEGIC>MOL_PROPERTY
W
SciTegic.value.DoubleValue
-54.340

@<SCITEGIC>MOL_PROPERTY
W(PB)
SciTegic.value.DoubleValue
-56.238

@<SCITEGIC>MOL_PROPERTY
W(SA)
SciTegic.value.DoubleValue
1.899

@<SCITEGIC>MOL_PROPERTY
Valence
SciTegic.value.DoubleValue
1.137

@<SCITEGIC>MOL_PROPERTY
Coulomb
SciTegic.value.DoubleValue
68.383

@<SCITEGIC>MOL_PROPERTY
VdW
SciTegic.value.DoubleValue
0.138

@<SCITEGIC>MOL_PROPERTY
VdW6
SciTegic.value.DoubleValue
-3.703

@<SCITEGIC>MOL_PROPERTY
VdW12
SciTegic.value.DoubleValue
3.841

@<SCITEGIC>MOL_PROPERTY
Bond
SciTegic.value.DoubleValue
0.125

@<SCITEGIC>MOL_PROPERTY
Angle
SciTegic.value.DoubleValue
0.468

@<SCITEGIC>MOL_PROPERTY
Pdih
SciTegic.value.DoubleValue
0.543

@<SCITEGIC>MOL_PROPERTY
Idih
SciTegic.value.DoubleValue
0.000

@<SCITEGIC>MOL_PROPERTY
Tether
SciTegic.value.DoubleValue
0.000

@<TRIPOS>MOLECULE
guest-s9_confgen4.mol2 : confsearch ligand conformer 288
          20          19           1
SMALL
USER_CHARGES
 
@<TRIPOS>ATOM
       1    C1      19.818030   15.786305   21.880456 C.3        1 MOL1        -0.2224
       2    H1      19.093149   14.961948   21.882061 H          1 MOL1         0.1052
       3    H2      20.324958   15.786141   20.906704 H          1 MOL1         0.1052
       4    H3      20.566893   15.576825   22.655370 H          1 MOL1         0.1052
       5    C2      19.111514   17.134608   22.139647 C.3        1 MOL1        -0.1209
       6    H4      18.585055   17.091499   23.103645 H          1 MOL1         0.1041
       7    H5      18.345575   17.299663   21.368659 H          1 MOL1         0.1041
       8    C3      20.108423   18.314373   22.143256 C.3        1 MOL1        -0.1274
       9    H6      20.870687   18.150925   22.916471 H          1 MOL1         0.1041
      10    H7      20.631561   18.353423   21.179121 H          1 MOL1         0.1041
      11    C4      19.393598   19.656307   22.404419 C.3        1 MOL1         0.0313
      12    H8      18.851853   19.591036   23.351482 H          1 MOL1         0.1015
      13    H9      18.666476   19.849941   21.611840 H          1 MOL1         0.1015
      14    N1      20.318691   20.859092   22.495354 N.4        1 MOL1        -0.4809
      15    H10     21.041809   20.700356   23.213461 H          1 MOL1         0.3726
      16    H11     19.787964   21.677933   22.831681 H          1 MOL1         0.3726
      17    C5      20.954163   21.173625   21.145258 C.3        1 MOL1        -0.0677
      18    H12     20.166591   21.356641   20.411132 H          1 MOL1         0.1026
      19    H13     21.579711   22.063617   21.243117 H          1 MOL1         0.1026
      20    H14     21.567691   20.328406   20.827333 H          1 MOL1         0.1026
@<TRIPOS>BOND
    1     1     2    1
    2     1     3    1
    3     1     4    1
    4     1     5    1
    5     5     6    1
    6     5     7    1
    7     5     8    1
    8     8     9    1
    9     8    10    1
   10     8    11    1
   11    11    12    1
   12    11    13    1
   13    11    14    1
   14    14    15    1
   15    14    16    1
   16    14    17    1
   17    17    18    1
   18    17    19    1
   19    17    20    1
@<TRIPOS>SUBSTRUCTURE
       1 MOL1            1 RESIDUE      1      MOL     
@<SCITEGIC>MOL_PROPERTY
VConf Rank
SciTegic.value.IntegerValue
288

@<SCITEGIC>MOL_PROPERTY
Conf_Id
SciTegic.value.IntegerValue
2

@<SCITEGIC>MOL_PROPERTY
Delta U+W
SciTegic.value.DoubleValue
0.069

@<SCITEGIC>MOL_PROPERTY
U+W
SciTegic.value.DoubleValue
15.407

@<SCITEGIC>MOL_PROPERTY
Grad RMS
SciTegic.value.DoubleValue
0.000000

@<SCITEGIC>MOL_PROPERTY
U
SciTegic.value.DoubleValue
69.657

@<SCITEGIC>MOL_PROPERTY
W
SciTegic.value.DoubleValue
-54.250

@<SCITEGIC>MOL_PROPERTY
W(PB)
SciTegic.value.DoubleValue
-56.176

@<SCITEGIC>MOL_PROPERTY
W(SA)
SciTegic.value.DoubleValue
1.926

@<SCITEGIC>MOL_PROPERTY
Valence
SciTegic.value.DoubleValue
1.137

@<SCITEGIC>MOL_PROPERTY
Coulomb
SciTegic.value.DoubleValue
68.383

@<SCITEGIC>MOL_PROPERTY
VdW
SciTegic.value.DoubleValue
0.138

@<SCITEGIC>MOL_PROPERTY
VdW6
SciTegic.value.DoubleValue
-3.703

@<SCITEGIC>MOL_PROPERTY
VdW12
SciTegic.value.DoubleValue
3.841

@<SCITEGIC>MOL_PROPERTY
Bond
SciTegic.value.DoubleValue
0.125

@<SCITEGIC>MOL_PROPERTY
Angle
SciTegic.value.DoubleValue
0.468

@<SCITEGIC>MOL_PROPERTY
Pdih
SciTegic.value.DoubleValue
0.543

@<SCITEGIC>MOL_PROPERTY
Idih
SciTegic.value.DoubleValue
0.000

@<SCITEGIC>MOL_PROPERTY
Tether
SciTegic.value.DoubleValue
0.000

@<TRIPOS>MOLECULE
guest-s9_confgen4.mol2 : confsearch ligand conformer 289
          20          19           1
SMALL
USER_CHARGES
 
@<TRIPOS>ATOM
       1    C1      19.155745   18.880348   19.502599 C.3        1 MOL1        -0.2224
       2    H1      20.247272   18.980239   19.554116 H          1 MOL1         0.1052
       3    H2      18.913036   17.814020   19.407016 H          1 MOL1         0.1052
       4    H3      18.820765   19.383061   18.586053 H          1 MOL1         0.1052
       5    C2      18.468857   19.498697   20.742001 C.3        1 MOL1        -0.1209
       6    H4      17.379090   19.460135   20.604398 H          1 MOL1         0.1041
       7    H5      18.732802   20.563034   20.817663 H          1 MOL1         0.1041
       8    C3      18.834702   18.776058   22.059623 C.3        1 MOL1        -0.1274
       9    H6      18.254499   19.216229   22.881494 H          1 MOL1         0.1041
      10    H7      18.538353   17.720654   21.995078 H          1 MOL1         0.1041
      11    C4      20.336359   18.872679   22.392695 C.3        1 MOL1         0.0313
      12    H8      20.630573   19.923097   22.459264 H          1 MOL1         0.1015
      13    H9      20.920810   18.401664   21.598763 H          1 MOL1         0.1015
      14    N1      20.707181   18.201374   23.700484 N.4        1 MOL1        -0.4809
      15    H10     20.435478   17.206461   23.680132 H          1 MOL1         0.3726
      16    H11     20.170640   18.614959   24.478414 H          1 MOL1         0.3726
      17    C5      22.202907   18.341064   23.950246 C.3        1 MOL1        -0.0677
      18    H12     22.461712   19.400845   24.002093 H          1 MOL1         0.1026
      19    H13     22.456018   17.853761   24.894426 H          1 MOL1         0.1026
      20    H14     22.750183   17.866519   23.132874 H          1 MOL1         0.1026
@<TRIPOS>BOND
    1     1     2    1
    2     1     3    1
    3     1     4    1
    4     1     5    1
    5     5     6    1
    6     5     7    1
    7     5     8    1
    8     8     9    1
    9     8    10    1
   10     8    11    1
   11    11    12    1
   12    11    13    1
   13    11    14    1
   14    14    15    1
   15    14    16    1
   16    14    17    1
   17    17    18    1
   18    17    19    1
   19    17    20    1
@<TRIPOS>SUBSTRUCTURE
       1 MOL1            1 RESIDUE      1      MOL     
@<SCITEGIC>MOL_PROPERTY
VConf Rank
SciTegic.value.IntegerValue
289

@<SCITEGIC>MOL_PROPERTY
Conf_Id
SciTegic.value.IntegerValue
34

@<SCITEGIC>MOL_PROPERTY
Delta U+W
SciTegic.value.DoubleValue
0.276

@<SCITEGIC>MOL_PROPERTY
U+W
SciTegic.value.DoubleValue
15.615

@<SCITEGIC>MOL_PROPERTY
Grad RMS
SciTegic.value.DoubleValue
0.000000

@<SCITEGIC>MOL_PROPERTY
U
SciTegic.value.DoubleValue
69.798

@<SCITEGIC>MOL_PROPERTY
W
SciTegic.value.DoubleValue
-54.184

@<SCITEGIC>MOL_PROPERTY
W(PB)
SciTegic.value.DoubleValue
-56.116

@<SCITEGIC>MOL_PROPERTY
W(SA)
SciTegic.value.DoubleValue
1.933

@<SCITEGIC>MOL_PROPERTY
Valence
SciTegic.value.DoubleValue
1.134

@<SCITEGIC>MOL_PROPERTY
Coulomb
SciTegic.value.DoubleValue
68.735

@<SCITEGIC>MOL_PROPERTY
VdW
SciTegic.value.DoubleValue
-0.070

@<SCITEGIC>MOL_PROPERTY
VdW6
SciTegic.value.DoubleValue
-3.565

@<SCITEGIC>MOL_PROPERTY
VdW12
SciTegic.value.DoubleValue
3.494

@<SCITEGIC>MOL_PROPERTY
Bond
SciTegic.value.DoubleValue
0.108

@<SCITEGIC>MOL_PROPERTY
Angle
SciTegic.value.DoubleValue
0.456

@<SCITEGIC>MOL_PROPERTY
Pdih
SciTegic.value.DoubleValue
0.569

@<SCITEGIC>MOL_PROPERTY
Idih
SciTegic.value.DoubleValue
0.000

@<SCITEGIC>MOL_PROPERTY
Tether
SciTegic.value.DoubleValue
0.000

@<TRIPOS>MOLECULE
guest-s9_confgen4.mol2 : confsearch ligand conformer 290
          20          19           1
SMALL
USER_CHARGES
 
@<TRIPOS>ATOM
       1    C1      21.396660   16.746402   20.233350 C.3        1 MOL1        -0.2224
       2    H1      20.952058   16.788700   19.230500 H          1 MOL1         0.1052
       3    H2      22.482852   16.640660   20.114903 H          1 MOL1         0.1052
       4    H3      21.023719   15.843609   20.734410 H          1 MOL1         0.1052
       5    C2      21.057279   18.014203   21.046693 C.3        1 MOL1        -0.1209
       6    H4      21.470625   18.895701   20.536368 H          1 MOL1         0.1041
       7    H5      21.550734   17.954581   22.026205 H          1 MOL1         0.1041
       8    C3      19.530639   18.186040   21.228426 C.3        1 MOL1        -0.1274
       9    H6      19.047837   18.204671   20.242303 H          1 MOL1         0.1041
      10    H7      19.115017   17.321481   21.762890 H          1 MOL1         0.1041
      11    C4      19.159400   19.482074   21.976769 C.3        1 MOL1         0.0313
      12    H8      18.071920   19.590272   21.994092 H          1 MOL1         0.1015
      13    H9      19.578300   20.343217   21.450091 H          1 MOL1         0.1015
      14    N1      19.646302   19.528521   23.412964 N.4        1 MOL1        -0.4809
      15    H10     20.671999   19.431348   23.443894 H          1 MOL1         0.3726
      16    H11     19.277623   18.721784   23.939554 H          1 MOL1         0.3726
      17    C5      19.214945   20.834829   24.065903 C.3        1 MOL1        -0.0677
      18    H12     19.643413   21.672813   23.511840 H          1 MOL1         0.1026
      19    H13     18.124914   20.901319   24.051847 H          1 MOL1         0.1026
      20    H14     19.571614   20.855071   25.098070 H          1 MOL1         0.1026
@<TRIPOS>BOND
    1     1     2    1
    2     1     3    1
    3     1     4    1
    4     1     5    1
    5     5     6    1
    6     5     7    1
    7     5     8    1
    8     8     9    1
    9     8    10    1
   10     8    11    1
   11    11    12    1
   12    11    13    1
   13    11    14    1
   14    14    15    1
   15    14    16    1
   16    14    17    1
   17    17    18    1
   18    17    19    1
   19    17    20    1
@<TRIPOS>SUBSTRUCTURE
       1 MOL1            1 RESIDUE      1      MOL     
@<SCITEGIC>MOL_PROPERTY
VConf Rank
SciTegic.value.IntegerValue
290

@<SCITEGIC>MOL_PROPERTY
Conf_Id
SciTegic.value.IntegerValue
50

@<SCITEGIC>MOL_PROPERTY
Delta U+W
SciTegic.value.DoubleValue
0.319

@<SCITEGIC>MOL_PROPERTY
U+W
SciTegic.value.DoubleValue
15.657

@<SCITEGIC>MOL_PROPERTY
Grad RMS
SciTegic.value.DoubleValue
0.000000

@<SCITEGIC>MOL_PROPERTY
U
SciTegic.value.DoubleValue
69.962

@<SCITEGIC>MOL_PROPERTY
W
SciTegic.value.DoubleValue
-54.305

@<SCITEGIC>MOL_PROPERTY
W(PB)
SciTegic.value.DoubleValue
-56.223

@<SCITEGIC>MOL_PROPERTY
W(SA)
SciTegic.value.DoubleValue
1.918

@<SCITEGIC>MOL_PROPERTY
Valence
SciTegic.value.DoubleValue
0.982

@<SCITEGIC>MOL_PROPERTY
Coulomb
SciTegic.value.DoubleValue
69.058

@<SCITEGIC>MOL_PROPERTY
VdW
SciTegic.value.DoubleValue
-0.078

@<SCITEGIC>MOL_PROPERTY
VdW6
SciTegic.value.DoubleValue
-3.548

@<SCITEGIC>MOL_PROPERTY
VdW12
SciTegic.value.DoubleValue
3.471

@<SCITEGIC>MOL_PROPERTY
Bond
SciTegic.value.DoubleValue
0.105

@<SCITEGIC>MOL_PROPERTY
Angle
SciTegic.value.DoubleValue
0.408

@<SCITEGIC>MOL_PROPERTY
Pdih
SciTegic.value.DoubleValue
0.469

@<SCITEGIC>MOL_PROPERTY
Idih
SciTegic.value.DoubleValue
0.000

@<SCITEGIC>MOL_PROPERTY
Tether
SciTegic.value.DoubleValue
0.000

@<TRIPOS>MOLECULE
guest-s9_confgen4.mol2 : confsearch ligand conformer 291
          20          19           1
SMALL
USER_CHARGES
 
@<TRIPOS>ATOM
       1    C1      22.139279   16.667714   21.533182 C.3        1 MOL1        -0.2224
       2    H1      22.718856   16.540801   20.609596 H          1 MOL1         0.1052
       3    H2      22.843136   16.656137   22.375572 H          1 MOL1         0.1052
       4    H3      21.472557   15.801325   21.633351 H          1 MOL1         0.1052
       5    C2      21.336307   17.986020   21.496730 C.3        1 MOL1        -0.1209
       6    H4      20.673915   17.978281   20.620561 H          1 MOL1         0.1041
       7    H5      22.027912   18.830071   21.364120 H          1 MOL1         0.1041
       8    C3      20.509401   18.188471   22.788406 C.3        1 MOL1        -0.1274
       9    H6      19.796158   17.362812   22.912621 H          1 MOL1         0.1041
      10    H7      21.179986   18.154722   23.657348 H          1 MOL1         0.1041
      11    C4      19.752263   19.531539   22.809673 C.3        1 MOL1         0.0313
      12    H8      20.459811   20.354201   22.679140 H          1 MOL1         0.1015
      13    H9      19.262682   19.654851   23.779066 H          1 MOL1         0.1015
      14    N1      18.684552   19.657071   21.739101 N.4        1 MOL1        -0.4809
      15    H10     18.002429   18.888112   21.825472 H          1 MOL1         0.3726
      16    H11     19.104289   19.548349   20.803978 H          1 MOL1         0.3726
      17    C5      17.986996   21.005579   21.856488 C.3        1 MOL1        -0.0677
      18    H12     17.221932   21.082640   21.080776 H          1 MOL1         0.1026
      19    H13     17.521819   21.085499   22.841378 H          1 MOL1         0.1026
      20    H14     18.722002   21.803295   21.729180 H          1 MOL1         0.1026
@<TRIPOS>BOND
    1     1     2    1
    2     1     3    1
    3     1     4    1
    4     1     5    1
    5     5     6    1
    6     5     7    1
    7     5     8    1
    8     8     9    1
    9     8    10    1
   10     8    11    1
   11    11    12    1
   12    11    13    1
   13    11    14    1
   14    14    15    1
   15    14    16    1
   16    14    17    1
   17    17    18    1
   18    17    19    1
   19    17    20    1
@<TRIPOS>SUBSTRUCTURE
       1 MOL1            1 RESIDUE      1      MOL     
@<SCITEGIC>MOL_PROPERTY
VConf Rank
SciTegic.value.IntegerValue
291

@<SCITEGIC>MOL_PROPERTY
Conf_Id
SciTegic.value.IntegerValue
35

@<SCITEGIC>MOL_PROPERTY
Delta U+W
SciTegic.value.DoubleValue
0.360

@<SCITEGIC>MOL_PROPERTY
U+W
SciTegic.value.DoubleValue
15.698

@<SCITEGIC>MOL_PROPERTY
Grad RMS
SciTegic.value.DoubleValue
0.000000

@<SCITEGIC>MOL_PROPERTY
U
SciTegic.value.DoubleValue
69.962

@<SCITEGIC>MOL_PROPERTY
W
SciTegic.value.DoubleValue
-54.264

@<SCITEGIC>MOL_PROPERTY
W(PB)
SciTegic.value.DoubleValue
-56.166

@<SCITEGIC>MOL_PROPERTY
W(SA)
SciTegic.value.DoubleValue
1.902

@<SCITEGIC>MOL_PROPERTY
Valence
SciTegic.value.DoubleValue
0.982

@<SCITEGIC>MOL_PROPERTY
Coulomb
SciTegic.value.DoubleValue
69.058

@<SCITEGIC>MOL_PROPERTY
VdW
SciTegic.value.DoubleValue
-0.078

@<SCITEGIC>MOL_PROPERTY
VdW6
SciTegic.value.DoubleValue
-3.548

@<SCITEGIC>MOL_PROPERTY
VdW12
SciTegic.value.DoubleValue
3.471

@<SCITEGIC>MOL_PROPERTY
Bond
SciTegic.value.DoubleValue
0.105

@<SCITEGIC>MOL_PROPERTY
Angle
SciTegic.value.DoubleValue
0.408

@<SCITEGIC>MOL_PROPERTY
Pdih
SciTegic.value.DoubleValue
0.469

@<SCITEGIC>MOL_PROPERTY
Idih
SciTegic.value.DoubleValue
0.000

@<SCITEGIC>MOL_PROPERTY
Tether
SciTegic.value.DoubleValue
0.000

@<TRIPOS>MOLECULE
guest-s9_confgen4.mol2 : confsearch ligand conformer 292
          20          19           1
SMALL
USER_CHARGES
 
@<TRIPOS>ATOM
       1    C1      19.727925   16.417870   20.952890 C.3        1 MOL1        -0.2224
       2    H1      20.797602   16.456257   21.194521 H          1 MOL1         0.1052
       3    H2      19.453868   15.361821   20.831949 H          1 MOL1         0.1052
       4    H3      19.576804   16.915607   19.986187 H          1 MOL1         0.1052
       5    C2      18.871376   17.077220   22.058237 C.3        1 MOL1        -0.1209
       6    H4      19.044753   16.564460   23.014890 H          1 MOL1         0.1041
       7    H5      17.807777   16.935265   21.820344 H          1 MOL1         0.1041
       8    C3      19.153018   18.589442   22.218660 C.3        1 MOL1        -0.1274
       9    H6      18.942216   19.101427   21.270954 H          1 MOL1         0.1041
      10    H7      18.460007   19.005321   22.961827 H          1 MOL1         0.1041
      11    C4      20.603087   18.878228   22.662921 C.3        1 MOL1         0.0313
      12    H8      21.302537   18.529064   21.899633 H          1 MOL1         0.1015
      13    H9      20.807063   18.329168   23.585686 H          1 MOL1         0.1015
      14    N1      20.901722   20.343964   22.932798 N.4        1 MOL1        -0.4809
      15    H10     21.828813   20.431302   23.377861 H          1 MOL1         0.3726
      16    H11     20.239081   20.721886   23.626917 H          1 MOL1         0.3726
      17    C5      20.866076   21.162269   21.646535 C.3        1 MOL1        -0.0677
      18    H12     19.863586   21.118414   21.216442 H          1 MOL1         0.1026
      19    H13     21.121250   22.199351   21.875245 H          1 MOL1         0.1026
      20    H14     21.590700   20.752542   20.939611 H          1 MOL1         0.1026
@<TRIPOS>BOND
    1     1     2    1
    2     1     3    1
    3     1     4    1
    4     1     5    1
    5     5     6    1
    6     5     7    1
    7     5     8    1
    8     8     9    1
    9     8    10    1
   10     8    11    1
   11    11    12    1
   12    11    13    1
   13    11    14    1
   14    14    15    1
   15    14    16    1
   16    14    17    1
   17    17    18    1
   18    17    19    1
   19    17    20    1
@<TRIPOS>SUBSTRUCTURE
       1 MOL1            1 RESIDUE      1      MOL     
@<SCITEGIC>MOL_PROPERTY
VConf Rank
SciTegic.value.IntegerValue
292

@<SCITEGIC>MOL_PROPERTY
Conf_Id
SciTegic.value.IntegerValue
33

@<SCITEGIC>MOL_PROPERTY
Delta U+W
SciTegic.value.DoubleValue
0.372

@<SCITEGIC>MOL_PROPERTY
U+W
SciTegic.value.DoubleValue
15.711

@<SCITEGIC>MOL_PROPERTY
Grad RMS
SciTegic.value.DoubleValue
0.000000

@<SCITEGIC>MOL_PROPERTY
U
SciTegic.value.DoubleValue
70.163

@<SCITEGIC>MOL_PROPERTY
W
SciTegic.value.DoubleValue
-54.452

@<SCITEGIC>MOL_PROPERTY
W(PB)
SciTegic.value.DoubleValue
-56.363

@<SCITEGIC>MOL_PROPERTY
W(SA)
SciTegic.value.DoubleValue
1.911

@<SCITEGIC>MOL_PROPERTY
Valence
SciTegic.value.DoubleValue
1.420

@<SCITEGIC>MOL_PROPERTY
Coulomb
SciTegic.value.DoubleValue
68.566

@<SCITEGIC>MOL_PROPERTY
VdW
SciTegic.value.DoubleValue
0.177

@<SCITEGIC>MOL_PROPERTY
VdW6
SciTegic.value.DoubleValue
-4.267

@<SCITEGIC>MOL_PROPERTY
VdW12
SciTegic.value.DoubleValue
4.445

@<SCITEGIC>MOL_PROPERTY
Bond
SciTegic.value.DoubleValue
0.146

@<SCITEGIC>MOL_PROPERTY
Angle
SciTegic.value.DoubleValue
0.581

@<SCITEGIC>MOL_PROPERTY
Pdih
SciTegic.value.DoubleValue
0.693

@<SCITEGIC>MOL_PROPERTY
Idih
SciTegic.value.DoubleValue
0.000

@<SCITEGIC>MOL_PROPERTY
Tether
SciTegic.value.DoubleValue
0.000

@<TRIPOS>MOLECULE
guest-s9_confgen4.mol2 : confsearch ligand conformer 293
          20          19           1
SMALL
USER_CHARGES
 
@<TRIPOS>ATOM
       1    C1      21.191545   21.112340   22.479701 C.3        1 MOL1        -0.2224
       2    H1      21.339306   22.199001   22.527750 H          1 MOL1         0.1052
       3    H2      20.816640   20.786092   23.458004 H          1 MOL1         0.1052
       4    H3      22.172841   20.648111   22.316467 H          1 MOL1         0.1052
       5    C2      20.207924   20.748549   21.343762 C.3        1 MOL1        -0.1209
       6    H4      20.577688   21.172676   20.399634 H          1 MOL1         0.1041
       7    H5      19.233689   21.220769   21.533606 H          1 MOL1         0.1041
       8    C3      20.023004   19.222822   21.171018 C.3        1 MOL1        -0.1274
       9    H6      19.376380   19.037015   20.303338 H          1 MOL1         0.1041
      10    H7      20.993112   18.761978   20.944695 H          1 MOL1         0.1041
      11    C4      19.400470   18.556613   22.416842 C.3        1 MOL1         0.0313
      12    H8      18.455605   19.054083   22.649911 H          1 MOL1         0.1015
      13    H9      20.066554   18.676195   23.274622 H          1 MOL1         0.1015
      14    N1      19.104823   17.073929   22.259853 N.4        1 MOL1        -0.4809
      15    H10     18.502955   16.914510   21.437626 H          1 MOL1         0.3726
      16    H11     18.546344   16.746121   23.063502 H          1 MOL1         0.3726
      17    C5      20.390731   16.260737   22.157260 C.3        1 MOL1        -0.0677
      18    H12     20.138524   15.200602   22.083323 H          1 MOL1         0.1026
      19    H13     20.944227   16.568075   21.267837 H          1 MOL1         0.1026
      20    H14     20.997219   16.433173   23.048964 H          1 MOL1         0.1026
@<TRIPOS>BOND
    1     1     2    1
    2     1     3    1
    3     1     4    1
    4     1     5    1
    5     5     6    1
    6     5     7    1
    7     5     8    1
    8     8     9    1
    9     8    10    1
   10     8    11    1
   11    11    12    1
   12    11    13    1
   13    11    14    1
   14    14    15    1
   15    14    16    1
   16    14    17    1
   17    17    18    1
   18    17    19    1
   19    17    20    1
@<TRIPOS>SUBSTRUCTURE
       1 MOL1            1 RESIDUE      1      MOL     
@<SCITEGIC>MOL_PROPERTY
VConf Rank
SciTegic.value.IntegerValue
293

@<SCITEGIC>MOL_PROPERTY
Conf_Id
SciTegic.value.IntegerValue
53

@<SCITEGIC>MOL_PROPERTY
Delta U+W
SciTegic.value.DoubleValue
0.379

@<SCITEGIC>MOL_PROPERTY
U+W
SciTegic.value.DoubleValue
15.717

@<SCITEGIC>MOL_PROPERTY
Grad RMS
SciTegic.value.DoubleValue
0.000000

@<SCITEGIC>MOL_PROPERTY
U
SciTegic.value.DoubleValue
70.163

@<SCITEGIC>MOL_PROPERTY
W
SciTegic.value.DoubleValue
-54.446

@<SCITEGIC>MOL_PROPERTY
W(PB)
SciTegic.value.DoubleValue
-56.322

@<SCITEGIC>MOL_PROPERTY
W(SA)
SciTegic.value.DoubleValue
1.876

@<SCITEGIC>MOL_PROPERTY
Valence
SciTegic.value.DoubleValue
1.420

@<SCITEGIC>MOL_PROPERTY
Coulomb
SciTegic.value.DoubleValue
68.566

@<SCITEGIC>MOL_PROPERTY
VdW
SciTegic.value.DoubleValue
0.177

@<SCITEGIC>MOL_PROPERTY
VdW6
SciTegic.value.DoubleValue
-4.267

@<SCITEGIC>MOL_PROPERTY
VdW12
SciTegic.value.DoubleValue
4.445

@<SCITEGIC>MOL_PROPERTY
Bond
SciTegic.value.DoubleValue
0.146

@<SCITEGIC>MOL_PROPERTY
Angle
SciTegic.value.DoubleValue
0.581

@<SCITEGIC>MOL_PROPERTY
Pdih
SciTegic.value.DoubleValue
0.693

@<SCITEGIC>MOL_PROPERTY
Idih
SciTegic.value.DoubleValue
0.000

@<SCITEGIC>MOL_PROPERTY
Tether
SciTegic.value.DoubleValue
0.000

@<TRIPOS>MOLECULE
guest-s9_confgen4.mol2 : confsearch ligand conformer 294
          20          19           1
SMALL
USER_CHARGES
 
@<TRIPOS>ATOM
       1    C1      21.145116   18.240651   19.454725 C.3        1 MOL1        -0.2224
       2    H1      21.532885   18.937410   18.700295 H          1 MOL1         0.1052
       3    H2      21.814323   17.370914   19.484143 H          1 MOL1         0.1052
       4    H3      20.156446   17.899750   19.120838 H          1 MOL1         0.1052
       5    C2      21.059921   18.924468   20.836426 C.3        1 MOL1        -0.1209
       6    H4      20.414477   19.809939   20.758967 H          1 MOL1         0.1041
       7    H5      22.057420   19.282273   21.128233 H          1 MOL1         0.1041
       8    C3      20.513712   17.963259   21.918303 C.3        1 MOL1        -0.1274
       9    H6      19.506202   17.623980   21.645256 H          1 MOL1         0.1041
      10    H7      21.141971   17.063474   21.954720 H          1 MOL1         0.1041
      11    C4      20.490505   18.595934   23.327502 C.3        1 MOL1         0.0313
      12    H8      21.509338   18.875557   23.607536 H          1 MOL1         0.1015
      13    H9      20.134839   17.858901   24.051918 H          1 MOL1         0.1015
      14    N1      19.622745   19.837343   23.470774 N.4        1 MOL1        -0.4809
      15    H10     19.922874   20.560514   22.800717 H          1 MOL1         0.3726
      16    H11     19.773854   20.258279   24.400937 H          1 MOL1         0.3726
      17    C5      18.145960   19.506141   23.285447 C.3        1 MOL1        -0.0677
      18    H12     17.851570   18.753308   24.019773 H          1 MOL1         0.1026
      19    H13     17.554822   20.412960   23.430931 H          1 MOL1         0.1026
      20    H14     17.985069   19.122049   22.276189 H          1 MOL1         0.1026
@<TRIPOS>BOND
    1     1     2    1
    2     1     3    1
    3     1     4    1
    4     1     5    1
    5     5     6    1
    6     5     7    1
    7     5     8    1
    8     8     9    1
    9     8    10    1
   10     8    11    1
   11    11    12    1
   12    11    13    1
   13    11    14    1
   14    14    15    1
   15    14    16    1
   16    14    17    1
   17    17    18    1
   18    17    19    1
   19    17    20    1
@<TRIPOS>SUBSTRUCTURE
       1 MOL1            1 RESIDUE      1      MOL     
@<SCITEGIC>MOL_PROPERTY
VConf Rank
SciTegic.value.IntegerValue
294

@<SCITEGIC>MOL_PROPERTY
Conf_Id
SciTegic.value.IntegerValue
49

@<SCITEGIC>MOL_PROPERTY
Delta U+W
SciTegic.value.DoubleValue
0.268

@<SCITEGIC>MOL_PROPERTY
U+W
SciTegic.value.DoubleValue
15.607

@<SCITEGIC>MOL_PROPERTY
Grad RMS
SciTegic.value.DoubleValue
0.000000

@<SCITEGIC>MOL_PROPERTY
U
SciTegic.value.DoubleValue
70.298

@<SCITEGIC>MOL_PROPERTY
W
SciTegic.value.DoubleValue
-54.692

@<SCITEGIC>MOL_PROPERTY
W(PB)
SciTegic.value.DoubleValue
-56.576

@<SCITEGIC>MOL_PROPERTY
W(SA)
SciTegic.value.DoubleValue
1.885

@<SCITEGIC>MOL_PROPERTY
Valence
SciTegic.value.DoubleValue
1.245

@<SCITEGIC>MOL_PROPERTY
Coulomb
SciTegic.value.DoubleValue
68.933

@<SCITEGIC>MOL_PROPERTY
VdW
SciTegic.value.DoubleValue
0.120

@<SCITEGIC>MOL_PROPERTY
VdW6
SciTegic.value.DoubleValue
-4.430

@<SCITEGIC>MOL_PROPERTY
VdW12
SciTegic.value.DoubleValue
4.550

@<SCITEGIC>MOL_PROPERTY
Bond
SciTegic.value.DoubleValue
0.148

@<SCITEGIC>MOL_PROPERTY
Angle
SciTegic.value.DoubleValue
0.587

@<SCITEGIC>MOL_PROPERTY
Pdih
SciTegic.value.DoubleValue
0.509

@<SCITEGIC>MOL_PROPERTY
Idih
SciTegic.value.DoubleValue
0.000

@<SCITEGIC>MOL_PROPERTY
Tether
SciTegic.value.DoubleValue
0.000

@<TRIPOS>MOLECULE
guest-s9_confgen4.mol2 : confsearch ligand conformer 295
          20          19           1
SMALL
USER_CHARGES
 
@<TRIPOS>ATOM
       1    C1      17.590593   18.097167   20.866323 C.3        1 MOL1        -0.2224
       2    H1      17.862387   17.908290   19.819602 H          1 MOL1         0.1052
       3    H2      17.211424   17.160433   21.295158 H          1 MOL1         0.1052
       4    H3      16.769996   18.826246   20.874266 H          1 MOL1         0.1052
       5    C2      18.799335   18.627574   21.667534 C.3        1 MOL1        -0.1209
       6    H4      18.490022   18.833435   22.701911 H          1 MOL1         0.1041
       7    H5      19.121701   19.582297   21.231492 H          1 MOL1         0.1041
       8    C3      19.974912   17.622775   21.662926 C.3        1 MOL1        -0.1274
       9    H6      19.608576   16.641277   21.991888 H          1 MOL1         0.1041
      10    H7      20.342554   17.485981   20.637410 H          1 MOL1         0.1041
      11    C4      21.152054   18.022923   22.581102 C.3        1 MOL1         0.0313
      12    H8      21.890883   17.217941   22.551435 H          1 MOL1         0.1015
      13    H9      20.811366   18.121308   23.614809 H          1 MOL1         0.1015
      14    N1      21.881823   19.300531   22.195853 N.4        1 MOL1        -0.4809
      15    H10     21.878089   19.422323   21.172138 H          1 MOL1         0.3726
      16    H11     22.878808   19.211893   22.447194 H          1 MOL1         0.3726
      17    C5      21.291968   20.515187   22.905310 C.3        1 MOL1        -0.0677
      18    H12     21.857572   21.404838   22.619705 H          1 MOL1         0.1026
      19    H13     20.246951   20.639006   22.619098 H          1 MOL1         0.1026
      20    H14     21.362221   20.367801   23.985138 H          1 MOL1         0.1026
@<TRIPOS>BOND
    1     1     2    1
    2     1     3    1
    3     1     4    1
    4     1     5    1
    5     5     6    1
    6     5     7    1
    7     5     8    1
    8     8     9    1
    9     8    10    1
   10     8    11    1
   11    11    12    1
   12    11    13    1
   13    11    14    1
   14    14    15    1
   15    14    16    1
   16    14    17    1
   17    17    18    1
   18    17    19    1
   19    17    20    1
@<TRIPOS>SUBSTRUCTURE
       1 MOL1            1 RESIDUE      1      MOL     
@<SCITEGIC>MOL_PROPERTY
VConf Rank
SciTegic.value.IntegerValue
295

@<SCITEGIC>MOL_PROPERTY
Conf_Id
SciTegic.value.IntegerValue
65

@<SCITEGIC>MOL_PROPERTY
Delta U+W
SciTegic.value.DoubleValue
1.775

@<SCITEGIC>MOL_PROPERTY
U+W
SciTegic.value.DoubleValue
17.114

@<SCITEGIC>MOL_PROPERTY
Grad RMS
SciTegic.value.DoubleValue
0.000000

@<SCITEGIC>MOL_PROPERTY
U
SciTegic.value.DoubleValue
71.726

@<SCITEGIC>MOL_PROPERTY
W
SciTegic.value.DoubleValue
-54.613

@<SCITEGIC>MOL_PROPERTY
W(PB)
SciTegic.value.DoubleValue
-56.495

@<SCITEGIC>MOL_PROPERTY
W(SA)
SciTegic.value.DoubleValue
1.883

@<SCITEGIC>MOL_PROPERTY
Valence
SciTegic.value.DoubleValue
2.885

@<SCITEGIC>MOL_PROPERTY
Coulomb
SciTegic.value.DoubleValue
68.822

@<SCITEGIC>MOL_PROPERTY
VdW
SciTegic.value.DoubleValue
0.019

@<SCITEGIC>MOL_PROPERTY
VdW6
SciTegic.value.DoubleValue
-4.600

@<SCITEGIC>MOL_PROPERTY
VdW12
SciTegic.value.DoubleValue
4.619

@<SCITEGIC>MOL_PROPERTY
Bond
SciTegic.value.DoubleValue
0.152

@<SCITEGIC>MOL_PROPERTY
Angle
SciTegic.value.DoubleValue
0.862

@<SCITEGIC>MOL_PROPERTY
Pdih
SciTegic.value.DoubleValue
1.871

@<SCITEGIC>MOL_PROPERTY
Idih
SciTegic.value.DoubleValue
0.000

@<SCITEGIC>MOL_PROPERTY
Tether
SciTegic.value.DoubleValue
0.000

@<TRIPOS>MOLECULE
guest-s9_confgen4.mol2 : confsearch ligand conformer 296
          20          19           1
SMALL
USER_CHARGES
 
@<TRIPOS>ATOM
       1    C1      19.732291   21.054368   22.488757 C.3        1 MOL1        -0.2224
       2    H1      20.282022   20.474229   23.240581 H          1 MOL1         0.1052
       3    H2      20.225536   22.030920   22.399114 H          1 MOL1         0.1052
       4    H3      18.715592   21.226704   22.865182 H          1 MOL1         0.1052
       5    C2      19.703984   20.333639   21.121308 C.3        1 MOL1        -0.1209
       6    H4      20.731107   20.173766   20.766246 H          1 MOL1         0.1041
       7    H5      19.227084   20.991259   20.380964 H          1 MOL1         0.1041
       8    C3      18.937164   18.988090   21.159802 C.3        1 MOL1        -0.1274
       9    H6      17.886596   19.178713   21.416190 H          1 MOL1         0.1041
      10    H7      18.930563   18.543143   20.155947 H          1 MOL1         0.1041
      11    C4      19.511541   17.966689   22.163693 C.3        1 MOL1         0.0313
      12    H8      18.897920   17.062333   22.151408 H          1 MOL1         0.1015
      13    H9      19.478844   18.384244   23.172824 H          1 MOL1         0.1015
      14    N1      20.942418   17.555448   21.873740 N.4        1 MOL1        -0.4809
      15    H10     21.553633   18.385440   21.869420 H          1 MOL1         0.3726
      16    H11     21.012417   17.156406   20.925180 H          1 MOL1         0.3726
      17    C5      21.415491   16.549184   22.914005 C.3        1 MOL1        -0.0677
      18    H12     20.773226   15.666563   22.878778 H          1 MOL1         0.1026
      19    H13     22.446383   16.263216   22.693884 H          1 MOL1         0.1026
      20    H14     21.363409   17.004763   23.905215 H          1 MOL1         0.1026
@<TRIPOS>BOND
    1     1     2    1
    2     1     3    1
    3     1     4    1
    4     1     5    1
    5     5     6    1
    6     5     7    1
    7     5     8    1
    8     8     9    1
    9     8    10    1
   10     8    11    1
   11    11    12    1
   12    11    13    1
   13    11    14    1
   14    14    15    1
   15    14    16    1
   16    14    17    1
   17    17    18    1
   18    17    19    1
   19    17    20    1
@<TRIPOS>SUBSTRUCTURE
       1 MOL1            1 RESIDUE      1      MOL     
@<SCITEGIC>MOL_PROPERTY
VConf Rank
SciTegic.value.IntegerValue
296

@<SCITEGIC>MOL_PROPERTY
Conf_Id
SciTegic.value.IntegerValue
23

@<SCITEGIC>MOL_PROPERTY
Delta U+W
SciTegic.value.DoubleValue
0.896

@<SCITEGIC>MOL_PROPERTY
U+W
SciTegic.value.DoubleValue
16.234

@<SCITEGIC>MOL_PROPERTY
Grad RMS
SciTegic.value.DoubleValue
0.000000

@<SCITEGIC>MOL_PROPERTY
U
SciTegic.value.DoubleValue
70.374

@<SCITEGIC>MOL_PROPERTY
W
SciTegic.value.DoubleValue
-54.140

@<SCITEGIC>MOL_PROPERTY
W(PB)
SciTegic.value.DoubleValue
-56.046

@<SCITEGIC>MOL_PROPERTY
W(SA)
SciTegic.value.DoubleValue
1.907

@<SCITEGIC>MOL_PROPERTY
Valence
SciTegic.value.DoubleValue
1.257

@<SCITEGIC>MOL_PROPERTY
Coulomb
SciTegic.value.DoubleValue
69.240

@<SCITEGIC>MOL_PROPERTY
VdW
SciTegic.value.DoubleValue
-0.123

@<SCITEGIC>MOL_PROPERTY
VdW6
SciTegic.value.DoubleValue
-4.336

@<SCITEGIC>MOL_PROPERTY
VdW12
SciTegic.value.DoubleValue
4.213

@<SCITEGIC>MOL_PROPERTY
Bond
SciTegic.value.DoubleValue
0.128

@<SCITEGIC>MOL_PROPERTY
Angle
SciTegic.value.DoubleValue
0.603

@<SCITEGIC>MOL_PROPERTY
Pdih
SciTegic.value.DoubleValue
0.526

@<SCITEGIC>MOL_PROPERTY
Idih
SciTegic.value.DoubleValue
0.000

@<SCITEGIC>MOL_PROPERTY
Tether
SciTegic.value.DoubleValue
0.000

@<TRIPOS>MOLECULE
guest-s9_confgen4.mol2 : confsearch ligand conformer 297
          20          19           1
SMALL
USER_CHARGES
 
@<TRIPOS>ATOM
       1    C1      19.106559   17.050098   23.310048 C.3        1 MOL1        -0.2224
       2    H1      18.185877   16.693268   22.830374 H          1 MOL1         0.1052
       3    H2      19.277619   16.435866   24.203602 H          1 MOL1         0.1052
       4    H3      18.940500   18.081723   23.644977 H          1 MOL1         0.1052
       5    C2      20.310462   16.950797   22.345203 C.3        1 MOL1        -0.1209
       6    H4      20.494951   15.892630   22.112283 H          1 MOL1         0.1041
       7    H5      21.217889   17.312232   22.847749 H          1 MOL1         0.1041
       8    C3      20.091485   17.721965   21.019554 C.3        1 MOL1        -0.1274
       9    H6      20.967486   17.588672   20.371019 H          1 MOL1         0.1041
      10    H7      19.242775   17.279951   20.480962 H          1 MOL1         0.1041
      11    C4      19.824036   19.230001   21.207349 C.3        1 MOL1         0.0313
      12    H8      18.926268   19.371776   21.813714 H          1 MOL1         0.1015
      13    H9      19.650115   19.691261   20.231885 H          1 MOL1         0.1015
      14    N1      20.961914   19.979300   21.873974 N.4        1 MOL1        -0.4809
      15    H10     21.829793   19.866766   21.328061 H          1 MOL1         0.3726
      16    H11     21.161821   19.567433   22.797496 H          1 MOL1         0.3726
      17    C5      20.603951   21.452801   22.012471 C.3        1 MOL1        -0.0677
      18    H12     19.701951   21.548436   22.620756 H          1 MOL1         0.1026
      19    H13     21.430693   21.979195   22.494525 H          1 MOL1         0.1026
      20    H14     20.427327   21.874791   21.020759 H          1 MOL1         0.1026
@<TRIPOS>BOND
    1     1     2    1
    2     1     3    1
    3     1     4    1
    4     1     5    1
    5     5     6    1
    6     5     7    1
    7     5     8    1
    8     8     9    1
    9     8    10    1
   10     8    11    1
   11    11    12    1
   12    11    13    1
   13    11    14    1
   14    14    15    1
   15    14    16    1
   16    14    17    1
   17    17    18    1
   18    17    19    1
   19    17    20    1
@<TRIPOS>SUBSTRUCTURE
       1 MOL1            1 RESIDUE      1      MOL     
@<SCITEGIC>MOL_PROPERTY
VConf Rank
SciTegic.value.IntegerValue
297

@<SCITEGIC>MOL_PROPERTY
Conf_Id
SciTegic.value.IntegerValue
24

@<SCITEGIC>MOL_PROPERTY
Delta U+W
SciTegic.value.DoubleValue
0.792

@<SCITEGIC>MOL_PROPERTY
U+W
SciTegic.value.DoubleValue
16.130

@<SCITEGIC>MOL_PROPERTY
Grad RMS
SciTegic.value.DoubleValue
0.000000

@<SCITEGIC>MOL_PROPERTY
U
SciTegic.value.DoubleValue
70.374

@<SCITEGIC>MOL_PROPERTY
W
SciTegic.value.DoubleValue
-54.243

@<SCITEGIC>MOL_PROPERTY
W(PB)
SciTegic.value.DoubleValue
-56.130

@<SCITEGIC>MOL_PROPERTY
W(SA)
SciTegic.value.DoubleValue
1.887

@<SCITEGIC>MOL_PROPERTY
Valence
SciTegic.value.DoubleValue
1.257

@<SCITEGIC>MOL_PROPERTY
Coulomb
SciTegic.value.DoubleValue
69.240

@<SCITEGIC>MOL_PROPERTY
VdW
SciTegic.value.DoubleValue
-0.123

@<SCITEGIC>MOL_PROPERTY
VdW6
SciTegic.value.DoubleValue
-4.336

@<SCITEGIC>MOL_PROPERTY
VdW12
SciTegic.value.DoubleValue
4.213

@<SCITEGIC>MOL_PROPERTY
Bond
SciTegic.value.DoubleValue
0.128

@<SCITEGIC>MOL_PROPERTY
Angle
SciTegic.value.DoubleValue
0.603

@<SCITEGIC>MOL_PROPERTY
Pdih
SciTegic.value.DoubleValue
0.526

@<SCITEGIC>MOL_PROPERTY
Idih
SciTegic.value.DoubleValue
0.000

@<SCITEGIC>MOL_PROPERTY
Tether
SciTegic.value.DoubleValue
0.000

@<TRIPOS>MOLECULE
guest-s9_confgen4.mol2 : confsearch ligand conformer 298
          20          19           1
SMALL
USER_CHARGES
 
@<TRIPOS>ATOM
       1    C1      18.637005   20.416221   22.578480 C.3        1 MOL1        -0.2224
       2    H1      17.771675   21.090666   22.617846 H          1 MOL1         0.1052
       3    H2      18.271594   19.411205   22.820278 H          1 MOL1         0.1052
       4    H3      19.342330   20.735508   23.356770 H          1 MOL1         0.1052
       5    C2      19.287546   20.462208   21.177001 C.3        1 MOL1        -0.1209
       6    H4      19.440111   21.513714   20.895709 H          1 MOL1         0.1041
       7    H5      18.589132   20.048266   20.436073 H          1 MOL1         0.1041
       8    C3      20.648789   19.727511   21.076615 C.3        1 MOL1        -0.1274
       9    H6      21.044344   19.885721   20.064526 H          1 MOL1         0.1041
      10    H7      21.379235   20.181152   21.759523 H          1 MOL1         0.1041
      11    C4      20.572192   18.205310   21.320180 C.3        1 MOL1         0.0313
      12    H8      21.450254   17.728144   20.877617 H          1 MOL1         0.1015
      13    H9      19.683132   17.797606   20.832705 H          1 MOL1         0.1015
      14    N1      20.543359   17.806571   22.783455 N.4        1 MOL1        -0.4809
      15    H10     19.760340   18.275026   23.261000 H          1 MOL1         0.3726
      16    H11     21.394975   18.142017   23.259099 H          1 MOL1         0.3726
      17    C5      20.421287   16.294054   22.909174 C.3        1 MOL1        -0.0677
      18    H12     19.497508   15.966246   22.427571 H          1 MOL1         0.1026
      19    H13     21.278452   15.822527   22.423690 H          1 MOL1         0.1026
      20    H14     20.401831   16.022099   23.966828 H          1 MOL1         0.1026
@<TRIPOS>BOND
    1     1     2    1
    2     1     3    1
    3     1     4    1
    4     1     5    1
    5     5     6    1
    6     5     7    1
    7     5     8    1
    8     8     9    1
    9     8    10    1
   10     8    11    1
   11    11    12    1
   12    11    13    1
   13    11    14    1
   14    14    15    1
   15    14    16    1
   16    14    17    1
   17    17    18    1
   18    17    19    1
   19    17    20    1
@<TRIPOS>SUBSTRUCTURE
       1 MOL1            1 RESIDUE      1      MOL     
@<SCITEGIC>MOL_PROPERTY
VConf Rank
SciTegic.value.IntegerValue
298

@<SCITEGIC>MOL_PROPERTY
Conf_Id
SciTegic.value.IntegerValue
26

@<SCITEGIC>MOL_PROPERTY
Delta U+W
SciTegic.value.DoubleValue
2.888

@<SCITEGIC>MOL_PROPERTY
U+W
SciTegic.value.DoubleValue
18.226

@<SCITEGIC>MOL_PROPERTY
Grad RMS
SciTegic.value.DoubleValue
0.000000

@<SCITEGIC>MOL_PROPERTY
U
SciTegic.value.DoubleValue
72.042

@<SCITEGIC>MOL_PROPERTY
W
SciTegic.value.DoubleValue
-53.816

@<SCITEGIC>MOL_PROPERTY
W(PB)
SciTegic.value.DoubleValue
-55.689

@<SCITEGIC>MOL_PROPERTY
W(SA)
SciTegic.value.DoubleValue
1.873

@<SCITEGIC>MOL_PROPERTY
Valence
SciTegic.value.DoubleValue
2.428

@<SCITEGIC>MOL_PROPERTY
Coulomb
SciTegic.value.DoubleValue
69.829

@<SCITEGIC>MOL_PROPERTY
VdW
SciTegic.value.DoubleValue
-0.215

@<SCITEGIC>MOL_PROPERTY
VdW6
SciTegic.value.DoubleValue
-4.563

@<SCITEGIC>MOL_PROPERTY
VdW12
SciTegic.value.DoubleValue
4.348

@<SCITEGIC>MOL_PROPERTY
Bond
SciTegic.value.DoubleValue
0.137

@<SCITEGIC>MOL_PROPERTY
Angle
SciTegic.value.DoubleValue
0.936

@<SCITEGIC>MOL_PROPERTY
Pdih
SciTegic.value.DoubleValue
1.356

@<SCITEGIC>MOL_PROPERTY
Idih
SciTegic.value.DoubleValue
0.000

@<SCITEGIC>MOL_PROPERTY
Tether
SciTegic.value.DoubleValue
0.000

@<TRIPOS>MOLECULE
guest-s9_confgen4.mol2 : confsearch ligand conformer 299
          20          19           1
SMALL
USER_CHARGES
 
@<TRIPOS>ATOM
       1    C1      21.137956   17.538112   20.699813 C.3        1 MOL1        -0.2224
       2    H1      21.591977   16.636776   20.267750 H          1 MOL1         0.1052
       3    H2      21.371834   18.379219   20.034227 H          1 MOL1         0.1052
       4    H3      21.620721   17.707072   21.669576 H          1 MOL1         0.1052
       5    C2      19.611322   17.348151   20.850685 C.3        1 MOL1        -0.1209
       6    H4      19.412341   16.563306   21.594009 H          1 MOL1         0.1041
       7    H5      19.208957   16.973551   19.898926 H          1 MOL1         0.1041
       8    C3      18.838852   18.636215   21.234115 C.3        1 MOL1        -0.1274
       9    H6      18.968720   19.404407   20.460345 H          1 MOL1         0.1041
      10    H7      17.767128   18.397203   21.244026 H          1 MOL1         0.1041
      11    C4      19.206057   19.212805   22.617946 C.3        1 MOL1         0.0313
      12    H8      19.322163   18.399045   23.338083 H          1 MOL1         0.1015
      13    H9      18.393888   19.857580   22.963184 H          1 MOL1         0.1015
      14    N1      20.470781   20.050241   22.631164 N.4        1 MOL1        -0.4809
      15    H10     20.371258   20.852714   21.990744 H          1 MOL1         0.3726
      16    H11     21.260517   19.501716   22.262303 H          1 MOL1         0.3726
      17    C5      20.764158   20.528887   24.046522 C.3        1 MOL1        -0.0677
      18    H12     20.897760   19.663182   24.698804 H          1 MOL1         0.1026
      19    H13     21.676234   21.129764   24.040505 H          1 MOL1         0.1026
      20    H14     19.927320   21.133806   24.402248 H          1 MOL1         0.1026
@<TRIPOS>BOND
    1     1     2    1
    2     1     3    1
    3     1     4    1
    4     1     5    1
    5     5     6    1
    6     5     7    1
    7     5     8    1
    8     8     9    1
    9     8    10    1
   10     8    11    1
   11    11    12    1
   12    11    13    1
   13    11    14    1
   14    14    15    1
   15    14    16    1
   16    14    17    1
   17    17    18    1
   18    17    19    1
   19    17    20    1
@<TRIPOS>SUBSTRUCTURE
       1 MOL1            1 RESIDUE      1      MOL     
@<SCITEGIC>MOL_PROPERTY
VConf Rank
SciTegic.value.IntegerValue
299

@<SCITEGIC>MOL_PROPERTY
Conf_Id
SciTegic.value.IntegerValue
5

@<SCITEGIC>MOL_PROPERTY
Delta U+W
SciTegic.value.DoubleValue
2.950

@<SCITEGIC>MOL_PROPERTY
U+W
SciTegic.value.DoubleValue
18.289

@<SCITEGIC>MOL_PROPERTY
Grad RMS
SciTegic.value.DoubleValue
0.000000

@<SCITEGIC>MOL_PROPERTY
U
SciTegic.value.DoubleValue
72.042

@<SCITEGIC>MOL_PROPERTY
W
SciTegic.value.DoubleValue
-53.753

@<SCITEGIC>MOL_PROPERTY
W(PB)
SciTegic.value.DoubleValue
-55.644

@<SCITEGIC>MOL_PROPERTY
W(SA)
SciTegic.value.DoubleValue
1.891

@<SCITEGIC>MOL_PROPERTY
Valence
SciTegic.value.DoubleValue
2.428

@<SCITEGIC>MOL_PROPERTY
Coulomb
SciTegic.value.DoubleValue
69.829

@<SCITEGIC>MOL_PROPERTY
VdW
SciTegic.value.DoubleValue
-0.215

@<SCITEGIC>MOL_PROPERTY
VdW6
SciTegic.value.DoubleValue
-4.563

@<SCITEGIC>MOL_PROPERTY
VdW12
SciTegic.value.DoubleValue
4.348

@<SCITEGIC>MOL_PROPERTY
Bond
SciTegic.value.DoubleValue
0.137

@<SCITEGIC>MOL_PROPERTY
Angle
SciTegic.value.DoubleValue
0.936

@<SCITEGIC>MOL_PROPERTY
Pdih
SciTegic.value.DoubleValue
1.356

@<SCITEGIC>MOL_PROPERTY
Idih
SciTegic.value.DoubleValue
0.000

@<SCITEGIC>MOL_PROPERTY
Tether
SciTegic.value.DoubleValue
0.000

@<TRIPOS>MOLECULE
guest-s9_confgen4.mol2 : confsearch ligand conformer 300
          20          19           1
SMALL
USER_CHARGES
 
@<TRIPOS>ATOM
       1    C1      20.629917   20.281938   20.105933 C.3        1 MOL1        -0.2224
       2    H1      20.936238   21.293351   20.403035 H          1 MOL1         0.1052
       3    H2      21.480366   19.606863   20.263374 H          1 MOL1         0.1052
       4    H3      20.416717   20.300043   19.029279 H          1 MOL1         0.1052
       5    C2      19.383657   19.823886   20.897871 C.3        1 MOL1        -0.1209
       6    H4      19.094118   18.812574   20.581362 H          1 MOL1         0.1041
       7    H5      18.537218   20.475719   20.639902 H          1 MOL1         0.1041
       8    C3      19.591900   19.860945   22.432327 C.3        1 MOL1        -0.1274
       9    H6      19.786491   20.895263   22.745145 H          1 MOL1         0.1041
      10    H7      18.661374   19.564670   22.933419 H          1 MOL1         0.1041
      11    C4      20.752495   18.969999   22.931093 C.3        1 MOL1         0.0313
      12    H8      20.832369   19.048736   24.018217 H          1 MOL1         0.1015
      13    H9      21.689238   19.332363   22.500647 H          1 MOL1         0.1015
      14    N1      20.632246   17.494492   22.582175 N.4        1 MOL1        -0.4809
      15    H10     21.508317   17.008056   22.829026 H          1 MOL1         0.3726
      16    H11     20.540917   17.379678   21.562087 H          1 MOL1         0.3726
      17    C5      19.457329   16.848100   23.307689 C.3        1 MOL1        -0.0677
      18    H12     18.528990   17.328874   22.992997 H          1 MOL1         0.1026
      19    H13     19.422960   15.785481   23.057555 H          1 MOL1         0.1026
      20    H14     19.590125   16.968399   24.384966 H          1 MOL1         0.1026
@<TRIPOS>BOND
    1     1     2    1
    2     1     3    1
    3     1     4    1
    4     1     5    1
    5     5     6    1
    6     5     7    1
    7     5     8    1
    8     8     9    1
    9     8    10    1
   10     8    11    1
   11    11    12    1
   12    11    13    1
   13    11    14    1
   14    14    15    1
   15    14    16    1
   16    14    17    1
   17    17    18    1
   18    17    19    1
   19    17    20    1
@<TRIPOS>SUBSTRUCTURE
       1 MOL1            1 RESIDUE      1      MOL     
@<SCITEGIC>MOL_PROPERTY
VConf Rank
SciTegic.value.IntegerValue
300

@<SCITEGIC>MOL_PROPERTY
Conf_Id
SciTegic.value.IntegerValue
52

@<SCITEGIC>MOL_PROPERTY
Delta U+W
SciTegic.value.DoubleValue
0.784

@<SCITEGIC>MOL_PROPERTY
U+W
SciTegic.value.DoubleValue
16.122

@<SCITEGIC>MOL_PROPERTY
Grad RMS
SciTegic.value.DoubleValue
0.000000

@<SCITEGIC>MOL_PROPERTY
U
SciTegic.value.DoubleValue
70.777

@<SCITEGIC>MOL_PROPERTY
W
SciTegic.value.DoubleValue
-54.655

@<SCITEGIC>MOL_PROPERTY
W(PB)
SciTegic.value.DoubleValue
-56.491

@<SCITEGIC>MOL_PROPERTY
W(SA)
SciTegic.value.DoubleValue
1.836

@<SCITEGIC>MOL_PROPERTY
Valence
SciTegic.value.DoubleValue
1.529

@<SCITEGIC>MOL_PROPERTY
Coulomb
SciTegic.value.DoubleValue
69.166

@<SCITEGIC>MOL_PROPERTY
VdW
SciTegic.value.DoubleValue
0.082

@<SCITEGIC>MOL_PROPERTY
VdW6
SciTegic.value.DoubleValue
-5.166

@<SCITEGIC>MOL_PROPERTY
VdW12
SciTegic.value.DoubleValue
5.248

@<SCITEGIC>MOL_PROPERTY
Bond
SciTegic.value.DoubleValue
0.171

@<SCITEGIC>MOL_PROPERTY
Angle
SciTegic.value.DoubleValue
0.752

@<SCITEGIC>MOL_PROPERTY
Pdih
SciTegic.value.DoubleValue
0.605

@<SCITEGIC>MOL_PROPERTY
Idih
SciTegic.value.DoubleValue
0.000

@<SCITEGIC>MOL_PROPERTY
Tether
SciTegic.value.DoubleValue
0.000

@<TRIPOS>MOLECULE
guest-s9_confgen4.mol2 : confsearch ligand conformer 301
          20          19           1
SMALL
USER_CHARGES
 
@<TRIPOS>ATOM
       1    C1      21.006272   17.134641   21.448438 C.3        1 MOL1        -0.2224
       2    H1      21.633953   16.251442   21.271958 H          1 MOL1         0.1052
       3    H2      20.179618   16.816144   22.093693 H          1 MOL1         0.1052
       4    H3      20.598698   17.452062   20.479709 H          1 MOL1         0.1052
       5    C2      21.838544   18.260266   22.103919 C.3        1 MOL1        -0.1209
       6    H4      22.773059   18.377956   21.537478 H          1 MOL1         0.1041
       7    H5      22.134695   17.955574   23.117563 H          1 MOL1         0.1041
       8    C3      21.126741   19.636210   22.158125 C.3        1 MOL1        -0.1274
       9    H6      21.842311   20.369429   22.553013 H          1 MOL1         0.1041
      10    H7      20.881718   19.977123   21.144397 H          1 MOL1         0.1041
      11    C4      19.871786   19.676092   23.060927 C.3        1 MOL1         0.0313
      12    H8      19.638565   20.715124   23.306773 H          1 MOL1         0.1015
      13    H9      20.088434   19.153207   23.995873 H          1 MOL1         0.1015
      14    N1      18.611000   19.067542   22.467128 N.4        1 MOL1        -0.4809
      15    H10     17.894521   18.970199   23.203566 H          1 MOL1         0.3726
      16    H11     18.799888   18.108187   22.144946 H          1 MOL1         0.3726
      17    C5      18.067971   19.922668   21.327566 C.3        1 MOL1        -0.0677
      18    H12     17.862391   20.928575   21.699762 H          1 MOL1         0.1026
      19    H13     18.805866   19.968741   20.524445 H          1 MOL1         0.1026
      20    H14     17.145687   19.474107   20.951934 H          1 MOL1         0.1026
@<TRIPOS>BOND
    1     1     2    1
    2     1     3    1
    3     1     4    1
    4     1     5    1
    5     5     6    1
    6     5     7    1
    7     5     8    1
    8     8     9    1
    9     8    10    1
   10     8    11    1
   11    11    12    1
   12    11    13    1
   13    11    14    1
   14    14    15    1
   15    14    16    1
   16    14    17    1
   17    17    18    1
   18    17    19    1
   19    17    20    1
@<TRIPOS>SUBSTRUCTURE
       1 MOL1            1 RESIDUE      1      MOL     
@<SCITEGIC>MOL_PROPERTY
VConf Rank
SciTegic.value.IntegerValue
301

@<SCITEGIC>MOL_PROPERTY
Conf_Id
SciTegic.value.IntegerValue
55

@<SCITEGIC>MOL_PROPERTY
Delta U+W
SciTegic.value.DoubleValue
2.745

@<SCITEGIC>MOL_PROPERTY
U+W
SciTegic.value.DoubleValue
18.083

@<SCITEGIC>MOL_PROPERTY
Grad RMS
SciTegic.value.DoubleValue
0.000000

@<SCITEGIC>MOL_PROPERTY
U
SciTegic.value.DoubleValue
72.490

@<SCITEGIC>MOL_PROPERTY
W
SciTegic.value.DoubleValue
-54.407

@<SCITEGIC>MOL_PROPERTY
W(PB)
SciTegic.value.DoubleValue
-56.269

@<SCITEGIC>MOL_PROPERTY
W(SA)
SciTegic.value.DoubleValue
1.861

@<SCITEGIC>MOL_PROPERTY
Valence
SciTegic.value.DoubleValue
2.738

@<SCITEGIC>MOL_PROPERTY
Coulomb
SciTegic.value.DoubleValue
69.795

@<SCITEGIC>MOL_PROPERTY
VdW
SciTegic.value.DoubleValue
-0.043

@<SCITEGIC>MOL_PROPERTY
VdW6
SciTegic.value.DoubleValue
-5.333

@<SCITEGIC>MOL_PROPERTY
VdW12
SciTegic.value.DoubleValue
5.290

@<SCITEGIC>MOL_PROPERTY
Bond
SciTegic.value.DoubleValue
0.182

@<SCITEGIC>MOL_PROPERTY
Angle
SciTegic.value.DoubleValue
1.135

@<SCITEGIC>MOL_PROPERTY
Pdih
SciTegic.value.DoubleValue
1.422

@<SCITEGIC>MOL_PROPERTY
Idih
SciTegic.value.DoubleValue
0.000

@<SCITEGIC>MOL_PROPERTY
Tether
SciTegic.value.DoubleValue
0.000

@<TRIPOS>MOLECULE
guest-s9_confgen4.mol2 : confsearch ligand conformer 302
          20          19           1
SMALL
USER_CHARGES
 
@<TRIPOS>ATOM
       1    C1      20.081387   20.901454   21.691324 C.3        1 MOL1        -0.2224
       2    H1      20.212176   21.937579   21.352933 H          1 MOL1         0.1052
       3    H2      19.175051   20.865392   22.309839 H          1 MOL1         0.1052
       4    H3      20.947501   20.657246   22.316912 H          1 MOL1         0.1052
       5    C2      19.970947   19.951761   20.476722 C.3        1 MOL1        -0.1209
       6    H4      20.932066   19.922842   19.944341 H          1 MOL1         0.1041
       7    H5      19.244596   20.374591   19.768446 H          1 MOL1         0.1041
       8    C3      19.523864   18.509748   20.828215 C.3        1 MOL1        -0.1274
       9    H6      18.536219   18.524274   21.305970 H          1 MOL1         0.1041
      10    H7      19.390195   17.960495   19.886918 H          1 MOL1         0.1041
      11    C4      20.531669   17.716407   21.692214 C.3        1 MOL1         0.0313
      12    H8      21.540136   17.879582   21.303838 H          1 MOL1         0.1015
      13    H9      20.312357   16.648801   21.611329 H          1 MOL1         0.1015
      14    N1      20.541835   18.055608   23.174560 N.4        1 MOL1        -0.4809
      15    H10     20.667051   19.069218   23.303998 H          1 MOL1         0.3726
      16    H11     21.363917   17.621367   23.622639 H          1 MOL1         0.3726
      17    C5      19.266693   17.577277   23.860076 C.3        1 MOL1        -0.0677
      18    H12     18.406248   18.088454   23.424243 H          1 MOL1         0.1026
      19    H13     19.166617   16.498808   23.720331 H          1 MOL1         0.1026
      20    H14     19.326626   17.805749   24.926434 H          1 MOL1         0.1026
@<TRIPOS>BOND
    1     1     2    1
    2     1     3    1
    3     1     4    1
    4     1     5    1
    5     5     6    1
    6     5     7    1
    7     5     8    1
    8     8     9    1
    9     8    10    1
   10     8    11    1
   11    11    12    1
   12    11    13    1
   13    11    14    1
   14    14    15    1
   15    14    16    1
   16    14    17    1
   17    17    18    1
   18    17    19    1
   19    17    20    1
@<TRIPOS>SUBSTRUCTURE
       1 MOL1            1 RESIDUE      1      MOL     
@<SCITEGIC>MOL_PROPERTY
VConf Rank
SciTegic.value.IntegerValue
302

@<SCITEGIC>MOL_PROPERTY
Conf_Id
SciTegic.value.IntegerValue
76

@<SCITEGIC>MOL_PROPERTY
Delta U+W
SciTegic.value.DoubleValue
2.799

@<SCITEGIC>MOL_PROPERTY
U+W
SciTegic.value.DoubleValue
18.137

@<SCITEGIC>MOL_PROPERTY
Grad RMS
SciTegic.value.DoubleValue
0.000000

@<SCITEGIC>MOL_PROPERTY
U
SciTegic.value.DoubleValue
72.490

@<SCITEGIC>MOL_PROPERTY
W
SciTegic.value.DoubleValue
-54.353

@<SCITEGIC>MOL_PROPERTY
W(PB)
SciTegic.value.DoubleValue
-56.201

@<SCITEGIC>MOL_PROPERTY
W(SA)
SciTegic.value.DoubleValue
1.848

@<SCITEGIC>MOL_PROPERTY
Valence
SciTegic.value.DoubleValue
2.738

@<SCITEGIC>MOL_PROPERTY
Coulomb
SciTegic.value.DoubleValue
69.795

@<SCITEGIC>MOL_PROPERTY
VdW
SciTegic.value.DoubleValue
-0.043

@<SCITEGIC>MOL_PROPERTY
VdW6
SciTegic.value.DoubleValue
-5.334

@<SCITEGIC>MOL_PROPERTY
VdW12
SciTegic.value.DoubleValue
5.290

@<SCITEGIC>MOL_PROPERTY
Bond
SciTegic.value.DoubleValue
0.182

@<SCITEGIC>MOL_PROPERTY
Angle
SciTegic.value.DoubleValue
1.135

@<SCITEGIC>MOL_PROPERTY
Pdih
SciTegic.value.DoubleValue
1.421

@<SCITEGIC>MOL_PROPERTY
Idih
SciTegic.value.DoubleValue
0.000

@<SCITEGIC>MOL_PROPERTY
Tether
SciTegic.value.DoubleValue
0.000

@<TRIPOS>MOLECULE
guest-s9_confgen4.mol2 : confsearch ligand conformer 303
          20          19           1
SMALL
USER_CHARGES
 
@<TRIPOS>ATOM
       1    C1      20.432989   20.477335   20.816151 C.3        1 MOL1        -0.2224
       2    H1      20.852831   19.549926   20.407867 H          1 MOL1         0.1052
       3    H2      19.611298   20.796479   20.161994 H          1 MOL1         0.1052
       4    H3      21.216021   21.245063   20.768198 H          1 MOL1         0.1052
       5    C2      19.943545   20.291762   22.270995 C.3        1 MOL1        -0.1209
       6    H4      19.600612   21.262487   22.655600 H          1 MOL1         0.1041
       7    H5      20.780455   19.994986   22.916183 H          1 MOL1         0.1041
       8    C3      18.784976   19.272265   22.396660 C.3        1 MOL1        -0.1274
       9    H6      18.458008   19.221010   23.443499 H          1 MOL1         0.1041
      10    H7      17.922920   19.649450   21.830765 H          1 MOL1         0.1041
      11    C4      19.102760   17.843576   21.896119 C.3        1 MOL1         0.0313
      12    H8      19.440208   17.866675   20.857292 H          1 MOL1         0.1015
      13    H9      18.176120   17.264831   21.928671 H          1 MOL1         0.1015
      14    N1      20.123599   17.070673   22.717978 N.4        1 MOL1        -0.4809
      15    H10     19.899102   16.064284   22.678188 H          1 MOL1         0.3726
      16    H11     20.043268   17.318383   23.715390 H          1 MOL1         0.3726
      17    C5      21.542786   17.286975   22.203810 C.3        1 MOL1        -0.0677
      18    H12     22.234215   16.690916   22.803449 H          1 MOL1         0.1026
      19    H13     21.597244   16.971071   21.159861 H          1 MOL1         0.1026
      20    H14     21.807014   18.341943   22.282848 H          1 MOL1         0.1026
@<TRIPOS>BOND
    1     1     2    1
    2     1     3    1
    3     1     4    1
    4     1     5    1
    5     5     6    1
    6     5     7    1
    7     5     8    1
    8     8     9    1
    9     8    10    1
   10     8    11    1
   11    11    12    1
   12    11    13    1
   13    11    14    1
   14    14    15    1
   15    14    16    1
   16    14    17    1
   17    17    18    1
   18    17    19    1
   19    17    20    1
@<TRIPOS>SUBSTRUCTURE
       1 MOL1            1 RESIDUE      1      MOL     
@<SCITEGIC>MOL_PROPERTY
VConf Rank
SciTegic.value.IntegerValue
303

@<SCITEGIC>MOL_PROPERTY
Conf_Id
SciTegic.value.IntegerValue
60

@<SCITEGIC>MOL_PROPERTY
Delta U+W
SciTegic.value.DoubleValue
1.788

@<SCITEGIC>MOL_PROPERTY
U+W
SciTegic.value.DoubleValue
17.127

@<SCITEGIC>MOL_PROPERTY
Grad RMS
SciTegic.value.DoubleValue
0.000000

@<SCITEGIC>MOL_PROPERTY
U
SciTegic.value.DoubleValue
72.122

@<SCITEGIC>MOL_PROPERTY
W
SciTegic.value.DoubleValue
-54.995

@<SCITEGIC>MOL_PROPERTY
W(PB)
SciTegic.value.DoubleValue
-56.810

@<SCITEGIC>MOL_PROPERTY
W(SA)
SciTegic.value.DoubleValue
1.815

@<SCITEGIC>MOL_PROPERTY
Valence
SciTegic.value.DoubleValue
3.197

@<SCITEGIC>MOL_PROPERTY
Coulomb
SciTegic.value.DoubleValue
69.115

@<SCITEGIC>MOL_PROPERTY
VdW
SciTegic.value.DoubleValue
-0.190

@<SCITEGIC>MOL_PROPERTY
VdW6
SciTegic.value.DoubleValue
-5.585

@<SCITEGIC>MOL_PROPERTY
VdW12
SciTegic.value.DoubleValue
5.395

@<SCITEGIC>MOL_PROPERTY
Bond
SciTegic.value.DoubleValue
0.177

@<SCITEGIC>MOL_PROPERTY
Angle
SciTegic.value.DoubleValue
1.207

@<SCITEGIC>MOL_PROPERTY
Pdih
SciTegic.value.DoubleValue
1.813

@<SCITEGIC>MOL_PROPERTY
Idih
SciTegic.value.DoubleValue
0.000

@<SCITEGIC>MOL_PROPERTY
Tether
SciTegic.value.DoubleValue
0.000

@<TRIPOS>MOLECULE
guest-s9_confgen4.mol2 : confsearch ligand conformer 304
          20          19           1
SMALL
USER_CHARGES
 
@<TRIPOS>ATOM
       1    C1      21.481218   20.301997   22.716825 C.3        1 MOL1        -0.2224
       2    H1      22.088387   20.447497   23.619609 H          1 MOL1         0.1052
       3    H2      21.748169   21.092350   22.003361 H          1 MOL1         0.1052
       4    H3      20.430113   20.438605   22.998901 H          1 MOL1         0.1052
       5    C2      21.733994   18.901278   22.112961 C.3        1 MOL1        -0.1209
       6    H4      21.483940   18.123257   22.845709 H          1 MOL1         0.1041
       7    H5      22.809343   18.789821   21.915390 H          1 MOL1         0.1041
       8    C3      20.960674   18.660196   20.793376 C.3        1 MOL1        -0.1274
       9    H6      21.311002   19.382757   20.044497 H          1 MOL1         0.1041
      10    H7      21.217594   17.668869   20.397560 H          1 MOL1         0.1041
      11    C4      19.421912   18.779879   20.896159 C.3        1 MOL1         0.0313
      12    H8      19.013371   18.707816   19.884937 H          1 MOL1         0.1015
      13    H9      19.138443   19.755852   21.297019 H          1 MOL1         0.1015
      14    N1      18.731873   17.701613   21.718429 N.4        1 MOL1        -0.4809
      15    H10     19.226319   16.802590   21.618792 H          1 MOL1         0.3726
      16    H11     17.791524   17.528843   21.330236 H          1 MOL1         0.3726
      17    C5      18.601608   18.105293   23.183120 C.3        1 MOL1        -0.0677
      18    H12     18.034255   19.036099   23.248704 H          1 MOL1         0.1026
      19    H13     18.075306   17.316524   23.725131 H          1 MOL1         0.1026
      20    H14     19.592232   18.247369   23.616131 H          1 MOL1         0.1026
@<TRIPOS>BOND
    1     1     2    1
    2     1     3    1
    3     1     4    1
    4     1     5    1
    5     5     6    1
    6     5     7    1
    7     5     8    1
    8     8     9    1
    9     8    10    1
   10     8    11    1
   11    11    12    1
   12    11    13    1
   13    11    14    1
   14    14    15    1
   15    14    16    1
   16    14    17    1
   17    17    18    1
   18    17    19    1
   19    17    20    1
@<TRIPOS>SUBSTRUCTURE
       1 MOL1            1 RESIDUE      1      MOL     
@<SCITEGIC>MOL_PROPERTY
VConf Rank
SciTegic.value.IntegerValue
304

@<SCITEGIC>MOL_PROPERTY
Conf_Id
SciTegic.value.IntegerValue
54

@<SCITEGIC>MOL_PROPERTY
Delta U+W
SciTegic.value.DoubleValue
1.880

@<SCITEGIC>MOL_PROPERTY
U+W
SciTegic.value.DoubleValue
17.218

@<SCITEGIC>MOL_PROPERTY
Grad RMS
SciTegic.value.DoubleValue
0.000000

@<SCITEGIC>MOL_PROPERTY
U
SciTegic.value.DoubleValue
72.122

@<SCITEGIC>MOL_PROPERTY
W
SciTegic.value.DoubleValue
-54.903

@<SCITEGIC>MOL_PROPERTY
W(PB)
SciTegic.value.DoubleValue
-56.724

@<SCITEGIC>MOL_PROPERTY
W(SA)
SciTegic.value.DoubleValue
1.821

@<SCITEGIC>MOL_PROPERTY
Valence
SciTegic.value.DoubleValue
3.197

@<SCITEGIC>MOL_PROPERTY
Coulomb
SciTegic.value.DoubleValue
69.115

@<SCITEGIC>MOL_PROPERTY
VdW
SciTegic.value.DoubleValue
-0.190

@<SCITEGIC>MOL_PROPERTY
VdW6
SciTegic.value.DoubleValue
-5.585

@<SCITEGIC>MOL_PROPERTY
VdW12
SciTegic.value.DoubleValue
5.395

@<SCITEGIC>MOL_PROPERTY
Bond
SciTegic.value.DoubleValue
0.177

@<SCITEGIC>MOL_PROPERTY
Angle
SciTegic.value.DoubleValue
1.207

@<SCITEGIC>MOL_PROPERTY
Pdih
SciTegic.value.DoubleValue
1.813

@<SCITEGIC>MOL_PROPERTY
Idih
SciTegic.value.DoubleValue
0.000

@<SCITEGIC>MOL_PROPERTY
Tether
SciTegic.value.DoubleValue
0.000

@<TRIPOS>MOLECULE
guest-s9_confgen4.mol2 : confsearch ligand conformer 305
          20          19           1
SMALL
USER_CHARGES
 
@<TRIPOS>ATOM
       1    C1      22.076573   18.319403   24.444291 C.3        1 MOL1        -0.2224
       2    H1      21.900768   19.269660   24.965137 H          1 MOL1         0.1052
       3    H2      22.227701   17.542336   25.204786 H          1 MOL1         0.1052
       4    H3      23.007061   18.412236   23.869183 H          1 MOL1         0.1052
       5    C2      20.888395   17.960257   23.525879 C.3        1 MOL1        -0.1209
       6    H4      19.980402   17.840098   24.133713 H          1 MOL1         0.1041
       7    H5      21.078031   16.989478   23.046319 H          1 MOL1         0.1041
       8    C3      20.651973   19.037541   22.444526 C.3        1 MOL1        -0.1274
       9    H6      20.459145   20.006279   22.924453 H          1 MOL1         0.1041
      10    H7      21.558353   19.154595   21.835642 H          1 MOL1         0.1041
      11    C4      19.465829   18.672135   21.532866 C.3        1 MOL1         0.0313
      12    H8      18.558688   18.570051   22.133833 H          1 MOL1         0.1015
      13    H9      19.661496   17.715742   21.041423 H          1 MOL1         0.1015
      14    N1      19.195701   19.702757   20.454184 N.4        1 MOL1        -0.4809
      15    H10     20.034413   19.833769   19.868048 H          1 MOL1         0.3726
      16    H11     19.013308   20.624719   20.879477 H          1 MOL1         0.3726
      17    C5      18.012147   19.264831   19.601777 C.3        1 MOL1        -0.0677
      18    H12     17.128675   19.165988   20.236217 H          1 MOL1         0.1026
      19    H13     17.828776   20.015424   18.829771 H          1 MOL1         0.1026
      20    H14     18.240881   18.304551   19.134495 H          1 MOL1         0.1026
@<TRIPOS>BOND
    1     1     2    1
    2     1     3    1
    3     1     4    1
    4     1     5    1
    5     5     6    1
    6     5     7    1
    7     5     8    1
    8     8     9    1
    9     8    10    1
   10     8    11    1
   11    11    12    1
   12    11    13    1
   13    11    14    1
   14    14    15    1
   15    14    16    1
   16    14    17    1
   17    17    18    1
   18    17    19    1
   19    17    20    1
@<TRIPOS>SUBSTRUCTURE
       1 MOL1            1 RESIDUE      1      MOL     
@<SCITEGIC>MOL_PROPERTY
VConf Rank
SciTegic.value.IntegerValue
305

@<SCITEGIC>MOL_PROPERTY
Conf_Id
SciTegic.value.IntegerValue
67

@<SCITEGIC>MOL_PROPERTY
Delta U+W
SciTegic.value.DoubleValue
0.000

@<SCITEGIC>MOL_PROPERTY
U+W
SciTegic.value.DoubleValue
15.338

@<SCITEGIC>MOL_PROPERTY
Grad RMS
SciTegic.value.DoubleValue
0.000000

@<SCITEGIC>MOL_PROPERTY
U
SciTegic.value.DoubleValue
69.277

@<SCITEGIC>MOL_PROPERTY
W
SciTegic.value.DoubleValue
-53.939

@<SCITEGIC>MOL_PROPERTY
W(PB)
SciTegic.value.DoubleValue
-55.889

@<SCITEGIC>MOL_PROPERTY
W(SA)
SciTegic.value.DoubleValue
1.950

@<SCITEGIC>MOL_PROPERTY
Valence
SciTegic.value.DoubleValue
0.846

@<SCITEGIC>MOL_PROPERTY
Coulomb
SciTegic.value.DoubleValue
68.557

@<SCITEGIC>MOL_PROPERTY
VdW
SciTegic.value.DoubleValue
-0.127

@<SCITEGIC>MOL_PROPERTY
VdW6
SciTegic.value.DoubleValue
-3.008

@<SCITEGIC>MOL_PROPERTY
VdW12
SciTegic.value.DoubleValue
2.882

@<SCITEGIC>MOL_PROPERTY
Bond
SciTegic.value.DoubleValue
0.088

@<SCITEGIC>MOL_PROPERTY
Angle
SciTegic.value.DoubleValue
0.332

@<SCITEGIC>MOL_PROPERTY
Pdih
SciTegic.value.DoubleValue
0.426

@<SCITEGIC>MOL_PROPERTY
Idih
SciTegic.value.DoubleValue
0.000

@<SCITEGIC>MOL_PROPERTY
Tether
SciTegic.value.DoubleValue
0.000

@<TRIPOS>MOLECULE
guest-s9_confgen4.mol2 : confsearch ligand conformer 306
          20          19           1
SMALL
USER_CHARGES
 
@<TRIPOS>ATOM
       1    C1      18.683158   16.819610   23.671610 C.3        1 MOL1        -0.2224
       2    H1      18.627756   17.530825   24.506040 H          1 MOL1         0.1052
       3    H2      17.779430   16.197127   23.700090 H          1 MOL1         0.1052
       4    H3      19.547997   16.164288   23.838270 H          1 MOL1         0.1052
       5    C2      18.795848   17.556282   22.319247 C.3        1 MOL1        -0.1209
       6    H4      17.901375   18.176475   22.165609 H          1 MOL1         0.1041
       7    H5      18.813782   16.820263   21.502997 H          1 MOL1         0.1041
       8    C3      20.060114   18.440916   22.250365 C.3        1 MOL1        -0.1274
       9    H6      20.037873   19.173969   23.067000 H          1 MOL1         0.1041
      10    H7      20.953393   17.820104   22.399587 H          1 MOL1         0.1041
      11    C4      20.164558   19.171288   20.895513 C.3        1 MOL1         0.0313
      12    H8      19.302160   19.828967   20.760938 H          1 MOL1         0.1015
      13    H9      20.153500   18.430718   20.091702 H          1 MOL1         0.1015
      14    N1      21.422444   20.007025   20.722229 N.4        1 MOL1        -0.4809
      15    H10     21.494292   20.323314   19.742389 H          1 MOL1         0.3726
      16    H11     22.261155   19.426271   20.874103 H          1 MOL1         0.3726
      17    C5      21.420579   21.212651   21.656026 C.3        1 MOL1        -0.0677
      18    H12     21.411627   20.868972   22.692217 H          1 MOL1         0.1026
      19    H13     22.319267   21.806464   21.475143 H          1 MOL1         0.1026
      20    H14     20.533627   21.818620   21.458986 H          1 MOL1         0.1026
@<TRIPOS>BOND
    1     1     2    1
    2     1     3    1
    3     1     4    1
    4     1     5    1
    5     5     6    1
    6     5     7    1
    7     5     8    1
    8     8     9    1
    9     8    10    1
   10     8    11    1
   11    11    12    1
   12    11    13    1
   13    11    14    1
   14    14    15    1
   15    14    16    1
   16    14    17    1
   17    17    18    1
   18    17    19    1
   19    17    20    1
@<TRIPOS>SUBSTRUCTURE
       1 MOL1            1 RESIDUE      1      MOL     
@<SCITEGIC>MOL_PROPERTY
VConf Rank
SciTegic.value.IntegerValue
306

@<SCITEGIC>MOL_PROPERTY
Conf_Id
SciTegic.value.IntegerValue
37

@<SCITEGIC>MOL_PROPERTY
Delta U+W
SciTegic.value.DoubleValue
-0.021

@<SCITEGIC>MOL_PROPERTY
U+W
SciTegic.value.DoubleValue
15.318

@<SCITEGIC>MOL_PROPERTY
Grad RMS
SciTegic.value.DoubleValue
0.000000

@<SCITEGIC>MOL_PROPERTY
U
SciTegic.value.DoubleValue
69.657

@<SCITEGIC>MOL_PROPERTY
W
SciTegic.value.DoubleValue
-54.340

@<SCITEGIC>MOL_PROPERTY
W(PB)
SciTegic.value.DoubleValue
-56.238

@<SCITEGIC>MOL_PROPERTY
W(SA)
SciTegic.value.DoubleValue
1.899

@<SCITEGIC>MOL_PROPERTY
Valence
SciTegic.value.DoubleValue
1.137

@<SCITEGIC>MOL_PROPERTY
Coulomb
SciTegic.value.DoubleValue
68.383

@<SCITEGIC>MOL_PROPERTY
VdW
SciTegic.value.DoubleValue
0.138

@<SCITEGIC>MOL_PROPERTY
VdW6
SciTegic.value.DoubleValue
-3.703

@<SCITEGIC>MOL_PROPERTY
VdW12
SciTegic.value.DoubleValue
3.841

@<SCITEGIC>MOL_PROPERTY
Bond
SciTegic.value.DoubleValue
0.125

@<SCITEGIC>MOL_PROPERTY
Angle
SciTegic.value.DoubleValue
0.468

@<SCITEGIC>MOL_PROPERTY
Pdih
SciTegic.value.DoubleValue
0.543

@<SCITEGIC>MOL_PROPERTY
Idih
SciTegic.value.DoubleValue
0.000

@<SCITEGIC>MOL_PROPERTY
Tether
SciTegic.value.DoubleValue
0.000

@<TRIPOS>MOLECULE
guest-s9_confgen4.mol2 : confsearch ligand conformer 307
          20          19           1
SMALL
USER_CHARGES
 
@<TRIPOS>ATOM
       1    C1      20.355237   21.158009   23.794992 C.3        1 MOL1        -0.2224
       2    H1      20.761221   22.177788   23.810768 H          1 MOL1         0.1052
       3    H2      19.268381   21.226819   23.933478 H          1 MOL1         0.1052
       4    H3      20.775105   20.615843   24.652276 H          1 MOL1         0.1052
       5    C2      20.703221   20.452719   22.466181 C.3        1 MOL1        -0.1209
       6    H4      21.794915   20.430648   22.339581 H          1 MOL1         0.1041
       7    H5      20.299685   21.036168   21.626495 H          1 MOL1         0.1041
       8    C3      20.144136   19.013771   22.415790 C.3        1 MOL1        -0.1274
       9    H6      20.550980   18.430372   23.252298 H          1 MOL1         0.1041
      10    H7      19.054209   19.040778   22.542613 H          1 MOL1         0.1041
      11    C4      20.498136   18.317165   21.085605 C.3        1 MOL1         0.0313
      12    H8      21.583695   18.326298   20.958499 H          1 MOL1         0.1015
      13    H9      20.055473   18.865396   20.250216 H          1 MOL1         0.1015
      14    N1      20.044327   16.869601   20.988781 N.4        1 MOL1        -0.4809
      15    H10     20.416855   16.324476   21.781142 H          1 MOL1         0.3726
      16    H11     20.458852   16.433403   20.150219 H          1 MOL1         0.3726
      17    C5      18.524033   16.767713   20.926802 C.3        1 MOL1        -0.0677
      18    H12     18.160303   17.336520   20.068394 H          1 MOL1         0.1026
      19    H13     18.240013   15.718499   20.819776 H          1 MOL1         0.1026
      20    H14     18.095613   17.170681   21.846563 H          1 MOL1         0.1026
@<TRIPOS>BOND
    1     1     2    1
    2     1     3    1
    3     1     4    1
    4     1     5    1
    5     5     6    1
    6     5     7    1
    7     5     8    1
    8     8     9    1
    9     8    10    1
   10     8    11    1
   11    11    12    1
   12    11    13    1
   13    11    14    1
   14    14    15    1
   15    14    16    1
   16    14    17    1
   17    17    18    1
   18    17    19    1
   19    17    20    1
@<TRIPOS>SUBSTRUCTURE
       1 MOL1            1 RESIDUE      1      MOL     
@<SCITEGIC>MOL_PROPERTY
VConf Rank
SciTegic.value.IntegerValue
307

@<SCITEGIC>MOL_PROPERTY
Conf_Id
SciTegic.value.IntegerValue
2

@<SCITEGIC>MOL_PROPERTY
Delta U+W
SciTegic.value.DoubleValue
0.069

@<SCITEGIC>MOL_PROPERTY
U+W
SciTegic.value.DoubleValue
15.407

@<SCITEGIC>MOL_PROPERTY
Grad RMS
SciTegic.value.DoubleValue
0.000000

@<SCITEGIC>MOL_PROPERTY
U
SciTegic.value.DoubleValue
69.657

@<SCITEGIC>MOL_PROPERTY
W
SciTegic.value.DoubleValue
-54.250

@<SCITEGIC>MOL_PROPERTY
W(PB)
SciTegic.value.DoubleValue
-56.176

@<SCITEGIC>MOL_PROPERTY
W(SA)
SciTegic.value.DoubleValue
1.926

@<SCITEGIC>MOL_PROPERTY
Valence
SciTegic.value.DoubleValue
1.137

@<SCITEGIC>MOL_PROPERTY
Coulomb
SciTegic.value.DoubleValue
68.383

@<SCITEGIC>MOL_PROPERTY
VdW
SciTegic.value.DoubleValue
0.138

@<SCITEGIC>MOL_PROPERTY
VdW6
SciTegic.value.DoubleValue
-3.703

@<SCITEGIC>MOL_PROPERTY
VdW12
SciTegic.value.DoubleValue
3.841

@<SCITEGIC>MOL_PROPERTY
Bond
SciTegic.value.DoubleValue
0.125

@<SCITEGIC>MOL_PROPERTY
Angle
SciTegic.value.DoubleValue
0.468

@<SCITEGIC>MOL_PROPERTY
Pdih
SciTegic.value.DoubleValue
0.543

@<SCITEGIC>MOL_PROPERTY
Idih
SciTegic.value.DoubleValue
0.000

@<SCITEGIC>MOL_PROPERTY
Tether
SciTegic.value.DoubleValue
0.000

@<TRIPOS>MOLECULE
guest-s9_confgen4.mol2 : confsearch ligand conformer 308
          20          19           1
SMALL
USER_CHARGES
 
@<TRIPOS>ATOM
       1    C1      18.653465   17.284238   23.782211 C.3        1 MOL1        -0.2224
       2    H1      18.066910   18.146725   23.441430 H          1 MOL1         0.1052
       3    H2      18.453633   16.444155   23.104400 H          1 MOL1         0.1052
       4    H3      18.284075   17.005913   24.777739 H          1 MOL1         0.1052
       5    C2      20.164055   17.609090   23.835838 C.3        1 MOL1        -0.1209
       6    H4      20.699693   16.752688   24.269061 H          1 MOL1         0.1041
       7    H5      20.335550   18.455982   24.515227 H          1 MOL1         0.1041
       8    C3      20.764144   17.926063   22.446018 C.3        1 MOL1        -0.1274
       9    H6      21.847935   18.069657   22.549140 H          1 MOL1         0.1041
      10    H7      20.622719   17.065225   21.779067 H          1 MOL1         0.1041
      11    C4      20.146308   19.184287   21.805397 C.3        1 MOL1         0.0313
      12    H8      20.289275   20.041381   22.468212 H          1 MOL1         0.1015
      13    H9      19.073377   19.035712   21.662185 H          1 MOL1         0.1015
      14    N1      20.749035   19.531608   20.458341 N.4        1 MOL1        -0.4809
      15    H10     20.641959   18.740411   19.805170 H          1 MOL1         0.3726
      16    H11     21.766561   19.674806   20.549103 H          1 MOL1         0.3726
      17    C5      20.082326   20.780604   19.897450 C.3        1 MOL1        -0.0677
      18    H12     20.237604   21.612404   20.587957 H          1 MOL1         0.1026
      19    H13     20.525517   21.019293   18.928113 H          1 MOL1         0.1026
      20    H14     19.012838   20.594655   19.777374 H          1 MOL1         0.1026
@<TRIPOS>BOND
    1     1     2    1
    2     1     3    1
    3     1     4    1
    4     1     5    1
    5     5     6    1
    6     5     7    1
    7     5     8    1
    8     8     9    1
    9     8    10    1
   10     8    11    1
   11    11    12    1
   12    11    13    1
   13    11    14    1
   14    14    15    1
   15    14    16    1
   16    14    17    1
   17    17    18    1
   18    17    19    1
   19    17    20    1
@<TRIPOS>SUBSTRUCTURE
       1 MOL1            1 RESIDUE      1      MOL     
@<SCITEGIC>MOL_PROPERTY
VConf Rank
SciTegic.value.IntegerValue
308

@<SCITEGIC>MOL_PROPERTY
Conf_Id
SciTegic.value.IntegerValue
34

@<SCITEGIC>MOL_PROPERTY
Delta U+W
SciTegic.value.DoubleValue
0.276

@<SCITEGIC>MOL_PROPERTY
U+W
SciTegic.value.DoubleValue
15.615

@<SCITEGIC>MOL_PROPERTY
Grad RMS
SciTegic.value.DoubleValue
0.000000

@<SCITEGIC>MOL_PROPERTY
U
SciTegic.value.DoubleValue
69.798

@<SCITEGIC>MOL_PROPERTY
W
SciTegic.value.DoubleValue
-54.184

@<SCITEGIC>MOL_PROPERTY
W(PB)
SciTegic.value.DoubleValue
-56.116

@<SCITEGIC>MOL_PROPERTY
W(SA)
SciTegic.value.DoubleValue
1.933

@<SCITEGIC>MOL_PROPERTY
Valence
SciTegic.value.DoubleValue
1.134

@<SCITEGIC>MOL_PROPERTY
Coulomb
SciTegic.value.DoubleValue
68.735

@<SCITEGIC>MOL_PROPERTY
VdW
SciTegic.value.DoubleValue
-0.070

@<SCITEGIC>MOL_PROPERTY
VdW6
SciTegic.value.DoubleValue
-3.565

@<SCITEGIC>MOL_PROPERTY
VdW12
SciTegic.value.DoubleValue
3.494

@<SCITEGIC>MOL_PROPERTY
Bond
SciTegic.value.DoubleValue
0.108

@<SCITEGIC>MOL_PROPERTY
Angle
SciTegic.value.DoubleValue
0.456

@<SCITEGIC>MOL_PROPERTY
Pdih
SciTegic.value.DoubleValue
0.569

@<SCITEGIC>MOL_PROPERTY
Idih
SciTegic.value.DoubleValue
0.000

@<SCITEGIC>MOL_PROPERTY
Tether
SciTegic.value.DoubleValue
0.000

@<TRIPOS>MOLECULE
guest-s9_confgen4.mol2 : confsearch ligand conformer 309
          20          19           1
SMALL
USER_CHARGES
 
@<TRIPOS>ATOM
       1    C1      18.665361   16.209468   21.194824 C.3        1 MOL1        -0.2224
       2    H1      17.633485   16.430012   20.891903 H          1 MOL1         0.1052
       3    H2      19.074033   15.477206   20.486442 H          1 MOL1         0.1052
       4    H3      18.636996   15.738567   22.186100 H          1 MOL1         0.1052
       5    C2      19.526369   17.491022   21.212425 C.3        1 MOL1        -0.1209
       6    H4      19.561014   17.920332   20.201081 H          1 MOL1         0.1041
       7    H5      20.558251   17.226073   21.479854 H          1 MOL1         0.1041
       8    C3      18.971114   18.540057   22.204595 C.3        1 MOL1        -0.1274
       9    H6      17.927419   18.765225   21.947913 H          1 MOL1         0.1041
      10    H7      18.959999   18.127531   23.222217 H          1 MOL1         0.1041
      11    C4      19.770975   19.858232   22.191260 C.3        1 MOL1         0.0313
      12    H8      19.279229   20.585688   22.842114 H          1 MOL1         0.1015
      13    H9      19.789139   20.266659   21.177706 H          1 MOL1         0.1015
      14    N1      21.205176   19.716649   22.665508 N.4        1 MOL1        -0.4809
      15    H10     21.709229   19.037975   22.075773 H          1 MOL1         0.3726
      16    H11     21.227166   19.322541   23.618525 H          1 MOL1         0.3726
      17    C5      21.899850   21.071311   22.631534 C.3        1 MOL1        -0.0677
      18    H12     21.893649   21.453415   21.608427 H          1 MOL1         0.1026
      19    H13     21.369210   21.764322   23.287996 H          1 MOL1         0.1026
      20    H14     22.930181   20.955010   22.974874 H          1 MOL1         0.1026
@<TRIPOS>BOND
    1     1     2    1
    2     1     3    1
    3     1     4    1
    4     1     5    1
    5     5     6    1
    6     5     7    1
    7     5     8    1
    8     8     9    1
    9     8    10    1
   10     8    11    1
   11    11    12    1
   12    11    13    1
   13    11    14    1
   14    14    15    1
   15    14    16    1
   16    14    17    1
   17    17    18    1
   18    17    19    1
   19    17    20    1
@<TRIPOS>SUBSTRUCTURE
       1 MOL1            1 RESIDUE      1      MOL     
@<SCITEGIC>MOL_PROPERTY
VConf Rank
SciTegic.value.IntegerValue
309

@<SCITEGIC>MOL_PROPERTY
Conf_Id
SciTegic.value.IntegerValue
50

@<SCITEGIC>MOL_PROPERTY
Delta U+W
SciTegic.value.DoubleValue
0.319

@<SCITEGIC>MOL_PROPERTY
U+W
SciTegic.value.DoubleValue
15.657

@<SCITEGIC>MOL_PROPERTY
Grad RMS
SciTegic.value.DoubleValue
0.000000

@<SCITEGIC>MOL_PROPERTY
U
SciTegic.value.DoubleValue
69.962

@<SCITEGIC>MOL_PROPERTY
W
SciTegic.value.DoubleValue
-54.305

@<SCITEGIC>MOL_PROPERTY
W(PB)
SciTegic.value.DoubleValue
-56.223

@<SCITEGIC>MOL_PROPERTY
W(SA)
SciTegic.value.DoubleValue
1.918

@<SCITEGIC>MOL_PROPERTY
Valence
SciTegic.value.DoubleValue
0.982

@<SCITEGIC>MOL_PROPERTY
Coulomb
SciTegic.value.DoubleValue
69.058

@<SCITEGIC>MOL_PROPERTY
VdW
SciTegic.value.DoubleValue
-0.078

@<SCITEGIC>MOL_PROPERTY
VdW6
SciTegic.value.DoubleValue
-3.548

@<SCITEGIC>MOL_PROPERTY
VdW12
SciTegic.value.DoubleValue
3.471

@<SCITEGIC>MOL_PROPERTY
Bond
SciTegic.value.DoubleValue
0.105

@<SCITEGIC>MOL_PROPERTY
Angle
SciTegic.value.DoubleValue
0.408

@<SCITEGIC>MOL_PROPERTY
Pdih
SciTegic.value.DoubleValue
0.469

@<SCITEGIC>MOL_PROPERTY
Idih
SciTegic.value.DoubleValue
0.000

@<SCITEGIC>MOL_PROPERTY
Tether
SciTegic.value.DoubleValue
0.000

@<TRIPOS>MOLECULE
guest-s9_confgen4.mol2 : confsearch ligand conformer 310
          20          19           1
SMALL
USER_CHARGES
 
@<TRIPOS>ATOM
       1    C1      18.943105   16.047708   21.613789 C.3        1 MOL1        -0.2224
       2    H1      18.718120   15.590567   20.641456 H          1 MOL1         0.1052
       3    H2      19.548662   15.334505   22.188082 H          1 MOL1         0.1052
       4    H3      17.993185   16.193957   22.144302 H          1 MOL1         0.1052
       5    C2      19.688055   17.387276   21.427695 C.3        1 MOL1        -0.1209
       6    H4      19.070467   18.059073   20.816329 H          1 MOL1         0.1041
       7    H5      20.617166   17.212377   20.866904 H          1 MOL1         0.1041
       8    C3      20.016608   18.052876   22.784978 C.3        1 MOL1        -0.1274
       9    H6      19.090553   18.256423   23.338916 H          1 MOL1         0.1041
      10    H7      20.600503   17.354694   23.399380 H          1 MOL1         0.1041
      11    C4      20.823166   19.358044   22.631538 C.3        1 MOL1         0.0313
      12    H8      21.741963   19.158712   22.074299 H          1 MOL1         0.1015
      13    H9      21.099839   19.730126   23.621299 H          1 MOL1         0.1015
      14    N1      20.074039   20.468313   21.918798 N.4        1 MOL1        -0.4809
      15    H10     19.192894   20.676755   22.412949 H          1 MOL1         0.3726
      16    H11     19.794048   20.159890   20.975965 H          1 MOL1         0.3726
      17    C5      20.946774   21.713351   21.834813 C.3        1 MOL1        -0.0677
      18    H12     20.396017   22.503656   21.319957 H          1 MOL1         0.1026
      19    H13     21.203635   22.041443   22.844349 H          1 MOL1         0.1026
      20    H14     21.857486   21.477747   21.279939 H          1 MOL1         0.1026
@<TRIPOS>BOND
    1     1     2    1
    2     1     3    1
    3     1     4    1
    4     1     5    1
    5     5     6    1
    6     5     7    1
    7     5     8    1
    8     8     9    1
    9     8    10    1
   10     8    11    1
   11    11    12    1
   12    11    13    1
   13    11    14    1
   14    14    15    1
   15    14    16    1
   16    14    17    1
   17    17    18    1
   18    17    19    1
   19    17    20    1
@<TRIPOS>SUBSTRUCTURE
       1 MOL1            1 RESIDUE      1      MOL     
@<SCITEGIC>MOL_PROPERTY
VConf Rank
SciTegic.value.IntegerValue
310

@<SCITEGIC>MOL_PROPERTY
Conf_Id
SciTegic.value.IntegerValue
35

@<SCITEGIC>MOL_PROPERTY
Delta U+W
SciTegic.value.DoubleValue
0.360

@<SCITEGIC>MOL_PROPERTY
U+W
SciTegic.value.DoubleValue
15.698

@<SCITEGIC>MOL_PROPERTY
Grad RMS
SciTegic.value.DoubleValue
0.000000

@<SCITEGIC>MOL_PROPERTY
U
SciTegic.value.DoubleValue
69.962

@<SCITEGIC>MOL_PROPERTY
W
SciTegic.value.DoubleValue
-54.264

@<SCITEGIC>MOL_PROPERTY
W(PB)
SciTegic.value.DoubleValue
-56.166

@<SCITEGIC>MOL_PROPERTY
W(SA)
SciTegic.value.DoubleValue
1.902

@<SCITEGIC>MOL_PROPERTY
Valence
SciTegic.value.DoubleValue
0.982

@<SCITEGIC>MOL_PROPERTY
Coulomb
SciTegic.value.DoubleValue
69.058

@<SCITEGIC>MOL_PROPERTY
VdW
SciTegic.value.DoubleValue
-0.078

@<SCITEGIC>MOL_PROPERTY
VdW6
SciTegic.value.DoubleValue
-3.548

@<SCITEGIC>MOL_PROPERTY
VdW12
SciTegic.value.DoubleValue
3.471

@<SCITEGIC>MOL_PROPERTY
Bond
SciTegic.value.DoubleValue
0.105

@<SCITEGIC>MOL_PROPERTY
Angle
SciTegic.value.DoubleValue
0.408

@<SCITEGIC>MOL_PROPERTY
Pdih
SciTegic.value.DoubleValue
0.469

@<SCITEGIC>MOL_PROPERTY
Idih
SciTegic.value.DoubleValue
0.000

@<SCITEGIC>MOL_PROPERTY
Tether
SciTegic.value.DoubleValue
0.000

@<TRIPOS>MOLECULE
guest-s9_confgen4.mol2 : confsearch ligand conformer 311
          20          19           1
SMALL
USER_CHARGES
 
@<TRIPOS>ATOM
       1    C1      18.558750   16.646393   22.011279 C.3        1 MOL1        -0.2224
       2    H1      18.040421   17.338598   21.335810 H          1 MOL1         0.1052
       3    H2      18.187491   15.635688   21.797700 H          1 MOL1         0.1052
       4    H3      18.275015   16.896246   23.041891 H          1 MOL1         0.1052
       5    C2      20.092121   16.711475   21.824879 C.3        1 MOL1        -0.1209
       6    H4      20.348602   16.462638   20.785424 H          1 MOL1         0.1041
       7    H5      20.562630   15.940989   22.451743 H          1 MOL1         0.1041
       8    C3      20.686867   18.090900   22.192760 C.3        1 MOL1        -0.1274
       9    H6      20.459628   18.316932   23.242514 H          1 MOL1         0.1041
      10    H7      21.780693   18.041903   22.111161 H          1 MOL1         0.1041
      11    C4      20.162735   19.223558   21.284003 C.3        1 MOL1         0.0313
      12    H8      19.082022   19.328279   21.405851 H          1 MOL1         0.1015
      13    H9      20.362238   18.962592   20.241571 H          1 MOL1         0.1015
      14    N1      20.794089   20.582454   21.539330 N.4        1 MOL1        -0.4809
      15    H10     20.515976   21.238319   20.792536 H          1 MOL1         0.3726
      16    H11     21.820889   20.519037   21.465997 H          1 MOL1         0.3726
      17    C5      20.380122   21.138975   22.897374 C.3        1 MOL1        -0.0677
      18    H12     20.735360   20.472735   23.685930 H          1 MOL1         0.1026
      19    H13     20.822243   22.129146   23.027962 H          1 MOL1         0.1026
      20    H14     19.291370   21.214020   22.938394 H          1 MOL1         0.1026
@<TRIPOS>BOND
    1     1     2    1
    2     1     3    1
    3     1     4    1
    4     1     5    1
    5     5     6    1
    6     5     7    1
    7     5     8    1
    8     8     9    1
    9     8    10    1
   10     8    11    1
   11    11    12    1
   12    11    13    1
   13    11    14    1
   14    14    15    1
   15    14    16    1
   16    14    17    1
   17    17    18    1
   18    17    19    1
   19    17    20    1
@<TRIPOS>SUBSTRUCTURE
       1 MOL1            1 RESIDUE      1      MOL     
@<SCITEGIC>MOL_PROPERTY
VConf Rank
SciTegic.value.IntegerValue
311

@<SCITEGIC>MOL_PROPERTY
Conf_Id
SciTegic.value.IntegerValue
33

@<SCITEGIC>MOL_PROPERTY
Delta U+W
SciTegic.value.DoubleValue
0.372

@<SCITEGIC>MOL_PROPERTY
U+W
SciTegic.value.DoubleValue
15.711

@<SCITEGIC>MOL_PROPERTY
Grad RMS
SciTegic.value.DoubleValue
0.000000

@<SCITEGIC>MOL_PROPERTY
U
SciTegic.value.DoubleValue
70.163

@<SCITEGIC>MOL_PROPERTY
W
SciTegic.value.DoubleValue
-54.452

@<SCITEGIC>MOL_PROPERTY
W(PB)
SciTegic.value.DoubleValue
-56.363

@<SCITEGIC>MOL_PROPERTY
W(SA)
SciTegic.value.DoubleValue
1.911

@<SCITEGIC>MOL_PROPERTY
Valence
SciTegic.value.DoubleValue
1.420

@<SCITEGIC>MOL_PROPERTY
Coulomb
SciTegic.value.DoubleValue
68.566

@<SCITEGIC>MOL_PROPERTY
VdW
SciTegic.value.DoubleValue
0.177

@<SCITEGIC>MOL_PROPERTY
VdW6
SciTegic.value.DoubleValue
-4.267

@<SCITEGIC>MOL_PROPERTY
VdW12
SciTegic.value.DoubleValue
4.445

@<SCITEGIC>MOL_PROPERTY
Bond
SciTegic.value.DoubleValue
0.146

@<SCITEGIC>MOL_PROPERTY
Angle
SciTegic.value.DoubleValue
0.581

@<SCITEGIC>MOL_PROPERTY
Pdih
SciTegic.value.DoubleValue
0.693

@<SCITEGIC>MOL_PROPERTY
Idih
SciTegic.value.DoubleValue
0.000

@<SCITEGIC>MOL_PROPERTY
Tether
SciTegic.value.DoubleValue
0.000

@<TRIPOS>MOLECULE
guest-s9_confgen4.mol2 : confsearch ligand conformer 312
          20          19           1
SMALL
USER_CHARGES
 
@<TRIPOS>ATOM
       1    C1      21.370369   17.842641   19.979198 C.3        1 MOL1        -0.2224
       2    H1      21.562836   17.353319   19.015614 H          1 MOL1         0.1052
       3    H2      21.395256   18.926588   19.810351 H          1 MOL1         0.1052
       4    H3      22.193698   17.582322   20.657031 H          1 MOL1         0.1052
       5    C2      20.009840   17.388192   20.555955 C.3        1 MOL1        -0.1209
       6    H4      19.996941   16.291201   20.622523 H          1 MOL1         0.1041
       7    H5      19.203655   17.664756   19.861876 H          1 MOL1         0.1041
       8    C3      19.719325   17.980050   21.954949 C.3        1 MOL1        -0.1274
       9    H6      18.779655   17.557126   22.333988 H          1 MOL1         0.1041
      10    H7      20.507891   17.669495   22.652394 H          1 MOL1         0.1041
      11    C4      19.608762   19.519811   21.935595 C.3        1 MOL1         0.0313
      12    H8      18.847330   19.811337   21.207721 H          1 MOL1         0.1015
      13    H9      20.560182   19.957199   21.623751 H          1 MOL1         0.1015
      14    N1      19.223982   20.142949   23.267528 N.4        1 MOL1        -0.4809
      15    H10     18.344130   19.731174   23.613966 H          1 MOL1         0.3726
      16    H11     19.011812   21.143875   23.132109 H          1 MOL1         0.3726
      17    C5      20.339148   19.984881   24.295529 C.3        1 MOL1        -0.0677
      18    H12     20.041394   20.476014   25.224557 H          1 MOL1         0.1026
      19    H13     20.512595   18.923289   24.482147 H          1 MOL1         0.1026
      20    H14     21.250779   20.447173   23.910933 H          1 MOL1         0.1026
@<TRIPOS>BOND
    1     1     2    1
    2     1     3    1
    3     1     4    1
    4     1     5    1
    5     5     6    1
    6     5     7    1
    7     5     8    1
    8     8     9    1
    9     8    10    1
   10     8    11    1
   11    11    12    1
   12    11    13    1
   13    11    14    1
   14    14    15    1
   15    14    16    1
   16    14    17    1
   17    17    18    1
   18    17    19    1
   19    17    20    1
@<TRIPOS>SUBSTRUCTURE
       1 MOL1            1 RESIDUE      1      MOL     
@<SCITEGIC>MOL_PROPERTY
VConf Rank
SciTegic.value.IntegerValue
312

@<SCITEGIC>MOL_PROPERTY
Conf_Id
SciTegic.value.IntegerValue
53

@<SCITEGIC>MOL_PROPERTY
Delta U+W
SciTegic.value.DoubleValue
0.379

@<SCITEGIC>MOL_PROPERTY
U+W
SciTegic.value.DoubleValue
15.717

@<SCITEGIC>MOL_PROPERTY
Grad RMS
SciTegic.value.DoubleValue
0.000000

@<SCITEGIC>MOL_PROPERTY
U
SciTegic.value.DoubleValue
70.163

@<SCITEGIC>MOL_PROPERTY
W
SciTegic.value.DoubleValue
-54.446

@<SCITEGIC>MOL_PROPERTY
W(PB)
SciTegic.value.DoubleValue
-56.322

@<SCITEGIC>MOL_PROPERTY
W(SA)
SciTegic.value.DoubleValue
1.876

@<SCITEGIC>MOL_PROPERTY
Valence
SciTegic.value.DoubleValue
1.420

@<SCITEGIC>MOL_PROPERTY
Coulomb
SciTegic.value.DoubleValue
68.566

@<SCITEGIC>MOL_PROPERTY
VdW
SciTegic.value.DoubleValue
0.177

@<SCITEGIC>MOL_PROPERTY
VdW6
SciTegic.value.DoubleValue
-4.267

@<SCITEGIC>MOL_PROPERTY
VdW12
SciTegic.value.DoubleValue
4.445

@<SCITEGIC>MOL_PROPERTY
Bond
SciTegic.value.DoubleValue
0.146

@<SCITEGIC>MOL_PROPERTY
Angle
SciTegic.value.DoubleValue
0.581

@<SCITEGIC>MOL_PROPERTY
Pdih
SciTegic.value.DoubleValue
0.693

@<SCITEGIC>MOL_PROPERTY
Idih
SciTegic.value.DoubleValue
0.000

@<SCITEGIC>MOL_PROPERTY
Tether
SciTegic.value.DoubleValue
0.000

@<TRIPOS>MOLECULE
guest-s9_confgen4.mol2 : confsearch ligand conformer 313
          20          19           1
SMALL
USER_CHARGES
 
@<TRIPOS>ATOM
       1    C1      20.545087   21.605546   21.867955 C.3        1 MOL1        -0.2224
       2    H1      21.494246   22.145932   21.977869 H          1 MOL1         0.1052
       3    H2      19.987444   22.070249   21.044406 H          1 MOL1         0.1052
       4    H3      19.969450   21.745781   22.792151 H          1 MOL1         0.1052
       5    C2      20.798728   20.107543   21.592972 C.3        1 MOL1        -0.1209
       6    H4      21.390598   19.686977   22.417273 H          1 MOL1         0.1041
       7    H5      21.402946   20.001518   20.680908 H          1 MOL1         0.1041
       8    C3      19.475400   19.322137   21.435925 C.3        1 MOL1        -0.1274
       9    H6      18.879863   19.402116   22.354446 H          1 MOL1         0.1041
      10    H7      18.874474   19.779578   20.638879 H          1 MOL1         0.1041
      11    C4      19.697988   17.834764   21.082606 C.3        1 MOL1         0.0313
      12    H8      20.241892   17.772519   20.136602 H          1 MOL1         0.1015
      13    H9      18.730996   17.344269   20.945369 H          1 MOL1         0.1015
      14    N1      20.479875   17.030318   22.110297 N.4        1 MOL1        -0.4809
      15    H10     21.401610   17.461464   22.273236 H          1 MOL1         0.3726
      16    H11     20.688437   16.094065   21.729304 H          1 MOL1         0.3726
      17    C5      19.705082   16.897438   23.416809 C.3        1 MOL1        -0.0677
      18    H12     18.742993   16.420774   23.217226 H          1 MOL1         0.1026
      19    H13     20.281404   16.285285   24.113985 H          1 MOL1         0.1026
      20    H14     19.545533   17.888830   23.845412 H          1 MOL1         0.1026
@<TRIPOS>BOND
    1     1     2    1
    2     1     3    1
    3     1     4    1
    4     1     5    1
    5     5     6    1
    6     5     7    1
    7     5     8    1
    8     8     9    1
    9     8    10    1
   10     8    11    1
   11    11    12    1
   12    11    13    1
   13    11    14    1
   14    14    15    1
   15    14    16    1
   16    14    17    1
   17    17    18    1
   18    17    19    1
   19    17    20    1
@<TRIPOS>SUBSTRUCTURE
       1 MOL1            1 RESIDUE      1      MOL     
@<SCITEGIC>MOL_PROPERTY
VConf Rank
SciTegic.value.IntegerValue
313

@<SCITEGIC>MOL_PROPERTY
Conf_Id
SciTegic.value.IntegerValue
49

@<SCITEGIC>MOL_PROPERTY
Delta U+W
SciTegic.value.DoubleValue
0.268

@<SCITEGIC>MOL_PROPERTY
U+W
SciTegic.value.DoubleValue
15.607

@<SCITEGIC>MOL_PROPERTY
Grad RMS
SciTegic.value.DoubleValue
0.000000

@<SCITEGIC>MOL_PROPERTY
U
SciTegic.value.DoubleValue
70.298

@<SCITEGIC>MOL_PROPERTY
W
SciTegic.value.DoubleValue
-54.692

@<SCITEGIC>MOL_PROPERTY
W(PB)
SciTegic.value.DoubleValue
-56.576

@<SCITEGIC>MOL_PROPERTY
W(SA)
SciTegic.value.DoubleValue
1.885

@<SCITEGIC>MOL_PROPERTY
Valence
SciTegic.value.DoubleValue
1.245

@<SCITEGIC>MOL_PROPERTY
Coulomb
SciTegic.value.DoubleValue
68.933

@<SCITEGIC>MOL_PROPERTY
VdW
SciTegic.value.DoubleValue
0.120

@<SCITEGIC>MOL_PROPERTY
VdW6
SciTegic.value.DoubleValue
-4.430

@<SCITEGIC>MOL_PROPERTY
VdW12
SciTegic.value.DoubleValue
4.550

@<SCITEGIC>MOL_PROPERTY
Bond
SciTegic.value.DoubleValue
0.148

@<SCITEGIC>MOL_PROPERTY
Angle
SciTegic.value.DoubleValue
0.587

@<SCITEGIC>MOL_PROPERTY
Pdih
SciTegic.value.DoubleValue
0.509

@<SCITEGIC>MOL_PROPERTY
Idih
SciTegic.value.DoubleValue
0.000

@<SCITEGIC>MOL_PROPERTY
Tether
SciTegic.value.DoubleValue
0.000

@<TRIPOS>MOLECULE
guest-s9_confgen4.mol2 : confsearch ligand conformer 314
          20          19           1
SMALL
USER_CHARGES
 
@<TRIPOS>ATOM
       1    C1      17.325913   18.614247   22.480162 C.3        1 MOL1        -0.2224
       2    H1      17.111898   19.638791   22.811338 H          1 MOL1         0.1052
       3    H2      16.769020   18.431976   21.551837 H          1 MOL1         0.1052
       4    H3      16.939749   17.926565   23.243687 H          1 MOL1         0.1052
       5    C2      18.841163   18.402522   22.271549 C.3        1 MOL1        -0.1209
       6    H4      19.026337   17.362473   21.968234 H          1 MOL1         0.1041
       7    H5      19.355196   18.555182   23.229678 H          1 MOL1         0.1041
       8    C3      19.413137   19.367822   21.207282 C.3        1 MOL1        -0.1274
       9    H6      18.813746   19.286528   20.290833 H          1 MOL1         0.1041
      10    H7      19.308675   20.404980   21.552169 H          1 MOL1         0.1041
      11    C4      20.888690   19.096587   20.835789 C.3        1 MOL1         0.0313
      12    H8      21.167116   19.787908   20.036228 H          1 MOL1         0.1015
      13    H9      21.002801   18.080723   20.449401 H          1 MOL1         0.1015
      14    N1      21.896645   19.296328   21.957124 N.4        1 MOL1        -0.4809
      15    H10     21.587285   20.049881   22.589021 H          1 MOL1         0.3726
      16    H11     22.786290   19.635028   21.558599 H          1 MOL1         0.3726
      17    C5      22.149696   17.998286   22.717189 C.3        1 MOL1        -0.0677
      18    H12     22.893857   18.179882   23.495780 H          1 MOL1         0.1026
      19    H13     21.222041   17.649707   23.172445 H          1 MOL1         0.1026
      20    H14     22.523980   17.243808   22.021947 H          1 MOL1         0.1026
@<TRIPOS>BOND
    1     1     2    1
    2     1     3    1
    3     1     4    1
    4     1     5    1
    5     5     6    1
    6     5     7    1
    7     5     8    1
    8     8     9    1
    9     8    10    1
   10     8    11    1
   11    11    12    1
   12    11    13    1
   13    11    14    1
   14    14    15    1
   15    14    16    1
   16    14    17    1
   17    17    18    1
   18    17    19    1
   19    17    20    1
@<TRIPOS>SUBSTRUCTURE
       1 MOL1            1 RESIDUE      1      MOL     
@<SCITEGIC>MOL_PROPERTY
VConf Rank
SciTegic.value.IntegerValue
314

@<SCITEGIC>MOL_PROPERTY
Conf_Id
SciTegic.value.IntegerValue
65

@<SCITEGIC>MOL_PROPERTY
Delta U+W
SciTegic.value.DoubleValue
1.775

@<SCITEGIC>MOL_PROPERTY
U+W
SciTegic.value.DoubleValue
17.114

@<SCITEGIC>MOL_PROPERTY
Grad RMS
SciTegic.value.DoubleValue
0.000000

@<SCITEGIC>MOL_PROPERTY
U
SciTegic.value.DoubleValue
71.726

@<SCITEGIC>MOL_PROPERTY
W
SciTegic.value.DoubleValue
-54.613

@<SCITEGIC>MOL_PROPERTY
W(PB)
SciTegic.value.DoubleValue
-56.495

@<SCITEGIC>MOL_PROPERTY
W(SA)
SciTegic.value.DoubleValue
1.883

@<SCITEGIC>MOL_PROPERTY
Valence
SciTegic.value.DoubleValue
2.885

@<SCITEGIC>MOL_PROPERTY
Coulomb
SciTegic.value.DoubleValue
68.822

@<SCITEGIC>MOL_PROPERTY
VdW
SciTegic.value.DoubleValue
0.019

@<SCITEGIC>MOL_PROPERTY
VdW6
SciTegic.value.DoubleValue
-4.600

@<SCITEGIC>MOL_PROPERTY
VdW12
SciTegic.value.DoubleValue
4.619

@<SCITEGIC>MOL_PROPERTY
Bond
SciTegic.value.DoubleValue
0.152

@<SCITEGIC>MOL_PROPERTY
Angle
SciTegic.value.DoubleValue
0.862

@<SCITEGIC>MOL_PROPERTY
Pdih
SciTegic.value.DoubleValue
1.871

@<SCITEGIC>MOL_PROPERTY
Idih
SciTegic.value.DoubleValue
0.000

@<SCITEGIC>MOL_PROPERTY
Tether
SciTegic.value.DoubleValue
0.000

@<TRIPOS>MOLECULE
guest-s9_confgen4.mol2 : confsearch ligand conformer 315
          20          19           1
SMALL
USER_CHARGES
 
@<TRIPOS>ATOM
       1    C1      21.850974   20.012027   21.051595 C.3        1 MOL1        -0.2224
       2    H1      21.642436   19.026976   20.615486 H          1 MOL1         0.1052
       3    H2      22.050533   20.704614   20.223659 H          1 MOL1         0.1052
       4    H3      22.767541   19.934331   21.650711 H          1 MOL1         0.1052
       5    C2      20.667941   20.518048   21.908651 C.3        1 MOL1        -0.1209
       6    H4      19.764626   20.587885   21.287559 H          1 MOL1         0.1041
       7    H5      20.883260   21.541910   22.245326 H          1 MOL1         0.1041
       8    C3      20.394845   19.632382   23.150026 C.3        1 MOL1        -0.1274
       9    H6      21.271490   19.657120   23.810818 H          1 MOL1         0.1041
      10    H7      19.564815   20.060107   23.727821 H          1 MOL1         0.1041
      11    C4      20.073436   18.161261   22.813181 C.3        1 MOL1         0.0313
      12    H8      19.925648   17.601372   23.740124 H          1 MOL1         0.1015
      13    H9      20.914529   17.714072   22.278062 H          1 MOL1         0.1015
      14    N1      18.829685   17.981125   21.963925 N.4        1 MOL1        -0.4809
      15    H10     18.927816   18.502600   21.080226 H          1 MOL1         0.3726
      16    H11     18.012230   18.393966   22.438507 H          1 MOL1         0.3726
      17    C5      18.597809   16.501700   21.688149 C.3        1 MOL1        -0.0677
      18    H12     18.465642   15.975538   22.636015 H          1 MOL1         0.1026
      19    H13     17.700920   16.387114   21.075426 H          1 MOL1         0.1026
      20    H14     19.461047   16.094969   21.156971 H          1 MOL1         0.1026
@<TRIPOS>BOND
    1     1     2    1
    2     1     3    1
    3     1     4    1
    4     1     5    1
    5     5     6    1
    6     5     7    1
    7     5     8    1
    8     8     9    1
    9     8    10    1
   10     8    11    1
   11    11    12    1
   12    11    13    1
   13    11    14    1
   14    14    15    1
   15    14    16    1
   16    14    17    1
   17    17    18    1
   18    17    19    1
   19    17    20    1
@<TRIPOS>SUBSTRUCTURE
       1 MOL1            1 RESIDUE      1      MOL     
@<SCITEGIC>MOL_PROPERTY
VConf Rank
SciTegic.value.IntegerValue
315

@<SCITEGIC>MOL_PROPERTY
Conf_Id
SciTegic.value.IntegerValue
23

@<SCITEGIC>MOL_PROPERTY
Delta U+W
SciTegic.value.DoubleValue
0.896

@<SCITEGIC>MOL_PROPERTY
U+W
SciTegic.value.DoubleValue
16.234

@<SCITEGIC>MOL_PROPERTY
Grad RMS
SciTegic.value.DoubleValue
0.000000

@<SCITEGIC>MOL_PROPERTY
U
SciTegic.value.DoubleValue
70.374

@<SCITEGIC>MOL_PROPERTY
W
SciTegic.value.DoubleValue
-54.140

@<SCITEGIC>MOL_PROPERTY
W(PB)
SciTegic.value.DoubleValue
-56.046

@<SCITEGIC>MOL_PROPERTY
W(SA)
SciTegic.value.DoubleValue
1.907

@<SCITEGIC>MOL_PROPERTY
Valence
SciTegic.value.DoubleValue
1.257

@<SCITEGIC>MOL_PROPERTY
Coulomb
SciTegic.value.DoubleValue
69.240

@<SCITEGIC>MOL_PROPERTY
VdW
SciTegic.value.DoubleValue
-0.123

@<SCITEGIC>MOL_PROPERTY
VdW6
SciTegic.value.DoubleValue
-4.336

@<SCITEGIC>MOL_PROPERTY
VdW12
SciTegic.value.DoubleValue
4.213

@<SCITEGIC>MOL_PROPERTY
Bond
SciTegic.value.DoubleValue
0.128

@<SCITEGIC>MOL_PROPERTY
Angle
SciTegic.value.DoubleValue
0.603

@<SCITEGIC>MOL_PROPERTY
Pdih
SciTegic.value.DoubleValue
0.526

@<SCITEGIC>MOL_PROPERTY
Idih
SciTegic.value.DoubleValue
0.000

@<SCITEGIC>MOL_PROPERTY
Tether
SciTegic.value.DoubleValue
0.000

@<TRIPOS>MOLECULE
guest-s9_confgen4.mol2 : confsearch ligand conformer 316
          20          19           1
SMALL
USER_CHARGES
 
@<TRIPOS>ATOM
       1    C1      20.583475   21.109773   22.011548 C.3        1 MOL1        -0.2224
       2    H1      19.734781   21.676564   21.607150 H          1 MOL1         0.1052
       3    H2      21.347259   21.831879   22.328053 H          1 MOL1         0.1052
       4    H3      21.012524   20.509551   21.199356 H          1 MOL1         0.1052
       5    C2      20.145273   20.226930   23.202655 C.3        1 MOL1        -0.1209
       6    H4      19.810940   20.876060   24.024151 H          1 MOL1         0.1041
       7    H5      21.010548   19.671609   23.589344 H          1 MOL1         0.1041
       8    C3      18.999796   19.247659   22.843617 C.3        1 MOL1        -0.1274
       9    H6      18.718398   18.672646   23.735760 H          1 MOL1         0.1041
      10    H7      18.109347   19.823191   22.557910 H          1 MOL1         0.1041
      11    C4      19.343731   18.271938   21.698782 C.3        1 MOL1         0.0313
      12    H8      19.580167   18.835805   20.793289 H          1 MOL1         0.1015
      13    H9      18.476662   17.640844   21.487949 H          1 MOL1         0.1015
      14    N1      20.515766   17.357419   21.999773 N.4        1 MOL1        -0.4809
      15    H10     20.328212   16.807925   22.852285 H          1 MOL1         0.3726
      16    H11     21.354525   17.917735   22.211952 H          1 MOL1         0.3726
      17    C5      20.774422   16.436209   20.815293 C.3        1 MOL1        -0.0677
      18    H12     21.002595   17.038996   19.933621 H          1 MOL1         0.1026
      19    H13     21.620619   15.785004   21.045190 H          1 MOL1         0.1026
      20    H14     19.884431   15.831225   20.629083 H          1 MOL1         0.1026
@<TRIPOS>BOND
    1     1     2    1
    2     1     3    1
    3     1     4    1
    4     1     5    1
    5     5     6    1
    6     5     7    1
    7     5     8    1
    8     8     9    1
    9     8    10    1
   10     8    11    1
   11    11    12    1
   12    11    13    1
   13    11    14    1
   14    14    15    1
   15    14    16    1
   16    14    17    1
   17    17    18    1
   18    17    19    1
   19    17    20    1
@<TRIPOS>SUBSTRUCTURE
       1 MOL1            1 RESIDUE      1      MOL     
@<SCITEGIC>MOL_PROPERTY
VConf Rank
SciTegic.value.IntegerValue
316

@<SCITEGIC>MOL_PROPERTY
Conf_Id
SciTegic.value.IntegerValue
24

@<SCITEGIC>MOL_PROPERTY
Delta U+W
SciTegic.value.DoubleValue
0.792

@<SCITEGIC>MOL_PROPERTY
U+W
SciTegic.value.DoubleValue
16.130

@<SCITEGIC>MOL_PROPERTY
Grad RMS
SciTegic.value.DoubleValue
0.000000

@<SCITEGIC>MOL_PROPERTY
U
SciTegic.value.DoubleValue
70.374

@<SCITEGIC>MOL_PROPERTY
W
SciTegic.value.DoubleValue
-54.243

@<SCITEGIC>MOL_PROPERTY
W(PB)
SciTegic.value.DoubleValue
-56.130

@<SCITEGIC>MOL_PROPERTY
W(SA)
SciTegic.value.DoubleValue
1.887

@<SCITEGIC>MOL_PROPERTY
Valence
SciTegic.value.DoubleValue
1.257

@<SCITEGIC>MOL_PROPERTY
Coulomb
SciTegic.value.DoubleValue
69.240

@<SCITEGIC>MOL_PROPERTY
VdW
SciTegic.value.DoubleValue
-0.123

@<SCITEGIC>MOL_PROPERTY
VdW6
SciTegic.value.DoubleValue
-4.336

@<SCITEGIC>MOL_PROPERTY
VdW12
SciTegic.value.DoubleValue
4.213

@<SCITEGIC>MOL_PROPERTY
Bond
SciTegic.value.DoubleValue
0.128

@<SCITEGIC>MOL_PROPERTY
Angle
SciTegic.value.DoubleValue
0.603

@<SCITEGIC>MOL_PROPERTY
Pdih
SciTegic.value.DoubleValue
0.526

@<SCITEGIC>MOL_PROPERTY
Idih
SciTegic.value.DoubleValue
0.000

@<SCITEGIC>MOL_PROPERTY
Tether
SciTegic.value.DoubleValue
0.000

@<TRIPOS>MOLECULE
guest-s9_confgen4.mol2 : confsearch ligand conformer 317
          20          19           1
SMALL
USER_CHARGES
 
@<TRIPOS>ATOM
       1    C1      19.929366   17.449373   20.312567 C.3        1 MOL1        -0.2224
       2    H1      20.198761   16.940169   19.378029 H          1 MOL1         0.1052
       3    H2      20.751505   17.280959   21.018097 H          1 MOL1         0.1052
       4    H3      19.021921   16.969853   20.702140 H          1 MOL1         0.1052
       5    C2      19.702269   18.956398   20.054180 C.3        1 MOL1        -0.1209
       6    H4      19.027298   19.066698   19.193765 H          1 MOL1         0.1041
       7    H5      20.651754   19.423389   19.756688 H          1 MOL1         0.1041
       8    C3      19.095250   19.729032   21.253097 C.3        1 MOL1        -0.1274
       9    H6      18.915663   20.763744   20.932260 H          1 MOL1         0.1041
      10    H7      18.110188   19.319170   21.512659 H          1 MOL1         0.1041
      11    C4      19.995787   19.773501   22.505830 C.3        1 MOL1         0.0313
      12    H8      19.688841   20.611474   23.136806 H          1 MOL1         0.1015
      13    H9      21.034666   19.936138   22.208236 H          1 MOL1         0.1015
      14    N1      19.932187   18.526095   23.366603 N.4        1 MOL1        -0.4809
      15    H10     20.162543   17.696187   22.801973 H          1 MOL1         0.3726
      16    H11     18.967518   18.373121   23.698298 H          1 MOL1         0.3726
      17    C5      20.888261   18.656355   24.544469 C.3        1 MOL1        -0.0677
      18    H12     21.905973   18.784525   24.169497 H          1 MOL1         0.1026
      19    H13     20.603680   19.523443   25.144416 H          1 MOL1         0.1026
      20    H14     20.831665   17.752147   25.154531 H          1 MOL1         0.1026
@<TRIPOS>BOND
    1     1     2    1
    2     1     3    1
    3     1     4    1
    4     1     5    1
    5     5     6    1
    6     5     7    1
    7     5     8    1
    8     8     9    1
    9     8    10    1
   10     8    11    1
   11    11    12    1
   12    11    13    1
   13    11    14    1
   14    14    15    1
   15    14    16    1
   16    14    17    1
   17    17    18    1
   18    17    19    1
   19    17    20    1
@<TRIPOS>SUBSTRUCTURE
       1 MOL1            1 RESIDUE      1      MOL     
@<SCITEGIC>MOL_PROPERTY
VConf Rank
SciTegic.value.IntegerValue
317

@<SCITEGIC>MOL_PROPERTY
Conf_Id
SciTegic.value.IntegerValue
26

@<SCITEGIC>MOL_PROPERTY
Delta U+W
SciTegic.value.DoubleValue
2.888

@<SCITEGIC>MOL_PROPERTY
U+W
SciTegic.value.DoubleValue
18.226

@<SCITEGIC>MOL_PROPERTY
Grad RMS
SciTegic.value.DoubleValue
0.000000

@<SCITEGIC>MOL_PROPERTY
U
SciTegic.value.DoubleValue
72.042

@<SCITEGIC>MOL_PROPERTY
W
SciTegic.value.DoubleValue
-53.816

@<SCITEGIC>MOL_PROPERTY
W(PB)
SciTegic.value.DoubleValue
-55.689

@<SCITEGIC>MOL_PROPERTY
W(SA)
SciTegic.value.DoubleValue
1.873

@<SCITEGIC>MOL_PROPERTY
Valence
SciTegic.value.DoubleValue
2.428

@<SCITEGIC>MOL_PROPERTY
Coulomb
SciTegic.value.DoubleValue
69.829

@<SCITEGIC>MOL_PROPERTY
VdW
SciTegic.value.DoubleValue
-0.215

@<SCITEGIC>MOL_PROPERTY
VdW6
SciTegic.value.DoubleValue
-4.563

@<SCITEGIC>MOL_PROPERTY
VdW12
SciTegic.value.DoubleValue
4.348

@<SCITEGIC>MOL_PROPERTY
Bond
SciTegic.value.DoubleValue
0.137

@<SCITEGIC>MOL_PROPERTY
Angle
SciTegic.value.DoubleValue
0.936

@<SCITEGIC>MOL_PROPERTY
Pdih
SciTegic.value.DoubleValue
1.356

@<SCITEGIC>MOL_PROPERTY
Idih
SciTegic.value.DoubleValue
0.000

@<SCITEGIC>MOL_PROPERTY
Tether
SciTegic.value.DoubleValue
0.000

@<TRIPOS>MOLECULE
guest-s9_confgen4.mol2 : confsearch ligand conformer 318
          20          19           1
SMALL
USER_CHARGES
 
@<TRIPOS>ATOM
       1    C1      20.423273   20.771907   20.987008 C.3        1 MOL1        -0.2224
       2    H1      20.889391   21.571642   20.396773 H          1 MOL1         0.1052
       3    H2      19.446015   21.137652   21.328127 H          1 MOL1         0.1052
       4    H3      21.064225   20.602544   21.860247 H          1 MOL1         0.1052
       5    C2      20.277609   19.492040   20.132500 C.3        1 MOL1        -0.1209
       6    H4      21.275039   19.100278   19.888038 H          1 MOL1         0.1041
       7    H5      19.814233   19.761987   19.173085 H          1 MOL1         0.1041
       8    C3      19.426168   18.375306   20.788844 C.3        1 MOL1        -0.1274
       9    H6      18.403227   18.731047   20.969802 H          1 MOL1         0.1041
      10    H7      19.335347   17.551868   20.068066 H          1 MOL1         0.1041
      11    C4      20.023081   17.798914   22.090286 C.3        1 MOL1         0.0313
      12    H8      21.104085   17.681922   21.980621 H          1 MOL1         0.1015
      13    H9      19.592245   16.811433   22.274147 H          1 MOL1         0.1015
      14    N1      19.753275   18.635570   23.326495 N.4        1 MOL1        -0.4809
      15    H10     18.737045   18.725389   23.478857 H          1 MOL1         0.3726
      16    H11     20.094742   19.596533   23.183073 H          1 MOL1         0.3726
      17    C5      20.422025   18.003612   24.539678 C.3        1 MOL1        -0.0677
      18    H12     21.499364   17.948899   24.369049 H          1 MOL1         0.1026
      19    H13     20.219343   18.616058   25.421041 H          1 MOL1         0.1026
      20    H14     20.020212   16.999151   24.689241 H          1 MOL1         0.1026
@<TRIPOS>BOND
    1     1     2    1
    2     1     3    1
    3     1     4    1
    4     1     5    1
    5     5     6    1
    6     5     7    1
    7     5     8    1
    8     8     9    1
    9     8    10    1
   10     8    11    1
   11    11    12    1
   12    11    13    1
   13    11    14    1
   14    14    15    1
   15    14    16    1
   16    14    17    1
   17    17    18    1
   18    17    19    1
   19    17    20    1
@<TRIPOS>SUBSTRUCTURE
       1 MOL1            1 RESIDUE      1      MOL     
@<SCITEGIC>MOL_PROPERTY
VConf Rank
SciTegic.value.IntegerValue
318

@<SCITEGIC>MOL_PROPERTY
Conf_Id
SciTegic.value.IntegerValue
5

@<SCITEGIC>MOL_PROPERTY
Delta U+W
SciTegic.value.DoubleValue
2.950

@<SCITEGIC>MOL_PROPERTY
U+W
SciTegic.value.DoubleValue
18.289

@<SCITEGIC>MOL_PROPERTY
Grad RMS
SciTegic.value.DoubleValue
0.000000

@<SCITEGIC>MOL_PROPERTY
U
SciTegic.value.DoubleValue
72.042

@<SCITEGIC>MOL_PROPERTY
W
SciTegic.value.DoubleValue
-53.753

@<SCITEGIC>MOL_PROPERTY
W(PB)
SciTegic.value.DoubleValue
-55.644

@<SCITEGIC>MOL_PROPERTY
W(SA)
SciTegic.value.DoubleValue
1.891

@<SCITEGIC>MOL_PROPERTY
Valence
SciTegic.value.DoubleValue
2.428

@<SCITEGIC>MOL_PROPERTY
Coulomb
SciTegic.value.DoubleValue
69.829

@<SCITEGIC>MOL_PROPERTY
VdW
SciTegic.value.DoubleValue
-0.215

@<SCITEGIC>MOL_PROPERTY
VdW6
SciTegic.value.DoubleValue
-4.563

@<SCITEGIC>MOL_PROPERTY
VdW12
SciTegic.value.DoubleValue
4.348

@<SCITEGIC>MOL_PROPERTY
Bond
SciTegic.value.DoubleValue
0.137

@<SCITEGIC>MOL_PROPERTY
Angle
SciTegic.value.DoubleValue
0.936

@<SCITEGIC>MOL_PROPERTY
Pdih
SciTegic.value.DoubleValue
1.356

@<SCITEGIC>MOL_PROPERTY
Idih
SciTegic.value.DoubleValue
0.000

@<SCITEGIC>MOL_PROPERTY
Tether
SciTegic.value.DoubleValue
0.000

@<TRIPOS>MOLECULE
guest-s9_confgen4.mol2 : confsearch ligand conformer 319
          20          19           1
SMALL
USER_CHARGES
 
@<TRIPOS>ATOM
       1    C1      22.083797   18.009445   20.905498 C.3        1 MOL1        -0.2224
       2    H1      21.865891   17.267042   20.126773 H          1 MOL1         0.1052
       3    H2      21.882929   19.006299   20.493538 H          1 MOL1         0.1052
       4    H3      23.157037   17.953958   21.129199 H          1 MOL1         0.1052
       5    C2      21.249795   17.739733   22.179012 C.3        1 MOL1        -0.1209
       6    H4      21.487193   18.491559   22.943972 H          1 MOL1         0.1041
       7    H5      21.549191   16.771155   22.603408 H          1 MOL1         0.1041
       8    C3      19.724158   17.716949   21.912164 C.3        1 MOL1        -0.1274
       9    H6      19.491409   16.898338   21.218451 H          1 MOL1         0.1041
      10    H7      19.194834   17.481476   22.844430 H          1 MOL1         0.1041
      11    C4      19.169214   19.033696   21.322462 C.3        1 MOL1         0.0313
      12    H8      18.091737   18.938541   21.166235 H          1 MOL1         0.1015
      13    H9      19.633104   19.210678   20.349033 H          1 MOL1         0.1015
      14    N1      19.405444   20.273552   22.171152 N.4        1 MOL1        -0.4809
      15    H10     19.129783   21.114233   21.639813 H          1 MOL1         0.3726
      16    H11     20.413277   20.390174   22.352189 H          1 MOL1         0.3726
      17    C5      18.624111   20.206430   23.478683 C.3        1 MOL1        -0.0677
      18    H12     18.966577   19.348887   24.061201 H          1 MOL1         0.1026
      19    H13     18.793510   21.125170   24.044481 H          1 MOL1         0.1026
      20    H14     17.559994   20.102119   23.256405 H          1 MOL1         0.1026
@<TRIPOS>BOND
    1     1     2    1
    2     1     3    1
    3     1     4    1
    4     1     5    1
    5     5     6    1
    6     5     7    1
    7     5     8    1
    8     8     9    1
    9     8    10    1
   10     8    11    1
   11    11    12    1
   12    11    13    1
   13    11    14    1
   14    14    15    1
   15    14    16    1
   16    14    17    1
   17    17    18    1
   18    17    19    1
   19    17    20    1
@<TRIPOS>SUBSTRUCTURE
       1 MOL1            1 RESIDUE      1      MOL     
@<SCITEGIC>MOL_PROPERTY
VConf Rank
SciTegic.value.IntegerValue
319

@<SCITEGIC>MOL_PROPERTY
Conf_Id
SciTegic.value.IntegerValue
52

@<SCITEGIC>MOL_PROPERTY
Delta U+W
SciTegic.value.DoubleValue
0.784

@<SCITEGIC>MOL_PROPERTY
U+W
SciTegic.value.DoubleValue
16.122

@<SCITEGIC>MOL_PROPERTY
Grad RMS
SciTegic.value.DoubleValue
0.000000

@<SCITEGIC>MOL_PROPERTY
U
SciTegic.value.DoubleValue
70.777

@<SCITEGIC>MOL_PROPERTY
W
SciTegic.value.DoubleValue
-54.655

@<SCITEGIC>MOL_PROPERTY
W(PB)
SciTegic.value.DoubleValue
-56.491

@<SCITEGIC>MOL_PROPERTY
W(SA)
SciTegic.value.DoubleValue
1.836

@<SCITEGIC>MOL_PROPERTY
Valence
SciTegic.value.DoubleValue
1.529

@<SCITEGIC>MOL_PROPERTY
Coulomb
SciTegic.value.DoubleValue
69.166

@<SCITEGIC>MOL_PROPERTY
VdW
SciTegic.value.DoubleValue
0.082

@<SCITEGIC>MOL_PROPERTY
VdW6
SciTegic.value.DoubleValue
-5.166

@<SCITEGIC>MOL_PROPERTY
VdW12
SciTegic.value.DoubleValue
5.248

@<SCITEGIC>MOL_PROPERTY
Bond
SciTegic.value.DoubleValue
0.171

@<SCITEGIC>MOL_PROPERTY
Angle
SciTegic.value.DoubleValue
0.752

@<SCITEGIC>MOL_PROPERTY
Pdih
SciTegic.value.DoubleValue
0.605

@<SCITEGIC>MOL_PROPERTY
Idih
SciTegic.value.DoubleValue
0.000

@<SCITEGIC>MOL_PROPERTY
Tether
SciTegic.value.DoubleValue
0.000

@<TRIPOS>MOLECULE
guest-s9_confgen4.mol2 : confsearch ligand conformer 320
          20          19           1
SMALL
USER_CHARGES
 
@<TRIPOS>ATOM
       1    C1      20.640475   18.510711   24.005750 C.3        1 MOL1        -0.2224
       2    H1      21.123520   18.318311   24.972610 H          1 MOL1         0.1052
       3    H2      20.336738   19.563750   24.003547 H          1 MOL1         0.1052
       4    H3      19.742188   17.881852   23.951668 H          1 MOL1         0.1052
       5    C2      21.616131   18.197557   22.848429 C.3        1 MOL1        -0.1209
       6    H4      22.066969   17.211677   23.029572 H          1 MOL1         0.1041
       7    H5      22.446227   18.917805   22.862604 H          1 MOL1         0.1041
       8    C3      20.961209   18.181546   21.443564 C.3        1 MOL1        -0.1274
       9    H6      21.722544   17.858102   20.721526 H          1 MOL1         0.1041
      10    H7      20.170897   17.421572   21.401728 H          1 MOL1         0.1041
      11    C4      20.421076   19.551056   20.970014 C.3        1 MOL1         0.0313
      12    H8      20.292485   19.531162   19.884891 H          1 MOL1         0.1015
      13    H9      21.156712   20.324700   21.204071 H          1 MOL1         0.1015
      14    N1      19.088912   19.978003   21.566309 N.4        1 MOL1        -0.4809
      15    H10     18.911777   20.969586   21.341491 H          1 MOL1         0.3726
      16    H11     19.132804   19.937274   22.594052 H          1 MOL1         0.3726
      17    C5      17.946109   19.116653   21.040190 C.3        1 MOL1        -0.0677
      18    H12     17.912972   19.190024   19.951080 H          1 MOL1         0.1026
      19    H13     18.107462   18.078500   21.336534 H          1 MOL1         0.1026
      20    H14     17.004512   19.475450   21.461582 H          1 MOL1         0.1026
@<TRIPOS>BOND
    1     1     2    1
    2     1     3    1
    3     1     4    1
    4     1     5    1
    5     5     6    1
    6     5     7    1
    7     5     8    1
    8     8     9    1
    9     8    10    1
   10     8    11    1
   11    11    12    1
   12    11    13    1
   13    11    14    1
   14    14    15    1
   15    14    16    1
   16    14    17    1
   17    17    18    1
   18    17    19    1
   19    17    20    1
@<TRIPOS>SUBSTRUCTURE
       1 MOL1            1 RESIDUE      1      MOL     
@<SCITEGIC>MOL_PROPERTY
VConf Rank
SciTegic.value.IntegerValue
320

@<SCITEGIC>MOL_PROPERTY
Conf_Id
SciTegic.value.IntegerValue
55

@<SCITEGIC>MOL_PROPERTY
Delta U+W
SciTegic.value.DoubleValue
2.745

@<SCITEGIC>MOL_PROPERTY
U+W
SciTegic.value.DoubleValue
18.083

@<SCITEGIC>MOL_PROPERTY
Grad RMS
SciTegic.value.DoubleValue
0.000000

@<SCITEGIC>MOL_PROPERTY
U
SciTegic.value.DoubleValue
72.490

@<SCITEGIC>MOL_PROPERTY
W
SciTegic.value.DoubleValue
-54.407

@<SCITEGIC>MOL_PROPERTY
W(PB)
SciTegic.value.DoubleValue
-56.269

@<SCITEGIC>MOL_PROPERTY
W(SA)
SciTegic.value.DoubleValue
1.861

@<SCITEGIC>MOL_PROPERTY
Valence
SciTegic.value.DoubleValue
2.738

@<SCITEGIC>MOL_PROPERTY
Coulomb
SciTegic.value.DoubleValue
69.795

@<SCITEGIC>MOL_PROPERTY
VdW
SciTegic.value.DoubleValue
-0.043

@<SCITEGIC>MOL_PROPERTY
VdW6
SciTegic.value.DoubleValue
-5.333

@<SCITEGIC>MOL_PROPERTY
VdW12
SciTegic.value.DoubleValue
5.290

@<SCITEGIC>MOL_PROPERTY
Bond
SciTegic.value.DoubleValue
0.182

@<SCITEGIC>MOL_PROPERTY
Angle
SciTegic.value.DoubleValue
1.135

@<SCITEGIC>MOL_PROPERTY
Pdih
SciTegic.value.DoubleValue
1.422

@<SCITEGIC>MOL_PROPERTY
Idih
SciTegic.value.DoubleValue
0.000

@<SCITEGIC>MOL_PROPERTY
Tether
SciTegic.value.DoubleValue
0.000

@<TRIPOS>MOLECULE
guest-s9_confgen4.mol2 : confsearch ligand conformer 321
          20          19           1
SMALL
USER_CHARGES
 
@<TRIPOS>ATOM
       1    C1      21.231336   20.356732   21.344086 C.3        1 MOL1        -0.2224
       2    H1      21.872476   21.079992   20.823506 H          1 MOL1         0.1052
       3    H2      20.706400   20.893616   22.145026 H          1 MOL1         0.1052
       4    H3      21.893175   19.607848   21.793855 H          1 MOL1         0.1052
       5    C2      20.235374   19.713524   20.352261 C.3        1 MOL1        -0.1209
       6    H4      20.784427   19.090213   19.632510 H          1 MOL1         0.1041
       7    H5      19.764242   20.513116   19.763438 H          1 MOL1         0.1041
       8    C3      19.114231   18.877161   21.020371 C.3        1 MOL1        -0.1274
       9    H6      18.521814   19.507105   21.695733 H          1 MOL1         0.1041
      10    H7      18.421477   18.553484   20.232392 H          1 MOL1         0.1041
      11    C4      19.608639   17.610055   21.756277 C.3        1 MOL1         0.0313
      12    H8      20.349975   17.102689   21.133807 H          1 MOL1         0.1015
      13    H9      18.768403   16.925719   21.898088 H          1 MOL1         0.1015
      14    N1      20.228263   17.840691   23.125723 N.4        1 MOL1        -0.4809
      15    H10     20.978867   18.542204   23.060058 H          1 MOL1         0.3726
      16    H11     20.692417   16.975916   23.444917 H          1 MOL1         0.3726
      17    C5      19.176769   18.268780   24.143475 C.3        1 MOL1        -0.0677
      18    H12     18.734796   19.217139   23.832196 H          1 MOL1         0.1026
      19    H13     18.402137   17.501375   24.204075 H          1 MOL1         0.1026
      20    H14     19.651935   18.389294   25.119490 H          1 MOL1         0.1026
@<TRIPOS>BOND
    1     1     2    1
    2     1     3    1
    3     1     4    1
    4     1     5    1
    5     5     6    1
    6     5     7    1
    7     5     8    1
    8     8     9    1
    9     8    10    1
   10     8    11    1
   11    11    12    1
   12    11    13    1
   13    11    14    1
   14    14    15    1
   15    14    16    1
   16    14    17    1
   17    17    18    1
   18    17    19    1
   19    17    20    1
@<TRIPOS>SUBSTRUCTURE
       1 MOL1            1 RESIDUE      1      MOL     
@<SCITEGIC>MOL_PROPERTY
VConf Rank
SciTegic.value.IntegerValue
321

@<SCITEGIC>MOL_PROPERTY
Conf_Id
SciTegic.value.IntegerValue
76

@<SCITEGIC>MOL_PROPERTY
Delta U+W
SciTegic.value.DoubleValue
2.799

@<SCITEGIC>MOL_PROPERTY
U+W
SciTegic.value.DoubleValue
18.137

@<SCITEGIC>MOL_PROPERTY
Grad RMS
SciTegic.value.DoubleValue
0.000000

@<SCITEGIC>MOL_PROPERTY
U
SciTegic.value.DoubleValue
72.490

@<SCITEGIC>MOL_PROPERTY
W
SciTegic.value.DoubleValue
-54.353

@<SCITEGIC>MOL_PROPERTY
W(PB)
SciTegic.value.DoubleValue
-56.201

@<SCITEGIC>MOL_PROPERTY
W(SA)
SciTegic.value.DoubleValue
1.848

@<SCITEGIC>MOL_PROPERTY
Valence
SciTegic.value.DoubleValue
2.738

@<SCITEGIC>MOL_PROPERTY
Coulomb
SciTegic.value.DoubleValue
69.795

@<SCITEGIC>MOL_PROPERTY
VdW
SciTegic.value.DoubleValue
-0.043

@<SCITEGIC>MOL_PROPERTY
VdW6
SciTegic.value.DoubleValue
-5.334

@<SCITEGIC>MOL_PROPERTY
VdW12
SciTegic.value.DoubleValue
5.290

@<SCITEGIC>MOL_PROPERTY
Bond
SciTegic.value.DoubleValue
0.182

@<SCITEGIC>MOL_PROPERTY
Angle
SciTegic.value.DoubleValue
1.135

@<SCITEGIC>MOL_PROPERTY
Pdih
SciTegic.value.DoubleValue
1.421

@<SCITEGIC>MOL_PROPERTY
Idih
SciTegic.value.DoubleValue
0.000

@<SCITEGIC>MOL_PROPERTY
Tether
SciTegic.value.DoubleValue
0.000

@<TRIPOS>MOLECULE
guest-s9_confgen4.mol2 : confsearch ligand conformer 322
          20          19           1
SMALL
USER_CHARGES
 
@<TRIPOS>ATOM
       1    C1      19.843370   20.159300   20.422199 C.3        1 MOL1        -0.2224
       2    H1      19.216139   20.331057   21.305449 H          1 MOL1         0.1052
       3    H2      20.595161   20.957900   20.377485 H          1 MOL1         0.1052
       4    H3      19.201916   20.253980   19.536525 H          1 MOL1         0.1052
       5    C2      20.514792   18.767048   20.459436 C.3        1 MOL1        -0.1209
       6    H4      21.070709   18.617040   19.523334 H          1 MOL1         0.1041
       7    H5      19.750532   17.979519   20.481035 H          1 MOL1         0.1041
       8    C3      21.491847   18.595540   21.648299 C.3        1 MOL1        -0.1274
       9    H6      21.964180   17.606104   21.590622 H          1 MOL1         0.1041
      10    H7      22.306348   19.324019   21.540825 H          1 MOL1         0.1041
      11    C4      20.865840   18.775498   23.051300 C.3        1 MOL1         0.0313
      12    H8      20.379840   19.750541   23.132913 H          1 MOL1         0.1015
      13    H9      21.676320   18.749043   23.784164 H          1 MOL1         0.1015
      14    N1      19.870329   17.703643   23.469663 N.4        1 MOL1        -0.4809
      15    H10     19.914454   17.580815   24.493267 H          1 MOL1         0.3726
      16    H11     20.144844   16.788221   23.083285 H          1 MOL1         0.3726
      17    C5      18.444907   18.070594   23.071208 C.3        1 MOL1        -0.0677
      18    H12     17.765175   17.289085   23.417812 H          1 MOL1         0.1026
      19    H13     18.176952   19.021725   23.536118 H          1 MOL1         0.1026
      20    H14     18.376316   18.159420   21.986576 H          1 MOL1         0.1026
@<TRIPOS>BOND
    1     1     2    1
    2     1     3    1
    3     1     4    1
    4     1     5    1
    5     5     6    1
    6     5     7    1
    7     5     8    1
    8     8     9    1
    9     8    10    1
   10     8    11    1
   11    11    12    1
   12    11    13    1
   13    11    14    1
   14    14    15    1
   15    14    16    1
   16    14    17    1
   17    17    18    1
   18    17    19    1
   19    17    20    1
@<TRIPOS>SUBSTRUCTURE
       1 MOL1            1 RESIDUE      1      MOL     
@<SCITEGIC>MOL_PROPERTY
VConf Rank
SciTegic.value.IntegerValue
322

@<SCITEGIC>MOL_PROPERTY
Conf_Id
SciTegic.value.IntegerValue
60

@<SCITEGIC>MOL_PROPERTY
Delta U+W
SciTegic.value.DoubleValue
1.788

@<SCITEGIC>MOL_PROPERTY
U+W
SciTegic.value.DoubleValue
17.127

@<SCITEGIC>MOL_PROPERTY
Grad RMS
SciTegic.value.DoubleValue
0.000000

@<SCITEGIC>MOL_PROPERTY
U
SciTegic.value.DoubleValue
72.122

@<SCITEGIC>MOL_PROPERTY
W
SciTegic.value.DoubleValue
-54.995

@<SCITEGIC>MOL_PROPERTY
W(PB)
SciTegic.value.DoubleValue
-56.810

@<SCITEGIC>MOL_PROPERTY
W(SA)
SciTegic.value.DoubleValue
1.815

@<SCITEGIC>MOL_PROPERTY
Valence
SciTegic.value.DoubleValue
3.197

@<SCITEGIC>MOL_PROPERTY
Coulomb
SciTegic.value.DoubleValue
69.115

@<SCITEGIC>MOL_PROPERTY
VdW
SciTegic.value.DoubleValue
-0.190

@<SCITEGIC>MOL_PROPERTY
VdW6
SciTegic.value.DoubleValue
-5.585

@<SCITEGIC>MOL_PROPERTY
VdW12
SciTegic.value.DoubleValue
5.395

@<SCITEGIC>MOL_PROPERTY
Bond
SciTegic.value.DoubleValue
0.177

@<SCITEGIC>MOL_PROPERTY
Angle
SciTegic.value.DoubleValue
1.207

@<SCITEGIC>MOL_PROPERTY
Pdih
SciTegic.value.DoubleValue
1.813

@<SCITEGIC>MOL_PROPERTY
Idih
SciTegic.value.DoubleValue
0.000

@<SCITEGIC>MOL_PROPERTY
Tether
SciTegic.value.DoubleValue
0.000

@<TRIPOS>MOLECULE
guest-s9_confgen4.mol2 : confsearch ligand conformer 323
          20          19           1
SMALL
USER_CHARGES
 
@<TRIPOS>ATOM
       1    C1      20.617029   20.874172   22.144432 C.3        1 MOL1        -0.2224
       2    H1      20.051758   21.812831   22.079364 H          1 MOL1         0.1052
       3    H2      21.635045   21.119071   22.474005 H          1 MOL1         0.1052
       4    H3      20.678299   20.453545   21.133309 H          1 MOL1         0.1052
       5    C2      19.934992   19.897357   23.129936 C.3        1 MOL1        -0.1209
       6    H4      18.911226   19.680287   22.798957 H          1 MOL1         0.1041
       7    H5      19.833857   20.392397   24.105916 H          1 MOL1         0.1041
       8    C3      20.724453   18.579409   23.322843 C.3        1 MOL1        -0.1274
       9    H6      21.703757   18.817712   23.758527 H          1 MOL1         0.1041
      10    H7      20.210431   17.953050   24.063695 H          1 MOL1         0.1041
      11    C4      20.957207   17.752468   22.036502 C.3        1 MOL1         0.0313
      12    H8      21.620801   16.921620   22.289491 H          1 MOL1         0.1015
      13    H9      21.460145   18.356189   21.277464 H          1 MOL1         0.1015
      14    N1      19.711803   17.136820   21.416109 N.4        1 MOL1        -0.4809
      15    H10     19.040240   16.867952   22.150520 H          1 MOL1         0.3726
      16    H11     19.965968   16.249498   20.954741 H          1 MOL1         0.3726
      17    C5      19.072294   18.067702   20.391545 C.3        1 MOL1        -0.0677
      18    H12     19.799766   18.291884   19.608526 H          1 MOL1         0.1026
      19    H13     18.203114   17.572474   19.953137 H          1 MOL1         0.1026
      20    H14     18.759094   18.992068   20.877831 H          1 MOL1         0.1026
@<TRIPOS>BOND
    1     1     2    1
    2     1     3    1
    3     1     4    1
    4     1     5    1
    5     5     6    1
    6     5     7    1
    7     5     8    1
    8     8     9    1
    9     8    10    1
   10     8    11    1
   11    11    12    1
   12    11    13    1
   13    11    14    1
   14    14    15    1
   15    14    16    1
   16    14    17    1
   17    17    18    1
   18    17    19    1
   19    17    20    1
@<TRIPOS>SUBSTRUCTURE
       1 MOL1            1 RESIDUE      1      MOL     
@<SCITEGIC>MOL_PROPERTY
VConf Rank
SciTegic.value.IntegerValue
323

@<SCITEGIC>MOL_PROPERTY
Conf_Id
SciTegic.value.IntegerValue
54

@<SCITEGIC>MOL_PROPERTY
Delta U+W
SciTegic.value.DoubleValue
1.880

@<SCITEGIC>MOL_PROPERTY
U+W
SciTegic.value.DoubleValue
17.218

@<SCITEGIC>MOL_PROPERTY
Grad RMS
SciTegic.value.DoubleValue
0.000000

@<SCITEGIC>MOL_PROPERTY
U
SciTegic.value.DoubleValue
72.122

@<SCITEGIC>MOL_PROPERTY
W
SciTegic.value.DoubleValue
-54.903

@<SCITEGIC>MOL_PROPERTY
W(PB)
SciTegic.value.DoubleValue
-56.724

@<SCITEGIC>MOL_PROPERTY
W(SA)
SciTegic.value.DoubleValue
1.821

@<SCITEGIC>MOL_PROPERTY
Valence
SciTegic.value.DoubleValue
3.197

@<SCITEGIC>MOL_PROPERTY
Coulomb
SciTegic.value.DoubleValue
69.115

@<SCITEGIC>MOL_PROPERTY
VdW
SciTegic.value.DoubleValue
-0.190

@<SCITEGIC>MOL_PROPERTY
VdW6
SciTegic.value.DoubleValue
-5.585

@<SCITEGIC>MOL_PROPERTY
VdW12
SciTegic.value.DoubleValue
5.395

@<SCITEGIC>MOL_PROPERTY
Bond
SciTegic.value.DoubleValue
0.177

@<SCITEGIC>MOL_PROPERTY
Angle
SciTegic.value.DoubleValue
1.207

@<SCITEGIC>MOL_PROPERTY
Pdih
SciTegic.value.DoubleValue
1.813

@<SCITEGIC>MOL_PROPERTY
Idih
SciTegic.value.DoubleValue
0.000

@<SCITEGIC>MOL_PROPERTY
Tether
SciTegic.value.DoubleValue
0.000

@<TRIPOS>MOLECULE
guest-s9_confgen4.mol2 : confsearch ligand conformer 324
          20          19           1
SMALL
USER_CHARGES
 
@<TRIPOS>ATOM
       1    C1      17.621257   18.985852   19.909064 C.3        1 MOL1        -0.2224
       2    H1      17.087353   18.088245   20.247331 H          1 MOL1         0.1052
       3    H2      16.871568   19.733638   19.619568 H          1 MOL1         0.1052
       4    H3      18.197334   18.722927   19.012302 H          1 MOL1         0.1052
       5    C2      18.541490   19.537399   21.019559 C.3        1 MOL1        -0.1209
       6    H4      17.933110   19.823663   21.889201 H          1 MOL1         0.1041
       7    H5      19.034420   20.453287   20.663861 H          1 MOL1         0.1041
       8    C3      19.607796   18.505116   21.447513 C.3        1 MOL1        -0.1274
       9    H6      19.114520   17.591805   21.805991 H          1 MOL1         0.1041
      10    H7      20.217264   18.222179   20.578915 H          1 MOL1         0.1041
      11    C4      20.521367   19.062551   22.554869 C.3        1 MOL1         0.0313
      12    H8      19.919612   19.330788   23.426895 H          1 MOL1         0.1015
      13    H9      21.025999   19.963065   22.195830 H          1 MOL1         0.1015
      14    N1      21.585542   18.082177   23.007752 N.4        1 MOL1        -0.4809
      15    H10     22.171913   17.797737   22.208115 H          1 MOL1         0.3726
      16    H11     21.147544   17.212368   23.347964 H          1 MOL1         0.3726
      17    C5      22.440838   18.711283   24.099480 C.3        1 MOL1        -0.0677
      18    H12     21.805629   18.972577   24.948622 H          1 MOL1         0.1026
      19    H13     23.202313   17.995099   24.416095 H          1 MOL1         0.1026
      20    H14     22.921445   19.610093   23.707092 H          1 MOL1         0.1026
@<TRIPOS>BOND
    1     1     2    1
    2     1     3    1
    3     1     4    1
    4     1     5    1
    5     5     6    1
    6     5     7    1
    7     5     8    1
    8     8     9    1
    9     8    10    1
   10     8    11    1
   11    11    12    1
   12    11    13    1
   13    11    14    1
   14    14    15    1
   15    14    16    1
   16    14    17    1
   17    17    18    1
   18    17    19    1
   19    17    20    1
@<TRIPOS>SUBSTRUCTURE
       1 MOL1            1 RESIDUE      1      MOL     
@<SCITEGIC>MOL_PROPERTY
VConf Rank
SciTegic.value.IntegerValue
324

@<SCITEGIC>MOL_PROPERTY
Conf_Id
SciTegic.value.IntegerValue
67

@<SCITEGIC>MOL_PROPERTY
Delta U+W
SciTegic.value.DoubleValue
0.000

@<SCITEGIC>MOL_PROPERTY
U+W
SciTegic.value.DoubleValue
15.338

@<SCITEGIC>MOL_PROPERTY
Grad RMS
SciTegic.value.DoubleValue
0.000000

@<SCITEGIC>MOL_PROPERTY
U
SciTegic.value.DoubleValue
69.277

@<SCITEGIC>MOL_PROPERTY
W
SciTegic.value.DoubleValue
-53.939

@<SCITEGIC>MOL_PROPERTY
W(PB)
SciTegic.value.DoubleValue
-55.889

@<SCITEGIC>MOL_PROPERTY
W(SA)
SciTegic.value.DoubleValue
1.950

@<SCITEGIC>MOL_PROPERTY
Valence
SciTegic.value.DoubleValue
0.846

@<SCITEGIC>MOL_PROPERTY
Coulomb
SciTegic.value.DoubleValue
68.557

@<SCITEGIC>MOL_PROPERTY
VdW
SciTegic.value.DoubleValue
-0.127

@<SCITEGIC>MOL_PROPERTY
VdW6
SciTegic.value.DoubleValue
-3.008

@<SCITEGIC>MOL_PROPERTY
VdW12
SciTegic.value.DoubleValue
2.882

@<SCITEGIC>MOL_PROPERTY
Bond
SciTegic.value.DoubleValue
0.088

@<SCITEGIC>MOL_PROPERTY
Angle
SciTegic.value.DoubleValue
0.332

@<SCITEGIC>MOL_PROPERTY
Pdih
SciTegic.value.DoubleValue
0.426

@<SCITEGIC>MOL_PROPERTY
Idih
SciTegic.value.DoubleValue
0.000

@<SCITEGIC>MOL_PROPERTY
Tether
SciTegic.value.DoubleValue
0.000

@<TRIPOS>MOLECULE
guest-s9_confgen4.mol2 : confsearch ligand conformer 325
          20          19           1
SMALL
USER_CHARGES
 
@<TRIPOS>ATOM
       1    C1      22.979154   19.356466   21.335040 C.3        1 MOL1        -0.2224
       2    H1      23.034516   20.126011   22.116005 H          1 MOL1         0.1052
       3    H2      23.950912   18.847414   21.295414 H          1 MOL1         0.1052
       4    H3      22.823228   19.858524   20.371301 H          1 MOL1         0.1052
       5    C2      21.846579   18.348266   21.626723 C.3        1 MOL1        -0.1209
       6    H4      22.048223   17.838061   22.579276 H          1 MOL1         0.1041
       7    H5      21.839190   17.572244   20.848236 H          1 MOL1         0.1041
       8    C3      20.465569   19.037285   21.688021 C.3        1 MOL1        -0.1274
       9    H6      20.477710   19.811095   22.466369 H          1 MOL1         0.1041
      10    H7      20.262942   19.543041   20.734725 H          1 MOL1         0.1041
      11    C4      19.340868   18.022020   21.978296 C.3        1 MOL1         0.0313
      12    H8      19.509374   17.548864   22.948920 H          1 MOL1         0.1015
      13    H9      19.361851   17.241357   21.213572 H          1 MOL1         0.1015
      14    N1      17.940262   18.612826   21.982132 N.4        1 MOL1        -0.4809
      15    H10     17.244609   17.851203   22.017957 H          1 MOL1         0.3726
      16    H11     17.754550   19.097987   21.091118 H          1 MOL1         0.3726
      17    C5      17.738248   19.553828   23.165019 C.3        1 MOL1        -0.0677
      18    H12     18.432959   20.392146   23.084490 H          1 MOL1         0.1026
      19    H13     16.711736   19.926821   23.154007 H          1 MOL1         0.1026
      20    H14     17.921454   19.008688   24.093440 H          1 MOL1         0.1026
@<TRIPOS>BOND
    1     1     2    1
    2     1     3    1
    3     1     4    1
    4     1     5    1
    5     5     6    1
    6     5     7    1
    7     5     8    1
    8     8     9    1
    9     8    10    1
   10     8    11    1
   11    11    12    1
   12    11    13    1
   13    11    14    1
   14    14    15    1
   15    14    16    1
   16    14    17    1
   17    17    18    1
   18    17    19    1
   19    17    20    1
@<TRIPOS>SUBSTRUCTURE
       1 MOL1            1 RESIDUE      1      MOL     
@<SCITEGIC>MOL_PROPERTY
VConf Rank
SciTegic.value.IntegerValue
325

@<SCITEGIC>MOL_PROPERTY
Conf_Id
SciTegic.value.IntegerValue
37

@<SCITEGIC>MOL_PROPERTY
Delta U+W
SciTegic.value.DoubleValue
-0.021

@<SCITEGIC>MOL_PROPERTY
U+W
SciTegic.value.DoubleValue
15.318

@<SCITEGIC>MOL_PROPERTY
Grad RMS
SciTegic.value.DoubleValue
0.000000

@<SCITEGIC>MOL_PROPERTY
U
SciTegic.value.DoubleValue
69.657

@<SCITEGIC>MOL_PROPERTY
W
SciTegic.value.DoubleValue
-54.340

@<SCITEGIC>MOL_PROPERTY
W(PB)
SciTegic.value.DoubleValue
-56.238

@<SCITEGIC>MOL_PROPERTY
W(SA)
SciTegic.value.DoubleValue
1.899

@<SCITEGIC>MOL_PROPERTY
Valence
SciTegic.value.DoubleValue
1.137

@<SCITEGIC>MOL_PROPERTY
Coulomb
SciTegic.value.DoubleValue
68.383

@<SCITEGIC>MOL_PROPERTY
VdW
SciTegic.value.DoubleValue
0.138

@<SCITEGIC>MOL_PROPERTY
VdW6
SciTegic.value.DoubleValue
-3.703

@<SCITEGIC>MOL_PROPERTY
VdW12
SciTegic.value.DoubleValue
3.841

@<SCITEGIC>MOL_PROPERTY
Bond
SciTegic.value.DoubleValue
0.125

@<SCITEGIC>MOL_PROPERTY
Angle
SciTegic.value.DoubleValue
0.468

@<SCITEGIC>MOL_PROPERTY
Pdih
SciTegic.value.DoubleValue
0.543

@<SCITEGIC>MOL_PROPERTY
Idih
SciTegic.value.DoubleValue
0.000

@<SCITEGIC>MOL_PROPERTY
Tether
SciTegic.value.DoubleValue
0.000

@<TRIPOS>MOLECULE
guest-s9_confgen4.mol2 : confsearch ligand conformer 326
          20          19           1
SMALL
USER_CHARGES
 
@<TRIPOS>ATOM
       1    C1      21.074116   19.761605   24.613601 C.3        1 MOL1        -0.2224
       2    H1      21.347281   20.681144   25.147314 H          1 MOL1         0.1052
       3    H2      20.223733   19.307993   25.139198 H          1 MOL1         0.1052
       4    H3      21.924204   19.070037   24.678812 H          1 MOL1         0.1052
       5    C2      20.719027   20.069461   23.142750 C.3        1 MOL1        -0.1209
       6    H4      21.576202   20.553864   22.653962 H          1 MOL1         0.1041
       7    H5      19.888886   20.789288   23.110467 H          1 MOL1         0.1041
       8    C3      20.330332   18.792243   22.366016 C.3        1 MOL1        -0.1274
       9    H6      21.161582   18.075442   22.395033 H          1 MOL1         0.1041
      10    H7      19.474389   18.312133   22.857555 H          1 MOL1         0.1041
      11    C4      19.978932   19.109740   20.897791 C.3        1 MOL1         0.0313
      12    H8      20.828261   19.615418   20.431307 H          1 MOL1         0.1015
      13    H9      19.120705   19.785273   20.859271 H          1 MOL1         0.1015
      14    N1      19.655282   17.892373   20.046894 N.4        1 MOL1        -0.4809
      15    H10     20.431235   17.213917   20.083875 H          1 MOL1         0.3726
      16    H11     19.595229   18.170880   19.054869 H          1 MOL1         0.3726
      17    C5      18.345648   17.243546   20.482092 C.3        1 MOL1        -0.0677
      18    H12     17.540358   17.978062   20.413533 H          1 MOL1         0.1026
      19    H13     18.129507   16.398442   19.824783 H          1 MOL1         0.1026
      20    H14     18.439482   16.891803   21.511344 H          1 MOL1         0.1026
@<TRIPOS>BOND
    1     1     2    1
    2     1     3    1
    3     1     4    1
    4     1     5    1
    5     5     6    1
    6     5     7    1
    7     5     8    1
    8     8     9    1
    9     8    10    1
   10     8    11    1
   11    11    12    1
   12    11    13    1
   13    11    14    1
   14    14    15    1
   15    14    16    1
   16    14    17    1
   17    17    18    1
   18    17    19    1
   19    17    20    1
@<TRIPOS>SUBSTRUCTURE
       1 MOL1            1 RESIDUE      1      MOL     
@<SCITEGIC>MOL_PROPERTY
VConf Rank
SciTegic.value.IntegerValue
326

@<SCITEGIC>MOL_PROPERTY
Conf_Id
SciTegic.value.IntegerValue
2

@<SCITEGIC>MOL_PROPERTY
Delta U+W
SciTegic.value.DoubleValue
0.069

@<SCITEGIC>MOL_PROPERTY
U+W
SciTegic.value.DoubleValue
15.407

@<SCITEGIC>MOL_PROPERTY
Grad RMS
SciTegic.value.DoubleValue
0.000000

@<SCITEGIC>MOL_PROPERTY
U
SciTegic.value.DoubleValue
69.657

@<SCITEGIC>MOL_PROPERTY
W
SciTegic.value.DoubleValue
-54.250

@<SCITEGIC>MOL_PROPERTY
W(PB)
SciTegic.value.DoubleValue
-56.176

@<SCITEGIC>MOL_PROPERTY
W(SA)
SciTegic.value.DoubleValue
1.926

@<SCITEGIC>MOL_PROPERTY
Valence
SciTegic.value.DoubleValue
1.137

@<SCITEGIC>MOL_PROPERTY
Coulomb
SciTegic.value.DoubleValue
68.383

@<SCITEGIC>MOL_PROPERTY
VdW
SciTegic.value.DoubleValue
0.138

@<SCITEGIC>MOL_PROPERTY
VdW6
SciTegic.value.DoubleValue
-3.703

@<SCITEGIC>MOL_PROPERTY
VdW12
SciTegic.value.DoubleValue
3.841

@<SCITEGIC>MOL_PROPERTY
Bond
SciTegic.value.DoubleValue
0.125

@<SCITEGIC>MOL_PROPERTY
Angle
SciTegic.value.DoubleValue
0.468

@<SCITEGIC>MOL_PROPERTY
Pdih
SciTegic.value.DoubleValue
0.543

@<SCITEGIC>MOL_PROPERTY
Idih
SciTegic.value.DoubleValue
0.000

@<SCITEGIC>MOL_PROPERTY
Tether
SciTegic.value.DoubleValue
0.000

@<TRIPOS>MOLECULE
guest-s9_confgen4.mol2 : confsearch ligand conformer 327
          20          19           1
SMALL
USER_CHARGES
 
@<TRIPOS>ATOM
       1    C1      19.960935   20.531892   20.039610 C.3        1 MOL1        -0.2224
       2    H1      20.224613   21.006096   20.993374 H          1 MOL1         0.1052
       3    H2      20.887559   20.198124   19.554773 H          1 MOL1         0.1052
       4    H3      19.508298   21.302014   19.401626 H          1 MOL1         0.1052
       5    C2      18.982517   19.352100   20.242291 C.3        1 MOL1        -0.1209
       6    H4      18.674247   18.969167   19.259263 H          1 MOL1         0.1041
       7    H5      18.067610   19.711681   20.734075 H          1 MOL1         0.1041
       8    C3      19.594581   18.193135   21.063483 C.3        1 MOL1        -0.1274
       9    H6      18.876089   17.363548   21.101068 H          1 MOL1         0.1041
      10    H7      20.488803   17.812183   20.552496 H          1 MOL1         0.1041
      11    C4      19.958818   18.611814   22.501288 C.3        1 MOL1         0.0313
      12    H8      19.068250   18.988666   23.010447 H          1 MOL1         0.1015
      13    H9      20.703589   19.410802   22.474793 H          1 MOL1         0.1015
      14    N1      20.526048   17.478132   23.332845 N.4        1 MOL1        -0.4809
      15    H10     21.365927   17.088163   22.878293 H          1 MOL1         0.3726
      16    H11     19.853032   16.697688   23.378234 H          1 MOL1         0.3726
      17    C5      20.859768   17.977047   24.732418 C.3        1 MOL1        -0.0677
      18    H12     19.950715   18.353180   25.206706 H          1 MOL1         0.1026
      19    H13     21.266881   17.151260   25.320075 H          1 MOL1         0.1026
      20    H14     21.598701   18.778207   24.662276 H          1 MOL1         0.1026
@<TRIPOS>BOND
    1     1     2    1
    2     1     3    1
    3     1     4    1
    4     1     5    1
    5     5     6    1
    6     5     7    1
    7     5     8    1
    8     8     9    1
    9     8    10    1
   10     8    11    1
   11    11    12    1
   12    11    13    1
   13    11    14    1
   14    14    15    1
   15    14    16    1
   16    14    17    1
   17    17    18    1
   18    17    19    1
   19    17    20    1
@<TRIPOS>SUBSTRUCTURE
       1 MOL1            1 RESIDUE      1      MOL     
@<SCITEGIC>MOL_PROPERTY
VConf Rank
SciTegic.value.IntegerValue
327

@<SCITEGIC>MOL_PROPERTY
Conf_Id
SciTegic.value.IntegerValue
34

@<SCITEGIC>MOL_PROPERTY
Delta U+W
SciTegic.value.DoubleValue
0.276

@<SCITEGIC>MOL_PROPERTY
U+W
SciTegic.value.DoubleValue
15.615

@<SCITEGIC>MOL_PROPERTY
Grad RMS
SciTegic.value.DoubleValue
0.000000

@<SCITEGIC>MOL_PROPERTY
U
SciTegic.value.DoubleValue
69.798

@<SCITEGIC>MOL_PROPERTY
W
SciTegic.value.DoubleValue
-54.184

@<SCITEGIC>MOL_PROPERTY
W(PB)
SciTegic.value.DoubleValue
-56.116

@<SCITEGIC>MOL_PROPERTY
W(SA)
SciTegic.value.DoubleValue
1.933

@<SCITEGIC>MOL_PROPERTY
Valence
SciTegic.value.DoubleValue
1.134

@<SCITEGIC>MOL_PROPERTY
Coulomb
SciTegic.value.DoubleValue
68.735

@<SCITEGIC>MOL_PROPERTY
VdW
SciTegic.value.DoubleValue
-0.070

@<SCITEGIC>MOL_PROPERTY
VdW6
SciTegic.value.DoubleValue
-3.565

@<SCITEGIC>MOL_PROPERTY
VdW12
SciTegic.value.DoubleValue
3.494

@<SCITEGIC>MOL_PROPERTY
Bond
SciTegic.value.DoubleValue
0.108

@<SCITEGIC>MOL_PROPERTY
Angle
SciTegic.value.DoubleValue
0.456

@<SCITEGIC>MOL_PROPERTY
Pdih
SciTegic.value.DoubleValue
0.569

@<SCITEGIC>MOL_PROPERTY
Idih
SciTegic.value.DoubleValue
0.000

@<SCITEGIC>MOL_PROPERTY
Tether
SciTegic.value.DoubleValue
0.000

@<TRIPOS>MOLECULE
guest-s9_confgen4.mol2 : confsearch ligand conformer 328
          20          19           1
SMALL
USER_CHARGES
 
@<TRIPOS>ATOM
       1    C1      19.112680   17.725824   19.316705 C.3        1 MOL1        -0.2224
       2    H1      19.259085   18.502330   18.554621 H          1 MOL1         0.1052
       3    H2      19.422593   16.766464   18.882415 H          1 MOL1         0.1052
       4    H3      18.039361   17.663237   19.538630 H          1 MOL1         0.1052
       5    C2      19.926892   18.036238   20.591353 C.3        1 MOL1        -0.1209
       6    H4      20.997349   18.060776   20.342670 H          1 MOL1         0.1041
       7    H5      19.787788   17.220168   21.313277 H          1 MOL1         0.1041
       8    C3      19.508269   19.384576   21.223750 C.3        1 MOL1        -0.1274
       9    H6      19.615803   20.183706   20.478290 H          1 MOL1         0.1041
      10    H7      18.446007   19.357305   21.500719 H          1 MOL1         0.1041
      11    C4      20.353909   19.754131   22.459008 C.3        1 MOL1         0.0313
      12    H8      20.072137   20.752175   22.804160 H          1 MOL1         0.1015
      13    H9      21.412190   19.774793   22.186887 H          1 MOL1         0.1015
      14    N1      20.189114   18.802407   23.629029 N.4        1 MOL1        -0.4809
      15    H10     20.446950   17.844959   23.347485 H          1 MOL1         0.3726
      16    H11     19.197227   18.749550   23.907264 H          1 MOL1         0.3726
      17    C5      21.048175   19.263360   24.798805 C.3        1 MOL1        -0.0677
      18    H12     22.096011   19.279898   24.491305 H          1 MOL1         0.1026
      19    H13     20.736094   20.265224   25.101560 H          1 MOL1         0.1026
      20    H14     20.920214   18.570176   25.633138 H          1 MOL1         0.1026
@<TRIPOS>BOND
    1     1     2    1
    2     1     3    1
    3     1     4    1
    4     1     5    1
    5     5     6    1
    6     5     7    1
    7     5     8    1
    8     8     9    1
    9     8    10    1
   10     8    11    1
   11    11    12    1
   12    11    13    1
   13    11    14    1
   14    14    15    1
   15    14    16    1
   16    14    17    1
   17    17    18    1
   18    17    19    1
   19    17    20    1
@<TRIPOS>SUBSTRUCTURE
       1 MOL1            1 RESIDUE      1      MOL     
@<SCITEGIC>MOL_PROPERTY
VConf Rank
SciTegic.value.IntegerValue
328

@<SCITEGIC>MOL_PROPERTY
Conf_Id
SciTegic.value.IntegerValue
50

@<SCITEGIC>MOL_PROPERTY
Delta U+W
SciTegic.value.DoubleValue
0.319

@<SCITEGIC>MOL_PROPERTY
U+W
SciTegic.value.DoubleValue
15.657

@<SCITEGIC>MOL_PROPERTY
Grad RMS
SciTegic.value.DoubleValue
0.000000

@<SCITEGIC>MOL_PROPERTY
U
SciTegic.value.DoubleValue
69.962

@<SCITEGIC>MOL_PROPERTY
W
SciTegic.value.DoubleValue
-54.305

@<SCITEGIC>MOL_PROPERTY
W(PB)
SciTegic.value.DoubleValue
-56.223

@<SCITEGIC>MOL_PROPERTY
W(SA)
SciTegic.value.DoubleValue
1.918

@<SCITEGIC>MOL_PROPERTY
Valence
SciTegic.value.DoubleValue
0.982

@<SCITEGIC>MOL_PROPERTY
Coulomb
SciTegic.value.DoubleValue
69.058

@<SCITEGIC>MOL_PROPERTY
VdW
SciTegic.value.DoubleValue
-0.078

@<SCITEGIC>MOL_PROPERTY
VdW6
SciTegic.value.DoubleValue
-3.548

@<SCITEGIC>MOL_PROPERTY
VdW12
SciTegic.value.DoubleValue
3.471

@<SCITEGIC>MOL_PROPERTY
Bond
SciTegic.value.DoubleValue
0.105

@<SCITEGIC>MOL_PROPERTY
Angle
SciTegic.value.DoubleValue
0.408

@<SCITEGIC>MOL_PROPERTY
Pdih
SciTegic.value.DoubleValue
0.469

@<SCITEGIC>MOL_PROPERTY
Idih
SciTegic.value.DoubleValue
0.000

@<SCITEGIC>MOL_PROPERTY
Tether
SciTegic.value.DoubleValue
0.000

@<TRIPOS>MOLECULE
guest-s9_confgen4.mol2 : confsearch ligand conformer 329
          20          19           1
SMALL
USER_CHARGES
 
@<TRIPOS>ATOM
       1    C1      21.964975   21.194138   21.720996 C.3        1 MOL1        -0.2224
       2    H1      22.655123   21.545234   22.499105 H          1 MOL1         0.1052
       3    H2      22.537164   21.080554   20.791013 H          1 MOL1         0.1052
       4    H3      21.209846   21.975377   21.564060 H          1 MOL1         0.1052
       5    C2      21.307215   19.860401   22.136353 C.3        1 MOL1        -0.1209
       6    H4      20.778807   20.002511   23.088763 H          1 MOL1         0.1041
       7    H5      22.089307   19.109260   22.316477 H          1 MOL1         0.1041
       8    C3      20.328337   19.343912   21.055508 C.3        1 MOL1        -0.1274
       9    H6      19.527913   20.077358   20.890477 H          1 MOL1         0.1041
      10    H7      20.861818   19.244344   20.100852 H          1 MOL1         0.1041
      11    C4      19.709907   17.977273   21.412418 C.3        1 MOL1         0.0313
      12    H8      20.505331   17.247663   21.583901 H          1 MOL1         0.1015
      13    H9      19.101531   17.626356   20.574948 H          1 MOL1         0.1015
      14    N1      18.822883   18.001826   22.643058 N.4        1 MOL1        -0.4809
      15    H10     18.064009   18.689694   22.520589 H          1 MOL1         0.3726
      16    H11     19.358995   18.326837   23.461230 H          1 MOL1         0.3726
      17    C5      18.249978   16.614239   22.898442 C.3        1 MOL1        -0.0677
      18    H12     17.614357   16.646175   23.786111 H          1 MOL1         0.1026
      19    H13     17.659220   16.304171   22.033776 H          1 MOL1         0.1026
      20    H14     19.069566   15.910169   23.057660 H          1 MOL1         0.1026
@<TRIPOS>BOND
    1     1     2    1
    2     1     3    1
    3     1     4    1
    4     1     5    1
    5     5     6    1
    6     5     7    1
    7     5     8    1
    8     8     9    1
    9     8    10    1
   10     8    11    1
   11    11    12    1
   12    11    13    1
   13    11    14    1
   14    14    15    1
   15    14    16    1
   16    14    17    1
   17    17    18    1
   18    17    19    1
   19    17    20    1
@<TRIPOS>SUBSTRUCTURE
       1 MOL1            1 RESIDUE      1      MOL     
@<SCITEGIC>MOL_PROPERTY
VConf Rank
SciTegic.value.IntegerValue
329

@<SCITEGIC>MOL_PROPERTY
Conf_Id
SciTegic.value.IntegerValue
35

@<SCITEGIC>MOL_PROPERTY
Delta U+W
SciTegic.value.DoubleValue
0.360

@<SCITEGIC>MOL_PROPERTY
U+W
SciTegic.value.DoubleValue
15.698

@<SCITEGIC>MOL_PROPERTY
Grad RMS
SciTegic.value.DoubleValue
0.000000

@<SCITEGIC>MOL_PROPERTY
U
SciTegic.value.DoubleValue
69.962

@<SCITEGIC>MOL_PROPERTY
W
SciTegic.value.DoubleValue
-54.264

@<SCITEGIC>MOL_PROPERTY
W(PB)
SciTegic.value.DoubleValue
-56.166

@<SCITEGIC>MOL_PROPERTY
W(SA)
SciTegic.value.DoubleValue
1.902

@<SCITEGIC>MOL_PROPERTY
Valence
SciTegic.value.DoubleValue
0.982

@<SCITEGIC>MOL_PROPERTY
Coulomb
SciTegic.value.DoubleValue
69.058

@<SCITEGIC>MOL_PROPERTY
VdW
SciTegic.value.DoubleValue
-0.078

@<SCITEGIC>MOL_PROPERTY
VdW6
SciTegic.value.DoubleValue
-3.548

@<SCITEGIC>MOL_PROPERTY
VdW12
SciTegic.value.DoubleValue
3.471

@<SCITEGIC>MOL_PROPERTY
Bond
SciTegic.value.DoubleValue
0.105

@<SCITEGIC>MOL_PROPERTY
Angle
SciTegic.value.DoubleValue
0.408

@<SCITEGIC>MOL_PROPERTY
Pdih
SciTegic.value.DoubleValue
0.469

@<SCITEGIC>MOL_PROPERTY
Idih
SciTegic.value.DoubleValue
0.000

@<SCITEGIC>MOL_PROPERTY
Tether
SciTegic.value.DoubleValue
0.000

@<TRIPOS>MOLECULE
guest-s9_confgen4.mol2 : confsearch ligand conformer 330
          20          19           1
SMALL
USER_CHARGES
 
@<TRIPOS>ATOM
       1    C1      22.368315   17.646998   21.826473 C.3        1 MOL1        -0.2224
       2    H1      21.960243   17.572963   20.810567 H          1 MOL1         0.1052
       3    H2      23.456973   17.525649   21.755254 H          1 MOL1         0.1052
       4    H3      21.975917   16.807843   22.415486 H          1 MOL1         0.1052
       5    C2      22.015484   19.001228   22.483575 C.3        1 MOL1        -0.1209
       6    H4      22.414616   19.823183   21.872634 H          1 MOL1         0.1041
       7    H5      22.518662   19.068769   23.458376 H          1 MOL1         0.1041
       8    C3      20.494804   19.194690   22.688461 C.3        1 MOL1        -0.1274
       9    H6      20.108995   18.391978   23.329955 H          1 MOL1         0.1041
      10    H7      20.323437   20.136682   23.225864 H          1 MOL1         0.1041
      11    C4      19.716423   19.224708   21.355537 C.3        1 MOL1         0.0313
      12    H8      19.823410   18.267016   20.840622 H          1 MOL1         0.1015
      13    H9      20.139996   20.002606   20.715202 H          1 MOL1         0.1015
      14    N1      18.230942   19.514009   21.497129 N.4        1 MOL1        -0.4809
      15    H10     17.820782   19.679069   20.564536 H          1 MOL1         0.3726
      16    H11     18.086016   20.397407   22.009304 H          1 MOL1         0.3726
      17    C5      17.505644   18.362391   22.184941 C.3        1 MOL1        -0.0677
      18    H12     17.900410   18.236799   23.195028 H          1 MOL1         0.1026
      19    H13     16.438658   18.590500   22.234640 H          1 MOL1         0.1026
      20    H14     17.659534   17.446389   21.610524 H          1 MOL1         0.1026
@<TRIPOS>BOND
    1     1     2    1
    2     1     3    1
    3     1     4    1
    4     1     5    1
    5     5     6    1
    6     5     7    1
    7     5     8    1
    8     8     9    1
    9     8    10    1
   10     8    11    1
   11    11    12    1
   12    11    13    1
   13    11    14    1
   14    14    15    1
   15    14    16    1
   16    14    17    1
   17    17    18    1
   18    17    19    1
   19    17    20    1
@<TRIPOS>SUBSTRUCTURE
       1 MOL1            1 RESIDUE      1      MOL     
@<SCITEGIC>MOL_PROPERTY
VConf Rank
SciTegic.value.IntegerValue
330

@<SCITEGIC>MOL_PROPERTY
Conf_Id
SciTegic.value.IntegerValue
33

@<SCITEGIC>MOL_PROPERTY
Delta U+W
SciTegic.value.DoubleValue
0.372

@<SCITEGIC>MOL_PROPERTY
U+W
SciTegic.value.DoubleValue
15.711

@<SCITEGIC>MOL_PROPERTY
Grad RMS
SciTegic.value.DoubleValue
0.000000

@<SCITEGIC>MOL_PROPERTY
U
SciTegic.value.DoubleValue
70.163

@<SCITEGIC>MOL_PROPERTY
W
SciTegic.value.DoubleValue
-54.452

@<SCITEGIC>MOL_PROPERTY
W(PB)
SciTegic.value.DoubleValue
-56.363

@<SCITEGIC>MOL_PROPERTY
W(SA)
SciTegic.value.DoubleValue
1.911

@<SCITEGIC>MOL_PROPERTY
Valence
SciTegic.value.DoubleValue
1.420

@<SCITEGIC>MOL_PROPERTY
Coulomb
SciTegic.value.DoubleValue
68.566

@<SCITEGIC>MOL_PROPERTY
VdW
SciTegic.value.DoubleValue
0.177

@<SCITEGIC>MOL_PROPERTY
VdW6
SciTegic.value.DoubleValue
-4.267

@<SCITEGIC>MOL_PROPERTY
VdW12
SciTegic.value.DoubleValue
4.445

@<SCITEGIC>MOL_PROPERTY
Bond
SciTegic.value.DoubleValue
0.146

@<SCITEGIC>MOL_PROPERTY
Angle
SciTegic.value.DoubleValue
0.581

@<SCITEGIC>MOL_PROPERTY
Pdih
SciTegic.value.DoubleValue
0.693

@<SCITEGIC>MOL_PROPERTY
Idih
SciTegic.value.DoubleValue
0.000

@<SCITEGIC>MOL_PROPERTY
Tether
SciTegic.value.DoubleValue
0.000

@<TRIPOS>MOLECULE
guest-s9_confgen4.mol2 : confsearch ligand conformer 331
          20          19           1
SMALL
USER_CHARGES
 
@<TRIPOS>ATOM
       1    C1      22.139333   18.459707   23.565206 C.3        1 MOL1        -0.2224
       2    H1      23.160405   18.253951   23.911690 H          1 MOL1         0.1052
       3    H2      22.011086   19.549256   23.542747 H          1 MOL1         0.1052
       4    H3      21.444386   18.048014   24.308612 H          1 MOL1         0.1052
       5    C2      21.901978   17.830503   22.173094 C.3        1 MOL1        -0.1209
       6    H4      22.129548   16.756327   22.221503 H          1 MOL1         0.1041
       7    H5      22.605709   18.262673   21.447725 H          1 MOL1         0.1041
       8    C3      20.452356   18.014811   21.666629 C.3        1 MOL1        -0.1274
       9    H6      20.335599   17.480491   20.714587 H          1 MOL1         0.1041
      10    H7      19.756878   17.548549   22.376290 H          1 MOL1         0.1041
      11    C4      20.080514   19.499137   21.461759 C.3        1 MOL1         0.0313
      12    H8      20.806192   19.956018   20.784102 H          1 MOL1         0.1015
      13    H9      20.127679   20.029552   22.415798 H          1 MOL1         0.1015
      14    N1      18.700008   19.729154   20.868719 N.4        1 MOL1        -0.4809
      15    H10     18.602925   19.215952   19.979384 H          1 MOL1         0.3726
      16    H11     18.595405   20.723482   20.612636 H          1 MOL1         0.3726
      17    C5      17.602578   19.329096   21.849009 C.3        1 MOL1        -0.0677
      18    H12     16.628942   19.543129   21.402706 H          1 MOL1         0.1026
      19    H13     17.679824   18.261528   22.063998 H          1 MOL1         0.1026
      20    H14     17.718236   19.902064   22.771521 H          1 MOL1         0.1026
@<TRIPOS>BOND
    1     1     2    1
    2     1     3    1
    3     1     4    1
    4     1     5    1
    5     5     6    1
    6     5     7    1
    7     5     8    1
    8     8     9    1
    9     8    10    1
   10     8    11    1
   11    11    12    1
   12    11    13    1
   13    11    14    1
   14    14    15    1
   15    14    16    1
   16    14    17    1
   17    17    18    1
   18    17    19    1
   19    17    20    1
@<TRIPOS>SUBSTRUCTURE
       1 MOL1            1 RESIDUE      1      MOL     
@<SCITEGIC>MOL_PROPERTY
VConf Rank
SciTegic.value.IntegerValue
331

@<SCITEGIC>MOL_PROPERTY
Conf_Id
SciTegic.value.IntegerValue
53

@<SCITEGIC>MOL_PROPERTY
Delta U+W
SciTegic.value.DoubleValue
0.379

@<SCITEGIC>MOL_PROPERTY
U+W
SciTegic.value.DoubleValue
15.717

@<SCITEGIC>MOL_PROPERTY
Grad RMS
SciTegic.value.DoubleValue
0.000000

@<SCITEGIC>MOL_PROPERTY
U
SciTegic.value.DoubleValue
70.163

@<SCITEGIC>MOL_PROPERTY
W
SciTegic.value.DoubleValue
-54.446

@<SCITEGIC>MOL_PROPERTY
W(PB)
SciTegic.value.DoubleValue
-56.322

@<SCITEGIC>MOL_PROPERTY
W(SA)
SciTegic.value.DoubleValue
1.876

@<SCITEGIC>MOL_PROPERTY
Valence
SciTegic.value.DoubleValue
1.420

@<SCITEGIC>MOL_PROPERTY
Coulomb
SciTegic.value.DoubleValue
68.566

@<SCITEGIC>MOL_PROPERTY
VdW
SciTegic.value.DoubleValue
0.177

@<SCITEGIC>MOL_PROPERTY
VdW6
SciTegic.value.DoubleValue
-4.267

@<SCITEGIC>MOL_PROPERTY
VdW12
SciTegic.value.DoubleValue
4.445

@<SCITEGIC>MOL_PROPERTY
Bond
SciTegic.value.DoubleValue
0.146

@<SCITEGIC>MOL_PROPERTY
Angle
SciTegic.value.DoubleValue
0.581

@<SCITEGIC>MOL_PROPERTY
Pdih
SciTegic.value.DoubleValue
0.693

@<SCITEGIC>MOL_PROPERTY
Idih
SciTegic.value.DoubleValue
0.000

@<SCITEGIC>MOL_PROPERTY
Tether
SciTegic.value.DoubleValue
0.000

@<TRIPOS>MOLECULE
guest-s9_confgen4.mol2 : confsearch ligand conformer 332
          20          19           1
SMALL
USER_CHARGES
 
@<TRIPOS>ATOM
       1    C1      17.603741   19.612633   22.939643 C.3        1 MOL1        -0.2224
       2    H1      16.618579   19.353656   22.530511 H          1 MOL1         0.1052
       3    H2      17.543506   19.537786   24.033222 H          1 MOL1         0.1052
       4    H3      17.811182   20.658872   22.679808 H          1 MOL1         0.1052
       5    C2      18.692426   18.673681   22.376531 C.3        1 MOL1        -0.1209
       6    H4      18.696887   18.746724   21.280492 H          1 MOL1         0.1041
       7    H5      18.440526   17.633043   22.625127 H          1 MOL1         0.1041
       8    C3      20.092274   19.019314   22.936609 C.3        1 MOL1        -0.1274
       9    H6      20.360613   20.049114   22.667821 H          1 MOL1         0.1041
      10    H7      20.062507   18.985551   24.033706 H          1 MOL1         0.1041
      11    C4      21.190315   18.047085   22.451081 C.3        1 MOL1         0.0313
      12    H8      20.936934   17.034882   22.776460 H          1 MOL1         0.1015
      13    H9      22.144756   18.316915   22.910133 H          1 MOL1         0.1015
      14    N1      21.401136   18.001062   20.945071 N.4        1 MOL1        -0.4809
      15    H10     20.521115   17.752161   20.470053 H          1 MOL1         0.3726
      16    H11     22.054201   17.236763   20.711449 H          1 MOL1         0.3726
      17    C5      21.944446   19.325614   20.420370 C.3        1 MOL1        -0.0677
      18    H12     22.885058   19.553870   20.926143 H          1 MOL1         0.1026
      19    H13     22.115951   19.241251   19.345009 H          1 MOL1         0.1026
      20    H14     21.217895   20.117127   20.614391 H          1 MOL1         0.1026
@<TRIPOS>BOND
    1     1     2    1
    2     1     3    1
    3     1     4    1
    4     1     5    1
    5     5     6    1
    6     5     7    1
    7     5     8    1
    8     8     9    1
    9     8    10    1
   10     8    11    1
   11    11    12    1
   12    11    13    1
   13    11    14    1
   14    14    15    1
   15    14    16    1
   16    14    17    1
   17    17    18    1
   18    17    19    1
   19    17    20    1
@<TRIPOS>SUBSTRUCTURE
       1 MOL1            1 RESIDUE      1      MOL     
@<SCITEGIC>MOL_PROPERTY
VConf Rank
SciTegic.value.IntegerValue
332

@<SCITEGIC>MOL_PROPERTY
Conf_Id
SciTegic.value.IntegerValue
49

@<SCITEGIC>MOL_PROPERTY
Delta U+W
SciTegic.value.DoubleValue
0.268

@<SCITEGIC>MOL_PROPERTY
U+W
SciTegic.value.DoubleValue
15.607

@<SCITEGIC>MOL_PROPERTY
Grad RMS
SciTegic.value.DoubleValue
0.000000

@<SCITEGIC>MOL_PROPERTY
U
SciTegic.value.DoubleValue
70.298

@<SCITEGIC>MOL_PROPERTY
W
SciTegic.value.DoubleValue
-54.692

@<SCITEGIC>MOL_PROPERTY
W(PB)
SciTegic.value.DoubleValue
-56.576

@<SCITEGIC>MOL_PROPERTY
W(SA)
SciTegic.value.DoubleValue
1.885

@<SCITEGIC>MOL_PROPERTY
Valence
SciTegic.value.DoubleValue
1.245

@<SCITEGIC>MOL_PROPERTY
Coulomb
SciTegic.value.DoubleValue
68.933

@<SCITEGIC>MOL_PROPERTY
VdW
SciTegic.value.DoubleValue
0.120

@<SCITEGIC>MOL_PROPERTY
VdW6
SciTegic.value.DoubleValue
-4.430

@<SCITEGIC>MOL_PROPERTY
VdW12
SciTegic.value.DoubleValue
4.550

@<SCITEGIC>MOL_PROPERTY
Bond
SciTegic.value.DoubleValue
0.148

@<SCITEGIC>MOL_PROPERTY
Angle
SciTegic.value.DoubleValue
0.587

@<SCITEGIC>MOL_PROPERTY
Pdih
SciTegic.value.DoubleValue
0.509

@<SCITEGIC>MOL_PROPERTY
Idih
SciTegic.value.DoubleValue
0.000

@<SCITEGIC>MOL_PROPERTY
Tether
SciTegic.value.DoubleValue
0.000

@<TRIPOS>MOLECULE
guest-s9_confgen4.mol2 : confsearch ligand conformer 333
          20          19           1
SMALL
USER_CHARGES
 
@<TRIPOS>ATOM
       1    C1      21.449033   20.642603   20.499091 C.3        1 MOL1        -0.2224
       2    H1      21.328522   21.539189   21.121008 H          1 MOL1         0.1052
       3    H2      22.517298   20.392139   20.464200 H          1 MOL1         0.1052
       4    H3      21.130123   20.895311   19.479564 H          1 MOL1         0.1052
       5    C2      20.618604   19.465144   21.054345 C.3        1 MOL1        -0.1209
       6    H4      20.737026   18.592475   20.396762 H          1 MOL1         0.1041
       7    H5      19.556076   19.741222   21.035263 H          1 MOL1         0.1041
       8    C3      21.041036   19.095739   22.495426 C.3        1 MOL1        -0.1274
       9    H6      22.127127   18.935956   22.520554 H          1 MOL1         0.1041
      10    H7      20.838428   19.938498   23.169416 H          1 MOL1         0.1041
      11    C4      20.360386   17.822371   23.046860 C.3        1 MOL1         0.0313
      12    H8      20.776948   17.619803   24.036904 H          1 MOL1         0.1015
      13    H9      20.587892   16.963734   22.410243 H          1 MOL1         0.1015
      14    N1      18.851083   17.904050   23.215959 N.4        1 MOL1        -0.4809
      15    H10     18.567878   18.864684   23.460532 H          1 MOL1         0.3726
      16    H11     18.568020   17.331302   24.026418 H          1 MOL1         0.3726
      17    C5      18.122826   17.406431   21.971506 C.3        1 MOL1        -0.0677
      18    H12     17.045494   17.460097   22.143065 H          1 MOL1         0.1026
      19    H13     18.387891   18.027383   21.115078 H          1 MOL1         0.1026
      20    H14     18.411547   16.371094   21.778097 H          1 MOL1         0.1026
@<TRIPOS>BOND
    1     1     2    1
    2     1     3    1
    3     1     4    1
    4     1     5    1
    5     5     6    1
    6     5     7    1
    7     5     8    1
    8     8     9    1
    9     8    10    1
   10     8    11    1
   11    11    12    1
   12    11    13    1
   13    11    14    1
   14    14    15    1
   15    14    16    1
   16    14    17    1
   17    17    18    1
   18    17    19    1
   19    17    20    1
@<TRIPOS>SUBSTRUCTURE
       1 MOL1            1 RESIDUE      1      MOL     
@<SCITEGIC>MOL_PROPERTY
VConf Rank
SciTegic.value.IntegerValue
333

@<SCITEGIC>MOL_PROPERTY
Conf_Id
SciTegic.value.IntegerValue
65

@<SCITEGIC>MOL_PROPERTY
Delta U+W
SciTegic.value.DoubleValue
1.775

@<SCITEGIC>MOL_PROPERTY
U+W
SciTegic.value.DoubleValue
17.114

@<SCITEGIC>MOL_PROPERTY
Grad RMS
SciTegic.value.DoubleValue
0.000000

@<SCITEGIC>MOL_PROPERTY
U
SciTegic.value.DoubleValue
71.726

@<SCITEGIC>MOL_PROPERTY
W
SciTegic.value.DoubleValue
-54.613

@<SCITEGIC>MOL_PROPERTY
W(PB)
SciTegic.value.DoubleValue
-56.495

@<SCITEGIC>MOL_PROPERTY
W(SA)
SciTegic.value.DoubleValue
1.883

@<SCITEGIC>MOL_PROPERTY
Valence
SciTegic.value.DoubleValue
2.885

@<SCITEGIC>MOL_PROPERTY
Coulomb
SciTegic.value.DoubleValue
68.822

@<SCITEGIC>MOL_PROPERTY
VdW
SciTegic.value.DoubleValue
0.019

@<SCITEGIC>MOL_PROPERTY
VdW6
SciTegic.value.DoubleValue
-4.600

@<SCITEGIC>MOL_PROPERTY
VdW12
SciTegic.value.DoubleValue
4.619

@<SCITEGIC>MOL_PROPERTY
Bond
SciTegic.value.DoubleValue
0.152

@<SCITEGIC>MOL_PROPERTY
Angle
SciTegic.value.DoubleValue
0.862

@<SCITEGIC>MOL_PROPERTY
Pdih
SciTegic.value.DoubleValue
1.871

@<SCITEGIC>MOL_PROPERTY
Idih
SciTegic.value.DoubleValue
0.000

@<SCITEGIC>MOL_PROPERTY
Tether
SciTegic.value.DoubleValue
0.000

@<TRIPOS>MOLECULE
guest-s9_confgen4.mol2 : confsearch ligand conformer 334
          20          19           1
SMALL
USER_CHARGES
 
@<TRIPOS>ATOM
       1    C1      17.968835   18.951393   20.969117 C.3        1 MOL1        -0.2224
       2    H1      18.491583   19.882817   21.220486 H          1 MOL1         0.1052
       3    H2      17.516784   19.083217   19.977526 H          1 MOL1         0.1052
       4    H3      17.154528   18.809878   21.691577 H          1 MOL1         0.1052
       5    C2      18.929694   17.740229   20.970317 C.3        1 MOL1        -0.1209
       6    H4      19.733615   17.905276   20.240193 H          1 MOL1         0.1041
       7    H5      18.384112   16.851365   20.623520 H          1 MOL1         0.1041
       8    C3      19.530170   17.442833   22.367093 C.3        1 MOL1        -0.1274
       9    H6      18.719781   17.178963   23.059486 H          1 MOL1         0.1041
      10    H7      20.178463   16.558767   22.304746 H          1 MOL1         0.1041
      11    C4      20.329878   18.616916   22.969557 C.3        1 MOL1         0.0313
      12    H8      20.690539   18.337657   23.962773 H          1 MOL1         0.1015
      13    H9      19.679251   19.487916   23.078232 H          1 MOL1         0.1015
      14    N1      21.532485   19.031523   22.143458 N.4        1 MOL1        -0.4809
      15    H10     21.233004   19.296304   21.193357 H          1 MOL1         0.3726
      16    H11     22.170959   18.231142   22.018399 H          1 MOL1         0.3726
      17    C5      22.252974   20.190539   22.818806 C.3        1 MOL1        -0.0677
      18    H12     22.587967   19.877276   23.809972 H          1 MOL1         0.1026
      19    H13     23.114890   20.479122   22.213173 H          1 MOL1         0.1026
      20    H14     21.567711   21.035983   22.910449 H          1 MOL1         0.1026
@<TRIPOS>BOND
    1     1     2    1
    2     1     3    1
    3     1     4    1
    4     1     5    1
    5     5     6    1
    6     5     7    1
    7     5     8    1
    8     8     9    1
    9     8    10    1
   10     8    11    1
   11    11    12    1
   12    11    13    1
   13    11    14    1
   14    14    15    1
   15    14    16    1
   16    14    17    1
   17    17    18    1
   18    17    19    1
   19    17    20    1
@<TRIPOS>SUBSTRUCTURE
       1 MOL1            1 RESIDUE      1      MOL     
@<SCITEGIC>MOL_PROPERTY
VConf Rank
SciTegic.value.IntegerValue
334

@<SCITEGIC>MOL_PROPERTY
Conf_Id
SciTegic.value.IntegerValue
23

@<SCITEGIC>MOL_PROPERTY
Delta U+W
SciTegic.value.DoubleValue
0.896

@<SCITEGIC>MOL_PROPERTY
U+W
SciTegic.value.DoubleValue
16.234

@<SCITEGIC>MOL_PROPERTY
Grad RMS
SciTegic.value.DoubleValue
0.000000

@<SCITEGIC>MOL_PROPERTY
U
SciTegic.value.DoubleValue
70.374

@<SCITEGIC>MOL_PROPERTY
W
SciTegic.value.DoubleValue
-54.140

@<SCITEGIC>MOL_PROPERTY
W(PB)
SciTegic.value.DoubleValue
-56.046

@<SCITEGIC>MOL_PROPERTY
W(SA)
SciTegic.value.DoubleValue
1.907

@<SCITEGIC>MOL_PROPERTY
Valence
SciTegic.value.DoubleValue
1.257

@<SCITEGIC>MOL_PROPERTY
Coulomb
SciTegic.value.DoubleValue
69.240

@<SCITEGIC>MOL_PROPERTY
VdW
SciTegic.value.DoubleValue
-0.123

@<SCITEGIC>MOL_PROPERTY
VdW6
SciTegic.value.DoubleValue
-4.336

@<SCITEGIC>MOL_PROPERTY
VdW12
SciTegic.value.DoubleValue
4.213

@<SCITEGIC>MOL_PROPERTY
Bond
SciTegic.value.DoubleValue
0.128

@<SCITEGIC>MOL_PROPERTY
Angle
SciTegic.value.DoubleValue
0.603

@<SCITEGIC>MOL_PROPERTY
Pdih
SciTegic.value.DoubleValue
0.526

@<SCITEGIC>MOL_PROPERTY
Idih
SciTegic.value.DoubleValue
0.000

@<SCITEGIC>MOL_PROPERTY
Tether
SciTegic.value.DoubleValue
0.000

@<TRIPOS>MOLECULE
guest-s9_confgen4.mol2 : confsearch ligand conformer 335
          20          19           1
SMALL
USER_CHARGES
 
@<TRIPOS>ATOM
       1    C1      18.205629   20.188567   22.117655 C.3        1 MOL1        -0.2224
       2    H1      17.508950   19.957138   21.301474 H          1 MOL1         0.1052
       3    H2      17.745097   20.967095   22.739574 H          1 MOL1         0.1052
       4    H3      19.117902   20.612386   21.679318 H          1 MOL1         0.1052
       5    C2      18.510423   18.929849   22.961988 C.3        1 MOL1        -0.1209
       6    H4      17.585582   18.597612   23.454220 H          1 MOL1         0.1041
       7    H5      19.207628   19.187103   23.770898 H          1 MOL1         0.1041
       8    C3      19.076640   17.757689   22.122086 C.3        1 MOL1        -0.1274
       9    H6      19.244551   16.889867   22.773572 H          1 MOL1         0.1041
      10    H7      18.324628   17.445446   21.385371 H          1 MOL1         0.1041
      11    C4      20.385620   18.093863   21.377420 C.3        1 MOL1         0.0313
      12    H8      20.215353   18.927518   20.692005 H          1 MOL1         0.1015
      13    H9      20.699043   17.228941   20.787323 H          1 MOL1         0.1015
      14    N1      21.536322   18.467832   22.292099 N.4        1 MOL1        -0.4809
      15    H10     21.725720   17.701983   22.956555 H          1 MOL1         0.3726
      16    H11     21.275681   19.278527   22.872899 H          1 MOL1         0.3726
      17    C5      22.777206   18.779227   21.466409 C.3        1 MOL1        -0.0677
      18    H12     22.562680   19.613325   20.794831 H          1 MOL1         0.1026
      19    H13     23.596437   19.047742   22.137029 H          1 MOL1         0.1026
      20    H14     23.052379   17.897252   20.884031 H          1 MOL1         0.1026
@<TRIPOS>BOND
    1     1     2    1
    2     1     3    1
    3     1     4    1
    4     1     5    1
    5     5     6    1
    6     5     7    1
    7     5     8    1
    8     8     9    1
    9     8    10    1
   10     8    11    1
   11    11    12    1
   12    11    13    1
   13    11    14    1
   14    14    15    1
   15    14    16    1
   16    14    17    1
   17    17    18    1
   18    17    19    1
   19    17    20    1
@<TRIPOS>SUBSTRUCTURE
       1 MOL1            1 RESIDUE      1      MOL     
@<SCITEGIC>MOL_PROPERTY
VConf Rank
SciTegic.value.IntegerValue
335

@<SCITEGIC>MOL_PROPERTY
Conf_Id
SciTegic.value.IntegerValue
24

@<SCITEGIC>MOL_PROPERTY
Delta U+W
SciTegic.value.DoubleValue
0.792

@<SCITEGIC>MOL_PROPERTY
U+W
SciTegic.value.DoubleValue
16.130

@<SCITEGIC>MOL_PROPERTY
Grad RMS
SciTegic.value.DoubleValue
0.000000

@<SCITEGIC>MOL_PROPERTY
U
SciTegic.value.DoubleValue
70.374

@<SCITEGIC>MOL_PROPERTY
W
SciTegic.value.DoubleValue
-54.243

@<SCITEGIC>MOL_PROPERTY
W(PB)
SciTegic.value.DoubleValue
-56.130

@<SCITEGIC>MOL_PROPERTY
W(SA)
SciTegic.value.DoubleValue
1.887

@<SCITEGIC>MOL_PROPERTY
Valence
SciTegic.value.DoubleValue
1.257

@<SCITEGIC>MOL_PROPERTY
Coulomb
SciTegic.value.DoubleValue
69.240

@<SCITEGIC>MOL_PROPERTY
VdW
SciTegic.value.DoubleValue
-0.123

@<SCITEGIC>MOL_PROPERTY
VdW6
SciTegic.value.DoubleValue
-4.336

@<SCITEGIC>MOL_PROPERTY
VdW12
SciTegic.value.DoubleValue
4.213

@<SCITEGIC>MOL_PROPERTY
Bond
SciTegic.value.DoubleValue
0.128

@<SCITEGIC>MOL_PROPERTY
Angle
SciTegic.value.DoubleValue
0.603

@<SCITEGIC>MOL_PROPERTY
Pdih
SciTegic.value.DoubleValue
0.526

@<SCITEGIC>MOL_PROPERTY
Idih
SciTegic.value.DoubleValue
0.000

@<SCITEGIC>MOL_PROPERTY
Tether
SciTegic.value.DoubleValue
0.000

@<TRIPOS>MOLECULE
guest-s9_confgen4.mol2 : confsearch ligand conformer 336
          20          19           1
SMALL
USER_CHARGES
 
@<TRIPOS>ATOM
       1    C1      20.522442   19.981218   23.774079 C.3        1 MOL1        -0.2224
       2    H1      20.883432   20.805621   24.402782 H          1 MOL1         0.1052
       3    H2      19.703019   20.378520   23.163550 H          1 MOL1         0.1052
       4    H3      20.125604   19.204573   24.440792 H          1 MOL1         0.1052
       5    C2      21.671742   19.435204   22.896334 C.3        1 MOL1        -0.1209
       6    H4      22.545113   19.250440   23.537546 H          1 MOL1         0.1041
       7    H5      21.981043   20.207025   22.177495 H          1 MOL1         0.1041
       8    C3      21.335144   18.124529   22.140245 C.3        1 MOL1        -0.1274
       9    H6      22.240110   17.797767   21.611019 H          1 MOL1         0.1041
      10    H7      21.096846   17.323092   22.852017 H          1 MOL1         0.1041
      11    C4      20.203565   18.260496   21.099415 C.3        1 MOL1         0.0313
      12    H8      20.281866   17.443315   20.377870 H          1 MOL1         0.1015
      13    H9      20.312000   19.203019   20.557034 H          1 MOL1         0.1015
      14    N1      18.805193   18.200771   21.684212 N.4        1 MOL1        -0.4809
      15    H10     18.696571   18.921141   22.412146 H          1 MOL1         0.3726
      16    H11     18.660540   17.300114   22.165773 H          1 MOL1         0.3726
      17    C5      17.771117   18.390298   20.582767 C.3        1 MOL1        -0.0677
      18    H12     17.923207   19.362877   20.109771 H          1 MOL1         0.1026
      19    H13     17.886112   17.596832   19.841179 H          1 MOL1         0.1026
      20    H14     16.770426   18.344919   21.018116 H          1 MOL1         0.1026
@<TRIPOS>BOND
    1     1     2    1
    2     1     3    1
    3     1     4    1
    4     1     5    1
    5     5     6    1
    6     5     7    1
    7     5     8    1
    8     8     9    1
    9     8    10    1
   10     8    11    1
   11    11    12    1
   12    11    13    1
   13    11    14    1
   14    14    15    1
   15    14    16    1
   16    14    17    1
   17    17    18    1
   18    17    19    1
   19    17    20    1
@<TRIPOS>SUBSTRUCTURE
       1 MOL1            1 RESIDUE      1      MOL     
@<SCITEGIC>MOL_PROPERTY
VConf Rank
SciTegic.value.IntegerValue
336

@<SCITEGIC>MOL_PROPERTY
Conf_Id
SciTegic.value.IntegerValue
26

@<SCITEGIC>MOL_PROPERTY
Delta U+W
SciTegic.value.DoubleValue
2.888

@<SCITEGIC>MOL_PROPERTY
U+W
SciTegic.value.DoubleValue
18.226

@<SCITEGIC>MOL_PROPERTY
Grad RMS
SciTegic.value.DoubleValue
0.000000

@<SCITEGIC>MOL_PROPERTY
U
SciTegic.value.DoubleValue
72.042

@<SCITEGIC>MOL_PROPERTY
W
SciTegic.value.DoubleValue
-53.816

@<SCITEGIC>MOL_PROPERTY
W(PB)
SciTegic.value.DoubleValue
-55.689

@<SCITEGIC>MOL_PROPERTY
W(SA)
SciTegic.value.DoubleValue
1.873

@<SCITEGIC>MOL_PROPERTY
Valence
SciTegic.value.DoubleValue
2.428

@<SCITEGIC>MOL_PROPERTY
Coulomb
SciTegic.value.DoubleValue
69.829

@<SCITEGIC>MOL_PROPERTY
VdW
SciTegic.value.DoubleValue
-0.215

@<SCITEGIC>MOL_PROPERTY
VdW6
SciTegic.value.DoubleValue
-4.563

@<SCITEGIC>MOL_PROPERTY
VdW12
SciTegic.value.DoubleValue
4.348

@<SCITEGIC>MOL_PROPERTY
Bond
SciTegic.value.DoubleValue
0.137

@<SCITEGIC>MOL_PROPERTY
Angle
SciTegic.value.DoubleValue
0.936

@<SCITEGIC>MOL_PROPERTY
Pdih
SciTegic.value.DoubleValue
1.356

@<SCITEGIC>MOL_PROPERTY
Idih
SciTegic.value.DoubleValue
0.000

@<SCITEGIC>MOL_PROPERTY
Tether
SciTegic.value.DoubleValue
0.000

@<TRIPOS>MOLECULE
guest-s9_confgen4.mol2 : confsearch ligand conformer 337
          20          19           1
SMALL
USER_CHARGES
 
@<TRIPOS>ATOM
       1    C1      20.915903   16.957158   21.484796 C.3        1 MOL1        -0.2224
       2    H1      21.007690   15.922997   21.127998 H          1 MOL1         0.1052
       3    H2      21.902053   17.270474   21.851548 H          1 MOL1         0.1052
       4    H3      20.211362   16.945302   22.324756 H          1 MOL1         0.1052
       5    C2      20.423032   17.875083   20.342889 C.3        1 MOL1        -0.1209
       6    H4      19.397527   17.593912   20.064704 H          1 MOL1         0.1041
       7    H5      21.040486   17.689526   19.452728 H          1 MOL1         0.1041
       8    C3      20.477573   19.389771   20.667821 C.3        1 MOL1        -0.1274
       9    H6      21.510592   19.699394   20.874486 H          1 MOL1         0.1041
      10    H7      20.172970   19.939703   19.767483 H          1 MOL1         0.1041
      11    C4      19.553277   19.828505   21.823448 C.3        1 MOL1         0.0313
      12    H8      18.594005   19.310739   21.745989 H          1 MOL1         0.1015
      13    H9      19.366249   20.902343   21.743226 H          1 MOL1         0.1015
      14    N1      20.122195   19.581548   23.207770 N.4        1 MOL1        -0.4809
      15    H10     21.008825   20.095833   23.323545 H          1 MOL1         0.3726
      16    H11     20.366293   18.586920   23.316173 H          1 MOL1         0.3726
      17    C5      19.115472   20.005987   24.268322 C.3        1 MOL1        -0.0677
      18    H12     18.198144   19.425970   24.146432 H          1 MOL1         0.1026
      19    H13     19.538327   19.822642   25.258549 H          1 MOL1         0.1026
      20    H14     18.897971   21.069942   24.152312 H          1 MOL1         0.1026
@<TRIPOS>BOND
    1     1     2    1
    2     1     3    1
    3     1     4    1
    4     1     5    1
    5     5     6    1
    6     5     7    1
    7     5     8    1
    8     8     9    1
    9     8    10    1
   10     8    11    1
   11    11    12    1
   12    11    13    1
   13    11    14    1
   14    14    15    1
   15    14    16    1
   16    14    17    1
   17    17    18    1
   18    17    19    1
   19    17    20    1
@<TRIPOS>SUBSTRUCTURE
       1 MOL1            1 RESIDUE      1      MOL     
@<SCITEGIC>MOL_PROPERTY
VConf Rank
SciTegic.value.IntegerValue
337

@<SCITEGIC>MOL_PROPERTY
Conf_Id
SciTegic.value.IntegerValue
5

@<SCITEGIC>MOL_PROPERTY
Delta U+W
SciTegic.value.DoubleValue
2.950

@<SCITEGIC>MOL_PROPERTY
U+W
SciTegic.value.DoubleValue
18.289

@<SCITEGIC>MOL_PROPERTY
Grad RMS
SciTegic.value.DoubleValue
0.000000

@<SCITEGIC>MOL_PROPERTY
U
SciTegic.value.DoubleValue
72.042

@<SCITEGIC>MOL_PROPERTY
W
SciTegic.value.DoubleValue
-53.753

@<SCITEGIC>MOL_PROPERTY
W(PB)
SciTegic.value.DoubleValue
-55.644

@<SCITEGIC>MOL_PROPERTY
W(SA)
SciTegic.value.DoubleValue
1.891

@<SCITEGIC>MOL_PROPERTY
Valence
SciTegic.value.DoubleValue
2.428

@<SCITEGIC>MOL_PROPERTY
Coulomb
SciTegic.value.DoubleValue
69.829

@<SCITEGIC>MOL_PROPERTY
VdW
SciTegic.value.DoubleValue
-0.215

@<SCITEGIC>MOL_PROPERTY
VdW6
SciTegic.value.DoubleValue
-4.563

@<SCITEGIC>MOL_PROPERTY
VdW12
SciTegic.value.DoubleValue
4.348

@<SCITEGIC>MOL_PROPERTY
Bond
SciTegic.value.DoubleValue
0.137

@<SCITEGIC>MOL_PROPERTY
Angle
SciTegic.value.DoubleValue
0.936

@<SCITEGIC>MOL_PROPERTY
Pdih
SciTegic.value.DoubleValue
1.356

@<SCITEGIC>MOL_PROPERTY
Idih
SciTegic.value.DoubleValue
0.000

@<SCITEGIC>MOL_PROPERTY
Tether
SciTegic.value.DoubleValue
0.000

@<TRIPOS>MOLECULE
guest-s9_confgen4.mol2 : confsearch ligand conformer 338
          20          19           1
SMALL
USER_CHARGES
 
@<TRIPOS>ATOM
       1    C1      20.608165   16.546814   21.405792 C.3        1 MOL1        -0.2224
       2    H1      20.688529   15.882838   22.276272 H          1 MOL1         0.1052
       3    H2      19.543483   16.699560   21.189232 H          1 MOL1         0.1052
       4    H3      21.049253   16.025781   20.546181 H          1 MOL1         0.1052
       5    C2      21.336617   17.886550   21.659976 C.3        1 MOL1        -0.1209
       6    H4      21.245929   18.531682   20.775474 H          1 MOL1         0.1041
       7    H5      22.411093   17.691002   21.783079 H          1 MOL1         0.1041
       8    C3      20.818243   18.630833   22.915613 C.3        1 MOL1        -0.1274
       9    H6      21.002978   18.012164   23.803676 H          1 MOL1         0.1041
      10    H7      21.401638   19.549051   23.061476 H          1 MOL1         0.1041
      11    C4      19.313040   18.978952   22.863564 C.3        1 MOL1         0.0313
      12    H8      19.027124   19.502015   23.779575 H          1 MOL1         0.1015
      13    H9      18.735369   18.052705   22.814138 H          1 MOL1         0.1015
      14    N1      18.888601   19.843195   21.686169 N.4        1 MOL1        -0.4809
      15    H10     17.858925   19.905977   21.656468 H          1 MOL1         0.3726
      16    H11     19.154400   19.387903   20.800639 H          1 MOL1         0.3726
      17    C5      19.491453   21.240509   21.779470 C.3        1 MOL1        -0.0677
      18    H12     20.580341   21.167619   21.747867 H          1 MOL1         0.1026
      19    H13     19.139483   21.839234   20.936528 H          1 MOL1         0.1026
      20    H14     19.178320   21.705047   22.716906 H          1 MOL1         0.1026
@<TRIPOS>BOND
    1     1     2    1
    2     1     3    1
    3     1     4    1
    4     1     5    1
    5     5     6    1
    6     5     7    1
    7     5     8    1
    8     8     9    1
    9     8    10    1
   10     8    11    1
   11    11    12    1
   12    11    13    1
   13    11    14    1
   14    14    15    1
   15    14    16    1
   16    14    17    1
   17    17    18    1
   18    17    19    1
   19    17    20    1
@<TRIPOS>SUBSTRUCTURE
       1 MOL1            1 RESIDUE      1      MOL     
@<SCITEGIC>MOL_PROPERTY
VConf Rank
SciTegic.value.IntegerValue
338

@<SCITEGIC>MOL_PROPERTY
Conf_Id
SciTegic.value.IntegerValue
52

@<SCITEGIC>MOL_PROPERTY
Delta U+W
SciTegic.value.DoubleValue
0.784

@<SCITEGIC>MOL_PROPERTY
U+W
SciTegic.value.DoubleValue
16.122

@<SCITEGIC>MOL_PROPERTY
Grad RMS
SciTegic.value.DoubleValue
0.000000

@<SCITEGIC>MOL_PROPERTY
U
SciTegic.value.DoubleValue
70.777

@<SCITEGIC>MOL_PROPERTY
W
SciTegic.value.DoubleValue
-54.655

@<SCITEGIC>MOL_PROPERTY
W(PB)
SciTegic.value.DoubleValue
-56.491

@<SCITEGIC>MOL_PROPERTY
W(SA)
SciTegic.value.DoubleValue
1.836

@<SCITEGIC>MOL_PROPERTY
Valence
SciTegic.value.DoubleValue
1.529

@<SCITEGIC>MOL_PROPERTY
Coulomb
SciTegic.value.DoubleValue
69.166

@<SCITEGIC>MOL_PROPERTY
VdW
SciTegic.value.DoubleValue
0.082

@<SCITEGIC>MOL_PROPERTY
VdW6
SciTegic.value.DoubleValue
-5.166

@<SCITEGIC>MOL_PROPERTY
VdW12
SciTegic.value.DoubleValue
5.248

@<SCITEGIC>MOL_PROPERTY
Bond
SciTegic.value.DoubleValue
0.171

@<SCITEGIC>MOL_PROPERTY
Angle
SciTegic.value.DoubleValue
0.752

@<SCITEGIC>MOL_PROPERTY
Pdih
SciTegic.value.DoubleValue
0.605

@<SCITEGIC>MOL_PROPERTY
Idih
SciTegic.value.DoubleValue
0.000

@<SCITEGIC>MOL_PROPERTY
Tether
SciTegic.value.DoubleValue
0.000

@<TRIPOS>MOLECULE
guest-s9_confgen4.mol2 : confsearch ligand conformer 339
          20          19           1
SMALL
USER_CHARGES
 
@<TRIPOS>ATOM
       1    C1      18.049468   18.443227   21.534905 C.3        1 MOL1        -0.2224
       2    H1      16.981456   18.378737   21.289223 H          1 MOL1         0.1052
       3    H2      18.598691   18.407962   20.587137 H          1 MOL1         0.1052
       4    H3      18.308371   17.556788   22.128624 H          1 MOL1         0.1052
       5    C2      18.341672   19.746107   22.313677 C.3        1 MOL1        -0.1209
       6    H4      17.604231   19.841355   23.123080 H          1 MOL1         0.1041
       7    H5      18.182418   20.611441   21.655002 H          1 MOL1         0.1041
       8    C3      19.759127   19.816903   22.937082 C.3        1 MOL1        -0.1274
       9    H6      19.816572   20.734114   23.537923 H          1 MOL1         0.1041
      10    H7      19.904993   18.990010   23.643391 H          1 MOL1         0.1041
      11    C4      20.912896   19.860107   21.908246 C.3        1 MOL1         0.0313
      12    H8      21.814912   20.239103   22.395226 H          1 MOL1         0.1015
      13    H9      20.650055   20.555130   21.106793 H          1 MOL1         0.1015
      14    N1      21.279604   18.529266   21.270361 N.4        1 MOL1        -0.4809
      15    H10     21.915334   18.691594   20.473708 H          1 MOL1         0.3726
      16    H11     20.442198   18.090221   20.863135 H          1 MOL1         0.3726
      17    C5      21.942004   17.596713   22.278474 C.3        1 MOL1        -0.0677
      18    H12     22.833994   18.080016   22.682719 H          1 MOL1         0.1026
      19    H13     21.241096   17.378164   23.086299 H          1 MOL1         0.1026
      20    H14     22.222627   16.668331   21.776207 H          1 MOL1         0.1026
@<TRIPOS>BOND
    1     1     2    1
    2     1     3    1
    3     1     4    1
    4     1     5    1
    5     5     6    1
    6     5     7    1
    7     5     8    1
    8     8     9    1
    9     8    10    1
   10     8    11    1
   11    11    12    1
   12    11    13    1
   13    11    14    1
   14    14    15    1
   15    14    16    1
   16    14    17    1
   17    17    18    1
   18    17    19    1
   19    17    20    1
@<TRIPOS>SUBSTRUCTURE
       1 MOL1            1 RESIDUE      1      MOL     
@<SCITEGIC>MOL_PROPERTY
VConf Rank
SciTegic.value.IntegerValue
339

@<SCITEGIC>MOL_PROPERTY
Conf_Id
SciTegic.value.IntegerValue
55

@<SCITEGIC>MOL_PROPERTY
Delta U+W
SciTegic.value.DoubleValue
2.745

@<SCITEGIC>MOL_PROPERTY
U+W
SciTegic.value.DoubleValue
18.083

@<SCITEGIC>MOL_PROPERTY
Grad RMS
SciTegic.value.DoubleValue
0.000000

@<SCITEGIC>MOL_PROPERTY
U
SciTegic.value.DoubleValue
72.490

@<SCITEGIC>MOL_PROPERTY
W
SciTegic.value.DoubleValue
-54.407

@<SCITEGIC>MOL_PROPERTY
W(PB)
SciTegic.value.DoubleValue
-56.269

@<SCITEGIC>MOL_PROPERTY
W(SA)
SciTegic.value.DoubleValue
1.861

@<SCITEGIC>MOL_PROPERTY
Valence
SciTegic.value.DoubleValue
2.738

@<SCITEGIC>MOL_PROPERTY
Coulomb
SciTegic.value.DoubleValue
69.795

@<SCITEGIC>MOL_PROPERTY
VdW
SciTegic.value.DoubleValue
-0.043

@<SCITEGIC>MOL_PROPERTY
VdW6
SciTegic.value.DoubleValue
-5.333

@<SCITEGIC>MOL_PROPERTY
VdW12
SciTegic.value.DoubleValue
5.290

@<SCITEGIC>MOL_PROPERTY
Bond
SciTegic.value.DoubleValue
0.182

@<SCITEGIC>MOL_PROPERTY
Angle
SciTegic.value.DoubleValue
1.135

@<SCITEGIC>MOL_PROPERTY
Pdih
SciTegic.value.DoubleValue
1.422

@<SCITEGIC>MOL_PROPERTY
Idih
SciTegic.value.DoubleValue
0.000

@<SCITEGIC>MOL_PROPERTY
Tether
SciTegic.value.DoubleValue
0.000

@<TRIPOS>MOLECULE
guest-s9_confgen4.mol2 : confsearch ligand conformer 340
          20          19           1
SMALL
USER_CHARGES
 
@<TRIPOS>ATOM
       1    C1      20.596315   19.373922   20.097640 C.3        1 MOL1        -0.2224
       2    H1      20.841169   19.509368   19.036099 H          1 MOL1         0.1052
       3    H2      20.444372   20.369946   20.533710 H          1 MOL1         0.1052
       4    H3      21.468874   18.909130   20.570672 H          1 MOL1         0.1052
       5    C2      19.332818   18.496161   20.247585 C.3        1 MOL1        -0.1209
       6    H4      19.552947   17.474255   19.908074 H          1 MOL1         0.1041
       7    H5      18.558470   18.880904   19.569070 H          1 MOL1         0.1041
       8    C3      18.745811   18.456055   21.681687 C.3        1 MOL1        -0.1274
       9    H6      18.466301   19.466327   22.005920 H          1 MOL1         0.1041
      10    H7      17.808115   17.885985   21.645172 H          1 MOL1         0.1041
      11    C4      19.659931   17.783709   22.732348 C.3        1 MOL1         0.0313
      12    H8      20.081460   16.870069   22.305682 H          1 MOL1         0.1015
      13    H9      19.060830   17.499900   23.601229 H          1 MOL1         0.1015
      14    N1      20.811610   18.633237   23.246589 N.4        1 MOL1        -0.4809
      15    H10     21.365015   18.993237   22.456663 H          1 MOL1         0.3726
      16    H11     21.462654   18.041996   23.786714 H          1 MOL1         0.3726
      17    C5      20.307996   19.777807   24.118973 C.3        1 MOL1        -0.0677
      18    H12     19.670933   20.434916   23.524013 H          1 MOL1         0.1026
      19    H13     19.738352   19.367909   24.955709 H          1 MOL1         0.1026
      20    H14     21.163180   20.341822   24.497734 H          1 MOL1         0.1026
@<TRIPOS>BOND
    1     1     2    1
    2     1     3    1
    3     1     4    1
    4     1     5    1
    5     5     6    1
    6     5     7    1
    7     5     8    1
    8     8     9    1
    9     8    10    1
   10     8    11    1
   11    11    12    1
   12    11    13    1
   13    11    14    1
   14    14    15    1
   15    14    16    1
   16    14    17    1
   17    17    18    1
   18    17    19    1
   19    17    20    1
@<TRIPOS>SUBSTRUCTURE
       1 MOL1            1 RESIDUE      1      MOL     
@<SCITEGIC>MOL_PROPERTY
VConf Rank
SciTegic.value.IntegerValue
340

@<SCITEGIC>MOL_PROPERTY
Conf_Id
SciTegic.value.IntegerValue
76

@<SCITEGIC>MOL_PROPERTY
Delta U+W
SciTegic.value.DoubleValue
2.799

@<SCITEGIC>MOL_PROPERTY
U+W
SciTegic.value.DoubleValue
18.137

@<SCITEGIC>MOL_PROPERTY
Grad RMS
SciTegic.value.DoubleValue
0.000000

@<SCITEGIC>MOL_PROPERTY
U
SciTegic.value.DoubleValue
72.490

@<SCITEGIC>MOL_PROPERTY
W
SciTegic.value.DoubleValue
-54.353

@<SCITEGIC>MOL_PROPERTY
W(PB)
SciTegic.value.DoubleValue
-56.201

@<SCITEGIC>MOL_PROPERTY
W(SA)
SciTegic.value.DoubleValue
1.848

@<SCITEGIC>MOL_PROPERTY
Valence
SciTegic.value.DoubleValue
2.738

@<SCITEGIC>MOL_PROPERTY
Coulomb
SciTegic.value.DoubleValue
69.795

@<SCITEGIC>MOL_PROPERTY
VdW
SciTegic.value.DoubleValue
-0.043

@<SCITEGIC>MOL_PROPERTY
VdW6
SciTegic.value.DoubleValue
-5.334

@<SCITEGIC>MOL_PROPERTY
VdW12
SciTegic.value.DoubleValue
5.290

@<SCITEGIC>MOL_PROPERTY
Bond
SciTegic.value.DoubleValue
0.182

@<SCITEGIC>MOL_PROPERTY
Angle
SciTegic.value.DoubleValue
1.135

@<SCITEGIC>MOL_PROPERTY
Pdih
SciTegic.value.DoubleValue
1.421

@<SCITEGIC>MOL_PROPERTY
Idih
SciTegic.value.DoubleValue
0.000

@<SCITEGIC>MOL_PROPERTY
Tether
SciTegic.value.DoubleValue
0.000

@<TRIPOS>MOLECULE
guest-s9_confgen4.mol2 : confsearch ligand conformer 341
          20          19           1
SMALL
USER_CHARGES
 
@<TRIPOS>ATOM
       1    C1      18.901032   17.216689   21.029943 C.3        1 MOL1        -0.2224
       2    H1      19.337325   17.966452   20.358709 H          1 MOL1         0.1052
       3    H2      19.400687   16.257803   20.840642 H          1 MOL1         0.1052
       4    H3      17.843974   17.102502   20.757116 H          1 MOL1         0.1052
       5    C2      19.036813   17.629352   22.513801 C.3        1 MOL1        -0.1209
       6    H4      18.522960   16.884010   23.136901 H          1 MOL1         0.1041
       7    H5      18.513344   18.577569   22.691638 H          1 MOL1         0.1041
       8    C3      20.508743   17.736098   22.982281 C.3        1 MOL1        -0.1274
       9    H6      20.532679   17.988724   24.050464 H          1 MOL1         0.1041
      10    H7      20.976616   16.746414   22.897046 H          1 MOL1         0.1041
      11    C4      21.379695   18.749986   22.203722 C.3        1 MOL1         0.0313
      12    H8      21.365942   18.526716   21.134364 H          1 MOL1         0.1015
      13    H9      22.410472   18.639497   22.550070 H          1 MOL1         0.1015
      14    N1      21.014405   20.214461   22.395606 N.4        1 MOL1        -0.4809
      15    H10     21.867599   20.789707   22.318456 H          1 MOL1         0.3726
      16    H11     20.674084   20.376882   23.355004 H          1 MOL1         0.3726
      17    C5      19.999634   20.683771   21.358670 C.3        1 MOL1        -0.0677
      18    H12     19.792103   21.744314   21.517115 H          1 MOL1         0.1026
      19    H13     20.415112   20.537155   20.359434 H          1 MOL1         0.1026
      20    H14     19.076753   20.111988   21.460534 H          1 MOL1         0.1026
@<TRIPOS>BOND
    1     1     2    1
    2     1     3    1
    3     1     4    1
    4     1     5    1
    5     5     6    1
    6     5     7    1
    7     5     8    1
    8     8     9    1
    9     8    10    1
   10     8    11    1
   11    11    12    1
   12    11    13    1
   13    11    14    1
   14    14    15    1
   15    14    16    1
   16    14    17    1
   17    17    18    1
   18    17    19    1
   19    17    20    1
@<TRIPOS>SUBSTRUCTURE
       1 MOL1            1 RESIDUE      1      MOL     
@<SCITEGIC>MOL_PROPERTY
VConf Rank
SciTegic.value.IntegerValue
341

@<SCITEGIC>MOL_PROPERTY
Conf_Id
SciTegic.value.IntegerValue
60

@<SCITEGIC>MOL_PROPERTY
Delta U+W
SciTegic.value.DoubleValue
1.788

@<SCITEGIC>MOL_PROPERTY
U+W
SciTegic.value.DoubleValue
17.127

@<SCITEGIC>MOL_PROPERTY
Grad RMS
SciTegic.value.DoubleValue
0.000000

@<SCITEGIC>MOL_PROPERTY
U
SciTegic.value.DoubleValue
72.122

@<SCITEGIC>MOL_PROPERTY
W
SciTegic.value.DoubleValue
-54.995

@<SCITEGIC>MOL_PROPERTY
W(PB)
SciTegic.value.DoubleValue
-56.810

@<SCITEGIC>MOL_PROPERTY
W(SA)
SciTegic.value.DoubleValue
1.815

@<SCITEGIC>MOL_PROPERTY
Valence
SciTegic.value.DoubleValue
3.197

@<SCITEGIC>MOL_PROPERTY
Coulomb
SciTegic.value.DoubleValue
69.115

@<SCITEGIC>MOL_PROPERTY
VdW
SciTegic.value.DoubleValue
-0.190

@<SCITEGIC>MOL_PROPERTY
VdW6
SciTegic.value.DoubleValue
-5.585

@<SCITEGIC>MOL_PROPERTY
VdW12
SciTegic.value.DoubleValue
5.395

@<SCITEGIC>MOL_PROPERTY
Bond
SciTegic.value.DoubleValue
0.177

@<SCITEGIC>MOL_PROPERTY
Angle
SciTegic.value.DoubleValue
1.207

@<SCITEGIC>MOL_PROPERTY
Pdih
SciTegic.value.DoubleValue
1.813

@<SCITEGIC>MOL_PROPERTY
Idih
SciTegic.value.DoubleValue
0.000

@<SCITEGIC>MOL_PROPERTY
Tether
SciTegic.value.DoubleValue
0.000

@<TRIPOS>MOLECULE
guest-s9_confgen4.mol2 : confsearch ligand conformer 342
          20          19           1
SMALL
USER_CHARGES
 
@<TRIPOS>ATOM
       1    C1      18.158389   19.093850   22.742097 C.3        1 MOL1        -0.2224
       2    H1      17.148030   19.067539   22.313930 H          1 MOL1         0.1052
       3    H2      18.057754   19.192921   23.830678 H          1 MOL1         0.1052
       4    H3      18.655680   19.994821   22.362620 H          1 MOL1         0.1052
       5    C2      18.938135   17.811130   22.371708 C.3        1 MOL1        -0.1209
       6    H4      19.010554   17.714815   21.280726 H          1 MOL1         0.1041
       7    H5      18.363721   16.937529   22.710385 H          1 MOL1         0.1041
       8    C3      20.348701   17.752889   23.007600 C.3        1 MOL1        -0.1274
       9    H6      20.240604   17.739134   24.100198 H          1 MOL1         0.1041
      10    H7      20.828407   16.801939   22.741175 H          1 MOL1         0.1041
      11    C4      21.293554   18.918288   22.631068 C.3        1 MOL1         0.0313
      12    H8      22.200031   18.820994   23.233979 H          1 MOL1         0.1015
      13    H9      20.835660   19.879066   22.877651 H          1 MOL1         0.1015
      14    N1      21.743496   18.956959   21.178141 N.4        1 MOL1        -0.4809
      15    H10     21.846393   18.000157   20.808560 H          1 MOL1         0.3726
      16    H11     22.691334   19.361705   21.127316 H          1 MOL1         0.3726
      17    C5      20.798474   19.787346   20.316378 C.3        1 MOL1        -0.0677
      18    H12     20.752111   20.803666   20.713284 H          1 MOL1         0.1026
      19    H13     21.177413   19.810955   19.292281 H          1 MOL1         0.1026
      20    H14     19.802838   19.342805   20.327077 H          1 MOL1         0.1026
@<TRIPOS>BOND
    1     1     2    1
    2     1     3    1
    3     1     4    1
    4     1     5    1
    5     5     6    1
    6     5     7    1
    7     5     8    1
    8     8     9    1
    9     8    10    1
   10     8    11    1
   11    11    12    1
   12    11    13    1
   13    11    14    1
   14    14    15    1
   15    14    16    1
   16    14    17    1
   17    17    18    1
   18    17    19    1
   19    17    20    1
@<TRIPOS>SUBSTRUCTURE
       1 MOL1            1 RESIDUE      1      MOL     
@<SCITEGIC>MOL_PROPERTY
VConf Rank
SciTegic.value.IntegerValue
342

@<SCITEGIC>MOL_PROPERTY
Conf_Id
SciTegic.value.IntegerValue
54

@<SCITEGIC>MOL_PROPERTY
Delta U+W
SciTegic.value.DoubleValue
1.880

@<SCITEGIC>MOL_PROPERTY
U+W
SciTegic.value.DoubleValue
17.218

@<SCITEGIC>MOL_PROPERTY
Grad RMS
SciTegic.value.DoubleValue
0.000000

@<SCITEGIC>MOL_PROPERTY
U
SciTegic.value.DoubleValue
72.122

@<SCITEGIC>MOL_PROPERTY
W
SciTegic.value.DoubleValue
-54.903

@<SCITEGIC>MOL_PROPERTY
W(PB)
SciTegic.value.DoubleValue
-56.724

@<SCITEGIC>MOL_PROPERTY
W(SA)
SciTegic.value.DoubleValue
1.821

@<SCITEGIC>MOL_PROPERTY
Valence
SciTegic.value.DoubleValue
3.197

@<SCITEGIC>MOL_PROPERTY
Coulomb
SciTegic.value.DoubleValue
69.115

@<SCITEGIC>MOL_PROPERTY
VdW
SciTegic.value.DoubleValue
-0.190

@<SCITEGIC>MOL_PROPERTY
VdW6
SciTegic.value.DoubleValue
-5.585

@<SCITEGIC>MOL_PROPERTY
VdW12
SciTegic.value.DoubleValue
5.395

@<SCITEGIC>MOL_PROPERTY
Bond
SciTegic.value.DoubleValue
0.177

@<SCITEGIC>MOL_PROPERTY
Angle
SciTegic.value.DoubleValue
1.207

@<SCITEGIC>MOL_PROPERTY
Pdih
SciTegic.value.DoubleValue
1.813

@<SCITEGIC>MOL_PROPERTY
Idih
SciTegic.value.DoubleValue
0.000

@<SCITEGIC>MOL_PROPERTY
Tether
SciTegic.value.DoubleValue
0.000

@<TRIPOS>MOLECULE
guest-s9_confgen4.mol2 : confsearch ligand conformer 343
          20          19           1
SMALL
USER_CHARGES
 
@<TRIPOS>ATOM
       1    C1      18.476556   21.456436   21.060985 C.3        1 MOL1        -0.2224
       2    H1      17.477373   21.005565   21.001608 H          1 MOL1         0.1052
       3    H2      18.359882   22.485069   21.426123 H          1 MOL1         0.1052
       4    H3      18.890087   21.505300   20.045219 H          1 MOL1         0.1052
       5    C2      19.397826   20.645941   21.998317 C.3        1 MOL1        -0.1209
       6    H4      18.975816   20.644525   23.013333 H          1 MOL1         0.1041
       7    H5      20.377430   21.140271   22.064395 H          1 MOL1         0.1041
       8    C3      19.580344   19.192461   21.508578 C.3        1 MOL1        -0.1274
       9    H6      18.601648   18.698267   21.446195 H          1 MOL1         0.1041
      10    H7      20.005064   19.194698   20.495872 H          1 MOL1         0.1041
      11    C4      20.500198   18.390978   22.448299 C.3        1 MOL1         0.0313
      12    H8      20.072467   18.373650   23.453900 H          1 MOL1         0.1015
      13    H9      21.480404   18.871574   22.500394 H          1 MOL1         0.1015
      14    N1      20.708724   16.955642   22.006674 N.4        1 MOL1        -0.4809
      15    H10     21.105619   16.929438   21.054863 H          1 MOL1         0.3726
      16    H11     19.802071   16.468422   21.937739 H          1 MOL1         0.3726
      17    C5      21.626691   16.238333   22.987480 C.3        1 MOL1        -0.0677
      18    H12     21.171074   16.248256   23.980013 H          1 MOL1         0.1026
      19    H13     21.768122   15.206703   22.657713 H          1 MOL1         0.1026
      20    H14     22.590916   16.750318   23.018323 H          1 MOL1         0.1026
@<TRIPOS>BOND
    1     1     2    1
    2     1     3    1
    3     1     4    1
    4     1     5    1
    5     5     6    1
    6     5     7    1
    7     5     8    1
    8     8     9    1
    9     8    10    1
   10     8    11    1
   11    11    12    1
   12    11    13    1
   13    11    14    1
   14    14    15    1
   15    14    16    1
   16    14    17    1
   17    17    18    1
   18    17    19    1
   19    17    20    1
@<TRIPOS>SUBSTRUCTURE
       1 MOL1            1 RESIDUE      1      MOL     
@<SCITEGIC>MOL_PROPERTY
VConf Rank
SciTegic.value.IntegerValue
343

@<SCITEGIC>MOL_PROPERTY
Conf_Id
SciTegic.value.IntegerValue
67

@<SCITEGIC>MOL_PROPERTY
Delta U+W
SciTegic.value.DoubleValue
0.000

@<SCITEGIC>MOL_PROPERTY
U+W
SciTegic.value.DoubleValue
15.338

@<SCITEGIC>MOL_PROPERTY
Grad RMS
SciTegic.value.DoubleValue
0.000000

@<SCITEGIC>MOL_PROPERTY
U
SciTegic.value.DoubleValue
69.277

@<SCITEGIC>MOL_PROPERTY
W
SciTegic.value.DoubleValue
-53.939

@<SCITEGIC>MOL_PROPERTY
W(PB)
SciTegic.value.DoubleValue
-55.889

@<SCITEGIC>MOL_PROPERTY
W(SA)
SciTegic.value.DoubleValue
1.950

@<SCITEGIC>MOL_PROPERTY
Valence
SciTegic.value.DoubleValue
0.846

@<SCITEGIC>MOL_PROPERTY
Coulomb
SciTegic.value.DoubleValue
68.557

@<SCITEGIC>MOL_PROPERTY
VdW
SciTegic.value.DoubleValue
-0.127

@<SCITEGIC>MOL_PROPERTY
VdW6
SciTegic.value.DoubleValue
-3.008

@<SCITEGIC>MOL_PROPERTY
VdW12
SciTegic.value.DoubleValue
2.882

@<SCITEGIC>MOL_PROPERTY
Bond
SciTegic.value.DoubleValue
0.088

@<SCITEGIC>MOL_PROPERTY
Angle
SciTegic.value.DoubleValue
0.332

@<SCITEGIC>MOL_PROPERTY
Pdih
SciTegic.value.DoubleValue
0.426

@<SCITEGIC>MOL_PROPERTY
Idih
SciTegic.value.DoubleValue
0.000

@<SCITEGIC>MOL_PROPERTY
Tether
SciTegic.value.DoubleValue
0.000

@<TRIPOS>MOLECULE
guest-s9_confgen4.mol2 : confsearch ligand conformer 344
          20          19           1
SMALL
USER_CHARGES
 
@<TRIPOS>ATOM
       1    C1      21.185466   16.613322   23.628741 C.3        1 MOL1        -0.2224
       2    H1      22.050734   16.540835   22.957008 H          1 MOL1         0.1052
       3    H2      21.525707   16.366474   24.642803 H          1 MOL1         0.1052
       4    H3      20.453249   15.853594   23.325688 H          1 MOL1         0.1052
       5    C2      20.567822   18.027983   23.589722 C.3        1 MOL1        -0.1209
       6    H4      21.312622   18.761141   23.930424 H          1 MOL1         0.1041
       7    H5      19.727849   18.079212   24.296921 H          1 MOL1         0.1041
       8    C3      20.079301   18.402847   22.173207 C.3        1 MOL1        -0.1274
       9    H6      20.921054   18.350269   21.470753 H          1 MOL1         0.1041
      10    H7      19.332216   17.672572   21.835294 H          1 MOL1         0.1041
      11    C4      19.462758   19.816722   22.144774 C.3        1 MOL1         0.0313
      12    H8      20.214707   20.555417   22.433364 H          1 MOL1         0.1015
      13    H9      18.647523   19.862717   22.871379 H          1 MOL1         0.1015
      14    N1      18.891568   20.231262   20.798423 N.4        1 MOL1        -0.4809
      15    H10     18.358386   21.108536   20.905165 H          1 MOL1         0.3726
      16    H11     18.198476   19.538959   20.475753 H          1 MOL1         0.3726
      17    C5      19.994293   20.419122   19.761977 C.3        1 MOL1        -0.0677
      18    H12     20.510809   19.470083   19.605702 H          1 MOL1         0.1026
      19    H13     19.548678   20.752372   18.822113 H          1 MOL1         0.1026
      20    H14     20.700716   21.170709   20.120852 H          1 MOL1         0.1026
@<TRIPOS>BOND
    1     1     2    1
    2     1     3    1
    3     1     4    1
    4     1     5    1
    5     5     6    1
    6     5     7    1
    7     5     8    1
    8     8     9    1
    9     8    10    1
   10     8    11    1
   11    11    12    1
   12    11    13    1
   13    11    14    1
   14    14    15    1
   15    14    16    1
   16    14    17    1
   17    17    18    1
   18    17    19    1
   19    17    20    1
@<TRIPOS>SUBSTRUCTURE
       1 MOL1            1 RESIDUE      1      MOL     
@<SCITEGIC>MOL_PROPERTY
VConf Rank
SciTegic.value.IntegerValue
344

@<SCITEGIC>MOL_PROPERTY
Conf_Id
SciTegic.value.IntegerValue
37

@<SCITEGIC>MOL_PROPERTY
Delta U+W
SciTegic.value.DoubleValue
-0.021

@<SCITEGIC>MOL_PROPERTY
U+W
SciTegic.value.DoubleValue
15.318

@<SCITEGIC>MOL_PROPERTY
Grad RMS
SciTegic.value.DoubleValue
0.000000

@<SCITEGIC>MOL_PROPERTY
U
SciTegic.value.DoubleValue
69.657

@<SCITEGIC>MOL_PROPERTY
W
SciTegic.value.DoubleValue
-54.340

@<SCITEGIC>MOL_PROPERTY
W(PB)
SciTegic.value.DoubleValue
-56.238

@<SCITEGIC>MOL_PROPERTY
W(SA)
SciTegic.value.DoubleValue
1.899

@<SCITEGIC>MOL_PROPERTY
Valence
SciTegic.value.DoubleValue
1.137

@<SCITEGIC>MOL_PROPERTY
Coulomb
SciTegic.value.DoubleValue
68.383

@<SCITEGIC>MOL_PROPERTY
VdW
SciTegic.value.DoubleValue
0.138

@<SCITEGIC>MOL_PROPERTY
VdW6
SciTegic.value.DoubleValue
-3.703

@<SCITEGIC>MOL_PROPERTY
VdW12
SciTegic.value.DoubleValue
3.841

@<SCITEGIC>MOL_PROPERTY
Bond
SciTegic.value.DoubleValue
0.125

@<SCITEGIC>MOL_PROPERTY
Angle
SciTegic.value.DoubleValue
0.468

@<SCITEGIC>MOL_PROPERTY
Pdih
SciTegic.value.DoubleValue
0.543

@<SCITEGIC>MOL_PROPERTY
Idih
SciTegic.value.DoubleValue
0.000

@<SCITEGIC>MOL_PROPERTY
Tether
SciTegic.value.DoubleValue
0.000

@<TRIPOS>MOLECULE
guest-s9_confgen4.mol2 : confsearch ligand conformer 345
          20          19           1
SMALL
USER_CHARGES
 
@<TRIPOS>ATOM
       1    C1      19.711859   21.703011   22.655072 C.3        1 MOL1        -0.2224
       2    H1      19.105666   22.588465   22.423726 H          1 MOL1         0.1052
       3    H2      19.548838   21.450671   23.710968 H          1 MOL1         0.1052
       4    H3      20.767584   21.976005   22.528233 H          1 MOL1         0.1052
       5    C2      19.327936   20.523503   21.735489 C.3        1 MOL1        -0.1209
       6    H4      19.468319   20.818240   20.685854 H          1 MOL1         0.1041
       7    H5      18.259575   20.296479   21.859550 H          1 MOL1         0.1041
       8    C3      20.166223   19.262112   22.038560 C.3        1 MOL1        -0.1274
       9    H6      21.232966   19.488437   21.910264 H          1 MOL1         0.1041
      10    H7      20.022972   18.971679   23.087313 H          1 MOL1         0.1041
      11    C4      19.776581   18.090147   21.114091 C.3        1 MOL1         0.0313
      12    H8      19.894077   18.404815   20.073967 H          1 MOL1         0.1015
      13    H9      18.727631   17.826558   21.270953 H          1 MOL1         0.1015
      14    N1      20.608777   16.832012   21.301986 N.4        1 MOL1        -0.4809
      15    H10     21.611584   17.047222   21.193187 H          1 MOL1         0.3726
      16    H11     20.398692   16.163050   20.544595 H          1 MOL1         0.3726
      17    C5      20.336390   16.183546   22.655061 C.3        1 MOL1        -0.0677
      18    H12     19.272687   15.948881   22.733633 H          1 MOL1         0.1026
      19    H13     20.922486   15.265450   22.736078 H          1 MOL1         0.1026
      20    H14     20.623549   16.872382   23.451887 H          1 MOL1         0.1026
@<TRIPOS>BOND
    1     1     2    1
    2     1     3    1
    3     1     4    1
    4     1     5    1
    5     5     6    1
    6     5     7    1
    7     5     8    1
    8     8     9    1
    9     8    10    1
   10     8    11    1
   11    11    12    1
   12    11    13    1
   13    11    14    1
   14    14    15    1
   15    14    16    1
   16    14    17    1
   17    17    18    1
   18    17    19    1
   19    17    20    1
@<TRIPOS>SUBSTRUCTURE
       1 MOL1            1 RESIDUE      1      MOL     
@<SCITEGIC>MOL_PROPERTY
VConf Rank
SciTegic.value.IntegerValue
345

@<SCITEGIC>MOL_PROPERTY
Conf_Id
SciTegic.value.IntegerValue
2

@<SCITEGIC>MOL_PROPERTY
Delta U+W
SciTegic.value.DoubleValue
0.069

@<SCITEGIC>MOL_PROPERTY
U+W
SciTegic.value.DoubleValue
15.407

@<SCITEGIC>MOL_PROPERTY
Grad RMS
SciTegic.value.DoubleValue
0.000000

@<SCITEGIC>MOL_PROPERTY
U
SciTegic.value.DoubleValue
69.657

@<SCITEGIC>MOL_PROPERTY
W
SciTegic.value.DoubleValue
-54.250

@<SCITEGIC>MOL_PROPERTY
W(PB)
SciTegic.value.DoubleValue
-56.176

@<SCITEGIC>MOL_PROPERTY
W(SA)
SciTegic.value.DoubleValue
1.926

@<SCITEGIC>MOL_PROPERTY
Valence
SciTegic.value.DoubleValue
1.137

@<SCITEGIC>MOL_PROPERTY
Coulomb
SciTegic.value.DoubleValue
68.383

@<SCITEGIC>MOL_PROPERTY
VdW
SciTegic.value.DoubleValue
0.138

@<SCITEGIC>MOL_PROPERTY
VdW6
SciTegic.value.DoubleValue
-3.703

@<SCITEGIC>MOL_PROPERTY
VdW12
SciTegic.value.DoubleValue
3.841

@<SCITEGIC>MOL_PROPERTY
Bond
SciTegic.value.DoubleValue
0.125

@<SCITEGIC>MOL_PROPERTY
Angle
SciTegic.value.DoubleValue
0.468

@<SCITEGIC>MOL_PROPERTY
Pdih
SciTegic.value.DoubleValue
0.543

@<SCITEGIC>MOL_PROPERTY
Idih
SciTegic.value.DoubleValue
0.000

@<SCITEGIC>MOL_PROPERTY
Tether
SciTegic.value.DoubleValue
0.000

@<TRIPOS>MOLECULE
guest-s9_confgen4.mol2 : confsearch ligand conformer 346
          20          19           1
SMALL
USER_CHARGES
 
@<TRIPOS>ATOM
       1    C1      17.369575   18.994047   21.868561 C.3        1 MOL1        -0.2224
       2    H1      17.687917   17.968516   21.642713 H          1 MOL1         0.1052
       3    H2      17.196863   19.069257   22.950048 H          1 MOL1         0.1052
       4    H3      16.408967   19.160570   21.364088 H          1 MOL1         0.1052
       5    C2      18.415627   20.030893   21.398439 C.3        1 MOL1        -0.1209
       6    H4      18.015445   21.041881   21.558973 H          1 MOL1         0.1041
       7    H5      18.574170   19.930213   20.315419 H          1 MOL1         0.1041
       8    C3      19.768344   19.902887   22.137323 C.3        1 MOL1        -0.1274
       9    H6      20.432145   20.714302   21.810472 H          1 MOL1         0.1041
      10    H7      19.612844   20.038554   23.215877 H          1 MOL1         0.1041
      11    C4      20.459719   18.549706   21.880132 C.3        1 MOL1         0.0313
      12    H8      20.616562   18.415944   20.806875 H          1 MOL1         0.1015
      13    H9      19.823441   17.736982   22.238457 H          1 MOL1         0.1015
      14    N1      21.805118   18.421074   22.567027 N.4        1 MOL1        -0.4809
      15    H10     21.699662   18.551302   23.584872 H          1 MOL1         0.3726
      16    H11     22.436456   19.176552   22.259181 H          1 MOL1         0.3726
      17    C5      22.415112   17.059098   22.263680 C.3        1 MOL1        -0.0677
      18    H12     22.549221   16.957077   21.184602 H          1 MOL1         0.1026
      19    H13     23.382827   16.979956   22.763948 H          1 MOL1         0.1026
      20    H14     21.746965   16.276086   22.628745 H          1 MOL1         0.1026
@<TRIPOS>BOND
    1     1     2    1
    2     1     3    1
    3     1     4    1
    4     1     5    1
    5     5     6    1
    6     5     7    1
    7     5     8    1
    8     8     9    1
    9     8    10    1
   10     8    11    1
   11    11    12    1
   12    11    13    1
   13    11    14    1
   14    14    15    1
   15    14    16    1
   16    14    17    1
   17    17    18    1
   18    17    19    1
   19    17    20    1
@<TRIPOS>SUBSTRUCTURE
       1 MOL1            1 RESIDUE      1      MOL     
@<SCITEGIC>MOL_PROPERTY
VConf Rank
SciTegic.value.IntegerValue
346

@<SCITEGIC>MOL_PROPERTY
Conf_Id
SciTegic.value.IntegerValue
34

@<SCITEGIC>MOL_PROPERTY
Delta U+W
SciTegic.value.DoubleValue
0.276

@<SCITEGIC>MOL_PROPERTY
U+W
SciTegic.value.DoubleValue
15.615

@<SCITEGIC>MOL_PROPERTY
Grad RMS
SciTegic.value.DoubleValue
0.000000

@<SCITEGIC>MOL_PROPERTY
U
SciTegic.value.DoubleValue
69.798

@<SCITEGIC>MOL_PROPERTY
W
SciTegic.value.DoubleValue
-54.184

@<SCITEGIC>MOL_PROPERTY
W(PB)
SciTegic.value.DoubleValue
-56.116

@<SCITEGIC>MOL_PROPERTY
W(SA)
SciTegic.value.DoubleValue
1.933

@<SCITEGIC>MOL_PROPERTY
Valence
SciTegic.value.DoubleValue
1.134

@<SCITEGIC>MOL_PROPERTY
Coulomb
SciTegic.value.DoubleValue
68.735

@<SCITEGIC>MOL_PROPERTY
VdW
SciTegic.value.DoubleValue
-0.070

@<SCITEGIC>MOL_PROPERTY
VdW6
SciTegic.value.DoubleValue
-3.565

@<SCITEGIC>MOL_PROPERTY
VdW12
SciTegic.value.DoubleValue
3.494

@<SCITEGIC>MOL_PROPERTY
Bond
SciTegic.value.DoubleValue
0.108

@<SCITEGIC>MOL_PROPERTY
Angle
SciTegic.value.DoubleValue
0.456

@<SCITEGIC>MOL_PROPERTY
Pdih
SciTegic.value.DoubleValue
0.569

@<SCITEGIC>MOL_PROPERTY
Idih
SciTegic.value.DoubleValue
0.000

@<SCITEGIC>MOL_PROPERTY
Tether
SciTegic.value.DoubleValue
0.000

@<TRIPOS>MOLECULE
guest-s9_confgen4.mol2 : confsearch ligand conformer 347
          20          19           1
SMALL
USER_CHARGES
 
@<TRIPOS>ATOM
       1    C1      19.254312   16.327471   23.590378 C.3        1 MOL1        -0.2224
       2    H1      19.815693   16.318702   24.533747 H          1 MOL1         0.1052
       3    H2      18.224358   16.017415   23.809664 H          1 MOL1         0.1052
       4    H3      19.696528   15.576428   22.922875 H          1 MOL1         0.1052
       5    C2      19.276127   17.728869   22.942588 C.3        1 MOL1        -0.1209
       6    H4      18.799012   18.450811   23.620441 H          1 MOL1         0.1041
       7    H5      18.672819   17.709118   22.024914 H          1 MOL1         0.1041
       8    C3      20.717996   18.189264   22.622844 C.3        1 MOL1        -0.1274
       9    H6      21.318297   18.166282   23.542079 H          1 MOL1         0.1041
      10    H7      21.191431   17.487347   21.923538 H          1 MOL1         0.1041
      11    C4      20.775108   19.615508   22.039658 C.3        1 MOL1         0.0313
      12    H8      21.819361   19.915229   21.919985 H          1 MOL1         0.1015
      13    H9      20.297976   20.314510   22.731162 H          1 MOL1         0.1015
      14    N1      20.100639   19.758950   20.688214 N.4        1 MOL1        -0.4809
      15    H10     19.108656   19.487075   20.755357 H          1 MOL1         0.3726
      16    H11     20.519979   19.104171   20.010376 H          1 MOL1         0.3726
      17    C5      20.227594   21.193605   20.193757 C.3        1 MOL1        -0.0677
      18    H12     19.748433   21.864808   20.909774 H          1 MOL1         0.1026
      19    H13     21.285161   21.449051   20.098439 H          1 MOL1         0.1026
      20    H14     19.738365   21.282682   19.221280 H          1 MOL1         0.1026
@<TRIPOS>BOND
    1     1     2    1
    2     1     3    1
    3     1     4    1
    4     1     5    1
    5     5     6    1
    6     5     7    1
    7     5     8    1
    8     8     9    1
    9     8    10    1
   10     8    11    1
   11    11    12    1
   12    11    13    1
   13    11    14    1
   14    14    15    1
   15    14    16    1
   16    14    17    1
   17    17    18    1
   18    17    19    1
   19    17    20    1
@<TRIPOS>SUBSTRUCTURE
       1 MOL1            1 RESIDUE      1      MOL     
@<SCITEGIC>MOL_PROPERTY
VConf Rank
SciTegic.value.IntegerValue
347

@<SCITEGIC>MOL_PROPERTY
Conf_Id
SciTegic.value.IntegerValue
50

@<SCITEGIC>MOL_PROPERTY
Delta U+W
SciTegic.value.DoubleValue
0.319

@<SCITEGIC>MOL_PROPERTY
U+W
SciTegic.value.DoubleValue
15.657

@<SCITEGIC>MOL_PROPERTY
Grad RMS
SciTegic.value.DoubleValue
0.000000

@<SCITEGIC>MOL_PROPERTY
U
SciTegic.value.DoubleValue
69.962

@<SCITEGIC>MOL_PROPERTY
W
SciTegic.value.DoubleValue
-54.305

@<SCITEGIC>MOL_PROPERTY
W(PB)
SciTegic.value.DoubleValue
-56.223

@<SCITEGIC>MOL_PROPERTY
W(SA)
SciTegic.value.DoubleValue
1.918

@<SCITEGIC>MOL_PROPERTY
Valence
SciTegic.value.DoubleValue
0.982

@<SCITEGIC>MOL_PROPERTY
Coulomb
SciTegic.value.DoubleValue
69.058

@<SCITEGIC>MOL_PROPERTY
VdW
SciTegic.value.DoubleValue
-0.078

@<SCITEGIC>MOL_PROPERTY
VdW6
SciTegic.value.DoubleValue
-3.548

@<SCITEGIC>MOL_PROPERTY
VdW12
SciTegic.value.DoubleValue
3.471

@<SCITEGIC>MOL_PROPERTY
Bond
SciTegic.value.DoubleValue
0.105

@<SCITEGIC>MOL_PROPERTY
Angle
SciTegic.value.DoubleValue
0.408

@<SCITEGIC>MOL_PROPERTY
Pdih
SciTegic.value.DoubleValue
0.469

@<SCITEGIC>MOL_PROPERTY
Idih
SciTegic.value.DoubleValue
0.000

@<SCITEGIC>MOL_PROPERTY
Tether
SciTegic.value.DoubleValue
0.000

@<TRIPOS>MOLECULE
guest-s9_confgen4.mol2 : confsearch ligand conformer 348
          20          19           1
SMALL
USER_CHARGES
 
@<TRIPOS>ATOM
       1    C1      19.839521   16.274488   23.615268 C.3        1 MOL1        -0.2224
       2    H1      19.332333   16.182634   24.584469 H          1 MOL1         0.1052
       3    H2      19.462483   15.476801   22.962039 H          1 MOL1         0.1052
       4    H3      20.911444   16.103444   23.779300 H          1 MOL1         0.1052
       5    C2      19.586776   17.666509   22.996867 C.3        1 MOL1        -0.1209
       6    H4      19.939538   18.438161   23.694439 H          1 MOL1         0.1041
       7    H5      18.505142   17.819768   22.874786 H          1 MOL1         0.1041
       8    C3      20.292285   17.821788   21.628900 C.3        1 MOL1        -0.1274
       9    H6      21.376868   17.697840   21.747954 H          1 MOL1         0.1041
      10    H7      19.958835   17.020716   20.955865 H          1 MOL1         0.1041
      11    C4      19.999078   19.177322   20.955030 C.3        1 MOL1         0.0313
      12    H8      18.919615   19.305518   20.842066 H          1 MOL1         0.1015
      13    H9      20.449004   19.190350   19.959030 H          1 MOL1         0.1015
      14    N1      20.536537   20.375377   21.715091 N.4        1 MOL1        -0.4809
      15    H10     21.555059   20.283138   21.849827 H          1 MOL1         0.3726
      16    H11     20.135221   20.403506   22.664094 H          1 MOL1         0.3726
      17    C5      20.211463   21.657721   20.960929 C.3        1 MOL1        -0.0677
      18    H12     20.603411   22.511212   21.518533 H          1 MOL1         0.1026
      19    H13     20.673629   21.620574   19.972088 H          1 MOL1         0.1026
      20    H14     19.128041   21.750624   20.859161 H          1 MOL1         0.1026
@<TRIPOS>BOND
    1     1     2    1
    2     1     3    1
    3     1     4    1
    4     1     5    1
    5     5     6    1
    6     5     7    1
    7     5     8    1
    8     8     9    1
    9     8    10    1
   10     8    11    1
   11    11    12    1
   12    11    13    1
   13    11    14    1
   14    14    15    1
   15    14    16    1
   16    14    17    1
   17    17    18    1
   18    17    19    1
   19    17    20    1
@<TRIPOS>SUBSTRUCTURE
       1 MOL1            1 RESIDUE      1      MOL     
@<SCITEGIC>MOL_PROPERTY
VConf Rank
SciTegic.value.IntegerValue
348

@<SCITEGIC>MOL_PROPERTY
Conf_Id
SciTegic.value.IntegerValue
35

@<SCITEGIC>MOL_PROPERTY
Delta U+W
SciTegic.value.DoubleValue
0.360

@<SCITEGIC>MOL_PROPERTY
U+W
SciTegic.value.DoubleValue
15.698

@<SCITEGIC>MOL_PROPERTY
Grad RMS
SciTegic.value.DoubleValue
0.000000

@<SCITEGIC>MOL_PROPERTY
U
SciTegic.value.DoubleValue
69.962

@<SCITEGIC>MOL_PROPERTY
W
SciTegic.value.DoubleValue
-54.264

@<SCITEGIC>MOL_PROPERTY
W(PB)
SciTegic.value.DoubleValue
-56.166

@<SCITEGIC>MOL_PROPERTY
W(SA)
SciTegic.value.DoubleValue
1.902

@<SCITEGIC>MOL_PROPERTY
Valence
SciTegic.value.DoubleValue
0.982

@<SCITEGIC>MOL_PROPERTY
Coulomb
SciTegic.value.DoubleValue
69.058

@<SCITEGIC>MOL_PROPERTY
VdW
SciTegic.value.DoubleValue
-0.078

@<SCITEGIC>MOL_PROPERTY
VdW6
SciTegic.value.DoubleValue
-3.548

@<SCITEGIC>MOL_PROPERTY
VdW12
SciTegic.value.DoubleValue
3.471

@<SCITEGIC>MOL_PROPERTY
Bond
SciTegic.value.DoubleValue
0.105

@<SCITEGIC>MOL_PROPERTY
Angle
SciTegic.value.DoubleValue
0.408

@<SCITEGIC>MOL_PROPERTY
Pdih
SciTegic.value.DoubleValue
0.469

@<SCITEGIC>MOL_PROPERTY
Idih
SciTegic.value.DoubleValue
0.000

@<SCITEGIC>MOL_PROPERTY
Tether
SciTegic.value.DoubleValue
0.000

@<TRIPOS>MOLECULE
guest-s9_confgen4.mol2 : confsearch ligand conformer 349
          20          19           1
SMALL
USER_CHARGES
 
@<TRIPOS>ATOM
       1    C1      18.772027   19.235975   24.183277 C.3        1 MOL1        -0.2224
       2    H1      19.326858   18.314716   24.401256 H          1 MOL1         0.1052
       3    H2      18.492447   19.688706   25.143404 H          1 MOL1         0.1052
       4    H3      17.846461   18.962995   23.659920 H          1 MOL1         0.1052
       5    C2      19.615776   20.222640   23.343760 C.3        1 MOL1        -0.1209
       6    H4      20.537328   20.475315   23.886958 H          1 MOL1         0.1041
       7    H5      19.058279   21.162718   23.227839 H          1 MOL1         0.1041
       8    C3      19.970623   19.672694   21.942505 C.3        1 MOL1        -0.1274
       9    H6      19.046242   19.457536   21.391200 H          1 MOL1         0.1041
      10    H7      20.500497   20.450384   21.376866 H          1 MOL1         0.1041
      11    C4      20.852074   18.406932   22.008519 C.3        1 MOL1         0.0313
      12    H8      20.310203   17.602047   22.510805 H          1 MOL1         0.1015
      13    H9      21.747814   18.628966   22.594112 H          1 MOL1         0.1015
      14    N1      21.312449   17.885784   20.656907 N.4        1 MOL1        -0.4809
      15    H10     22.021474   17.148478   20.794279 H          1 MOL1         0.3726
      16    H11     21.801906   18.628700   20.135153 H          1 MOL1         0.3726
      17    C5      20.142880   17.334743   19.848311 C.3        1 MOL1        -0.0677
      18    H12     19.428752   18.136564   19.650840 H          1 MOL1         0.1026
      19    H13     20.517720   16.937233   18.902561 H          1 MOL1         0.1026
      20    H14     19.657452   16.537752   20.415638 H          1 MOL1         0.1026
@<TRIPOS>BOND
    1     1     2    1
    2     1     3    1
    3     1     4    1
    4     1     5    1
    5     5     6    1
    6     5     7    1
    7     5     8    1
    8     8     9    1
    9     8    10    1
   10     8    11    1
   11    11    12    1
   12    11    13    1
   13    11    14    1
   14    14    15    1
   15    14    16    1
   16    14    17    1
   17    17    18    1
   18    17    19    1
   19    17    20    1
@<TRIPOS>SUBSTRUCTURE
       1 MOL1            1 RESIDUE      1      MOL     
@<SCITEGIC>MOL_PROPERTY
VConf Rank
SciTegic.value.IntegerValue
349

@<SCITEGIC>MOL_PROPERTY
Conf_Id
SciTegic.value.IntegerValue
33

@<SCITEGIC>MOL_PROPERTY
Delta U+W
SciTegic.value.DoubleValue
0.372

@<SCITEGIC>MOL_PROPERTY
U+W
SciTegic.value.DoubleValue
15.711

@<SCITEGIC>MOL_PROPERTY
Grad RMS
SciTegic.value.DoubleValue
0.000000

@<SCITEGIC>MOL_PROPERTY
U
SciTegic.value.DoubleValue
70.163

@<SCITEGIC>MOL_PROPERTY
W
SciTegic.value.DoubleValue
-54.452

@<SCITEGIC>MOL_PROPERTY
W(PB)
SciTegic.value.DoubleValue
-56.363

@<SCITEGIC>MOL_PROPERTY
W(SA)
SciTegic.value.DoubleValue
1.911

@<SCITEGIC>MOL_PROPERTY
Valence
SciTegic.value.DoubleValue
1.420

@<SCITEGIC>MOL_PROPERTY
Coulomb
SciTegic.value.DoubleValue
68.566

@<SCITEGIC>MOL_PROPERTY
VdW
SciTegic.value.DoubleValue
0.177

@<SCITEGIC>MOL_PROPERTY
VdW6
SciTegic.value.DoubleValue
-4.267

@<SCITEGIC>MOL_PROPERTY
VdW12
SciTegic.value.DoubleValue
4.445

@<SCITEGIC>MOL_PROPERTY
Bond
SciTegic.value.DoubleValue
0.146

@<SCITEGIC>MOL_PROPERTY
Angle
SciTegic.value.DoubleValue
0.581

@<SCITEGIC>MOL_PROPERTY
Pdih
SciTegic.value.DoubleValue
0.693

@<SCITEGIC>MOL_PROPERTY
Idih
SciTegic.value.DoubleValue
0.000

@<SCITEGIC>MOL_PROPERTY
Tether
SciTegic.value.DoubleValue
0.000

@<TRIPOS>MOLECULE
guest-s9_confgen4.mol2 : confsearch ligand conformer 350
          20          19           1
SMALL
USER_CHARGES
 
@<TRIPOS>ATOM
       1    C1      19.746751   21.046841   20.775221 C.3        1 MOL1        -0.2224
       2    H1      19.320444   22.018243   20.493064 H          1 MOL1         0.1052
       3    H2      20.615637   21.240879   21.416668 H          1 MOL1         0.1052
       4    H3      20.100066   20.557443   19.858295 H          1 MOL1         0.1052
       5    C2      18.689610   20.179775   21.496928 C.3        1 MOL1        -0.1209
       6    H4      17.802230   20.087875   20.854980 H          1 MOL1         0.1041
       7    H5      18.356855   20.689093   22.412371 H          1 MOL1         0.1041
       8    C3      19.206108   18.764425   21.846063 C.3        1 MOL1        -0.1274
       9    H6      18.384761   18.182019   22.283908 H          1 MOL1         0.1041
      10    H7      19.501789   18.247265   20.924202 H          1 MOL1         0.1041
      11    C4      20.389344   18.793291   22.837316 C.3        1 MOL1         0.0313
      12    H8      20.089240   19.345600   23.731442 H          1 MOL1         0.1015
      13    H9      21.238751   19.312966   22.387648 H          1 MOL1         0.1015
      14    N1      20.868103   17.423713   23.290578 N.4        1 MOL1        -0.4809
      15    H10     20.085031   16.886304   23.692707 H          1 MOL1         0.3726
      16    H11     21.540033   17.532055   24.066451 H          1 MOL1         0.3726
      17    C5      21.520221   16.657845   22.144473 C.3        1 MOL1        -0.0677
      18    H12     21.883316   15.697454   22.516994 H          1 MOL1         0.1026
      19    H13     20.784497   16.489823   21.355571 H          1 MOL1         0.1026
      20    H14     22.356794   17.240480   21.752835 H          1 MOL1         0.1026
@<TRIPOS>BOND
    1     1     2    1
    2     1     3    1
    3     1     4    1
    4     1     5    1
    5     5     6    1
    6     5     7    1
    7     5     8    1
    8     8     9    1
    9     8    10    1
   10     8    11    1
   11    11    12    1
   12    11    13    1
   13    11    14    1
   14    14    15    1
   15    14    16    1
   16    14    17    1
   17    17    18    1
   18    17    19    1
   19    17    20    1
@<TRIPOS>SUBSTRUCTURE
       1 MOL1            1 RESIDUE      1      MOL     
@<SCITEGIC>MOL_PROPERTY
VConf Rank
SciTegic.value.IntegerValue
350

@<SCITEGIC>MOL_PROPERTY
Conf_Id
SciTegic.value.IntegerValue
53

@<SCITEGIC>MOL_PROPERTY
Delta U+W
SciTegic.value.DoubleValue
0.379

@<SCITEGIC>MOL_PROPERTY
U+W
SciTegic.value.DoubleValue
15.717

@<SCITEGIC>MOL_PROPERTY
Grad RMS
SciTegic.value.DoubleValue
0.000000

@<SCITEGIC>MOL_PROPERTY
U
SciTegic.value.DoubleValue
70.163

@<SCITEGIC>MOL_PROPERTY
W
SciTegic.value.DoubleValue
-54.446

@<SCITEGIC>MOL_PROPERTY
W(PB)
SciTegic.value.DoubleValue
-56.322

@<SCITEGIC>MOL_PROPERTY
W(SA)
SciTegic.value.DoubleValue
1.876

@<SCITEGIC>MOL_PROPERTY
Valence
SciTegic.value.DoubleValue
1.420

@<SCITEGIC>MOL_PROPERTY
Coulomb
SciTegic.value.DoubleValue
68.566

@<SCITEGIC>MOL_PROPERTY
VdW
SciTegic.value.DoubleValue
0.177

@<SCITEGIC>MOL_PROPERTY
VdW6
SciTegic.value.DoubleValue
-4.267

@<SCITEGIC>MOL_PROPERTY
VdW12
SciTegic.value.DoubleValue
4.445

@<SCITEGIC>MOL_PROPERTY
Bond
SciTegic.value.DoubleValue
0.146

@<SCITEGIC>MOL_PROPERTY
Angle
SciTegic.value.DoubleValue
0.581

@<SCITEGIC>MOL_PROPERTY
Pdih
SciTegic.value.DoubleValue
0.693

@<SCITEGIC>MOL_PROPERTY
Idih
SciTegic.value.DoubleValue
0.000

@<SCITEGIC>MOL_PROPERTY
Tether
SciTegic.value.DoubleValue
0.000

@<TRIPOS>MOLECULE
guest-s9_confgen4.mol2 : confsearch ligand conformer 351
          20          19           1
SMALL
USER_CHARGES
 
@<TRIPOS>ATOM
       1    C1      17.595967   19.134761   20.808876 C.3        1 MOL1        -0.2224
       2    H1      16.827345   18.364749   20.662927 H          1 MOL1         0.1052
       3    H2      17.093525   20.051700   21.143424 H          1 MOL1         0.1052
       4    H3      18.059897   19.335595   19.834403 H          1 MOL1         0.1052
       5    C2      18.646957   18.668246   21.839287 C.3        1 MOL1        -0.1209
       6    H4      19.099764   17.730383   21.489950 H          1 MOL1         0.1041
       7    H5      18.148324   18.445003   22.793074 H          1 MOL1         0.1041
       8    C3      19.743889   19.735926   22.061820 C.3        1 MOL1        -0.1274
       9    H6      20.263601   19.942993   21.117487 H          1 MOL1         0.1041
      10    H7      19.274335   20.680084   22.367976 H          1 MOL1         0.1041
      11    C4      20.766896   19.329216   23.145657 C.3        1 MOL1         0.0313
      12    H8      20.241045   19.182907   24.092601 H          1 MOL1         0.1015
      13    H9      21.489712   20.136929   23.285766 H          1 MOL1         0.1015
      14    N1      21.549491   18.056446   22.858895 N.4        1 MOL1        -0.4809
      15    H10     20.903638   17.266122   22.716441 H          1 MOL1         0.3726
      16    H11     22.105143   17.798700   23.689582 H          1 MOL1         0.3726
      17    C5      22.468036   18.229699   21.654241 C.3        1 MOL1        -0.0677
      18    H12     23.152877   19.059647   21.840890 H          1 MOL1         0.1026
      19    H13     23.037233   17.309879   21.502986 H          1 MOL1         0.1026
      20    H14     21.866375   18.438118   20.767348 H          1 MOL1         0.1026
@<TRIPOS>BOND
    1     1     2    1
    2     1     3    1
    3     1     4    1
    4     1     5    1
    5     5     6    1
    6     5     7    1
    7     5     8    1
    8     8     9    1
    9     8    10    1
   10     8    11    1
   11    11    12    1
   12    11    13    1
   13    11    14    1
   14    14    15    1
   15    14    16    1
   16    14    17    1
   17    17    18    1
   18    17    19    1
   19    17    20    1
@<TRIPOS>SUBSTRUCTURE
       1 MOL1            1 RESIDUE      1      MOL     
@<SCITEGIC>MOL_PROPERTY
VConf Rank
SciTegic.value.IntegerValue
351

@<SCITEGIC>MOL_PROPERTY
Conf_Id
SciTegic.value.IntegerValue
49

@<SCITEGIC>MOL_PROPERTY
Delta U+W
SciTegic.value.DoubleValue
0.268

@<SCITEGIC>MOL_PROPERTY
U+W
SciTegic.value.DoubleValue
15.607

@<SCITEGIC>MOL_PROPERTY
Grad RMS
SciTegic.value.DoubleValue
0.000000

@<SCITEGIC>MOL_PROPERTY
U
SciTegic.value.DoubleValue
70.298

@<SCITEGIC>MOL_PROPERTY
W
SciTegic.value.DoubleValue
-54.692

@<SCITEGIC>MOL_PROPERTY
W(PB)
SciTegic.value.DoubleValue
-56.576

@<SCITEGIC>MOL_PROPERTY
W(SA)
SciTegic.value.DoubleValue
1.885

@<SCITEGIC>MOL_PROPERTY
Valence
SciTegic.value.DoubleValue
1.245

@<SCITEGIC>MOL_PROPERTY
Coulomb
SciTegic.value.DoubleValue
68.933

@<SCITEGIC>MOL_PROPERTY
VdW
SciTegic.value.DoubleValue
0.120

@<SCITEGIC>MOL_PROPERTY
VdW6
SciTegic.value.DoubleValue
-4.430

@<SCITEGIC>MOL_PROPERTY
VdW12
SciTegic.value.DoubleValue
4.550

@<SCITEGIC>MOL_PROPERTY
Bond
SciTegic.value.DoubleValue
0.148

@<SCITEGIC>MOL_PROPERTY
Angle
SciTegic.value.DoubleValue
0.587

@<SCITEGIC>MOL_PROPERTY
Pdih
SciTegic.value.DoubleValue
0.509

@<SCITEGIC>MOL_PROPERTY
Idih
SciTegic.value.DoubleValue
0.000

@<SCITEGIC>MOL_PROPERTY
Tether
SciTegic.value.DoubleValue
0.000

@<TRIPOS>MOLECULE
guest-s9_confgen4.mol2 : confsearch ligand conformer 352
          20          19           1
SMALL
USER_CHARGES
 
@<TRIPOS>ATOM
       1    C1      17.476502   17.992155   22.679012 C.3        1 MOL1        -0.2224
       2    H1      16.873202   18.744738   22.154780 H          1 MOL1         0.1052
       3    H2      17.235142   17.007328   22.258297 H          1 MOL1         0.1052
       4    H3      17.170547   17.990855   23.733236 H          1 MOL1         0.1052
       5    C2      18.984187   18.299228   22.548930 C.3        1 MOL1        -0.1209
       6    H4      19.559673   17.546540   23.105947 H          1 MOL1         0.1041
       7    H5      19.188977   19.271756   23.015619 H          1 MOL1         0.1041
       8    C3      19.439427   18.317876   21.071083 C.3        1 MOL1        -0.1274
       9    H6      19.123672   17.384144   20.587141 H          1 MOL1         0.1041
      10    H7      18.929552   19.129573   20.535611 H          1 MOL1         0.1041
      11    C4      20.966953   18.458317   20.881949 C.3        1 MOL1         0.0313
      12    H8      21.180972   18.394667   19.811954 H          1 MOL1         0.1015
      13    H9      21.488245   17.632975   21.373237 H          1 MOL1         0.1015
      14    N1      21.573050   19.764333   21.372081 N.4        1 MOL1        -0.4809
      15    H10     20.901417   20.538044   21.257538 H          1 MOL1         0.3726
      16    H11     22.371291   20.016600   20.768607 H          1 MOL1         0.3726
      17    C5      22.052417   19.649506   22.815573 C.3        1 MOL1        -0.0677
      18    H12     22.500063   20.598292   23.119510 H          1 MOL1         0.1026
      19    H13     21.209554   19.417598   23.467577 H          1 MOL1         0.1026
      20    H14     22.798393   18.854702   22.882610 H          1 MOL1         0.1026
@<TRIPOS>BOND
    1     1     2    1
    2     1     3    1
    3     1     4    1
    4     1     5    1
    5     5     6    1
    6     5     7    1
    7     5     8    1
    8     8     9    1
    9     8    10    1
   10     8    11    1
   11    11    12    1
   12    11    13    1
   13    11    14    1
   14    14    15    1
   15    14    16    1
   16    14    17    1
   17    17    18    1
   18    17    19    1
   19    17    20    1
@<TRIPOS>SUBSTRUCTURE
       1 MOL1            1 RESIDUE      1      MOL     
@<SCITEGIC>MOL_PROPERTY
VConf Rank
SciTegic.value.IntegerValue
352

@<SCITEGIC>MOL_PROPERTY
Conf_Id
SciTegic.value.IntegerValue
65

@<SCITEGIC>MOL_PROPERTY
Delta U+W
SciTegic.value.DoubleValue
1.775

@<SCITEGIC>MOL_PROPERTY
U+W
SciTegic.value.DoubleValue
17.114

@<SCITEGIC>MOL_PROPERTY
Grad RMS
SciTegic.value.DoubleValue
0.000000

@<SCITEGIC>MOL_PROPERTY
U
SciTegic.value.DoubleValue
71.726

@<SCITEGIC>MOL_PROPERTY
W
SciTegic.value.DoubleValue
-54.613

@<SCITEGIC>MOL_PROPERTY
W(PB)
SciTegic.value.DoubleValue
-56.495

@<SCITEGIC>MOL_PROPERTY
W(SA)
SciTegic.value.DoubleValue
1.883

@<SCITEGIC>MOL_PROPERTY
Valence
SciTegic.value.DoubleValue
2.885

@<SCITEGIC>MOL_PROPERTY
Coulomb
SciTegic.value.DoubleValue
68.822

@<SCITEGIC>MOL_PROPERTY
VdW
SciTegic.value.DoubleValue
0.019

@<SCITEGIC>MOL_PROPERTY
VdW6
SciTegic.value.DoubleValue
-4.600

@<SCITEGIC>MOL_PROPERTY
VdW12
SciTegic.value.DoubleValue
4.619

@<SCITEGIC>MOL_PROPERTY
Bond
SciTegic.value.DoubleValue
0.152

@<SCITEGIC>MOL_PROPERTY
Angle
SciTegic.value.DoubleValue
0.862

@<SCITEGIC>MOL_PROPERTY
Pdih
SciTegic.value.DoubleValue
1.871

@<SCITEGIC>MOL_PROPERTY
Idih
SciTegic.value.DoubleValue
0.000

@<SCITEGIC>MOL_PROPERTY
Tether
SciTegic.value.DoubleValue
0.000

@<TRIPOS>MOLECULE
guest-s9_confgen4.mol2 : confsearch ligand conformer 353
          20          19           1
SMALL
USER_CHARGES
 
@<TRIPOS>ATOM
       1    C1      21.285628   18.038533   23.954199 C.3        1 MOL1        -0.2224
       2    H1      21.823136   18.019258   22.997791 H          1 MOL1         0.1052
       3    H2      21.980494   18.414156   24.716464 H          1 MOL1         0.1052
       4    H3      21.023286   17.006404   24.220579 H          1 MOL1         0.1052
       5    C2      20.025546   18.931371   23.882058 C.3        1 MOL1        -0.1209
       6    H4      20.313962   19.957154   23.615234 H          1 MOL1         0.1041
       7    H5      19.575023   18.994540   24.882580 H          1 MOL1         0.1041
       8    C3      18.961413   18.400827   22.889012 C.3        1 MOL1        -0.1274
       9    H6      18.609137   17.417858   23.228778 H          1 MOL1         0.1041
      10    H7      18.084834   19.061935   22.906062 H          1 MOL1         0.1041
      11    C4      19.468254   18.267638   21.437689 C.3        1 MOL1         0.0313
      12    H8      18.670725   17.859770   20.811484 H          1 MOL1         0.1015
      13    H9      20.312327   17.574653   21.404837 H          1 MOL1         0.1015
      14    N1      19.914591   19.578195   20.818150 N.4        1 MOL1        -0.4809
      15    H10     20.664274   19.999403   21.386525 H          1 MOL1         0.3726
      16    H11     19.140926   20.260193   20.832968 H          1 MOL1         0.3726
      17    C5      20.393577   19.343013   19.392044 C.3        1 MOL1        -0.0677
      18    H12     19.574659   18.926352   18.801679 H          1 MOL1         0.1026
      19    H13     20.712694   20.293714   18.959260 H          1 MOL1         0.1026
      20    H14     21.232736   18.644150   19.404844 H          1 MOL1         0.1026
@<TRIPOS>BOND
    1     1     2    1
    2     1     3    1
    3     1     4    1
    4     1     5    1
    5     5     6    1
    6     5     7    1
    7     5     8    1
    8     8     9    1
    9     8    10    1
   10     8    11    1
   11    11    12    1
   12    11    13    1
   13    11    14    1
   14    14    15    1
   15    14    16    1
   16    14    17    1
   17    17    18    1
   18    17    19    1
   19    17    20    1
@<TRIPOS>SUBSTRUCTURE
       1 MOL1            1 RESIDUE      1      MOL     
@<SCITEGIC>MOL_PROPERTY
VConf Rank
SciTegic.value.IntegerValue
353

@<SCITEGIC>MOL_PROPERTY
Conf_Id
SciTegic.value.IntegerValue
23

@<SCITEGIC>MOL_PROPERTY
Delta U+W
SciTegic.value.DoubleValue
0.896

@<SCITEGIC>MOL_PROPERTY
U+W
SciTegic.value.DoubleValue
16.234

@<SCITEGIC>MOL_PROPERTY
Grad RMS
SciTegic.value.DoubleValue
0.000000

@<SCITEGIC>MOL_PROPERTY
U
SciTegic.value.DoubleValue
70.374

@<SCITEGIC>MOL_PROPERTY
W
SciTegic.value.DoubleValue
-54.140

@<SCITEGIC>MOL_PROPERTY
W(PB)
SciTegic.value.DoubleValue
-56.046

@<SCITEGIC>MOL_PROPERTY
W(SA)
SciTegic.value.DoubleValue
1.907

@<SCITEGIC>MOL_PROPERTY
Valence
SciTegic.value.DoubleValue
1.257

@<SCITEGIC>MOL_PROPERTY
Coulomb
SciTegic.value.DoubleValue
69.240

@<SCITEGIC>MOL_PROPERTY
VdW
SciTegic.value.DoubleValue
-0.123

@<SCITEGIC>MOL_PROPERTY
VdW6
SciTegic.value.DoubleValue
-4.336

@<SCITEGIC>MOL_PROPERTY
VdW12
SciTegic.value.DoubleValue
4.213

@<SCITEGIC>MOL_PROPERTY
Bond
SciTegic.value.DoubleValue
0.128

@<SCITEGIC>MOL_PROPERTY
Angle
SciTegic.value.DoubleValue
0.603

@<SCITEGIC>MOL_PROPERTY
Pdih
SciTegic.value.DoubleValue
0.526

@<SCITEGIC>MOL_PROPERTY
Idih
SciTegic.value.DoubleValue
0.000

@<SCITEGIC>MOL_PROPERTY
Tether
SciTegic.value.DoubleValue
0.000

@<TRIPOS>MOLECULE
guest-s9_confgen4.mol2 : confsearch ligand conformer 354
          20          19           1
SMALL
USER_CHARGES
 
@<TRIPOS>ATOM
       1    C1      19.897190   21.128763   22.310715 C.3        1 MOL1        -0.2224
       2    H1      19.154712   21.363031   23.084612 H          1 MOL1         0.1052
       3    H2      20.332097   22.076237   21.967020 H          1 MOL1         0.1052
       4    H3      19.373135   20.677408   21.458865 H          1 MOL1         0.1052
       5    C2      20.998979   20.194816   22.862054 C.3        1 MOL1        -0.1209
       6    H4      21.555293   20.724299   23.648291 H          1 MOL1         0.1041
       7    H5      21.728634   19.976247   22.070574 H          1 MOL1         0.1041
       8    C3      20.438597   18.875758   23.450318 C.3        1 MOL1        -0.1274
       9    H6      21.265975   18.273108   23.847813 H          1 MOL1         0.1041
      10    H7      19.791697   19.108655   24.306499 H          1 MOL1         0.1041
      11    C4      19.634185   18.030062   22.441017 C.3        1 MOL1         0.0313
      12    H8      18.781315   18.606659   22.075072 H          1 MOL1         0.1015
      13    H9      19.249899   17.137571   22.941338 H          1 MOL1         0.1015
      14    N1      20.439780   17.572944   21.239907 N.4        1 MOL1        -0.4809
      15    H10     21.257109   17.024299   21.547898 H          1 MOL1         0.3726
      16    H11     20.826889   18.389364   20.743826 H          1 MOL1         0.3726
      17    C5      19.562059   16.748526   20.307993 C.3        1 MOL1        -0.0677
      18    H12     18.722707   17.359876   19.969615 H          1 MOL1         0.1026
      19    H13     20.154028   16.427494   19.448062 H          1 MOL1         0.1026
      20    H14     19.189191   15.873845   20.845272 H          1 MOL1         0.1026
@<TRIPOS>BOND
    1     1     2    1
    2     1     3    1
    3     1     4    1
    4     1     5    1
    5     5     6    1
    6     5     7    1
    7     5     8    1
    8     8     9    1
    9     8    10    1
   10     8    11    1
   11    11    12    1
   12    11    13    1
   13    11    14    1
   14    14    15    1
   15    14    16    1
   16    14    17    1
   17    17    18    1
   18    17    19    1
   19    17    20    1
@<TRIPOS>SUBSTRUCTURE
       1 MOL1            1 RESIDUE      1      MOL     
@<SCITEGIC>MOL_PROPERTY
VConf Rank
SciTegic.value.IntegerValue
354

@<SCITEGIC>MOL_PROPERTY
Conf_Id
SciTegic.value.IntegerValue
24

@<SCITEGIC>MOL_PROPERTY
Delta U+W
SciTegic.value.DoubleValue
0.792

@<SCITEGIC>MOL_PROPERTY
U+W
SciTegic.value.DoubleValue
16.130

@<SCITEGIC>MOL_PROPERTY
Grad RMS
SciTegic.value.DoubleValue
0.000000

@<SCITEGIC>MOL_PROPERTY
U
SciTegic.value.DoubleValue
70.374

@<SCITEGIC>MOL_PROPERTY
W
SciTegic.value.DoubleValue
-54.243

@<SCITEGIC>MOL_PROPERTY
W(PB)
SciTegic.value.DoubleValue
-56.130

@<SCITEGIC>MOL_PROPERTY
W(SA)
SciTegic.value.DoubleValue
1.887

@<SCITEGIC>MOL_PROPERTY
Valence
SciTegic.value.DoubleValue
1.257

@<SCITEGIC>MOL_PROPERTY
Coulomb
SciTegic.value.DoubleValue
69.240

@<SCITEGIC>MOL_PROPERTY
VdW
SciTegic.value.DoubleValue
-0.123

@<SCITEGIC>MOL_PROPERTY
VdW6
SciTegic.value.DoubleValue
-4.336

@<SCITEGIC>MOL_PROPERTY
VdW12
SciTegic.value.DoubleValue
4.213

@<SCITEGIC>MOL_PROPERTY
Bond
SciTegic.value.DoubleValue
0.128

@<SCITEGIC>MOL_PROPERTY
Angle
SciTegic.value.DoubleValue
0.603

@<SCITEGIC>MOL_PROPERTY
Pdih
SciTegic.value.DoubleValue
0.526

@<SCITEGIC>MOL_PROPERTY
Idih
SciTegic.value.DoubleValue
0.000

@<SCITEGIC>MOL_PROPERTY
Tether
SciTegic.value.DoubleValue
0.000

@<TRIPOS>MOLECULE
guest-s9_confgen4.mol2 : confsearch ligand conformer 355
          20          19           1
SMALL
USER_CHARGES
 
@<TRIPOS>ATOM
       1    C1      19.566013   20.719340   21.138451 C.3        1 MOL1        -0.2224
       2    H1      19.051112   21.624273   20.790322 H          1 MOL1         0.1052
       3    H2      19.415715   20.661937   22.222962 H          1 MOL1         0.1052
       4    H3      20.636923   20.847247   20.933627 H          1 MOL1         0.1052
       5    C2      19.001114   19.472726   20.419907 C.3        1 MOL1        -0.1209
       6    H4      18.980288   19.670587   19.338943 H          1 MOL1         0.1041
       7    H5      17.954955   19.320245   20.720580 H          1 MOL1         0.1041
       8    C3      19.807510   18.171316   20.662589 C.3        1 MOL1        -0.1274
       9    H6      19.357935   17.376517   20.052674 H          1 MOL1         0.1041
      10    H7      20.836591   18.285541   20.297007 H          1 MOL1         0.1041
      11    C4      19.818147   17.690991   22.129375 C.3        1 MOL1         0.0313
      12    H8      20.064572   16.626487   22.154848 H          1 MOL1         0.1015
      13    H9      18.825160   17.819527   22.567255 H          1 MOL1         0.1015
      14    N1      20.827988   18.399289   23.012287 N.4        1 MOL1        -0.4809
      15    H10     20.671428   19.416690   22.980622 H          1 MOL1         0.3726
      16    H11     21.781356   18.256852   22.645121 H          1 MOL1         0.3726
      17    C5      20.722846   17.884115   24.441257 C.3        1 MOL1        -0.0677
      18    H12     19.716234   18.074962   24.819514 H          1 MOL1         0.1026
      19    H13     20.924287   16.810772   24.452275 H          1 MOL1         0.1026
      20    H14     21.454916   18.402359   25.064528 H          1 MOL1         0.1026
@<TRIPOS>BOND
    1     1     2    1
    2     1     3    1
    3     1     4    1
    4     1     5    1
    5     5     6    1
    6     5     7    1
    7     5     8    1
    8     8     9    1
    9     8    10    1
   10     8    11    1
   11    11    12    1
   12    11    13    1
   13    11    14    1
   14    14    15    1
   15    14    16    1
   16    14    17    1
   17    17    18    1
   18    17    19    1
   19    17    20    1
@<TRIPOS>SUBSTRUCTURE
       1 MOL1            1 RESIDUE      1      MOL     
@<SCITEGIC>MOL_PROPERTY
VConf Rank
SciTegic.value.IntegerValue
355

@<SCITEGIC>MOL_PROPERTY
Conf_Id
SciTegic.value.IntegerValue
26

@<SCITEGIC>MOL_PROPERTY
Delta U+W
SciTegic.value.DoubleValue
2.888

@<SCITEGIC>MOL_PROPERTY
U+W
SciTegic.value.DoubleValue
18.226

@<SCITEGIC>MOL_PROPERTY
Grad RMS
SciTegic.value.DoubleValue
0.000000

@<SCITEGIC>MOL_PROPERTY
U
SciTegic.value.DoubleValue
72.042

@<SCITEGIC>MOL_PROPERTY
W
SciTegic.value.DoubleValue
-53.816

@<SCITEGIC>MOL_PROPERTY
W(PB)
SciTegic.value.DoubleValue
-55.689

@<SCITEGIC>MOL_PROPERTY
W(SA)
SciTegic.value.DoubleValue
1.873

@<SCITEGIC>MOL_PROPERTY
Valence
SciTegic.value.DoubleValue
2.428

@<SCITEGIC>MOL_PROPERTY
Coulomb
SciTegic.value.DoubleValue
69.829

@<SCITEGIC>MOL_PROPERTY
VdW
SciTegic.value.DoubleValue
-0.215

@<SCITEGIC>MOL_PROPERTY
VdW6
SciTegic.value.DoubleValue
-4.563

@<SCITEGIC>MOL_PROPERTY
VdW12
SciTegic.value.DoubleValue
4.348

@<SCITEGIC>MOL_PROPERTY
Bond
SciTegic.value.DoubleValue
0.137

@<SCITEGIC>MOL_PROPERTY
Angle
SciTegic.value.DoubleValue
0.936

@<SCITEGIC>MOL_PROPERTY
Pdih
SciTegic.value.DoubleValue
1.356

@<SCITEGIC>MOL_PROPERTY
Idih
SciTegic.value.DoubleValue
0.000

@<SCITEGIC>MOL_PROPERTY
Tether
SciTegic.value.DoubleValue
0.000

@<TRIPOS>MOLECULE
guest-s9_confgen4.mol2 : confsearch ligand conformer 356
          20          19           1
SMALL
USER_CHARGES
 
@<TRIPOS>ATOM
       1    C1      19.971060   19.396608   24.166072 C.3        1 MOL1        -0.2224
       2    H1      19.729567   19.364799   25.236534 H          1 MOL1         0.1052
       3    H2      20.503535   20.337169   23.973770 H          1 MOL1         0.1052
       4    H3      19.018878   19.409457   23.622718 H          1 MOL1         0.1052
       5    C2      20.831554   18.173339   23.775401 C.3        1 MOL1        -0.1209
       6    H4      20.236673   17.256276   23.890374 H          1 MOL1         0.1041
       7    H5      21.662825   18.087161   24.489284 H          1 MOL1         0.1041
       8    C3      21.422067   18.234725   22.343493 C.3        1 MOL1        -0.1274
       9    H6      22.079735   19.107724   22.238372 H          1 MOL1         0.1041
      10    H7      22.064881   17.355266   22.205070 H          1 MOL1         0.1041
      11    C4      20.366944   18.229407   21.217007 C.3        1 MOL1         0.0313
      12    H8      19.570755   17.521408   21.460123 H          1 MOL1         0.1015
      13    H9      20.838953   17.902395   20.287054 H          1 MOL1         0.1015
      14    N1      19.739114   19.582530   20.941531 N.4        1 MOL1        -0.4809
      15    H10     20.465696   20.260965   20.666196 H          1 MOL1         0.3726
      16    H11     19.324170   19.960825   21.804859 H          1 MOL1         0.3726
      17    C5      18.685047   19.455525   19.850099 C.3        1 MOL1        -0.0677
      18    H12     17.910649   18.758235   20.176996 H          1 MOL1         0.1026
      19    H13     18.242300   20.436251   19.662689 H          1 MOL1         0.1026
      20    H14     19.155541   19.083688   18.937335 H          1 MOL1         0.1026
@<TRIPOS>BOND
    1     1     2    1
    2     1     3    1
    3     1     4    1
    4     1     5    1
    5     5     6    1
    6     5     7    1
    7     5     8    1
    8     8     9    1
    9     8    10    1
   10     8    11    1
   11    11    12    1
   12    11    13    1
   13    11    14    1
   14    14    15    1
   15    14    16    1
   16    14    17    1
   17    17    18    1
   18    17    19    1
   19    17    20    1
@<TRIPOS>SUBSTRUCTURE
       1 MOL1            1 RESIDUE      1      MOL     
@<SCITEGIC>MOL_PROPERTY
VConf Rank
SciTegic.value.IntegerValue
356

@<SCITEGIC>MOL_PROPERTY
Conf_Id
SciTegic.value.IntegerValue
5

@<SCITEGIC>MOL_PROPERTY
Delta U+W
SciTegic.value.DoubleValue
2.950

@<SCITEGIC>MOL_PROPERTY
U+W
SciTegic.value.DoubleValue
18.289

@<SCITEGIC>MOL_PROPERTY
Grad RMS
SciTegic.value.DoubleValue
0.000000

@<SCITEGIC>MOL_PROPERTY
U
SciTegic.value.DoubleValue
72.042

@<SCITEGIC>MOL_PROPERTY
W
SciTegic.value.DoubleValue
-53.753

@<SCITEGIC>MOL_PROPERTY
W(PB)
SciTegic.value.DoubleValue
-55.644

@<SCITEGIC>MOL_PROPERTY
W(SA)
SciTegic.value.DoubleValue
1.891

@<SCITEGIC>MOL_PROPERTY
Valence
SciTegic.value.DoubleValue
2.428

@<SCITEGIC>MOL_PROPERTY
Coulomb
SciTegic.value.DoubleValue
69.829

@<SCITEGIC>MOL_PROPERTY
VdW
SciTegic.value.DoubleValue
-0.215

@<SCITEGIC>MOL_PROPERTY
VdW6
SciTegic.value.DoubleValue
-4.563

@<SCITEGIC>MOL_PROPERTY
VdW12
SciTegic.value.DoubleValue
4.348

@<SCITEGIC>MOL_PROPERTY
Bond
SciTegic.value.DoubleValue
0.137

@<SCITEGIC>MOL_PROPERTY
Angle
SciTegic.value.DoubleValue
0.936

@<SCITEGIC>MOL_PROPERTY
Pdih
SciTegic.value.DoubleValue
1.356

@<SCITEGIC>MOL_PROPERTY
Idih
SciTegic.value.DoubleValue
0.000

@<SCITEGIC>MOL_PROPERTY
Tether
SciTegic.value.DoubleValue
0.000

@<TRIPOS>MOLECULE
guest-s9_confgen4.mol2 : confsearch ligand conformer 357
          20          19           1
SMALL
USER_CHARGES
 
@<TRIPOS>ATOM
       1    C1      21.843921   20.490495   22.411853 C.3        1 MOL1        -0.2224
       2    H1      21.469625   21.520421   22.476772 H          1 MOL1         0.1052
       3    H2      21.641093   19.991937   23.367927 H          1 MOL1         0.1052
       4    H3      22.933595   20.538092   22.288116 H          1 MOL1         0.1052
       5    C2      21.196021   19.737681   21.227101 C.3        1 MOL1        -0.1209
       6    H4      21.588035   18.712557   21.180106 H          1 MOL1         0.1041
       7    H5      21.499586   20.221152   20.287953 H          1 MOL1         0.1041
       8    C3      19.648856   19.711963   21.297220 C.3        1 MOL1        -0.1274
       9    H6      19.268275   20.740646   21.247186 H          1 MOL1         0.1041
      10    H7      19.252535   19.200666   20.410509 H          1 MOL1         0.1041
      11    C4      19.088251   19.041975   22.572511 C.3        1 MOL1         0.0313
      12    H8      17.995866   19.061371   22.545356 H          1 MOL1         0.1015
      13    H9      19.410465   19.614313   23.445830 H          1 MOL1         0.1015
      14    N1      19.519632   17.599678   22.789341 N.4        1 MOL1        -0.4809
      15    H10     19.216143   17.284546   23.724029 H          1 MOL1         0.3726
      16    H11     20.548222   17.538176   22.807330 H          1 MOL1         0.3726
      17    C5      18.940430   16.681749   21.718569 C.3        1 MOL1        -0.0677
      18    H12     19.316559   16.985393   20.739633 H          1 MOL1         0.1026
      19    H13     19.245061   15.653515   21.925550 H          1 MOL1         0.1026
      20    H14     17.850813   16.753107   21.735204 H          1 MOL1         0.1026
@<TRIPOS>BOND
    1     1     2    1
    2     1     3    1
    3     1     4    1
    4     1     5    1
    5     5     6    1
    6     5     7    1
    7     5     8    1
    8     8     9    1
    9     8    10    1
   10     8    11    1
   11    11    12    1
   12    11    13    1
   13    11    14    1
   14    14    15    1
   15    14    16    1
   16    14    17    1
   17    17    18    1
   18    17    19    1
   19    17    20    1
@<TRIPOS>SUBSTRUCTURE
       1 MOL1            1 RESIDUE      1      MOL     
@<SCITEGIC>MOL_PROPERTY
VConf Rank
SciTegic.value.IntegerValue
357

@<SCITEGIC>MOL_PROPERTY
Conf_Id
SciTegic.value.IntegerValue
52

@<SCITEGIC>MOL_PROPERTY
Delta U+W
SciTegic.value.DoubleValue
0.784

@<SCITEGIC>MOL_PROPERTY
U+W
SciTegic.value.DoubleValue
16.122

@<SCITEGIC>MOL_PROPERTY
Grad RMS
SciTegic.value.DoubleValue
0.000000

@<SCITEGIC>MOL_PROPERTY
U
SciTegic.value.DoubleValue
70.777

@<SCITEGIC>MOL_PROPERTY
W
SciTegic.value.DoubleValue
-54.655

@<SCITEGIC>MOL_PROPERTY
W(PB)
SciTegic.value.DoubleValue
-56.491

@<SCITEGIC>MOL_PROPERTY
W(SA)
SciTegic.value.DoubleValue
1.836

@<SCITEGIC>MOL_PROPERTY
Valence
SciTegic.value.DoubleValue
1.529

@<SCITEGIC>MOL_PROPERTY
Coulomb
SciTegic.value.DoubleValue
69.166

@<SCITEGIC>MOL_PROPERTY
VdW
SciTegic.value.DoubleValue
0.082

@<SCITEGIC>MOL_PROPERTY
VdW6
SciTegic.value.DoubleValue
-5.166

@<SCITEGIC>MOL_PROPERTY
VdW12
SciTegic.value.DoubleValue
5.248

@<SCITEGIC>MOL_PROPERTY
Bond
SciTegic.value.DoubleValue
0.171

@<SCITEGIC>MOL_PROPERTY
Angle
SciTegic.value.DoubleValue
0.752

@<SCITEGIC>MOL_PROPERTY
Pdih
SciTegic.value.DoubleValue
0.605

@<SCITEGIC>MOL_PROPERTY
Idih
SciTegic.value.DoubleValue
0.000

@<SCITEGIC>MOL_PROPERTY
Tether
SciTegic.value.DoubleValue
0.000

@<TRIPOS>MOLECULE
guest-s9_confgen4.mol2 : confsearch ligand conformer 358
          20          19           1
SMALL
USER_CHARGES
 
@<TRIPOS>ATOM
       1    C1      17.959700   18.622363   21.908514 C.3        1 MOL1        -0.2224
       2    H1      16.900898   18.338167   21.966307 H          1 MOL1         0.1052
       3    H2      18.093254   19.493843   22.559542 H          1 MOL1         0.1052
       4    H3      18.168715   18.917950   20.872054 H          1 MOL1         0.1052
       5    C2      18.855412   17.441570   22.347595 C.3        1 MOL1        -0.1209
       6    H4      18.519730   16.535632   21.823554 H          1 MOL1         0.1041
       7    H5      18.705771   17.245349   23.418633 H          1 MOL1         0.1041
       8    C3      20.365316   17.639133   22.057796 C.3        1 MOL1        -0.1274
       9    H6      20.882996   16.707717   22.322483 H          1 MOL1         0.1041
      10    H7      20.530784   17.774943   20.981656 H          1 MOL1         0.1041
      11    C4      21.029057   18.785002   22.856534 C.3        1 MOL1         0.0313
      12    H8      22.112795   18.643825   22.854682 H          1 MOL1         0.1015
      13    H9      20.689088   18.739733   23.894244 H          1 MOL1         0.1015
      14    N1      20.764430   20.190432   22.339572 N.4        1 MOL1        -0.4809
      15    H10     21.083484   20.880857   23.037194 H          1 MOL1         0.3726
      16    H11     19.751243   20.347705   22.247058 H          1 MOL1         0.3726
      17    C5      21.472001   20.433314   21.011011 C.3        1 MOL1        -0.0677
      18    H12     22.544652   20.274733   21.141067 H          1 MOL1         0.1026
      19    H13     21.083817   19.741732   20.260916 H          1 MOL1         0.1026
      20    H14     21.288575   21.461289   20.690801 H          1 MOL1         0.1026
@<TRIPOS>BOND
    1     1     2    1
    2     1     3    1
    3     1     4    1
    4     1     5    1
    5     5     6    1
    6     5     7    1
    7     5     8    1
    8     8     9    1
    9     8    10    1
   10     8    11    1
   11    11    12    1
   12    11    13    1
   13    11    14    1
   14    14    15    1
   15    14    16    1
   16    14    17    1
   17    17    18    1
   18    17    19    1
   19    17    20    1
@<TRIPOS>SUBSTRUCTURE
       1 MOL1            1 RESIDUE      1      MOL     
@<SCITEGIC>MOL_PROPERTY
VConf Rank
SciTegic.value.IntegerValue
358

@<SCITEGIC>MOL_PROPERTY
Conf_Id
SciTegic.value.IntegerValue
55

@<SCITEGIC>MOL_PROPERTY
Delta U+W
SciTegic.value.DoubleValue
2.745

@<SCITEGIC>MOL_PROPERTY
U+W
SciTegic.value.DoubleValue
18.083

@<SCITEGIC>MOL_PROPERTY
Grad RMS
SciTegic.value.DoubleValue
0.000000

@<SCITEGIC>MOL_PROPERTY
U
SciTegic.value.DoubleValue
72.490

@<SCITEGIC>MOL_PROPERTY
W
SciTegic.value.DoubleValue
-54.407

@<SCITEGIC>MOL_PROPERTY
W(PB)
SciTegic.value.DoubleValue
-56.269

@<SCITEGIC>MOL_PROPERTY
W(SA)
SciTegic.value.DoubleValue
1.861

@<SCITEGIC>MOL_PROPERTY
Valence
SciTegic.value.DoubleValue
2.738

@<SCITEGIC>MOL_PROPERTY
Coulomb
SciTegic.value.DoubleValue
69.795

@<SCITEGIC>MOL_PROPERTY
VdW
SciTegic.value.DoubleValue
-0.043

@<SCITEGIC>MOL_PROPERTY
VdW6
SciTegic.value.DoubleValue
-5.333

@<SCITEGIC>MOL_PROPERTY
VdW12
SciTegic.value.DoubleValue
5.290

@<SCITEGIC>MOL_PROPERTY
Bond
SciTegic.value.DoubleValue
0.182

@<SCITEGIC>MOL_PROPERTY
Angle
SciTegic.value.DoubleValue
1.135

@<SCITEGIC>MOL_PROPERTY
Pdih
SciTegic.value.DoubleValue
1.422

@<SCITEGIC>MOL_PROPERTY
Idih
SciTegic.value.DoubleValue
0.000

@<SCITEGIC>MOL_PROPERTY
Tether
SciTegic.value.DoubleValue
0.000

@<TRIPOS>MOLECULE
guest-s9_confgen4.mol2 : confsearch ligand conformer 359
          20          19           1
SMALL
USER_CHARGES
 
@<TRIPOS>ATOM
       1    C1      19.897714   17.337266   20.543292 C.3        1 MOL1        -0.2224
       2    H1      19.754324   16.471847   19.883248 H          1 MOL1         0.1052
       3    H2      19.979355   18.229568   19.908911 H          1 MOL1         0.1052
       4    H3      20.848553   17.186383   21.067018 H          1 MOL1         0.1052
       5    C2      18.716062   17.457336   21.532561 C.3        1 MOL1        -0.1209
       6    H4      18.730784   16.606017   22.227583 H          1 MOL1         0.1041
       7    H5      17.777653   17.370802   20.966942 H          1 MOL1         0.1041
       8    C3      18.680786   18.784940   22.331971 C.3        1 MOL1        -0.1274
       9    H6      18.604515   19.638684   21.646985 H          1 MOL1         0.1041
      10    H7      17.756316   18.796110   22.924270 H          1 MOL1         0.1041
      11    C4      19.863430   18.978907   23.309357 C.3        1 MOL1         0.0313
      12    H8      20.041712   18.042281   23.843599 H          1 MOL1         0.1015
      13    H9      19.597958   19.738694   24.048730 H          1 MOL1         0.1015
      14    N1      21.177125   19.414011   22.678960 N.4        1 MOL1        -0.4809
      15    H10     21.433458   18.770611   21.917273 H          1 MOL1         0.3726
      16    H11     21.937264   19.330332   23.372030 H          1 MOL1         0.3726
      17    C5      21.097656   20.848975   22.169761 C.3        1 MOL1        -0.0677
      18    H12     20.335301   20.916557   21.391387 H          1 MOL1         0.1026
      19    H13     20.839631   21.510721   22.999312 H          1 MOL1         0.1026
      20    H14     22.067554   21.136614   21.758091 H          1 MOL1         0.1026
@<TRIPOS>BOND
    1     1     2    1
    2     1     3    1
    3     1     4    1
    4     1     5    1
    5     5     6    1
    6     5     7    1
    7     5     8    1
    8     8     9    1
    9     8    10    1
   10     8    11    1
   11    11    12    1
   12    11    13    1
   13    11    14    1
   14    14    15    1
   15    14    16    1
   16    14    17    1
   17    17    18    1
   18    17    19    1
   19    17    20    1
@<TRIPOS>SUBSTRUCTURE
       1 MOL1            1 RESIDUE      1      MOL     
@<SCITEGIC>MOL_PROPERTY
VConf Rank
SciTegic.value.IntegerValue
359

@<SCITEGIC>MOL_PROPERTY
Conf_Id
SciTegic.value.IntegerValue
76

@<SCITEGIC>MOL_PROPERTY
Delta U+W
SciTegic.value.DoubleValue
2.799

@<SCITEGIC>MOL_PROPERTY
U+W
SciTegic.value.DoubleValue
18.137

@<SCITEGIC>MOL_PROPERTY
Grad RMS
SciTegic.value.DoubleValue
0.000000

@<SCITEGIC>MOL_PROPERTY
U
SciTegic.value.DoubleValue
72.490

@<SCITEGIC>MOL_PROPERTY
W
SciTegic.value.DoubleValue
-54.353

@<SCITEGIC>MOL_PROPERTY
W(PB)
SciTegic.value.DoubleValue
-56.201

@<SCITEGIC>MOL_PROPERTY
W(SA)
SciTegic.value.DoubleValue
1.848

@<SCITEGIC>MOL_PROPERTY
Valence
SciTegic.value.DoubleValue
2.738

@<SCITEGIC>MOL_PROPERTY
Coulomb
SciTegic.value.DoubleValue
69.795

@<SCITEGIC>MOL_PROPERTY
VdW
SciTegic.value.DoubleValue
-0.043

@<SCITEGIC>MOL_PROPERTY
VdW6
SciTegic.value.DoubleValue
-5.334

@<SCITEGIC>MOL_PROPERTY
VdW12
SciTegic.value.DoubleValue
5.290

@<SCITEGIC>MOL_PROPERTY
Bond
SciTegic.value.DoubleValue
0.182

@<SCITEGIC>MOL_PROPERTY
Angle
SciTegic.value.DoubleValue
1.135

@<SCITEGIC>MOL_PROPERTY
Pdih
SciTegic.value.DoubleValue
1.421

@<SCITEGIC>MOL_PROPERTY
Idih
SciTegic.value.DoubleValue
0.000

@<SCITEGIC>MOL_PROPERTY
Tether
SciTegic.value.DoubleValue
0.000

@<TRIPOS>MOLECULE
guest-s9_confgen4.mol2 : confsearch ligand conformer 360
          20          19           1
SMALL
USER_CHARGES
 
@<TRIPOS>ATOM
       1    C1      18.340515   18.538208   23.234835 C.3        1 MOL1        -0.2224
       2    H1      18.238214   18.121447   22.225432 H          1 MOL1         0.1052
       3    H2      18.340754   17.704835   23.949287 H          1 MOL1         0.1052
       4    H3      17.450062   19.148558   23.433361 H          1 MOL1         0.1052
       5    C2      19.623785   19.389174   23.374965 C.3        1 MOL1        -0.1209
       6    H4      19.641701   19.840240   24.376989 H          1 MOL1         0.1041
       7    H5      19.598019   20.230444   22.670436 H          1 MOL1         0.1041
       8    C3      20.921618   18.567896   23.178554 C.3        1 MOL1        -0.1274
       9    H6      21.791214   19.219965   23.333527 H          1 MOL1         0.1041
      10    H7      20.975354   17.803460   23.964935 H          1 MOL1         0.1041
      11    C4      21.057510   17.861508   21.809163 C.3        1 MOL1         0.0313
      12    H8      20.198612   17.211907   21.625099 H          1 MOL1         0.1015
      13    H9      21.947418   17.228050   21.847367 H          1 MOL1         0.1015
      14    N1      21.233091   18.780755   20.609538 N.4        1 MOL1        -0.4809
      15    H10     21.811923   18.305300   19.899822 H          1 MOL1         0.3726
      16    H11     21.775637   19.616443   20.873950 H          1 MOL1         0.3726
      17    C5      19.893210   19.161064   19.988787 C.3        1 MOL1        -0.0677
      18    H12     20.070912   19.794161   19.116700 H          1 MOL1         0.1026
      19    H13     19.370428   18.252803   19.681621 H          1 MOL1         0.1026
      20    H14     19.289994   19.703874   20.717147 H          1 MOL1         0.1026
@<TRIPOS>BOND
    1     1     2    1
    2     1     3    1
    3     1     4    1
    4     1     5    1
    5     5     6    1
    6     5     7    1
    7     5     8    1
    8     8     9    1
    9     8    10    1
   10     8    11    1
   11    11    12    1
   12    11    13    1
   13    11    14    1
   14    14    15    1
   15    14    16    1
   16    14    17    1
   17    17    18    1
   18    17    19    1
   19    17    20    1
@<TRIPOS>SUBSTRUCTURE
       1 MOL1            1 RESIDUE      1      MOL     
@<SCITEGIC>MOL_PROPERTY
VConf Rank
SciTegic.value.IntegerValue
360

@<SCITEGIC>MOL_PROPERTY
Conf_Id
SciTegic.value.IntegerValue
60

@<SCITEGIC>MOL_PROPERTY
Delta U+W
SciTegic.value.DoubleValue
1.788

@<SCITEGIC>MOL_PROPERTY
U+W
SciTegic.value.DoubleValue
17.127

@<SCITEGIC>MOL_PROPERTY
Grad RMS
SciTegic.value.DoubleValue
0.000000

@<SCITEGIC>MOL_PROPERTY
U
SciTegic.value.DoubleValue
72.122

@<SCITEGIC>MOL_PROPERTY
W
SciTegic.value.DoubleValue
-54.995

@<SCITEGIC>MOL_PROPERTY
W(PB)
SciTegic.value.DoubleValue
-56.810

@<SCITEGIC>MOL_PROPERTY
W(SA)
SciTegic.value.DoubleValue
1.815

@<SCITEGIC>MOL_PROPERTY
Valence
SciTegic.value.DoubleValue
3.197

@<SCITEGIC>MOL_PROPERTY
Coulomb
SciTegic.value.DoubleValue
69.115

@<SCITEGIC>MOL_PROPERTY
VdW
SciTegic.value.DoubleValue
-0.190

@<SCITEGIC>MOL_PROPERTY
VdW6
SciTegic.value.DoubleValue
-5.585

@<SCITEGIC>MOL_PROPERTY
VdW12
SciTegic.value.DoubleValue
5.395

@<SCITEGIC>MOL_PROPERTY
Bond
SciTegic.value.DoubleValue
0.177

@<SCITEGIC>MOL_PROPERTY
Angle
SciTegic.value.DoubleValue
1.207

@<SCITEGIC>MOL_PROPERTY
Pdih
SciTegic.value.DoubleValue
1.813

@<SCITEGIC>MOL_PROPERTY
Idih
SciTegic.value.DoubleValue
0.000

@<SCITEGIC>MOL_PROPERTY
Tether
SciTegic.value.DoubleValue
0.000

@<TRIPOS>MOLECULE
guest-s9_confgen4.mol2 : confsearch ligand conformer 361
          20          19           1
SMALL
USER_CHARGES
 
@<TRIPOS>ATOM
       1    C1      18.074834   18.300992   22.259854 C.3        1 MOL1        -0.2224
       2    H1      17.142674   18.524548   21.725118 H          1 MOL1         0.1052
       3    H2      17.845673   17.558676   23.035356 H          1 MOL1         0.1052
       4    H3      18.401106   19.222868   22.756586 H          1 MOL1         0.1052
       5    C2      19.147027   17.768081   21.281606 C.3        1 MOL1        -0.1209
       6    H4      19.348435   18.511952   20.500034 H          1 MOL1         0.1041
       7    H5      18.744065   16.889007   20.759416 H          1 MOL1         0.1041
       8    C3      20.465121   17.364020   21.986455 C.3        1 MOL1        -0.1274
       9    H6      20.252724   16.542309   22.683107 H          1 MOL1         0.1041
      10    H7      21.163655   16.955724   21.244329 H          1 MOL1         0.1041
      11    C4      21.168481   18.494378   22.774014 C.3        1 MOL1         0.0313
      12    H8      22.008858   18.051400   23.314574 H          1 MOL1         0.1015
      13    H9      20.491006   18.925493   23.514778 H          1 MOL1         0.1015
      14    N1      21.743849   19.623224   21.931636 N.4        1 MOL1        -0.4809
      15    H10     22.088168   19.259343   21.030703 H          1 MOL1         0.3726
      16    H11     22.581804   20.002338   22.399507 H          1 MOL1         0.3726
      17    C5      20.733555   20.747077   21.727905 C.3        1 MOL1        -0.0677
      18    H12     20.428492   21.135013   22.702088 H          1 MOL1         0.1026
      19    H13     21.199901   21.544819   21.145620 H          1 MOL1         0.1026
      20    H14     19.861852   20.367242   21.194164 H          1 MOL1         0.1026
@<TRIPOS>BOND
    1     1     2    1
    2     1     3    1
    3     1     4    1
    4     1     5    1
    5     5     6    1
    6     5     7    1
    7     5     8    1
    8     8     9    1
    9     8    10    1
   10     8    11    1
   11    11    12    1
   12    11    13    1
   13    11    14    1
   14    14    15    1
   15    14    16    1
   16    14    17    1
   17    17    18    1
   18    17    19    1
   19    17    20    1
@<TRIPOS>SUBSTRUCTURE
       1 MOL1            1 RESIDUE      1      MOL     
@<SCITEGIC>MOL_PROPERTY
VConf Rank
SciTegic.value.IntegerValue
361

@<SCITEGIC>MOL_PROPERTY
Conf_Id
SciTegic.value.IntegerValue
54

@<SCITEGIC>MOL_PROPERTY
Delta U+W
SciTegic.value.DoubleValue
1.880

@<SCITEGIC>MOL_PROPERTY
U+W
SciTegic.value.DoubleValue
17.218

@<SCITEGIC>MOL_PROPERTY
Grad RMS
SciTegic.value.DoubleValue
0.000000

@<SCITEGIC>MOL_PROPERTY
U
SciTegic.value.DoubleValue
72.122

@<SCITEGIC>MOL_PROPERTY
W
SciTegic.value.DoubleValue
-54.903

@<SCITEGIC>MOL_PROPERTY
W(PB)
SciTegic.value.DoubleValue
-56.724

@<SCITEGIC>MOL_PROPERTY
W(SA)
SciTegic.value.DoubleValue
1.821

@<SCITEGIC>MOL_PROPERTY
Valence
SciTegic.value.DoubleValue
3.197

@<SCITEGIC>MOL_PROPERTY
Coulomb
SciTegic.value.DoubleValue
69.115

@<SCITEGIC>MOL_PROPERTY
VdW
SciTegic.value.DoubleValue
-0.190

@<SCITEGIC>MOL_PROPERTY
VdW6
SciTegic.value.DoubleValue
-5.585

@<SCITEGIC>MOL_PROPERTY
VdW12
SciTegic.value.DoubleValue
5.395

@<SCITEGIC>MOL_PROPERTY
Bond
SciTegic.value.DoubleValue
0.177

@<SCITEGIC>MOL_PROPERTY
Angle
SciTegic.value.DoubleValue
1.207

@<SCITEGIC>MOL_PROPERTY
Pdih
SciTegic.value.DoubleValue
1.813

@<SCITEGIC>MOL_PROPERTY
Idih
SciTegic.value.DoubleValue
0.000

@<SCITEGIC>MOL_PROPERTY
Tether
SciTegic.value.DoubleValue
0.000

@<TRIPOS>MOLECULE
guest-s9_confgen4.mol2 : confsearch ligand conformer 362
          20          19           1
SMALL
USER_CHARGES
 
@<TRIPOS>ATOM
       1    C1      17.546806   17.941718   20.193343 C.3        1 MOL1        -0.2224
       2    H1      17.286447   17.033007   20.751586 H          1 MOL1         0.1052
       3    H2      16.612382   18.405194   19.851193 H          1 MOL1         0.1052
       4    H3      18.119425   17.644559   19.305097 H          1 MOL1         0.1052
       5    C2      18.352611   18.922826   21.072170 C.3        1 MOL1        -0.1209
       6    H4      17.741216   19.228460   21.933062 H          1 MOL1         0.1041
       7    H5      18.567715   19.835149   20.497933 H          1 MOL1         0.1041
       8    C3      19.674406   18.296663   21.568698 C.3        1 MOL1        -0.1274
       9    H6      19.458453   17.387281   22.145199 H          1 MOL1         0.1041
      10    H7      20.286038   17.994665   20.708077 H          1 MOL1         0.1041
      11    C4      20.472073   19.281054   22.444075 C.3        1 MOL1         0.0313
      12    H8      19.871913   19.571749   23.309981 H          1 MOL1         0.1015
      13    H9      20.702283   20.180982   21.868208 H          1 MOL1         0.1015
      14    N1      21.779662   18.708759   22.955340 N.4        1 MOL1        -0.4809
      15    H10     22.373371   18.414234   22.164820 H          1 MOL1         0.3726
      16    H11     21.604551   17.850207   23.499748 H          1 MOL1         0.3726
      17    C5      22.501545   19.743445   23.808267 C.3        1 MOL1        -0.0677
      18    H12     21.869660   20.014566   24.656808 H          1 MOL1         0.1026
      19    H13     23.440609   19.318478   24.169614 H          1 MOL1         0.1026
      20    H14     22.707148   20.628855   23.202803 H          1 MOL1         0.1026
@<TRIPOS>BOND
    1     1     2    1
    2     1     3    1
    3     1     4    1
    4     1     5    1
    5     5     6    1
    6     5     7    1
    7     5     8    1
    8     8     9    1
    9     8    10    1
   10     8    11    1
   11    11    12    1
   12    11    13    1
   13    11    14    1
   14    14    15    1
   15    14    16    1
   16    14    17    1
   17    17    18    1
   18    17    19    1
   19    17    20    1
@<TRIPOS>SUBSTRUCTURE
       1 MOL1            1 RESIDUE      1      MOL     
@<SCITEGIC>MOL_PROPERTY
VConf Rank
SciTegic.value.IntegerValue
362

@<SCITEGIC>MOL_PROPERTY
Conf_Id
SciTegic.value.IntegerValue
67

@<SCITEGIC>MOL_PROPERTY
Delta U+W
SciTegic.value.DoubleValue
0.000

@<SCITEGIC>MOL_PROPERTY
U+W
SciTegic.value.DoubleValue
15.338

@<SCITEGIC>MOL_PROPERTY
Grad RMS
SciTegic.value.DoubleValue
0.000000

@<SCITEGIC>MOL_PROPERTY
U
SciTegic.value.DoubleValue
69.277

@<SCITEGIC>MOL_PROPERTY
W
SciTegic.value.DoubleValue
-53.939

@<SCITEGIC>MOL_PROPERTY
W(PB)
SciTegic.value.DoubleValue
-55.889

@<SCITEGIC>MOL_PROPERTY
W(SA)
SciTegic.value.DoubleValue
1.950

@<SCITEGIC>MOL_PROPERTY
Valence
SciTegic.value.DoubleValue
0.846

@<SCITEGIC>MOL_PROPERTY
Coulomb
SciTegic.value.DoubleValue
68.557

@<SCITEGIC>MOL_PROPERTY
VdW
SciTegic.value.DoubleValue
-0.127

@<SCITEGIC>MOL_PROPERTY
VdW6
SciTegic.value.DoubleValue
-3.008

@<SCITEGIC>MOL_PROPERTY
VdW12
SciTegic.value.DoubleValue
2.882

@<SCITEGIC>MOL_PROPERTY
Bond
SciTegic.value.DoubleValue
0.088

@<SCITEGIC>MOL_PROPERTY
Angle
SciTegic.value.DoubleValue
0.332

@<SCITEGIC>MOL_PROPERTY
Pdih
SciTegic.value.DoubleValue
0.426

@<SCITEGIC>MOL_PROPERTY
Idih
SciTegic.value.DoubleValue
0.000

@<SCITEGIC>MOL_PROPERTY
Tether
SciTegic.value.DoubleValue
0.000

@<TRIPOS>MOLECULE
guest-s9_confgen4.mol2 : confsearch ligand conformer 363
          20          19           1
SMALL
USER_CHARGES
 
@<TRIPOS>ATOM
       1    C1      21.983863   19.817300   24.122244 C.3        1 MOL1        -0.2224
       2    H1      22.710339   20.111222   23.353471 H          1 MOL1         0.1052
       3    H2      22.066342   20.530457   24.952680 H          1 MOL1         0.1052
       4    H3      22.268642   18.826793   24.500350 H          1 MOL1         0.1052
       5    C2      20.547869   19.804355   23.554771 C.3        1 MOL1        -0.1209
       6    H4      20.279781   20.815303   23.216482 H          1 MOL1         0.1041
       7    H5      19.841502   19.541436   24.354914 H          1 MOL1         0.1041
       8    C3      20.401841   18.808227   22.383406 C.3        1 MOL1        -0.1274
       9    H6      21.108848   19.074563   21.587189 H          1 MOL1         0.1041
      10    H7      20.665601   17.797966   22.723148 H          1 MOL1         0.1041
      11    C4      18.963965   18.801439   21.824443 C.3        1 MOL1         0.0313
      12    H8      18.710707   19.792420   21.439477 H          1 MOL1         0.1015
      13    H9      18.269536   18.566158   22.635054 H          1 MOL1         0.1015
      14    N1      18.721078   17.791670   20.714428 N.4        1 MOL1        -0.4809
      15    H10     17.710161   17.735859   20.513883 H          1 MOL1         0.3726
      16    H11     18.980082   16.844486   21.029920 H          1 MOL1         0.3726
      17    C5      19.479893   18.167906   19.446295 C.3        1 MOL1        -0.0677
      18    H12     20.552523   18.159952   19.649487 H          1 MOL1         0.1026
      19    H13     19.250307   17.441691   18.663433 H          1 MOL1         0.1026
      20    H14     19.171052   19.164945   19.124988 H          1 MOL1         0.1026
@<TRIPOS>BOND
    1     1     2    1
    2     1     3    1
    3     1     4    1
    4     1     5    1
    5     5     6    1
    6     5     7    1
    7     5     8    1
    8     8     9    1
    9     8    10    1
   10     8    11    1
   11    11    12    1
   12    11    13    1
   13    11    14    1
   14    14    15    1
   15    14    16    1
   16    14    17    1
   17    17    18    1
   18    17    19    1
   19    17    20    1
@<TRIPOS>SUBSTRUCTURE
       1 MOL1            1 RESIDUE      1      MOL     
@<SCITEGIC>MOL_PROPERTY
VConf Rank
SciTegic.value.IntegerValue
363

@<SCITEGIC>MOL_PROPERTY
Conf_Id
SciTegic.value.IntegerValue
37

@<SCITEGIC>MOL_PROPERTY
Delta U+W
SciTegic.value.DoubleValue
-0.021

@<SCITEGIC>MOL_PROPERTY
U+W
SciTegic.value.DoubleValue
15.318

@<SCITEGIC>MOL_PROPERTY
Grad RMS
SciTegic.value.DoubleValue
0.000000

@<SCITEGIC>MOL_PROPERTY
U
SciTegic.value.DoubleValue
69.657

@<SCITEGIC>MOL_PROPERTY
W
SciTegic.value.DoubleValue
-54.340

@<SCITEGIC>MOL_PROPERTY
W(PB)
SciTegic.value.DoubleValue
-56.238

@<SCITEGIC>MOL_PROPERTY
W(SA)
SciTegic.value.DoubleValue
1.899

@<SCITEGIC>MOL_PROPERTY
Valence
SciTegic.value.DoubleValue
1.137

@<SCITEGIC>MOL_PROPERTY
Coulomb
SciTegic.value.DoubleValue
68.383

@<SCITEGIC>MOL_PROPERTY
VdW
SciTegic.value.DoubleValue
0.138

@<SCITEGIC>MOL_PROPERTY
VdW6
SciTegic.value.DoubleValue
-3.703

@<SCITEGIC>MOL_PROPERTY
VdW12
SciTegic.value.DoubleValue
3.841

@<SCITEGIC>MOL_PROPERTY
Bond
SciTegic.value.DoubleValue
0.125

@<SCITEGIC>MOL_PROPERTY
Angle
SciTegic.value.DoubleValue
0.468

@<SCITEGIC>MOL_PROPERTY
Pdih
SciTegic.value.DoubleValue
0.543

@<SCITEGIC>MOL_PROPERTY
Idih
SciTegic.value.DoubleValue
0.000

@<SCITEGIC>MOL_PROPERTY
Tether
SciTegic.value.DoubleValue
0.000

@<TRIPOS>MOLECULE
guest-s9_confgen4.mol2 : confsearch ligand conformer 364
          20          19           1
SMALL
USER_CHARGES
 
@<TRIPOS>ATOM
       1    C1      19.503162   20.778309   24.183091 C.3        1 MOL1        -0.2224
       2    H1      19.741111   21.806590   24.484819 H          1 MOL1         0.1052
       3    H2      18.421928   20.723115   24.001282 H          1 MOL1         0.1052
       4    H3      19.741919   20.116924   25.026142 H          1 MOL1         0.1052
       5    C2      20.300402   20.381514   22.921652 C.3        1 MOL1        -0.1209
       6    H4      21.376368   20.480435   23.123695 H          1 MOL1         0.1041
       7    H5      20.066496   21.081179   22.106739 H          1 MOL1         0.1041
       8    C3      19.985512   18.937311   22.473535 C.3        1 MOL1        -0.1274
       9    H6      20.223434   18.238608   23.286450 H          1 MOL1         0.1041
      10    H7      18.910469   18.843320   22.273032 H          1 MOL1         0.1041
      11    C4      20.787627   18.549792   21.214008 C.3        1 MOL1         0.0313
      12    H8      21.853504   18.678747   21.418832 H          1 MOL1         0.1015
      13    H9      20.520297   19.210795   20.385762 H          1 MOL1         0.1015
      14    N1      20.586864   17.115528   20.752122 N.4        1 MOL1        -0.4809
      15    H10     20.798964   16.459885   21.519534 H          1 MOL1         0.3726
      16    H11     21.274038   16.890863   20.015505 H          1 MOL1         0.3726
      17    C5      19.172975   16.895147   20.224992 C.3        1 MOL1        -0.0677
      18    H12     18.984147   17.587683   19.401922 H          1 MOL1         0.1026
      19    H13     19.080331   15.866754   19.868906 H          1 MOL1         0.1026
      20    H14     18.454844   17.070167   21.028449 H          1 MOL1         0.1026
@<TRIPOS>BOND
    1     1     2    1
    2     1     3    1
    3     1     4    1
    4     1     5    1
    5     5     6    1
    6     5     7    1
    7     5     8    1
    8     8     9    1
    9     8    10    1
   10     8    11    1
   11    11    12    1
   12    11    13    1
   13    11    14    1
   14    14    15    1
   15    14    16    1
   16    14    17    1
   17    17    18    1
   18    17    19    1
   19    17    20    1
@<TRIPOS>SUBSTRUCTURE
       1 MOL1            1 RESIDUE      1      MOL     
@<SCITEGIC>MOL_PROPERTY
VConf Rank
SciTegic.value.IntegerValue
364

@<SCITEGIC>MOL_PROPERTY
Conf_Id
SciTegic.value.IntegerValue
2

@<SCITEGIC>MOL_PROPERTY
Delta U+W
SciTegic.value.DoubleValue
0.069

@<SCITEGIC>MOL_PROPERTY
U+W
SciTegic.value.DoubleValue
15.407

@<SCITEGIC>MOL_PROPERTY
Grad RMS
SciTegic.value.DoubleValue
0.000000

@<SCITEGIC>MOL_PROPERTY
U
SciTegic.value.DoubleValue
69.657

@<SCITEGIC>MOL_PROPERTY
W
SciTegic.value.DoubleValue
-54.250

@<SCITEGIC>MOL_PROPERTY
W(PB)
SciTegic.value.DoubleValue
-56.176

@<SCITEGIC>MOL_PROPERTY
W(SA)
SciTegic.value.DoubleValue
1.926

@<SCITEGIC>MOL_PROPERTY
Valence
SciTegic.value.DoubleValue
1.137

@<SCITEGIC>MOL_PROPERTY
Coulomb
SciTegic.value.DoubleValue
68.383

@<SCITEGIC>MOL_PROPERTY
VdW
SciTegic.value.DoubleValue
0.138

@<SCITEGIC>MOL_PROPERTY
VdW6
SciTegic.value.DoubleValue
-3.703

@<SCITEGIC>MOL_PROPERTY
VdW12
SciTegic.value.DoubleValue
3.841

@<SCITEGIC>MOL_PROPERTY
Bond
SciTegic.value.DoubleValue
0.125

@<SCITEGIC>MOL_PROPERTY
Angle
SciTegic.value.DoubleValue
0.468

@<SCITEGIC>MOL_PROPERTY
Pdih
SciTegic.value.DoubleValue
0.543

@<SCITEGIC>MOL_PROPERTY
Idih
SciTegic.value.DoubleValue
0.000

@<SCITEGIC>MOL_PROPERTY
Tether
SciTegic.value.DoubleValue
0.000

@<TRIPOS>MOLECULE
guest-s9_confgen4.mol2 : confsearch ligand conformer 365
          20          19           1
SMALL
USER_CHARGES
 
@<TRIPOS>ATOM
       1    C1      20.462699   16.352784   20.937027 C.3        1 MOL1        -0.2224
       2    H1      20.284128   17.112116   20.165282 H          1 MOL1         0.1052
       3    H2      21.539471   16.325799   21.149004 H          1 MOL1         0.1052
       4    H3      20.180473   15.379640   20.514738 H          1 MOL1         0.1052
       5    C2      19.649925   16.643335   22.219706 C.3        1 MOL1        -0.1209
       6    H4      19.786059   15.812469   22.926206 H          1 MOL1         0.1041
       7    H5      18.577795   16.671051   21.978925 H          1 MOL1         0.1041
       8    C3      20.063067   17.963630   22.911309 C.3        1 MOL1        -0.1274
       9    H6      19.502720   18.065692   23.850165 H          1 MOL1         0.1041
      10    H7      21.126293   17.920025   23.182448 H          1 MOL1         0.1041
      11    C4      19.803706   19.201639   22.030791 C.3        1 MOL1         0.0313
      12    H8      18.745074   19.246185   21.763045 H          1 MOL1         0.1015
      13    H9      20.388200   19.128179   21.110608 H          1 MOL1         0.1015
      14    N1      20.168391   20.508460   22.707322 N.4        1 MOL1        -0.4809
      15    H10     21.161913   20.501211   22.984723 H          1 MOL1         0.3726
      16    H11     19.640169   20.614250   23.587034 H          1 MOL1         0.3726
      17    C5      19.884358   21.675191   21.770756 C.3        1 MOL1        -0.0677
      18    H12     18.821875   21.683441   21.518041 H          1 MOL1         0.1026
      19    H13     20.151175   22.609247   22.270106 H          1 MOL1         0.1026
      20    H14     20.479488   21.560553   20.862197 H          1 MOL1         0.1026
@<TRIPOS>BOND
    1     1     2    1
    2     1     3    1
    3     1     4    1
    4     1     5    1
    5     5     6    1
    6     5     7    1
    7     5     8    1
    8     8     9    1
    9     8    10    1
   10     8    11    1
   11    11    12    1
   12    11    13    1
   13    11    14    1
   14    14    15    1
   15    14    16    1
   16    14    17    1
   17    17    18    1
   18    17    19    1
   19    17    20    1
@<TRIPOS>SUBSTRUCTURE
       1 MOL1            1 RESIDUE      1      MOL     
@<SCITEGIC>MOL_PROPERTY
VConf Rank
SciTegic.value.IntegerValue
365

@<SCITEGIC>MOL_PROPERTY
Conf_Id
SciTegic.value.IntegerValue
34

@<SCITEGIC>MOL_PROPERTY
Delta U+W
SciTegic.value.DoubleValue
0.276

@<SCITEGIC>MOL_PROPERTY
U+W
SciTegic.value.DoubleValue
15.615

@<SCITEGIC>MOL_PROPERTY
Grad RMS
SciTegic.value.DoubleValue
0.000000

@<SCITEGIC>MOL_PROPERTY
U
SciTegic.value.DoubleValue
69.798

@<SCITEGIC>MOL_PROPERTY
W
SciTegic.value.DoubleValue
-54.184

@<SCITEGIC>MOL_PROPERTY
W(PB)
SciTegic.value.DoubleValue
-56.116

@<SCITEGIC>MOL_PROPERTY
W(SA)
SciTegic.value.DoubleValue
1.933

@<SCITEGIC>MOL_PROPERTY
Valence
SciTegic.value.DoubleValue
1.134

@<SCITEGIC>MOL_PROPERTY
Coulomb
SciTegic.value.DoubleValue
68.735

@<SCITEGIC>MOL_PROPERTY
VdW
SciTegic.value.DoubleValue
-0.070

@<SCITEGIC>MOL_PROPERTY
VdW6
SciTegic.value.DoubleValue
-3.565

@<SCITEGIC>MOL_PROPERTY
VdW12
SciTegic.value.DoubleValue
3.494

@<SCITEGIC>MOL_PROPERTY
Bond
SciTegic.value.DoubleValue
0.108

@<SCITEGIC>MOL_PROPERTY
Angle
SciTegic.value.DoubleValue
0.456

@<SCITEGIC>MOL_PROPERTY
Pdih
SciTegic.value.DoubleValue
0.569

@<SCITEGIC>MOL_PROPERTY
Idih
SciTegic.value.DoubleValue
0.000

@<SCITEGIC>MOL_PROPERTY
Tether
SciTegic.value.DoubleValue
0.000

@<TRIPOS>MOLECULE
guest-s9_confgen4.mol2 : confsearch ligand conformer 366
          20          19           1
SMALL
USER_CHARGES
 
@<TRIPOS>ATOM
       1    C1      20.998145   21.110824   20.293741 C.3        1 MOL1        -0.2224
       2    H1      20.805383   22.052190   20.824628 H          1 MOL1         0.1052
       3    H2      21.993059   21.181523   19.835295 H          1 MOL1         0.1052
       4    H3      20.261361   21.017692   19.485251 H          1 MOL1         0.1052
       5    C2      20.924602   19.904576   21.254773 C.3        1 MOL1        -0.1209
       6    H4      21.693822   20.011400   22.032729 H          1 MOL1         0.1041
       7    H5      21.161762   18.987769   20.698251 H          1 MOL1         0.1041
       8    C3      19.530582   19.782336   21.914280 C.3        1 MOL1        -0.1274
       9    H6      19.291482   20.720005   22.433404 H          1 MOL1         0.1041
      10    H7      18.759757   19.646987   21.143977 H          1 MOL1         0.1041
      11    C4      19.449906   18.627662   22.932985 C.3        1 MOL1         0.0313
      12    H8      18.475249   18.649420   23.427141 H          1 MOL1         0.1015
      13    H9      20.221077   18.756885   23.696550 H          1 MOL1         0.1015
      14    N1      19.621713   17.249809   22.321519 N.4        1 MOL1        -0.4809
      15    H10     20.532904   17.183830   21.844201 H          1 MOL1         0.3726
      16    H11     18.914455   17.096413   21.586467 H          1 MOL1         0.3726
      17    C5      19.508220   16.183612   23.402806 C.3        1 MOL1        -0.0677
      18    H12     20.286410   16.346184   24.151660 H          1 MOL1         0.1026
      19    H13     18.524241   16.250311   23.871978 H          1 MOL1         0.1026
      20    H14     19.633717   15.197866   22.949435 H          1 MOL1         0.1026
@<TRIPOS>BOND
    1     1     2    1
    2     1     3    1
    3     1     4    1
    4     1     5    1
    5     5     6    1
    6     5     7    1
    7     5     8    1
    8     8     9    1
    9     8    10    1
   10     8    11    1
   11    11    12    1
   12    11    13    1
   13    11    14    1
   14    14    15    1
   15    14    16    1
   16    14    17    1
   17    17    18    1
   18    17    19    1
   19    17    20    1
@<TRIPOS>SUBSTRUCTURE
       1 MOL1            1 RESIDUE      1      MOL     
@<SCITEGIC>MOL_PROPERTY
VConf Rank
SciTegic.value.IntegerValue
366

@<SCITEGIC>MOL_PROPERTY
Conf_Id
SciTegic.value.IntegerValue
50

@<SCITEGIC>MOL_PROPERTY
Delta U+W
SciTegic.value.DoubleValue
0.319

@<SCITEGIC>MOL_PROPERTY
U+W
SciTegic.value.DoubleValue
15.657

@<SCITEGIC>MOL_PROPERTY
Grad RMS
SciTegic.value.DoubleValue
0.000000

@<SCITEGIC>MOL_PROPERTY
U
SciTegic.value.DoubleValue
69.962

@<SCITEGIC>MOL_PROPERTY
W
SciTegic.value.DoubleValue
-54.305

@<SCITEGIC>MOL_PROPERTY
W(PB)
SciTegic.value.DoubleValue
-56.223

@<SCITEGIC>MOL_PROPERTY
W(SA)
SciTegic.value.DoubleValue
1.918

@<SCITEGIC>MOL_PROPERTY
Valence
SciTegic.value.DoubleValue
0.982

@<SCITEGIC>MOL_PROPERTY
Coulomb
SciTegic.value.DoubleValue
69.058

@<SCITEGIC>MOL_PROPERTY
VdW
SciTegic.value.DoubleValue
-0.078

@<SCITEGIC>MOL_PROPERTY
VdW6
SciTegic.value.DoubleValue
-3.548

@<SCITEGIC>MOL_PROPERTY
VdW12
SciTegic.value.DoubleValue
3.471

@<SCITEGIC>MOL_PROPERTY
Bond
SciTegic.value.DoubleValue
0.105

@<SCITEGIC>MOL_PROPERTY
Angle
SciTegic.value.DoubleValue
0.408

@<SCITEGIC>MOL_PROPERTY
Pdih
SciTegic.value.DoubleValue
0.469

@<SCITEGIC>MOL_PROPERTY
Idih
SciTegic.value.DoubleValue
0.000

@<SCITEGIC>MOL_PROPERTY
Tether
SciTegic.value.DoubleValue
0.000

@<TRIPOS>MOLECULE
guest-s9_confgen4.mol2 : confsearch ligand conformer 367
          20          19           1
SMALL
USER_CHARGES
 
@<TRIPOS>ATOM
       1    C1      21.934649   17.613877   24.066468 C.3        1 MOL1        -0.2224
       2    H1      22.061665   17.975829   25.095003 H          1 MOL1         0.1052
       3    H2      21.754745   16.531835   24.111082 H          1 MOL1         0.1052
       4    H3      22.878956   17.781287   23.532202 H          1 MOL1         0.1052
       5    C2      20.765399   18.344428   23.371362 C.3        1 MOL1        -0.1209
       6    H4      20.961264   19.425184   23.381311 H          1 MOL1         0.1041
       7    H5      19.842439   18.183983   23.946449 H          1 MOL1         0.1041
       8    C3      20.565734   17.852183   21.918428 C.3        1 MOL1        -0.1274
       9    H6      21.474764   18.035211   21.330191 H          1 MOL1         0.1041
      10    H7      20.410116   16.765145   21.921947 H          1 MOL1         0.1041
      11    C4      19.359399   18.514399   21.222893 C.3        1 MOL1         0.0313
      12    H8      18.454815   18.339204   21.810660 H          1 MOL1         0.1015
      13    H9      19.217581   18.062460   20.237877 H          1 MOL1         0.1015
      14    N1      19.505672   20.011147   21.022300 N.4        1 MOL1        -0.4809
      15    H10     20.357915   20.215260   20.478176 H          1 MOL1         0.3726
      16    H11     19.640484   20.479984   21.930304 H          1 MOL1         0.3726
      17    C5      18.275345   20.563337   20.315037 C.3        1 MOL1        -0.0677
      18    H12     18.393677   21.640382   20.177339 H          1 MOL1         0.1026
      19    H13     18.170912   20.077297   19.342595 H          1 MOL1         0.1026
      20    H14     17.390752   20.365058   20.924113 H          1 MOL1         0.1026
@<TRIPOS>BOND
    1     1     2    1
    2     1     3    1
    3     1     4    1
    4     1     5    1
    5     5     6    1
    6     5     7    1
    7     5     8    1
    8     8     9    1
    9     8    10    1
   10     8    11    1
   11    11    12    1
   12    11    13    1
   13    11    14    1
   14    14    15    1
   15    14    16    1
   16    14    17    1
   17    17    18    1
   18    17    19    1
   19    17    20    1
@<TRIPOS>SUBSTRUCTURE
       1 MOL1            1 RESIDUE      1      MOL     
@<SCITEGIC>MOL_PROPERTY
VConf Rank
SciTegic.value.IntegerValue
367

@<SCITEGIC>MOL_PROPERTY
Conf_Id
SciTegic.value.IntegerValue
35

@<SCITEGIC>MOL_PROPERTY
Delta U+W
SciTegic.value.DoubleValue
0.360

@<SCITEGIC>MOL_PROPERTY
U+W
SciTegic.value.DoubleValue
15.698

@<SCITEGIC>MOL_PROPERTY
Grad RMS
SciTegic.value.DoubleValue
0.000000

@<SCITEGIC>MOL_PROPERTY
U
SciTegic.value.DoubleValue
69.962

@<SCITEGIC>MOL_PROPERTY
W
SciTegic.value.DoubleValue
-54.264

@<SCITEGIC>MOL_PROPERTY
W(PB)
SciTegic.value.DoubleValue
-56.166

@<SCITEGIC>MOL_PROPERTY
W(SA)
SciTegic.value.DoubleValue
1.902

@<SCITEGIC>MOL_PROPERTY
Valence
SciTegic.value.DoubleValue
0.982

@<SCITEGIC>MOL_PROPERTY
Coulomb
SciTegic.value.DoubleValue
69.058

@<SCITEGIC>MOL_PROPERTY
VdW
SciTegic.value.DoubleValue
-0.078

@<SCITEGIC>MOL_PROPERTY
VdW6
SciTegic.value.DoubleValue
-3.548

@<SCITEGIC>MOL_PROPERTY
VdW12
SciTegic.value.DoubleValue
3.471

@<SCITEGIC>MOL_PROPERTY
Bond
SciTegic.value.DoubleValue
0.105

@<SCITEGIC>MOL_PROPERTY
Angle
SciTegic.value.DoubleValue
0.408

@<SCITEGIC>MOL_PROPERTY
Pdih
SciTegic.value.DoubleValue
0.469

@<SCITEGIC>MOL_PROPERTY
Idih
SciTegic.value.DoubleValue
0.000

@<SCITEGIC>MOL_PROPERTY
Tether
SciTegic.value.DoubleValue
0.000

@<TRIPOS>MOLECULE
guest-s9_confgen4.mol2 : confsearch ligand conformer 368
          20          19           1
SMALL
USER_CHARGES
 
@<TRIPOS>ATOM
       1    C1      19.445918   17.969843   24.382241 C.3        1 MOL1        -0.2224
       2    H1      19.119185   19.016945   24.352357 H          1 MOL1         0.1052
       3    H2      18.920408   17.483014   25.213992 H          1 MOL1         0.1052
       4    H3      20.519893   17.952220   24.608870 H          1 MOL1         0.1052
       5    C2      19.145986   17.242499   23.051369 C.3        1 MOL1        -0.1209
       6    H4      18.066846   17.278976   22.845713 H          1 MOL1         0.1041
       7    H5      19.404140   16.179451   23.157540 H          1 MOL1         0.1041
       8    C3      19.925445   17.831676   21.852541 C.3        1 MOL1        -0.1274
       9    H6      21.003064   17.758227   22.047612 H          1 MOL1         0.1041
      10    H7      19.724806   17.222427   20.961432 H          1 MOL1         0.1041
      11    C4      19.541357   19.297888   21.559004 C.3        1 MOL1         0.0313
      12    H8      19.798109   19.927994   22.413873 H          1 MOL1         0.1015
      13    H9      18.460679   19.357520   21.406863 H          1 MOL1         0.1015
      14    N1      20.205407   19.891023   20.327085 N.4        1 MOL1        -0.4809
      15    H10     19.775855   20.803744   20.108834 H          1 MOL1         0.3726
      16    H11     20.013822   19.304754   19.500463 H          1 MOL1         0.3726
      17    C5      21.706326   20.062070   20.535295 C.3        1 MOL1        -0.0677
      18    H12     22.163326   19.084419   20.700340 H          1 MOL1         0.1026
      19    H13     22.140494   20.523630   19.645675 H          1 MOL1         0.1026
      20    H14     21.878192   20.702558   21.403012 H          1 MOL1         0.1026
@<TRIPOS>BOND
    1     1     2    1
    2     1     3    1
    3     1     4    1
    4     1     5    1
    5     5     6    1
    6     5     7    1
    7     5     8    1
    8     8     9    1
    9     8    10    1
   10     8    11    1
   11    11    12    1
   12    11    13    1
   13    11    14    1
   14    14    15    1
   15    14    16    1
   16    14    17    1
   17    17    18    1
   18    17    19    1
   19    17    20    1
@<TRIPOS>SUBSTRUCTURE
       1 MOL1            1 RESIDUE      1      MOL     
@<SCITEGIC>MOL_PROPERTY
VConf Rank
SciTegic.value.IntegerValue
368

@<SCITEGIC>MOL_PROPERTY
Conf_Id
SciTegic.value.IntegerValue
33

@<SCITEGIC>MOL_PROPERTY
Delta U+W
SciTegic.value.DoubleValue
0.372

@<SCITEGIC>MOL_PROPERTY
U+W
SciTegic.value.DoubleValue
15.711

@<SCITEGIC>MOL_PROPERTY
Grad RMS
SciTegic.value.DoubleValue
0.000000

@<SCITEGIC>MOL_PROPERTY
U
SciTegic.value.DoubleValue
70.163

@<SCITEGIC>MOL_PROPERTY
W
SciTegic.value.DoubleValue
-54.452

@<SCITEGIC>MOL_PROPERTY
W(PB)
SciTegic.value.DoubleValue
-56.363

@<SCITEGIC>MOL_PROPERTY
W(SA)
SciTegic.value.DoubleValue
1.911

@<SCITEGIC>MOL_PROPERTY
Valence
SciTegic.value.DoubleValue
1.420

@<SCITEGIC>MOL_PROPERTY
Coulomb
SciTegic.value.DoubleValue
68.566

@<SCITEGIC>MOL_PROPERTY
VdW
SciTegic.value.DoubleValue
0.177

@<SCITEGIC>MOL_PROPERTY
VdW6
SciTegic.value.DoubleValue
-4.267

@<SCITEGIC>MOL_PROPERTY
VdW12
SciTegic.value.DoubleValue
4.445

@<SCITEGIC>MOL_PROPERTY
Bond
SciTegic.value.DoubleValue
0.146

@<SCITEGIC>MOL_PROPERTY
Angle
SciTegic.value.DoubleValue
0.581

@<SCITEGIC>MOL_PROPERTY
Pdih
SciTegic.value.DoubleValue
0.693

@<SCITEGIC>MOL_PROPERTY
Idih
SciTegic.value.DoubleValue
0.000

@<SCITEGIC>MOL_PROPERTY
Tether
SciTegic.value.DoubleValue
0.000

@<TRIPOS>MOLECULE
guest-s9_confgen4.mol2 : confsearch ligand conformer 369
          20          19           1
SMALL
USER_CHARGES
 
@<TRIPOS>ATOM
       1    C1      18.523449   17.591242   20.410371 C.3        1 MOL1        -0.2224
       2    H1      17.694244   17.396577   19.717913 H          1 MOL1         0.1052
       3    H2      19.425282   17.757541   19.807784 H          1 MOL1         0.1052
       4    H3      18.675783   16.686271   21.012798 H          1 MOL1         0.1052
       5    C2      18.206234   18.809941   21.307232 C.3        1 MOL1        -0.1209
       6    H4      17.250264   18.637655   21.821456 H          1 MOL1         0.1041
       7    H5      18.063476   19.701975   20.681083 H          1 MOL1         0.1041
       8    C3      19.302597   19.084027   22.363046 C.3        1 MOL1        -0.1274
       9    H6      18.977513   19.909365   23.010080 H          1 MOL1         0.1041
      10    H7      19.414303   18.203486   23.008709 H          1 MOL1         0.1041
      11    C4      20.661304   19.446634   21.725948 C.3        1 MOL1         0.0313
      12    H8      20.522639   20.299735   21.056949 H          1 MOL1         0.1015
      13    H9      21.029504   18.606895   21.131791 H          1 MOL1         0.1015
      14    N1      21.746068   19.823756   22.721673 N.4        1 MOL1        -0.4809
      15    H10     21.423912   20.594626   23.326398 H          1 MOL1         0.3726
      16    H11     22.560448   20.206979   22.216566 H          1 MOL1         0.3726
      17    C5      22.173810   18.621360   23.556328 C.3        1 MOL1        -0.0677
      18    H12     22.977666   18.922545   24.231654 H          1 MOL1         0.1026
      19    H13     21.322536   18.262300   24.137960 H          1 MOL1         0.1026
      20    H14     22.528551   17.830481   22.891974 H          1 MOL1         0.1026
@<TRIPOS>BOND
    1     1     2    1
    2     1     3    1
    3     1     4    1
    4     1     5    1
    5     5     6    1
    6     5     7    1
    7     5     8    1
    8     8     9    1
    9     8    10    1
   10     8    11    1
   11    11    12    1
   12    11    13    1
   13    11    14    1
   14    14    15    1
   15    14    16    1
   16    14    17    1
   17    17    18    1
   18    17    19    1
   19    17    20    1
@<TRIPOS>SUBSTRUCTURE
       1 MOL1            1 RESIDUE      1      MOL     
@<SCITEGIC>MOL_PROPERTY
VConf Rank
SciTegic.value.IntegerValue
369

@<SCITEGIC>MOL_PROPERTY
Conf_Id
SciTegic.value.IntegerValue
53

@<SCITEGIC>MOL_PROPERTY
Delta U+W
SciTegic.value.DoubleValue
0.379

@<SCITEGIC>MOL_PROPERTY
U+W
SciTegic.value.DoubleValue
15.717

@<SCITEGIC>MOL_PROPERTY
Grad RMS
SciTegic.value.DoubleValue
0.000000

@<SCITEGIC>MOL_PROPERTY
U
SciTegic.value.DoubleValue
70.163

@<SCITEGIC>MOL_PROPERTY
W
SciTegic.value.DoubleValue
-54.446

@<SCITEGIC>MOL_PROPERTY
W(PB)
SciTegic.value.DoubleValue
-56.322

@<SCITEGIC>MOL_PROPERTY
W(SA)
SciTegic.value.DoubleValue
1.876

@<SCITEGIC>MOL_PROPERTY
Valence
SciTegic.value.DoubleValue
1.420

@<SCITEGIC>MOL_PROPERTY
Coulomb
SciTegic.value.DoubleValue
68.566

@<SCITEGIC>MOL_PROPERTY
VdW
SciTegic.value.DoubleValue
0.177

@<SCITEGIC>MOL_PROPERTY
VdW6
SciTegic.value.DoubleValue
-4.267

@<SCITEGIC>MOL_PROPERTY
VdW12
SciTegic.value.DoubleValue
4.445

@<SCITEGIC>MOL_PROPERTY
Bond
SciTegic.value.DoubleValue
0.146

@<SCITEGIC>MOL_PROPERTY
Angle
SciTegic.value.DoubleValue
0.581

@<SCITEGIC>MOL_PROPERTY
Pdih
SciTegic.value.DoubleValue
0.693

@<SCITEGIC>MOL_PROPERTY
Idih
SciTegic.value.DoubleValue
0.000

@<SCITEGIC>MOL_PROPERTY
Tether
SciTegic.value.DoubleValue
0.000

@<TRIPOS>MOLECULE
guest-s9_confgen4.mol2 : confsearch ligand conformer 370
          20          19           1
SMALL
USER_CHARGES
 
@<TRIPOS>ATOM
       1    C1      20.884217   17.632433   24.383530 C.3        1 MOL1        -0.2224
       2    H1      20.314711   17.569986   25.319887 H          1 MOL1         0.1052
       3    H2      21.359376   16.657473   24.213755 H          1 MOL1         0.1052
       4    H3      21.676878   18.379329   24.521360 H          1 MOL1         0.1052
       5    C2      19.959814   18.013584   23.207025 C.3        1 MOL1        -0.1209
       6    H4      19.473752   18.973245   23.429404 H          1 MOL1         0.1041
       7    H5      19.159820   17.265464   23.114792 H          1 MOL1         0.1041
       8    C3      20.739317   18.110332   21.874456 C.3        1 MOL1        -0.1274
       9    H6      21.522346   18.875568   21.952038 H          1 MOL1         0.1041
      10    H7      21.255731   17.159745   21.686443 H          1 MOL1         0.1041
      11    C4      19.826752   18.413915   20.665439 C.3        1 MOL1         0.0313
      12    H8      19.089263   17.613155   20.567855 H          1 MOL1         0.1015
      13    H9      20.426044   18.429897   19.751608 H          1 MOL1         0.1015
      14    N1      19.063833   19.728189   20.738026 N.4        1 MOL1        -0.4809
      15    H10     18.485247   19.757125   21.590336 H          1 MOL1         0.3726
      16    H11     18.389972   19.779331   19.957949 H          1 MOL1         0.3726
      17    C5      20.010218   20.922522   20.684574 C.3        1 MOL1        -0.0677
      18    H12     20.595431   20.876421   19.763673 H          1 MOL1         0.1026
      19    H13     19.424580   21.844279   20.702610 H          1 MOL1         0.1026
      20    H14     20.676747   20.895110   21.548867 H          1 MOL1         0.1026
@<TRIPOS>BOND
    1     1     2    1
    2     1     3    1
    3     1     4    1
    4     1     5    1
    5     5     6    1
    6     5     7    1
    7     5     8    1
    8     8     9    1
    9     8    10    1
   10     8    11    1
   11    11    12    1
   12    11    13    1
   13    11    14    1
   14    14    15    1
   15    14    16    1
   16    14    17    1
   17    17    18    1
   18    17    19    1
   19    17    20    1
@<TRIPOS>SUBSTRUCTURE
       1 MOL1            1 RESIDUE      1      MOL     
@<SCITEGIC>MOL_PROPERTY
VConf Rank
SciTegic.value.IntegerValue
370

@<SCITEGIC>MOL_PROPERTY
Conf_Id
SciTegic.value.IntegerValue
49

@<SCITEGIC>MOL_PROPERTY
Delta U+W
SciTegic.value.DoubleValue
0.268

@<SCITEGIC>MOL_PROPERTY
U+W
SciTegic.value.DoubleValue
15.607

@<SCITEGIC>MOL_PROPERTY
Grad RMS
SciTegic.value.DoubleValue
0.000000

@<SCITEGIC>MOL_PROPERTY
U
SciTegic.value.DoubleValue
70.298

@<SCITEGIC>MOL_PROPERTY
W
SciTegic.value.DoubleValue
-54.692

@<SCITEGIC>MOL_PROPERTY
W(PB)
SciTegic.value.DoubleValue
-56.576

@<SCITEGIC>MOL_PROPERTY
W(SA)
SciTegic.value.DoubleValue
1.885

@<SCITEGIC>MOL_PROPERTY
Valence
SciTegic.value.DoubleValue
1.245

@<SCITEGIC>MOL_PROPERTY
Coulomb
SciTegic.value.DoubleValue
68.933

@<SCITEGIC>MOL_PROPERTY
VdW
SciTegic.value.DoubleValue
0.120

@<SCITEGIC>MOL_PROPERTY
VdW6
SciTegic.value.DoubleValue
-4.430

@<SCITEGIC>MOL_PROPERTY
VdW12
SciTegic.value.DoubleValue
4.550

@<SCITEGIC>MOL_PROPERTY
Bond
SciTegic.value.DoubleValue
0.148

@<SCITEGIC>MOL_PROPERTY
Angle
SciTegic.value.DoubleValue
0.587

@<SCITEGIC>MOL_PROPERTY
Pdih
SciTegic.value.DoubleValue
0.509

@<SCITEGIC>MOL_PROPERTY
Idih
SciTegic.value.DoubleValue
0.000

@<SCITEGIC>MOL_PROPERTY
Tether
SciTegic.value.DoubleValue
0.000

@<TRIPOS>MOLECULE
guest-s9_confgen4.mol2 : confsearch ligand conformer 371
          20          19           1
SMALL
USER_CHARGES
 
@<TRIPOS>ATOM
       1    C1      21.006942   18.144333   24.506347 C.3        1 MOL1        -0.2224
       2    H1      20.090961   18.206830   25.108214 H          1 MOL1         0.1052
       3    H2      21.370555   17.109202   24.544155 H          1 MOL1         0.1052
       4    H3      21.764014   18.783434   24.978989 H          1 MOL1         0.1052
       5    C2      20.747507   18.590873   23.051141 C.3        1 MOL1        -0.1209
       6    H4      21.686518   18.544396   22.481853 H          1 MOL1         0.1041
       7    H5      20.424610   19.640287   23.055050 H          1 MOL1         0.1041
       8    C3      19.675464   17.712472   22.365023 C.3        1 MOL1        -0.1274
       9    H6      19.955802   16.656177   22.471828 H          1 MOL1         0.1041
      10    H7      18.713564   17.829174   22.881437 H          1 MOL1         0.1041
      11    C4      19.488211   18.004599   20.858893 C.3        1 MOL1         0.0313
      12    H8      18.761498   17.289400   20.465034 H          1 MOL1         0.1015
      13    H9      20.427747   17.851025   20.322252 H          1 MOL1         0.1015
      14    N1      18.965498   19.391610   20.517964 N.4        1 MOL1        -0.4809
      15    H10     18.330409   19.728464   21.256903 H          1 MOL1         0.3726
      16    H11     18.378346   19.335288   19.671153 H          1 MOL1         0.3726
      17    C5      20.107139   20.372873   20.272150 C.3        1 MOL1        -0.0677
      18    H12     19.689773   21.347228   20.008716 H          1 MOL1         0.1026
      19    H13     20.714188   20.466856   21.173243 H          1 MOL1         0.1026
      20    H14     20.724488   20.004704   19.449945 H          1 MOL1         0.1026
@<TRIPOS>BOND
    1     1     2    1
    2     1     3    1
    3     1     4    1
    4     1     5    1
    5     5     6    1
    6     5     7    1
    7     5     8    1
    8     8     9    1
    9     8    10    1
   10     8    11    1
   11    11    12    1
   12    11    13    1
   13    11    14    1
   14    14    15    1
   15    14    16    1
   16    14    17    1
   17    17    18    1
   18    17    19    1
   19    17    20    1
@<TRIPOS>SUBSTRUCTURE
       1 MOL1            1 RESIDUE      1      MOL     
@<SCITEGIC>MOL_PROPERTY
VConf Rank
SciTegic.value.IntegerValue
371

@<SCITEGIC>MOL_PROPERTY
Conf_Id
SciTegic.value.IntegerValue
65

@<SCITEGIC>MOL_PROPERTY
Delta U+W
SciTegic.value.DoubleValue
1.775

@<SCITEGIC>MOL_PROPERTY
U+W
SciTegic.value.DoubleValue
17.114

@<SCITEGIC>MOL_PROPERTY
Grad RMS
SciTegic.value.DoubleValue
0.000000

@<SCITEGIC>MOL_PROPERTY
U
SciTegic.value.DoubleValue
71.726

@<SCITEGIC>MOL_PROPERTY
W
SciTegic.value.DoubleValue
-54.613

@<SCITEGIC>MOL_PROPERTY
W(PB)
SciTegic.value.DoubleValue
-56.495

@<SCITEGIC>MOL_PROPERTY
W(SA)
SciTegic.value.DoubleValue
1.883

@<SCITEGIC>MOL_PROPERTY
Valence
SciTegic.value.DoubleValue
2.885

@<SCITEGIC>MOL_PROPERTY
Coulomb
SciTegic.value.DoubleValue
68.822

@<SCITEGIC>MOL_PROPERTY
VdW
SciTegic.value.DoubleValue
0.019

@<SCITEGIC>MOL_PROPERTY
VdW6
SciTegic.value.DoubleValue
-4.600

@<SCITEGIC>MOL_PROPERTY
VdW12
SciTegic.value.DoubleValue
4.619

@<SCITEGIC>MOL_PROPERTY
Bond
SciTegic.value.DoubleValue
0.152

@<SCITEGIC>MOL_PROPERTY
Angle
SciTegic.value.DoubleValue
0.862

@<SCITEGIC>MOL_PROPERTY
Pdih
SciTegic.value.DoubleValue
1.871

@<SCITEGIC>MOL_PROPERTY
Idih
SciTegic.value.DoubleValue
0.000

@<SCITEGIC>MOL_PROPERTY
Tether
SciTegic.value.DoubleValue
0.000

@<TRIPOS>MOLECULE
guest-s9_confgen4.mol2 : confsearch ligand conformer 372
          20          19           1
SMALL
USER_CHARGES
 
@<TRIPOS>ATOM
       1    C1      20.926958   20.501799   23.397722 C.3        1 MOL1        -0.2224
       2    H1      20.382119   20.794687   22.491428 H          1 MOL1         0.1052
       3    H2      20.617712   21.180405   24.203228 H          1 MOL1         0.1052
       4    H3      21.998459   20.660722   23.219673 H          1 MOL1         0.1052
       5    C2      20.639839   19.033104   23.785884 C.3        1 MOL1        -0.1209
       6    H4      19.563332   18.900132   23.959262 H          1 MOL1         0.1041
       7    H5      21.129785   18.815095   24.745275 H          1 MOL1         0.1041
       8    C3      21.139644   18.016797   22.728854 C.3        1 MOL1        -0.1274
       9    H6      22.231752   18.092729   22.643423 H          1 MOL1         0.1041
      10    H7      20.930808   16.996393   23.076574 H          1 MOL1         0.1041
      11    C4      20.521398   18.212126   21.328645 C.3        1 MOL1         0.0313
      12    H8      20.947933   17.479397   20.638924 H          1 MOL1         0.1015
      13    H9      20.764059   19.209826   20.955179 H          1 MOL1         0.1015
      14    N1      19.013367   18.053397   21.293298 N.4        1 MOL1        -0.4809
      15    H10     18.573076   18.725248   21.939248 H          1 MOL1         0.3726
      16    H11     18.745822   17.120088   21.641511 H          1 MOL1         0.3726
      17    C5      18.501356   18.262418   19.874612 C.3        1 MOL1        -0.0677
      18    H12     18.956826   17.520721   19.214917 H          1 MOL1         0.1026
      19    H13     17.415332   18.146594   19.864310 H          1 MOL1         0.1026
      20    H14     18.767646   19.267439   19.540272 H          1 MOL1         0.1026
@<TRIPOS>BOND
    1     1     2    1
    2     1     3    1
    3     1     4    1
    4     1     5    1
    5     5     6    1
    6     5     7    1
    7     5     8    1
    8     8     9    1
    9     8    10    1
   10     8    11    1
   11    11    12    1
   12    11    13    1
   13    11    14    1
   14    14    15    1
   15    14    16    1
   16    14    17    1
   17    17    18    1
   18    17    19    1
   19    17    20    1
@<TRIPOS>SUBSTRUCTURE
       1 MOL1            1 RESIDUE      1      MOL     
@<SCITEGIC>MOL_PROPERTY
VConf Rank
SciTegic.value.IntegerValue
372

@<SCITEGIC>MOL_PROPERTY
Conf_Id
SciTegic.value.IntegerValue
23

@<SCITEGIC>MOL_PROPERTY
Delta U+W
SciTegic.value.DoubleValue
0.896

@<SCITEGIC>MOL_PROPERTY
U+W
SciTegic.value.DoubleValue
16.234

@<SCITEGIC>MOL_PROPERTY
Grad RMS
SciTegic.value.DoubleValue
0.000000

@<SCITEGIC>MOL_PROPERTY
U
SciTegic.value.DoubleValue
70.374

@<SCITEGIC>MOL_PROPERTY
W
SciTegic.value.DoubleValue
-54.140

@<SCITEGIC>MOL_PROPERTY
W(PB)
SciTegic.value.DoubleValue
-56.046

@<SCITEGIC>MOL_PROPERTY
W(SA)
SciTegic.value.DoubleValue
1.907

@<SCITEGIC>MOL_PROPERTY
Valence
SciTegic.value.DoubleValue
1.257

@<SCITEGIC>MOL_PROPERTY
Coulomb
SciTegic.value.DoubleValue
69.240

@<SCITEGIC>MOL_PROPERTY
VdW
SciTegic.value.DoubleValue
-0.123

@<SCITEGIC>MOL_PROPERTY
VdW6
SciTegic.value.DoubleValue
-4.336

@<SCITEGIC>MOL_PROPERTY
VdW12
SciTegic.value.DoubleValue
4.213

@<SCITEGIC>MOL_PROPERTY
Bond
SciTegic.value.DoubleValue
0.128

@<SCITEGIC>MOL_PROPERTY
Angle
SciTegic.value.DoubleValue
0.603

@<SCITEGIC>MOL_PROPERTY
Pdih
SciTegic.value.DoubleValue
0.526

@<SCITEGIC>MOL_PROPERTY
Idih
SciTegic.value.DoubleValue
0.000

@<SCITEGIC>MOL_PROPERTY
Tether
SciTegic.value.DoubleValue
0.000

@<TRIPOS>MOLECULE
guest-s9_confgen4.mol2 : confsearch ligand conformer 373
          20          19           1
SMALL
USER_CHARGES
 
@<TRIPOS>ATOM
       1    C1      17.826865   19.212465   22.493261 C.3        1 MOL1        -0.2224
       2    H1      17.665650   20.275943   22.712567 H          1 MOL1         0.1052
       3    H2      16.847965   18.715965   22.508186 H          1 MOL1         0.1052
       4    H3      18.427770   18.782795   23.304619 H          1 MOL1         0.1052
       5    C2      18.508715   19.025605   21.118367 C.3        1 MOL1        -0.1209
       6    H4      17.830633   19.385412   20.331762 H          1 MOL1         0.1041
       7    H5      18.658127   17.955193   20.922141 H          1 MOL1         0.1041
       8    C3      19.855089   19.782796   21.000319 C.3        1 MOL1        -0.1274
       9    H6      20.271536   19.631988   19.995544 H          1 MOL1         0.1041
      10    H7      19.672147   20.861261   21.096293 H          1 MOL1         0.1041
      11    C4      20.904208   19.365766   22.052177 C.3        1 MOL1         0.0313
      12    H8      20.515306   19.556104   23.055318 H          1 MOL1         0.1015
      13    H9      21.808075   19.965830   21.919941 H          1 MOL1         0.1015
      14    N1      21.306593   17.905336   21.975780 N.4        1 MOL1        -0.4809
      15    H10     21.678776   17.687623   21.038775 H          1 MOL1         0.3726
      16    H11     20.476577   17.304731   22.089077 H          1 MOL1         0.3726
      17    C5      22.341537   17.594059   23.048404 C.3        1 MOL1        -0.0677
      18    H12     21.914011   17.800877   24.031871 H          1 MOL1         0.1026
      19    H13     22.620850   16.540202   22.982533 H          1 MOL1         0.1026
      20    H14     23.223042   18.219011   22.889824 H          1 MOL1         0.1026
@<TRIPOS>BOND
    1     1     2    1
    2     1     3    1
    3     1     4    1
    4     1     5    1
    5     5     6    1
    6     5     7    1
    7     5     8    1
    8     8     9    1
    9     8    10    1
   10     8    11    1
   11    11    12    1
   12    11    13    1
   13    11    14    1
   14    14    15    1
   15    14    16    1
   16    14    17    1
   17    17    18    1
   18    17    19    1
   19    17    20    1
@<TRIPOS>SUBSTRUCTURE
       1 MOL1            1 RESIDUE      1      MOL     
@<SCITEGIC>MOL_PROPERTY
VConf Rank
SciTegic.value.IntegerValue
373

@<SCITEGIC>MOL_PROPERTY
Conf_Id
SciTegic.value.IntegerValue
24

@<SCITEGIC>MOL_PROPERTY
Delta U+W
SciTegic.value.DoubleValue
0.792

@<SCITEGIC>MOL_PROPERTY
U+W
SciTegic.value.DoubleValue
16.130

@<SCITEGIC>MOL_PROPERTY
Grad RMS
SciTegic.value.DoubleValue
0.000000

@<SCITEGIC>MOL_PROPERTY
U
SciTegic.value.DoubleValue
70.374

@<SCITEGIC>MOL_PROPERTY
W
SciTegic.value.DoubleValue
-54.243

@<SCITEGIC>MOL_PROPERTY
W(PB)
SciTegic.value.DoubleValue
-56.130

@<SCITEGIC>MOL_PROPERTY
W(SA)
SciTegic.value.DoubleValue
1.887

@<SCITEGIC>MOL_PROPERTY
Valence
SciTegic.value.DoubleValue
1.257

@<SCITEGIC>MOL_PROPERTY
Coulomb
SciTegic.value.DoubleValue
69.240

@<SCITEGIC>MOL_PROPERTY
VdW
SciTegic.value.DoubleValue
-0.123

@<SCITEGIC>MOL_PROPERTY
VdW6
SciTegic.value.DoubleValue
-4.336

@<SCITEGIC>MOL_PROPERTY
VdW12
SciTegic.value.DoubleValue
4.213

@<SCITEGIC>MOL_PROPERTY
Bond
SciTegic.value.DoubleValue
0.128

@<SCITEGIC>MOL_PROPERTY
Angle
SciTegic.value.DoubleValue
0.603

@<SCITEGIC>MOL_PROPERTY
Pdih
SciTegic.value.DoubleValue
0.526

@<SCITEGIC>MOL_PROPERTY
Idih
SciTegic.value.DoubleValue
0.000

@<SCITEGIC>MOL_PROPERTY
Tether
SciTegic.value.DoubleValue
0.000

@<TRIPOS>MOLECULE
guest-s9_confgen4.mol2 : confsearch ligand conformer 374
          20          19           1
SMALL
USER_CHARGES
 
@<TRIPOS>ATOM
       1    C1      19.893391   16.661682   22.567618 C.3        1 MOL1        -0.2224
       2    H1      19.553381   15.690788   22.950996 H          1 MOL1         0.1052
       3    H2      19.151830   16.993289   21.831294 H          1 MOL1         0.1052
       4    H3      20.852728   16.500144   22.058952 H          1 MOL1         0.1052
       5    C2      20.035153   17.674448   23.726786 C.3        1 MOL1        -0.1209
       6    H4      20.617396   17.205669   24.532581 H          1 MOL1         0.1041
       7    H5      19.043558   17.884658   24.151822 H          1 MOL1         0.1041
       8    C3      20.726652   19.005447   23.335495 C.3        1 MOL1        -0.1274
       9    H6      20.833406   19.610996   24.245293 H          1 MOL1         0.1041
      10    H7      21.747670   18.815325   22.979008 H          1 MOL1         0.1041
      11    C4      19.952684   19.846036   22.297869 C.3        1 MOL1         0.0313
      12    H8      20.287377   20.884720   22.358366 H          1 MOL1         0.1015
      13    H9      18.884029   19.820579   22.525053 H          1 MOL1         0.1015
      14    N1      20.149148   19.401758   20.860853 N.4        1 MOL1        -0.4809
      15    H10     19.896828   18.408236   20.761526 H          1 MOL1         0.3726
      16    H11     21.146988   19.458248   20.605640 H          1 MOL1         0.3726
      17    C5      19.309250   20.264748   19.929062 C.3        1 MOL1        -0.0677
      18    H12     18.255373   20.163591   20.197163 H          1 MOL1         0.1026
      19    H13     19.617519   21.307653   20.029492 H          1 MOL1         0.1026
      20    H14     19.460731   19.933757   18.899272 H          1 MOL1         0.1026
@<TRIPOS>BOND
    1     1     2    1
    2     1     3    1
    3     1     4    1
    4     1     5    1
    5     5     6    1
    6     5     7    1
    7     5     8    1
    8     8     9    1
    9     8    10    1
   10     8    11    1
   11    11    12    1
   12    11    13    1
   13    11    14    1
   14    14    15    1
   15    14    16    1
   16    14    17    1
   17    17    18    1
   18    17    19    1
   19    17    20    1
@<TRIPOS>SUBSTRUCTURE
       1 MOL1            1 RESIDUE      1      MOL     
@<SCITEGIC>MOL_PROPERTY
VConf Rank
SciTegic.value.IntegerValue
374

@<SCITEGIC>MOL_PROPERTY
Conf_Id
SciTegic.value.IntegerValue
26

@<SCITEGIC>MOL_PROPERTY
Delta U+W
SciTegic.value.DoubleValue
2.888

@<SCITEGIC>MOL_PROPERTY
U+W
SciTegic.value.DoubleValue
18.226

@<SCITEGIC>MOL_PROPERTY
Grad RMS
SciTegic.value.DoubleValue
0.000000

@<SCITEGIC>MOL_PROPERTY
U
SciTegic.value.DoubleValue
72.042

@<SCITEGIC>MOL_PROPERTY
W
SciTegic.value.DoubleValue
-53.816

@<SCITEGIC>MOL_PROPERTY
W(PB)
SciTegic.value.DoubleValue
-55.689

@<SCITEGIC>MOL_PROPERTY
W(SA)
SciTegic.value.DoubleValue
1.873

@<SCITEGIC>MOL_PROPERTY
Valence
SciTegic.value.DoubleValue
2.428

@<SCITEGIC>MOL_PROPERTY
Coulomb
SciTegic.value.DoubleValue
69.829

@<SCITEGIC>MOL_PROPERTY
VdW
SciTegic.value.DoubleValue
-0.215

@<SCITEGIC>MOL_PROPERTY
VdW6
SciTegic.value.DoubleValue
-4.563

@<SCITEGIC>MOL_PROPERTY
VdW12
SciTegic.value.DoubleValue
4.348

@<SCITEGIC>MOL_PROPERTY
Bond
SciTegic.value.DoubleValue
0.137

@<SCITEGIC>MOL_PROPERTY
Angle
SciTegic.value.DoubleValue
0.936

@<SCITEGIC>MOL_PROPERTY
Pdih
SciTegic.value.DoubleValue
1.356

@<SCITEGIC>MOL_PROPERTY
Idih
SciTegic.value.DoubleValue
0.000

@<SCITEGIC>MOL_PROPERTY
Tether
SciTegic.value.DoubleValue
0.000

@<TRIPOS>MOLECULE
guest-s9_confgen4.mol2 : confsearch ligand conformer 375
          20          19           1
SMALL
USER_CHARGES
 
@<TRIPOS>ATOM
       1    C1      18.890662   19.933547   20.551668 C.3        1 MOL1        -0.2224
       2    H1      18.086049   20.500796   20.065824 H          1 MOL1         0.1052
       3    H2      19.601485   19.631332   19.771563 H          1 MOL1         0.1052
       4    H3      18.434035   19.035432   20.984023 H          1 MOL1         0.1052
       5    C2      19.577127   20.798650   21.633252 C.3        1 MOL1        -0.1209
       6    H4      18.864127   21.003570   22.444266 H          1 MOL1         0.1041
       7    H5      19.826645   21.775154   21.194791 H          1 MOL1         0.1041
       8    C3      20.872039   20.182499   22.221804 C.3        1 MOL1        -0.1274
       9    H6      21.621827   20.042226   21.431964 H          1 MOL1         0.1041
      10    H7      21.304566   20.909828   22.921612 H          1 MOL1         0.1041
      11    C4      20.658555   18.860054   22.988517 C.3        1 MOL1         0.0313
      12    H8      19.749946   18.925713   23.592174 H          1 MOL1         0.1015
      13    H9      21.502863   18.698166   23.663410 H          1 MOL1         0.1015
      14    N1      20.559417   17.632490   22.102934 N.4        1 MOL1        -0.4809
      15    H10     21.424768   17.521623   21.552588 H          1 MOL1         0.3726
      16    H11     19.808116   17.757754   21.409770 H          1 MOL1         0.3726
      17    C5      20.304481   16.395510   22.953403 C.3        1 MOL1        -0.0677
      18    H12     19.368067   16.521971   23.501038 H          1 MOL1         0.1026
      19    H13     20.235598   15.520667   22.303114 H          1 MOL1         0.1026
      20    H14     21.129573   16.266770   23.657261 H          1 MOL1         0.1026
@<TRIPOS>BOND
    1     1     2    1
    2     1     3    1
    3     1     4    1
    4     1     5    1
    5     5     6    1
    6     5     7    1
    7     5     8    1
    8     8     9    1
    9     8    10    1
   10     8    11    1
   11    11    12    1
   12    11    13    1
   13    11    14    1
   14    14    15    1
   15    14    16    1
   16    14    17    1
   17    17    18    1
   18    17    19    1
   19    17    20    1
@<TRIPOS>SUBSTRUCTURE
       1 MOL1            1 RESIDUE      1      MOL     
@<SCITEGIC>MOL_PROPERTY
VConf Rank
SciTegic.value.IntegerValue
375

@<SCITEGIC>MOL_PROPERTY
Conf_Id
SciTegic.value.IntegerValue
5

@<SCITEGIC>MOL_PROPERTY
Delta U+W
SciTegic.value.DoubleValue
2.950

@<SCITEGIC>MOL_PROPERTY
U+W
SciTegic.value.DoubleValue
18.289

@<SCITEGIC>MOL_PROPERTY
Grad RMS
SciTegic.value.DoubleValue
0.000000

@<SCITEGIC>MOL_PROPERTY
U
SciTegic.value.DoubleValue
72.042

@<SCITEGIC>MOL_PROPERTY
W
SciTegic.value.DoubleValue
-53.753

@<SCITEGIC>MOL_PROPERTY
W(PB)
SciTegic.value.DoubleValue
-55.644

@<SCITEGIC>MOL_PROPERTY
W(SA)
SciTegic.value.DoubleValue
1.891

@<SCITEGIC>MOL_PROPERTY
Valence
SciTegic.value.DoubleValue
2.428

@<SCITEGIC>MOL_PROPERTY
Coulomb
SciTegic.value.DoubleValue
69.829

@<SCITEGIC>MOL_PROPERTY
VdW
SciTegic.value.DoubleValue
-0.215

@<SCITEGIC>MOL_PROPERTY
VdW6
SciTegic.value.DoubleValue
-4.563

@<SCITEGIC>MOL_PROPERTY
VdW12
SciTegic.value.DoubleValue
4.348

@<SCITEGIC>MOL_PROPERTY
Bond
SciTegic.value.DoubleValue
0.137

@<SCITEGIC>MOL_PROPERTY
Angle
SciTegic.value.DoubleValue
0.936

@<SCITEGIC>MOL_PROPERTY
Pdih
SciTegic.value.DoubleValue
1.356

@<SCITEGIC>MOL_PROPERTY
Idih
SciTegic.value.DoubleValue
0.000

@<SCITEGIC>MOL_PROPERTY
Tether
SciTegic.value.DoubleValue
0.000

@<TRIPOS>MOLECULE
guest-s9_confgen4.mol2 : confsearch ligand conformer 376
          20          19           1
SMALL
USER_CHARGES
 
@<TRIPOS>ATOM
       1    C1      20.267594   20.668845   20.384404 C.3        1 MOL1        -0.2224
       2    H1      20.791955   20.369639   19.467573 H          1 MOL1         0.1052
       3    H2      19.238444   20.292735   20.328102 H          1 MOL1         0.1052
       4    H3      20.218834   21.765376   20.398820 H          1 MOL1         0.1052
       5    C2      20.999665   20.142057   21.640074 C.3        1 MOL1        -0.1209
       6    H4      20.459621   20.456535   22.543523 H          1 MOL1         0.1041
       7    H5      21.990428   20.613954   21.700038 H          1 MOL1         0.1041
       8    C3      21.179546   18.603573   21.637330 C.3        1 MOL1        -0.1274
       9    H6      21.801851   18.314610   20.780142 H          1 MOL1         0.1041
      10    H7      21.739248   18.300728   22.531628 H          1 MOL1         0.1041
      11    C4      19.851583   17.815337   21.568536 C.3        1 MOL1         0.0313
      12    H8      20.062545   16.743008   21.573311 H          1 MOL1         0.1015
      13    H9      19.346056   18.051703   20.629040 H          1 MOL1         0.1015
      14    N1      18.871268   18.098529   22.696414 N.4        1 MOL1        -0.4809
      15    H10     17.969009   17.640328   22.493841 H          1 MOL1         0.3726
      16    H11     18.657295   19.105992   22.732989 H          1 MOL1         0.3726
      17    C5      19.412307   17.610386   24.035673 C.3        1 MOL1        -0.0677
      18    H12     20.334485   18.145733   24.270154 H          1 MOL1         0.1026
      19    H13     18.669436   17.801870   24.813093 H          1 MOL1         0.1026
      20    H14     19.611814   16.538493   23.973413 H          1 MOL1         0.1026
@<TRIPOS>BOND
    1     1     2    1
    2     1     3    1
    3     1     4    1
    4     1     5    1
    5     5     6    1
    6     5     7    1
    7     5     8    1
    8     8     9    1
    9     8    10    1
   10     8    11    1
   11    11    12    1
   12    11    13    1
   13    11    14    1
   14    14    15    1
   15    14    16    1
   16    14    17    1
   17    17    18    1
   18    17    19    1
   19    17    20    1
@<TRIPOS>SUBSTRUCTURE
       1 MOL1            1 RESIDUE      1      MOL     
@<SCITEGIC>MOL_PROPERTY
VConf Rank
SciTegic.value.IntegerValue
376

@<SCITEGIC>MOL_PROPERTY
Conf_Id
SciTegic.value.IntegerValue
52

@<SCITEGIC>MOL_PROPERTY
Delta U+W
SciTegic.value.DoubleValue
0.784

@<SCITEGIC>MOL_PROPERTY
U+W
SciTegic.value.DoubleValue
16.122

@<SCITEGIC>MOL_PROPERTY
Grad RMS
SciTegic.value.DoubleValue
0.000000

@<SCITEGIC>MOL_PROPERTY
U
SciTegic.value.DoubleValue
70.777

@<SCITEGIC>MOL_PROPERTY
W
SciTegic.value.DoubleValue
-54.655

@<SCITEGIC>MOL_PROPERTY
W(PB)
SciTegic.value.DoubleValue
-56.491

@<SCITEGIC>MOL_PROPERTY
W(SA)
SciTegic.value.DoubleValue
1.836

@<SCITEGIC>MOL_PROPERTY
Valence
SciTegic.value.DoubleValue
1.529

@<SCITEGIC>MOL_PROPERTY
Coulomb
SciTegic.value.DoubleValue
69.166

@<SCITEGIC>MOL_PROPERTY
VdW
SciTegic.value.DoubleValue
0.082

@<SCITEGIC>MOL_PROPERTY
VdW6
SciTegic.value.DoubleValue
-5.166

@<SCITEGIC>MOL_PROPERTY
VdW12
SciTegic.value.DoubleValue
5.248

@<SCITEGIC>MOL_PROPERTY
Bond
SciTegic.value.DoubleValue
0.171

@<SCITEGIC>MOL_PROPERTY
Angle
SciTegic.value.DoubleValue
0.752

@<SCITEGIC>MOL_PROPERTY
Pdih
SciTegic.value.DoubleValue
0.605

@<SCITEGIC>MOL_PROPERTY
Idih
SciTegic.value.DoubleValue
0.000

@<SCITEGIC>MOL_PROPERTY
Tether
SciTegic.value.DoubleValue
0.000

@<TRIPOS>MOLECULE
guest-s9_confgen4.mol2 : confsearch ligand conformer 377
          20          19           1
SMALL
USER_CHARGES
 
@<TRIPOS>ATOM
       1    C1      20.355345   20.931557   21.536768 C.3        1 MOL1        -0.2224
       2    H1      20.449742   21.941669   21.117325 H          1 MOL1         0.1052
       3    H2      19.443255   20.921146   22.144333 H          1 MOL1         0.1052
       4    H3      21.220079   20.760993   22.191330 H          1 MOL1         0.1052
       5    C2      20.294721   19.884256   20.401493 C.3        1 MOL1        -0.1209
       6    H4      21.109132   20.090659   19.692861 H          1 MOL1         0.1041
       7    H5      19.361063   20.009749   19.835321 H          1 MOL1         0.1041
       8    C3      20.425002   18.414534   20.876645 C.3        1 MOL1        -0.1274
       9    H6      20.463455   17.775184   19.984827 H          1 MOL1         0.1041
      10    H7      21.382988   18.265070   21.390285 H          1 MOL1         0.1041
      11    C4      19.255093   17.917092   21.757222 C.3        1 MOL1         0.0313
      12    H8      19.249939   16.824233   21.764498 H          1 MOL1         0.1015
      13    H9      18.311546   18.251665   21.318760 H          1 MOL1         0.1015
      14    N1      19.281712   18.369728   23.208747 N.4        1 MOL1        -0.4809
      15    H10     18.377405   18.150949   23.655427 H          1 MOL1         0.3726
      16    H11     19.366650   19.394543   23.257557 H          1 MOL1         0.3726
      17    C5      20.413841   17.696963   23.977117 C.3        1 MOL1        -0.0677
      18    H12     20.291055   16.613213   23.921900 H          1 MOL1         0.1026
      19    H13     21.371351   17.983861   23.538390 H          1 MOL1         0.1026
      20    H14     20.378343   18.018225   25.020403 H          1 MOL1         0.1026
@<TRIPOS>BOND
    1     1     2    1
    2     1     3    1
    3     1     4    1
    4     1     5    1
    5     5     6    1
    6     5     7    1
    7     5     8    1
    8     8     9    1
    9     8    10    1
   10     8    11    1
   11    11    12    1
   12    11    13    1
   13    11    14    1
   14    14    15    1
   15    14    16    1
   16    14    17    1
   17    17    18    1
   18    17    19    1
   19    17    20    1
@<TRIPOS>SUBSTRUCTURE
       1 MOL1            1 RESIDUE      1      MOL     
@<SCITEGIC>MOL_PROPERTY
VConf Rank
SciTegic.value.IntegerValue
377

@<SCITEGIC>MOL_PROPERTY
Conf_Id
SciTegic.value.IntegerValue
55

@<SCITEGIC>MOL_PROPERTY
Delta U+W
SciTegic.value.DoubleValue
2.745

@<SCITEGIC>MOL_PROPERTY
U+W
SciTegic.value.DoubleValue
18.083

@<SCITEGIC>MOL_PROPERTY
Grad RMS
SciTegic.value.DoubleValue
0.000000

@<SCITEGIC>MOL_PROPERTY
U
SciTegic.value.DoubleValue
72.490

@<SCITEGIC>MOL_PROPERTY
W
SciTegic.value.DoubleValue
-54.407

@<SCITEGIC>MOL_PROPERTY
W(PB)
SciTegic.value.DoubleValue
-56.269

@<SCITEGIC>MOL_PROPERTY
W(SA)
SciTegic.value.DoubleValue
1.861

@<SCITEGIC>MOL_PROPERTY
Valence
SciTegic.value.DoubleValue
2.738

@<SCITEGIC>MOL_PROPERTY
Coulomb
SciTegic.value.DoubleValue
69.795

@<SCITEGIC>MOL_PROPERTY
VdW
SciTegic.value.DoubleValue
-0.043

@<SCITEGIC>MOL_PROPERTY
VdW6
SciTegic.value.DoubleValue
-5.333

@<SCITEGIC>MOL_PROPERTY
VdW12
SciTegic.value.DoubleValue
5.290

@<SCITEGIC>MOL_PROPERTY
Bond
SciTegic.value.DoubleValue
0.182

@<SCITEGIC>MOL_PROPERTY
Angle
SciTegic.value.DoubleValue
1.135

@<SCITEGIC>MOL_PROPERTY
Pdih
SciTegic.value.DoubleValue
1.422

@<SCITEGIC>MOL_PROPERTY
Idih
SciTegic.value.DoubleValue
0.000

@<SCITEGIC>MOL_PROPERTY
Tether
SciTegic.value.DoubleValue
0.000

@<TRIPOS>MOLECULE
guest-s9_confgen4.mol2 : confsearch ligand conformer 378
          20          19           1
SMALL
USER_CHARGES
 
@<TRIPOS>ATOM
       1    C1      18.547716   18.787934   23.587499 C.3        1 MOL1        -0.2224
       2    H1      17.687840   18.780652   24.269943 H          1 MOL1         0.1052
       3    H2      19.308940   18.115548   24.004322 H          1 MOL1         0.1052
       4    H3      18.942782   19.810204   23.581207 H          1 MOL1         0.1052
       5    C2      18.113055   18.337228   22.174239 C.3        1 MOL1        -0.1209
       6    H4      17.440541   19.089867   21.739178 H          1 MOL1         0.1041
       7    H5      17.518321   17.417808   22.269028 H          1 MOL1         0.1041
       8    C3      19.286404   18.058572   21.200363 C.3        1 MOL1        -0.1274
       9    H6      19.930117   17.264374   21.598842 H          1 MOL1         0.1041
      10    H7      18.862904   17.658433   20.269706 H          1 MOL1         0.1041
      11    C4      20.126963   19.303581   20.832982 C.3        1 MOL1         0.0313
      12    H8      19.454188   20.140087   20.627803 H          1 MOL1         0.1015
      13    H9      20.692239   19.099236   19.920223 H          1 MOL1         0.1015
      14    N1      21.129303   19.757396   21.882684 N.4        1 MOL1        -0.4809
      15    H10     20.657366   19.888514   22.788179 H          1 MOL1         0.3726
      16    H11     21.495815   20.688650   21.630504 H          1 MOL1         0.3726
      17    C5      22.280878   18.766575   22.012567 C.3        1 MOL1        -0.0677
      18    H12     21.893527   17.800459   22.341502 H          1 MOL1         0.1026
      19    H13     22.772360   18.657998   21.043395 H          1 MOL1         0.1026
      20    H14     22.995894   19.143538   22.747116 H          1 MOL1         0.1026
@<TRIPOS>BOND
    1     1     2    1
    2     1     3    1
    3     1     4    1
    4     1     5    1
    5     5     6    1
    6     5     7    1
    7     5     8    1
    8     8     9    1
    9     8    10    1
   10     8    11    1
   11    11    12    1
   12    11    13    1
   13    11    14    1
   14    14    15    1
   15    14    16    1
   16    14    17    1
   17    17    18    1
   18    17    19    1
   19    17    20    1
@<TRIPOS>SUBSTRUCTURE
       1 MOL1            1 RESIDUE      1      MOL     
@<SCITEGIC>MOL_PROPERTY
VConf Rank
SciTegic.value.IntegerValue
378

@<SCITEGIC>MOL_PROPERTY
Conf_Id
SciTegic.value.IntegerValue
76

@<SCITEGIC>MOL_PROPERTY
Delta U+W
SciTegic.value.DoubleValue
2.799

@<SCITEGIC>MOL_PROPERTY
U+W
SciTegic.value.DoubleValue
18.137

@<SCITEGIC>MOL_PROPERTY
Grad RMS
SciTegic.value.DoubleValue
0.000000

@<SCITEGIC>MOL_PROPERTY
U
SciTegic.value.DoubleValue
72.490

@<SCITEGIC>MOL_PROPERTY
W
SciTegic.value.DoubleValue
-54.353

@<SCITEGIC>MOL_PROPERTY
W(PB)
SciTegic.value.DoubleValue
-56.201

@<SCITEGIC>MOL_PROPERTY
W(SA)
SciTegic.value.DoubleValue
1.848

@<SCITEGIC>MOL_PROPERTY
Valence
SciTegic.value.DoubleValue
2.738

@<SCITEGIC>MOL_PROPERTY
Coulomb
SciTegic.value.DoubleValue
69.795

@<SCITEGIC>MOL_PROPERTY
VdW
SciTegic.value.DoubleValue
-0.043

@<SCITEGIC>MOL_PROPERTY
VdW6
SciTegic.value.DoubleValue
-5.334

@<SCITEGIC>MOL_PROPERTY
VdW12
SciTegic.value.DoubleValue
5.290

@<SCITEGIC>MOL_PROPERTY
Bond
SciTegic.value.DoubleValue
0.182

@<SCITEGIC>MOL_PROPERTY
Angle
SciTegic.value.DoubleValue
1.135

@<SCITEGIC>MOL_PROPERTY
Pdih
SciTegic.value.DoubleValue
1.421

@<SCITEGIC>MOL_PROPERTY
Idih
SciTegic.value.DoubleValue
0.000

@<SCITEGIC>MOL_PROPERTY
Tether
SciTegic.value.DoubleValue
0.000

@<TRIPOS>MOLECULE
guest-s9_confgen4.mol2 : confsearch ligand conformer 379
          20          19           1
SMALL
USER_CHARGES
 
@<TRIPOS>ATOM
       1    C1      19.897539   19.632204   20.063401 C.3        1 MOL1        -0.2224
       2    H1      20.926487   19.492311   20.416596 H          1 MOL1         0.1052
       3    H2      19.730879   18.949644   19.220022 H          1 MOL1         0.1052
       4    H3      19.813842   20.658879   19.684219 H          1 MOL1         0.1052
       5    C2      18.867539   19.384128   21.189509 C.3        1 MOL1        -0.1209
       6    H4      17.862290   19.606549   20.805014 H          1 MOL1         0.1041
       7    H5      19.033015   20.088648   22.014755 H          1 MOL1         0.1041
       8    C3      18.884469   17.928964   21.718335 C.3        1 MOL1        -0.1274
       9    H6      18.103883   17.810503   22.481264 H          1 MOL1         0.1041
      10    H7      18.607295   17.254255   20.897612 H          1 MOL1         0.1041
      11    C4      20.235897   17.451311   22.299858 C.3        1 MOL1         0.0313
      12    H8      21.033790   17.567241   21.562638 H          1 MOL1         0.1015
      13    H9      20.145225   16.385004   22.522197 H          1 MOL1         0.1015
      14    N1      20.671144   18.126290   23.592107 N.4        1 MOL1        -0.4809
      15    H10     21.217680   17.457432   24.156667 H          1 MOL1         0.3726
      16    H11     19.850336   18.351533   24.173643 H          1 MOL1         0.3726
      17    C5      21.519599   19.364680   23.324228 C.3        1 MOL1        -0.0677
      18    H12     21.832371   19.795939   24.277704 H          1 MOL1         0.1026
      19    H13     22.400168   19.076958   22.745949 H          1 MOL1         0.1026
      20    H14     20.936524   20.097619   22.765796 H          1 MOL1         0.1026
@<TRIPOS>BOND
    1     1     2    1
    2     1     3    1
    3     1     4    1
    4     1     5    1
    5     5     6    1
    6     5     7    1
    7     5     8    1
    8     8     9    1
    9     8    10    1
   10     8    11    1
   11    11    12    1
   12    11    13    1
   13    11    14    1
   14    14    15    1
   15    14    16    1
   16    14    17    1
   17    17    18    1
   18    17    19    1
   19    17    20    1
@<TRIPOS>SUBSTRUCTURE
       1 MOL1            1 RESIDUE      1      MOL     
@<SCITEGIC>MOL_PROPERTY
VConf Rank
SciTegic.value.IntegerValue
379

@<SCITEGIC>MOL_PROPERTY
Conf_Id
SciTegic.value.IntegerValue
60

@<SCITEGIC>MOL_PROPERTY
Delta U+W
SciTegic.value.DoubleValue
1.788

@<SCITEGIC>MOL_PROPERTY
U+W
SciTegic.value.DoubleValue
17.127

@<SCITEGIC>MOL_PROPERTY
Grad RMS
SciTegic.value.DoubleValue
0.000000

@<SCITEGIC>MOL_PROPERTY
U
SciTegic.value.DoubleValue
72.122

@<SCITEGIC>MOL_PROPERTY
W
SciTegic.value.DoubleValue
-54.995

@<SCITEGIC>MOL_PROPERTY
W(PB)
SciTegic.value.DoubleValue
-56.810

@<SCITEGIC>MOL_PROPERTY
W(SA)
SciTegic.value.DoubleValue
1.815

@<SCITEGIC>MOL_PROPERTY
Valence
SciTegic.value.DoubleValue
3.197

@<SCITEGIC>MOL_PROPERTY
Coulomb
SciTegic.value.DoubleValue
69.115

@<SCITEGIC>MOL_PROPERTY
VdW
SciTegic.value.DoubleValue
-0.190

@<SCITEGIC>MOL_PROPERTY
VdW6
SciTegic.value.DoubleValue
-5.585

@<SCITEGIC>MOL_PROPERTY
VdW12
SciTegic.value.DoubleValue
5.395

@<SCITEGIC>MOL_PROPERTY
Bond
SciTegic.value.DoubleValue
0.177

@<SCITEGIC>MOL_PROPERTY
Angle
SciTegic.value.DoubleValue
1.207

@<SCITEGIC>MOL_PROPERTY
Pdih
SciTegic.value.DoubleValue
1.813

@<SCITEGIC>MOL_PROPERTY
Idih
SciTegic.value.DoubleValue
0.000

@<SCITEGIC>MOL_PROPERTY
Tether
SciTegic.value.DoubleValue
0.000

@<TRIPOS>MOLECULE
guest-s9_confgen4.mol2 : confsearch ligand conformer 380
          20          19           1
SMALL
USER_CHARGES
 
@<TRIPOS>ATOM
       1    C1      21.588071   20.372758   21.989294 C.3        1 MOL1        -0.2224
       2    H1      22.326912   20.756311   21.273860 H          1 MOL1         0.1052
       3    H2      21.546374   21.072239   22.834242 H          1 MOL1         0.1052
       4    H3      21.957111   19.409597   22.362363 H          1 MOL1         0.1052
       5    C2      20.203113   20.232817   21.316339 C.3        1 MOL1        -0.1209
       6    H4      20.266350   19.548432   20.460546 H          1 MOL1         0.1041
       7    H5      19.912813   21.206773   20.898049 H          1 MOL1         0.1041
       8    C3      19.097406   19.764518   22.293865 C.3        1 MOL1        -0.1274
       9    H6      18.979480   20.522711   23.079284 H          1 MOL1         0.1041
      10    H7      18.136137   19.728128   21.764673 H          1 MOL1         0.1041
      11    C4      19.350827   18.399319   22.975545 C.3        1 MOL1         0.0313
      12    H8      18.565201   18.247217   23.720075 H          1 MOL1         0.1015
      13    H9      20.307597   18.405009   23.502921 H          1 MOL1         0.1015
      14    N1      19.314160   17.188009   22.055587 N.4        1 MOL1        -0.4809
      15    H10     18.621877   17.328219   21.304766 H          1 MOL1         0.3726
      16    H11     18.967837   16.371716   22.583343 H          1 MOL1         0.3726
      17    C5      20.692890   16.868106   21.488128 C.3        1 MOL1        -0.0677
      18    H12     21.384755   16.682058   22.312325 H          1 MOL1         0.1026
      19    H13     20.622449   15.976870   20.860704 H          1 MOL1         0.1026
      20    H14     21.049919   17.707701   20.890941 H          1 MOL1         0.1026
@<TRIPOS>BOND
    1     1     2    1
    2     1     3    1
    3     1     4    1
    4     1     5    1
    5     5     6    1
    6     5     7    1
    7     5     8    1
    8     8     9    1
    9     8    10    1
   10     8    11    1
   11    11    12    1
   12    11    13    1
   13    11    14    1
   14    14    15    1
   15    14    16    1
   16    14    17    1
   17    17    18    1
   18    17    19    1
   19    17    20    1
@<TRIPOS>SUBSTRUCTURE
       1 MOL1            1 RESIDUE      1      MOL     
@<SCITEGIC>MOL_PROPERTY
VConf Rank
SciTegic.value.IntegerValue
380

@<SCITEGIC>MOL_PROPERTY
Conf_Id
SciTegic.value.IntegerValue
54

@<SCITEGIC>MOL_PROPERTY
Delta U+W
SciTegic.value.DoubleValue
1.880

@<SCITEGIC>MOL_PROPERTY
U+W
SciTegic.value.DoubleValue
17.218

@<SCITEGIC>MOL_PROPERTY
Grad RMS
SciTegic.value.DoubleValue
0.000000

@<SCITEGIC>MOL_PROPERTY
U
SciTegic.value.DoubleValue
72.122

@<SCITEGIC>MOL_PROPERTY
W
SciTegic.value.DoubleValue
-54.903

@<SCITEGIC>MOL_PROPERTY
W(PB)
SciTegic.value.DoubleValue
-56.724

@<SCITEGIC>MOL_PROPERTY
W(SA)
SciTegic.value.DoubleValue
1.821

@<SCITEGIC>MOL_PROPERTY
Valence
SciTegic.value.DoubleValue
3.197

@<SCITEGIC>MOL_PROPERTY
Coulomb
SciTegic.value.DoubleValue
69.115

@<SCITEGIC>MOL_PROPERTY
VdW
SciTegic.value.DoubleValue
-0.190

@<SCITEGIC>MOL_PROPERTY
VdW6
SciTegic.value.DoubleValue
-5.585

@<SCITEGIC>MOL_PROPERTY
VdW12
SciTegic.value.DoubleValue
5.395

@<SCITEGIC>MOL_PROPERTY
Bond
SciTegic.value.DoubleValue
0.177

@<SCITEGIC>MOL_PROPERTY
Angle
SciTegic.value.DoubleValue
1.207

@<SCITEGIC>MOL_PROPERTY
Pdih
SciTegic.value.DoubleValue
1.813

@<SCITEGIC>MOL_PROPERTY
Idih
SciTegic.value.DoubleValue
0.000

@<SCITEGIC>MOL_PROPERTY
Tether
SciTegic.value.DoubleValue
0.000

@<TRIPOS>MOLECULE
guest-s9_confgen4.mol2 : confsearch ligand conformer 381
          20          19           1
SMALL
USER_CHARGES
 
@<TRIPOS>ATOM
       1    C1      17.356302   20.530979   22.377015 C.3        1 MOL1        -0.2224
       2    H1      17.766820   21.500498   22.066073 H          1 MOL1         0.1052
       3    H2      16.321700   20.472409   22.014807 H          1 MOL1         0.1052
       4    H3      17.330051   20.507299   23.474251 H          1 MOL1         0.1052
       5    C2      18.197871   19.364560   21.815358 C.3        1 MOL1        -0.1209
       6    H4      18.176375   19.394730   20.716732 H          1 MOL1         0.1041
       7    H5      17.743101   18.409360   22.113903 H          1 MOL1         0.1041
       8    C3      19.660345   19.421461   22.309011 C.3        1 MOL1        -0.1274
       9    H6      20.114994   20.374486   22.007344 H          1 MOL1         0.1041
      10    H7      19.681116   19.387907   23.406466 H          1 MOL1         0.1041
      11    C4      20.492839   18.255186   21.744797 C.3        1 MOL1         0.0313
      12    H8      20.487067   18.294633   20.652597 H          1 MOL1         0.1015
      13    H9      20.051897   17.304923   22.056338 H          1 MOL1         0.1015
      14    N1      21.937955   18.269942   22.203192 N.4        1 MOL1        -0.4809
      15    H10     21.985667   18.241545   23.233277 H          1 MOL1         0.3726
      16    H11     22.388581   19.157853   21.933552 H          1 MOL1         0.3726
      17    C5      22.686031   17.087713   21.601617 C.3        1 MOL1        -0.0677
      18    H12     22.651980   17.156888   20.512185 H          1 MOL1         0.1026
      19    H13     23.724421   17.110623   21.939597 H          1 MOL1         0.1026
      20    H14     22.213204   16.158854   21.927907 H          1 MOL1         0.1026
@<TRIPOS>BOND
    1     1     2    1
    2     1     3    1
    3     1     4    1
    4     1     5    1
    5     5     6    1
    6     5     7    1
    7     5     8    1
    8     8     9    1
    9     8    10    1
   10     8    11    1
   11    11    12    1
   12    11    13    1
   13    11    14    1
   14    14    15    1
   15    14    16    1
   16    14    17    1
   17    17    18    1
   18    17    19    1
   19    17    20    1
@<TRIPOS>SUBSTRUCTURE
       1 MOL1            1 RESIDUE      1      MOL     
@<SCITEGIC>MOL_PROPERTY
VConf Rank
SciTegic.value.IntegerValue
381

@<SCITEGIC>MOL_PROPERTY
Conf_Id
SciTegic.value.IntegerValue
67

@<SCITEGIC>MOL_PROPERTY
Delta U+W
SciTegic.value.DoubleValue
0.000

@<SCITEGIC>MOL_PROPERTY
U+W
SciTegic.value.DoubleValue
15.338

@<SCITEGIC>MOL_PROPERTY
Grad RMS
SciTegic.value.DoubleValue
0.000000

@<SCITEGIC>MOL_PROPERTY
U
SciTegic.value.DoubleValue
69.277

@<SCITEGIC>MOL_PROPERTY
W
SciTegic.value.DoubleValue
-53.939

@<SCITEGIC>MOL_PROPERTY
W(PB)
SciTegic.value.DoubleValue
-55.889

@<SCITEGIC>MOL_PROPERTY
W(SA)
SciTegic.value.DoubleValue
1.950

@<SCITEGIC>MOL_PROPERTY
Valence
SciTegic.value.DoubleValue
0.846

@<SCITEGIC>MOL_PROPERTY
Coulomb
SciTegic.value.DoubleValue
68.557

@<SCITEGIC>MOL_PROPERTY
VdW
SciTegic.value.DoubleValue
-0.127

@<SCITEGIC>MOL_PROPERTY
VdW6
SciTegic.value.DoubleValue
-3.008

@<SCITEGIC>MOL_PROPERTY
VdW12
SciTegic.value.DoubleValue
2.882

@<SCITEGIC>MOL_PROPERTY
Bond
SciTegic.value.DoubleValue
0.088

@<SCITEGIC>MOL_PROPERTY
Angle
SciTegic.value.DoubleValue
0.332

@<SCITEGIC>MOL_PROPERTY
Pdih
SciTegic.value.DoubleValue
0.426

@<SCITEGIC>MOL_PROPERTY
Idih
SciTegic.value.DoubleValue
0.000

@<SCITEGIC>MOL_PROPERTY
Tether
SciTegic.value.DoubleValue
0.000

@<TRIPOS>MOLECULE
guest-s9_confgen4.mol2 : confsearch ligand conformer 382
          20          19           1
SMALL
USER_CHARGES
 
@<TRIPOS>ATOM
       1    C1      22.790154   19.578786   20.882489 C.3        1 MOL1        -0.2224
       2    H1      23.272195   18.996450   21.678536 H          1 MOL1         0.1052
       3    H2      23.404105   19.483365   19.977514 H          1 MOL1         0.1052
       4    H3      22.794384   20.635036   21.181630 H          1 MOL1         0.1052
       5    C2      21.352229   19.080342   20.621341 C.3        1 MOL1        -0.1209
       6    H4      21.383350   18.032330   20.291147 H          1 MOL1         0.1041
       7    H5      20.909611   19.657975   19.797485 H          1 MOL1         0.1041
       8    C3      20.464163   19.203131   21.879098 C.3        1 MOL1        -0.1274
       9    H6      20.909917   18.625044   22.698776 H          1 MOL1         0.1041
      10    H7      20.430034   20.250853   22.205801 H          1 MOL1         0.1041
      11    C4      19.029739   18.704291   21.607877 C.3        1 MOL1         0.0313
      12    H8      19.050697   17.647829   21.328895 H          1 MOL1         0.1015
      13    H9      18.611239   19.266992   20.769483 H          1 MOL1         0.1015
      14    N1      18.073179   18.860553   22.778918 N.4        1 MOL1        -0.4809
      15    H10     17.109916   18.660847   22.466622 H          1 MOL1         0.3726
      16    H11     18.050312   19.842646   23.093159 H          1 MOL1         0.3726
      17    C5      18.447218   17.931241   23.928695 C.3        1 MOL1        -0.0677
      18    H12     19.441087   18.192205   24.297489 H          1 MOL1         0.1026
      19    H13     17.716872   18.045314   24.732780 H          1 MOL1         0.1026
      20    H14     18.443533   16.898916   23.572326 H          1 MOL1         0.1026
@<TRIPOS>BOND
    1     1     2    1
    2     1     3    1
    3     1     4    1
    4     1     5    1
    5     5     6    1
    6     5     7    1
    7     5     8    1
    8     8     9    1
    9     8    10    1
   10     8    11    1
   11    11    12    1
   12    11    13    1
   13    11    14    1
   14    14    15    1
   15    14    16    1
   16    14    17    1
   17    17    18    1
   18    17    19    1
   19    17    20    1
@<TRIPOS>SUBSTRUCTURE
       1 MOL1            1 RESIDUE      1      MOL     
@<SCITEGIC>MOL_PROPERTY
VConf Rank
SciTegic.value.IntegerValue
382

@<SCITEGIC>MOL_PROPERTY
Conf_Id
SciTegic.value.IntegerValue
37

@<SCITEGIC>MOL_PROPERTY
Delta U+W
SciTegic.value.DoubleValue
-0.021

@<SCITEGIC>MOL_PROPERTY
U+W
SciTegic.value.DoubleValue
15.318

@<SCITEGIC>MOL_PROPERTY
Grad RMS
SciTegic.value.DoubleValue
0.000000

@<SCITEGIC>MOL_PROPERTY
U
SciTegic.value.DoubleValue
69.657

@<SCITEGIC>MOL_PROPERTY
W
SciTegic.value.DoubleValue
-54.340

@<SCITEGIC>MOL_PROPERTY
W(PB)
SciTegic.value.DoubleValue
-56.238

@<SCITEGIC>MOL_PROPERTY
W(SA)
SciTegic.value.DoubleValue
1.899

@<SCITEGIC>MOL_PROPERTY
Valence
SciTegic.value.DoubleValue
1.137

@<SCITEGIC>MOL_PROPERTY
Coulomb
SciTegic.value.DoubleValue
68.383

@<SCITEGIC>MOL_PROPERTY
VdW
SciTegic.value.DoubleValue
0.138

@<SCITEGIC>MOL_PROPERTY
VdW6
SciTegic.value.DoubleValue
-3.703

@<SCITEGIC>MOL_PROPERTY
VdW12
SciTegic.value.DoubleValue
3.841

@<SCITEGIC>MOL_PROPERTY
Bond
SciTegic.value.DoubleValue
0.125

@<SCITEGIC>MOL_PROPERTY
Angle
SciTegic.value.DoubleValue
0.468

@<SCITEGIC>MOL_PROPERTY
Pdih
SciTegic.value.DoubleValue
0.543

@<SCITEGIC>MOL_PROPERTY
Idih
SciTegic.value.DoubleValue
0.000

@<SCITEGIC>MOL_PROPERTY
Tether
SciTegic.value.DoubleValue
0.000

@<TRIPOS>MOLECULE
guest-s9_confgen4.mol2 : confsearch ligand conformer 383
          20          19           1
SMALL
USER_CHARGES
 
@<TRIPOS>ATOM
       1    C1      20.624664   18.885944   19.049120 C.3        1 MOL1        -0.2224
       2    H1      20.456153   18.343290   18.109892 H          1 MOL1         0.1052
       3    H2      20.124798   19.860031   18.968768 H          1 MOL1         0.1052
       4    H3      21.703776   19.062810   19.146101 H          1 MOL1         0.1052
       5    C2      20.082963   18.079985   20.249644 C.3        1 MOL1        -0.1209
       6    H4      20.576195   17.098178   20.282608 H          1 MOL1         0.1041
       7    H5      19.009744   17.889591   20.107245 H          1 MOL1         0.1041
       8    C3      20.306876   18.820178   21.586679 C.3        1 MOL1        -0.1274
       9    H6      21.379440   19.006197   21.730294 H          1 MOL1         0.1041
      10    H7      19.812833   19.799599   21.549113 H          1 MOL1         0.1041
      11    C4      19.763963   18.006690   22.779764 C.3        1 MOL1         0.0313
      12    H8      20.241436   17.023497   22.785137 H          1 MOL1         0.1015
      13    H9      18.686871   17.858670   22.668656 H          1 MOL1         0.1015
      14    N1      20.012191   18.636662   24.140748 N.4        1 MOL1        -0.4809
      15    H10     21.018420   18.822216   24.270550 H          1 MOL1         0.3726
      16    H11     19.770452   17.961280   24.882844 H          1 MOL1         0.3726
      17    C5      19.197416   19.913462   24.318057 C.3        1 MOL1        -0.0677
      18    H12     18.136934   19.683128   24.195454 H          1 MOL1         0.1026
      19    H13     19.373449   20.313921   25.318866 H          1 MOL1         0.1026
      20    H14     19.505817   20.647337   23.570927 H          1 MOL1         0.1026
@<TRIPOS>BOND
    1     1     2    1
    2     1     3    1
    3     1     4    1
    4     1     5    1
    5     5     6    1
    6     5     7    1
    7     5     8    1
    8     8     9    1
    9     8    10    1
   10     8    11    1
   11    11    12    1
   12    11    13    1
   13    11    14    1
   14    14    15    1
   15    14    16    1
   16    14    17    1
   17    17    18    1
   18    17    19    1
   19    17    20    1
@<TRIPOS>SUBSTRUCTURE
       1 MOL1            1 RESIDUE      1      MOL     
@<SCITEGIC>MOL_PROPERTY
VConf Rank
SciTegic.value.IntegerValue
383

@<SCITEGIC>MOL_PROPERTY
Conf_Id
SciTegic.value.IntegerValue
2

@<SCITEGIC>MOL_PROPERTY
Delta U+W
SciTegic.value.DoubleValue
0.069

@<SCITEGIC>MOL_PROPERTY
U+W
SciTegic.value.DoubleValue
15.407

@<SCITEGIC>MOL_PROPERTY
Grad RMS
SciTegic.value.DoubleValue
0.000000

@<SCITEGIC>MOL_PROPERTY
U
SciTegic.value.DoubleValue
69.657

@<SCITEGIC>MOL_PROPERTY
W
SciTegic.value.DoubleValue
-54.250

@<SCITEGIC>MOL_PROPERTY
W(PB)
SciTegic.value.DoubleValue
-56.176

@<SCITEGIC>MOL_PROPERTY
W(SA)
SciTegic.value.DoubleValue
1.926

@<SCITEGIC>MOL_PROPERTY
Valence
SciTegic.value.DoubleValue
1.137

@<SCITEGIC>MOL_PROPERTY
Coulomb
SciTegic.value.DoubleValue
68.383

@<SCITEGIC>MOL_PROPERTY
VdW
SciTegic.value.DoubleValue
0.138

@<SCITEGIC>MOL_PROPERTY
VdW6
SciTegic.value.DoubleValue
-3.703

@<SCITEGIC>MOL_PROPERTY
VdW12
SciTegic.value.DoubleValue
3.841

@<SCITEGIC>MOL_PROPERTY
Bond
SciTegic.value.DoubleValue
0.125

@<SCITEGIC>MOL_PROPERTY
Angle
SciTegic.value.DoubleValue
0.468

@<SCITEGIC>MOL_PROPERTY
Pdih
SciTegic.value.DoubleValue
0.543

@<SCITEGIC>MOL_PROPERTY
Idih
SciTegic.value.DoubleValue
0.000

@<SCITEGIC>MOL_PROPERTY
Tether
SciTegic.value.DoubleValue
0.000

@<TRIPOS>MOLECULE
guest-s9_confgen4.mol2 : confsearch ligand conformer 384
          20          19           1
SMALL
USER_CHARGES
 
@<TRIPOS>ATOM
       1    C1      18.569717   20.021203   23.862632 C.3        1 MOL1        -0.2224
       2    H1      18.602301   20.585281   22.921984 H          1 MOL1         0.1052
       3    H2      17.709822   19.339869   23.824381 H          1 MOL1         0.1052
       4    H3      18.391193   20.739890   24.672945 H          1 MOL1         0.1052
       5    C2      19.884485   19.245126   24.106305 C.3        1 MOL1        -0.1209
       6    H4      19.843592   18.773198   25.098084 H          1 MOL1         0.1041
       7    H5      20.728611   19.948612   24.133952 H          1 MOL1         0.1041
       8    C3      20.149320   18.154848   23.041722 C.3        1 MOL1        -0.1274
       9    H6      21.052997   17.596252   23.319563 H          1 MOL1         0.1041
      10    H7      19.321425   17.433424   23.039923 H          1 MOL1         0.1041
      11    C4      20.330767   18.738155   21.626775 C.3        1 MOL1         0.0313
      12    H8      21.156294   19.454310   21.628227 H          1 MOL1         0.1015
      13    H9      19.421079   19.262833   21.325201 H          1 MOL1         0.1015
      14    N1      20.628231   17.686664   20.575893 N.4        1 MOL1        -0.4809
      15    H10     19.873168   16.984289   20.550598 H          1 MOL1         0.3726
      16    H11     21.480368   17.162391   20.827095 H          1 MOL1         0.3726
      17    C5      20.789717   18.345867   19.212638 C.3        1 MOL1        -0.0677
      18    H12     21.615474   19.059492   19.253482 H          1 MOL1         0.1026
      19    H13     21.003481   17.577968   18.465885 H          1 MOL1         0.1026
      20    H14     19.864939   18.865224   18.952148 H          1 MOL1         0.1026
@<TRIPOS>BOND
    1     1     2    1
    2     1     3    1
    3     1     4    1
    4     1     5    1
    5     5     6    1
    6     5     7    1
    7     5     8    1
    8     8     9    1
    9     8    10    1
   10     8    11    1
   11    11    12    1
   12    11    13    1
   13    11    14    1
   14    14    15    1
   15    14    16    1
   16    14    17    1
   17    17    18    1
   18    17    19    1
   19    17    20    1
@<TRIPOS>SUBSTRUCTURE
       1 MOL1            1 RESIDUE      1      MOL     
@<SCITEGIC>MOL_PROPERTY
VConf Rank
SciTegic.value.IntegerValue
384

@<SCITEGIC>MOL_PROPERTY
Conf_Id
SciTegic.value.IntegerValue
34

@<SCITEGIC>MOL_PROPERTY
Delta U+W
SciTegic.value.DoubleValue
0.276

@<SCITEGIC>MOL_PROPERTY
U+W
SciTegic.value.DoubleValue
15.615

@<SCITEGIC>MOL_PROPERTY
Grad RMS
SciTegic.value.DoubleValue
0.000000

@<SCITEGIC>MOL_PROPERTY
U
SciTegic.value.DoubleValue
69.798

@<SCITEGIC>MOL_PROPERTY
W
SciTegic.value.DoubleValue
-54.184

@<SCITEGIC>MOL_PROPERTY
W(PB)
SciTegic.value.DoubleValue
-56.116

@<SCITEGIC>MOL_PROPERTY
W(SA)
SciTegic.value.DoubleValue
1.933

@<SCITEGIC>MOL_PROPERTY
Valence
SciTegic.value.DoubleValue
1.134

@<SCITEGIC>MOL_PROPERTY
Coulomb
SciTegic.value.DoubleValue
68.735

@<SCITEGIC>MOL_PROPERTY
VdW
SciTegic.value.DoubleValue
-0.070

@<SCITEGIC>MOL_PROPERTY
VdW6
SciTegic.value.DoubleValue
-3.565

@<SCITEGIC>MOL_PROPERTY
VdW12
SciTegic.value.DoubleValue
3.494

@<SCITEGIC>MOL_PROPERTY
Bond
SciTegic.value.DoubleValue
0.108

@<SCITEGIC>MOL_PROPERTY
Angle
SciTegic.value.DoubleValue
0.456

@<SCITEGIC>MOL_PROPERTY
Pdih
SciTegic.value.DoubleValue
0.569

@<SCITEGIC>MOL_PROPERTY
Idih
SciTegic.value.DoubleValue
0.000

@<SCITEGIC>MOL_PROPERTY
Tether
SciTegic.value.DoubleValue
0.000

@<TRIPOS>MOLECULE
guest-s9_confgen4.mol2 : confsearch ligand conformer 385
          20          19           1
SMALL
USER_CHARGES
 
@<TRIPOS>ATOM
       1    C1      22.690956   18.655627   23.458565 C.3        1 MOL1        -0.2224
       2    H1      22.531908   18.214279   24.451080 H          1 MOL1         0.1052
       3    H2      23.612655   18.226887   23.044225 H          1 MOL1         0.1052
       4    H3      22.849734   19.734388   23.586017 H          1 MOL1         0.1052
       5    C2      21.492104   18.376311   22.526492 C.3        1 MOL1        -0.1209
       6    H4      21.379167   17.290969   22.393814 H          1 MOL1         0.1041
       7    H5      21.703971   18.796644   21.534056 H          1 MOL1         0.1041
       8    C3      20.179396   18.971519   23.088372 C.3        1 MOL1        -0.1274
       9    H6      20.001971   18.571908   24.095702 H          1 MOL1         0.1041
      10    H7      20.275300   20.060024   23.197077 H          1 MOL1         0.1041
      11    C4      18.952416   18.646866   22.212780 C.3        1 MOL1         0.0313
      12    H8      18.049170   19.014992   22.705984 H          1 MOL1         0.1015
      13    H9      18.859489   17.564031   22.097592 H          1 MOL1         0.1015
      14    N1      19.000284   19.263388   20.827322 N.4        1 MOL1        -0.4809
      15    H10     19.839465   18.940507   20.323362 H          1 MOL1         0.3726
      16    H11     19.098687   20.287821   20.897328 H          1 MOL1         0.3726
      17    C5      17.740709   18.899463   20.052810 C.3        1 MOL1        -0.0677
      18    H12     17.674858   17.813027   19.962756 H          1 MOL1         0.1026
      19    H13     16.867342   19.279539   20.587186 H          1 MOL1         0.1026
      20    H14     17.788263   19.349105   19.058550 H          1 MOL1         0.1026
@<TRIPOS>BOND
    1     1     2    1
    2     1     3    1
    3     1     4    1
    4     1     5    1
    5     5     6    1
    6     5     7    1
    7     5     8    1
    8     8     9    1
    9     8    10    1
   10     8    11    1
   11    11    12    1
   12    11    13    1
   13    11    14    1
   14    14    15    1
   15    14    16    1
   16    14    17    1
   17    17    18    1
   18    17    19    1
   19    17    20    1
@<TRIPOS>SUBSTRUCTURE
       1 MOL1            1 RESIDUE      1      MOL     
@<SCITEGIC>MOL_PROPERTY
VConf Rank
SciTegic.value.IntegerValue
385

@<SCITEGIC>MOL_PROPERTY
Conf_Id
SciTegic.value.IntegerValue
50

@<SCITEGIC>MOL_PROPERTY
Delta U+W
SciTegic.value.DoubleValue
0.319

@<SCITEGIC>MOL_PROPERTY
U+W
SciTegic.value.DoubleValue
15.657

@<SCITEGIC>MOL_PROPERTY
Grad RMS
SciTegic.value.DoubleValue
0.000000

@<SCITEGIC>MOL_PROPERTY
U
SciTegic.value.DoubleValue
69.962

@<SCITEGIC>MOL_PROPERTY
W
SciTegic.value.DoubleValue
-54.305

@<SCITEGIC>MOL_PROPERTY
W(PB)
SciTegic.value.DoubleValue
-56.223

@<SCITEGIC>MOL_PROPERTY
W(SA)
SciTegic.value.DoubleValue
1.918

@<SCITEGIC>MOL_PROPERTY
Valence
SciTegic.value.DoubleValue
0.982

@<SCITEGIC>MOL_PROPERTY
Coulomb
SciTegic.value.DoubleValue
69.058

@<SCITEGIC>MOL_PROPERTY
VdW
SciTegic.value.DoubleValue
-0.078

@<SCITEGIC>MOL_PROPERTY
VdW6
SciTegic.value.DoubleValue
-3.548

@<SCITEGIC>MOL_PROPERTY
VdW12
SciTegic.value.DoubleValue
3.471

@<SCITEGIC>MOL_PROPERTY
Bond
SciTegic.value.DoubleValue
0.105

@<SCITEGIC>MOL_PROPERTY
Angle
SciTegic.value.DoubleValue
0.408

@<SCITEGIC>MOL_PROPERTY
Pdih
SciTegic.value.DoubleValue
0.469

@<SCITEGIC>MOL_PROPERTY
Idih
SciTegic.value.DoubleValue
0.000

@<SCITEGIC>MOL_PROPERTY
Tether
SciTegic.value.DoubleValue
0.000

@<TRIPOS>MOLECULE
guest-s9_confgen4.mol2 : confsearch ligand conformer 386
          20          19           1
SMALL
USER_CHARGES
 
@<TRIPOS>ATOM
       1    C1      22.171715   17.936685   20.009525 C.3        1 MOL1        -0.2224
       2    H1      23.168556   18.382983   19.899284 H          1 MOL1         0.1052
       3    H2      22.297875   16.849254   20.091657 H          1 MOL1         0.1052
       4    H3      21.606188   18.146522   19.092285 H          1 MOL1         0.1052
       5    C2      21.451789   18.508850   21.249830 C.3        1 MOL1        -0.1209
       6    H4      21.379779   19.600413   21.150840 H          1 MOL1         0.1041
       7    H5      22.057053   18.310803   22.145797 H          1 MOL1         0.1041
       8    C3      20.042702   17.895558   21.427412 C.3        1 MOL1        -0.1274
       9    H6      19.423009   18.113851   20.547534 H          1 MOL1         0.1041
      10    H7      20.127708   16.802270   21.485552 H          1 MOL1         0.1041
      11    C4      19.328071   18.396551   22.698573 C.3        1 MOL1         0.0313
      12    H8      19.946635   18.186396   23.574729 H          1 MOL1         0.1015
      13    H9      18.381414   17.862759   22.814867 H          1 MOL1         0.1015
      14    N1      19.017324   19.881556   22.689280 N.4        1 MOL1        -0.4809
      15    H10     18.441353   20.119059   21.867149 H          1 MOL1         0.3726
      16    H11     19.886126   20.425862   22.582663 H          1 MOL1         0.3726
      17    C5      18.299428   20.270282   23.974721 C.3        1 MOL1        -0.0677
      18    H12     18.082159   21.340511   23.954908 H          1 MOL1         0.1026
      19    H13     17.366938   19.706813   24.050551 H          1 MOL1         0.1026
      20    H14     18.940459   20.040512   24.828580 H          1 MOL1         0.1026
@<TRIPOS>BOND
    1     1     2    1
    2     1     3    1
    3     1     4    1
    4     1     5    1
    5     5     6    1
    6     5     7    1
    7     5     8    1
    8     8     9    1
    9     8    10    1
   10     8    11    1
   11    11    12    1
   12    11    13    1
   13    11    14    1
   14    14    15    1
   15    14    16    1
   16    14    17    1
   17    17    18    1
   18    17    19    1
   19    17    20    1
@<TRIPOS>SUBSTRUCTURE
       1 MOL1            1 RESIDUE      1      MOL     
@<SCITEGIC>MOL_PROPERTY
VConf Rank
SciTegic.value.IntegerValue
386

@<SCITEGIC>MOL_PROPERTY
Conf_Id
SciTegic.value.IntegerValue
35

@<SCITEGIC>MOL_PROPERTY
Delta U+W
SciTegic.value.DoubleValue
0.360

@<SCITEGIC>MOL_PROPERTY
U+W
SciTegic.value.DoubleValue
15.698

@<SCITEGIC>MOL_PROPERTY
Grad RMS
SciTegic.value.DoubleValue
0.000000

@<SCITEGIC>MOL_PROPERTY
U
SciTegic.value.DoubleValue
69.962

@<SCITEGIC>MOL_PROPERTY
W
SciTegic.value.DoubleValue
-54.264

@<SCITEGIC>MOL_PROPERTY
W(PB)
SciTegic.value.DoubleValue
-56.166

@<SCITEGIC>MOL_PROPERTY
W(SA)
SciTegic.value.DoubleValue
1.902

@<SCITEGIC>MOL_PROPERTY
Valence
SciTegic.value.DoubleValue
0.982

@<SCITEGIC>MOL_PROPERTY
Coulomb
SciTegic.value.DoubleValue
69.058

@<SCITEGIC>MOL_PROPERTY
VdW
SciTegic.value.DoubleValue
-0.078

@<SCITEGIC>MOL_PROPERTY
VdW6
SciTegic.value.DoubleValue
-3.548

@<SCITEGIC>MOL_PROPERTY
VdW12
SciTegic.value.DoubleValue
3.471

@<SCITEGIC>MOL_PROPERTY
Bond
SciTegic.value.DoubleValue
0.105

@<SCITEGIC>MOL_PROPERTY
Angle
SciTegic.value.DoubleValue
0.408

@<SCITEGIC>MOL_PROPERTY
Pdih
SciTegic.value.DoubleValue
0.469

@<SCITEGIC>MOL_PROPERTY
Idih
SciTegic.value.DoubleValue
0.000

@<SCITEGIC>MOL_PROPERTY
Tether
SciTegic.value.DoubleValue
0.000

@<TRIPOS>MOLECULE
guest-s9_confgen4.mol2 : confsearch ligand conformer 387
          20          19           1
SMALL
USER_CHARGES
 
@<TRIPOS>ATOM
       1    C1      21.272147   18.858138   19.743502 C.3        1 MOL1        -0.2224
       2    H1      20.610501   19.733451   19.732448 H          1 MOL1         0.1052
       3    H2      22.057039   19.027373   18.994985 H          1 MOL1         0.1052
       4    H3      20.689368   17.983892   19.425452 H          1 MOL1         0.1052
       5    C2      21.894662   18.633643   21.140744 C.3        1 MOL1        -0.1209
       6    H4      22.467367   19.523766   21.437150 H          1 MOL1         0.1041
       7    H5      22.616848   17.807142   21.083027 H          1 MOL1         0.1041
       8    C3      20.841688   18.306181   22.225127 C.3        1 MOL1        -0.1274
       9    H6      20.298672   17.395366   21.941825 H          1 MOL1         0.1041
      10    H7      21.357323   18.084360   23.168755 H          1 MOL1         0.1041
      11    C4      19.846396   19.464090   22.453398 C.3        1 MOL1         0.0313
      12    H8      19.277650   19.651381   21.539502 H          1 MOL1         0.1015
      13    H9      20.406861   20.370718   22.695213 H          1 MOL1         0.1015
      14    N1      18.853462   19.231495   23.580508 N.4        1 MOL1        -0.4809
      15    H10     18.340257   20.105660   23.774577 H          1 MOL1         0.3726
      16    H11     19.352024   19.017839   24.457723 H          1 MOL1         0.3726
      17    C5      17.869283   18.120392   23.230922 C.3        1 MOL1        -0.0677
      18    H12     18.413591   17.184328   23.091634 H          1 MOL1         0.1026
      19    H13     17.151574   18.008633   24.046622 H          1 MOL1         0.1026
      20    H14     17.342548   18.383030   22.310993 H          1 MOL1         0.1026
@<TRIPOS>BOND
    1     1     2    1
    2     1     3    1
    3     1     4    1
    4     1     5    1
    5     5     6    1
    6     5     7    1
    7     5     8    1
    8     8     9    1
    9     8    10    1
   10     8    11    1
   11    11    12    1
   12    11    13    1
   13    11    14    1
   14    14    15    1
   15    14    16    1
   16    14    17    1
   17    17    18    1
   18    17    19    1
   19    17    20    1
@<TRIPOS>SUBSTRUCTURE
       1 MOL1            1 RESIDUE      1      MOL     
@<SCITEGIC>MOL_PROPERTY
VConf Rank
SciTegic.value.IntegerValue
387

@<SCITEGIC>MOL_PROPERTY
Conf_Id
SciTegic.value.IntegerValue
33

@<SCITEGIC>MOL_PROPERTY
Delta U+W
SciTegic.value.DoubleValue
0.372

@<SCITEGIC>MOL_PROPERTY
U+W
SciTegic.value.DoubleValue
15.711

@<SCITEGIC>MOL_PROPERTY
Grad RMS
SciTegic.value.DoubleValue
0.000000

@<SCITEGIC>MOL_PROPERTY
U
SciTegic.value.DoubleValue
70.163

@<SCITEGIC>MOL_PROPERTY
W
SciTegic.value.DoubleValue
-54.452

@<SCITEGIC>MOL_PROPERTY
W(PB)
SciTegic.value.DoubleValue
-56.363

@<SCITEGIC>MOL_PROPERTY
W(SA)
SciTegic.value.DoubleValue
1.911

@<SCITEGIC>MOL_PROPERTY
Valence
SciTegic.value.DoubleValue
1.420

@<SCITEGIC>MOL_PROPERTY
Coulomb
SciTegic.value.DoubleValue
68.566

@<SCITEGIC>MOL_PROPERTY
VdW
SciTegic.value.DoubleValue
0.177

@<SCITEGIC>MOL_PROPERTY
VdW6
SciTegic.value.DoubleValue
-4.267

@<SCITEGIC>MOL_PROPERTY
VdW12
SciTegic.value.DoubleValue
4.445

@<SCITEGIC>MOL_PROPERTY
Bond
SciTegic.value.DoubleValue
0.146

@<SCITEGIC>MOL_PROPERTY
Angle
SciTegic.value.DoubleValue
0.581

@<SCITEGIC>MOL_PROPERTY
Pdih
SciTegic.value.DoubleValue
0.693

@<SCITEGIC>MOL_PROPERTY
Idih
SciTegic.value.DoubleValue
0.000

@<SCITEGIC>MOL_PROPERTY
Tether
SciTegic.value.DoubleValue
0.000

@<TRIPOS>MOLECULE
guest-s9_confgen4.mol2 : confsearch ligand conformer 388
          20          19           1
SMALL
USER_CHARGES
 
@<TRIPOS>ATOM
       1    C1      22.307540   17.541048   22.472483 C.3        1 MOL1        -0.2224
       2    H1      23.155352   16.854641   22.349874 H          1 MOL1         0.1052
       3    H2      22.643624   18.539626   22.165955 H          1 MOL1         0.1052
       4    H3      22.057484   17.576478   23.540805 H          1 MOL1         0.1052
       5    C2      21.099120   17.065507   21.633559 C.3        1 MOL1        -0.1209
       6    H4      20.855475   16.030159   21.910467 H          1 MOL1         0.1041
       7    H5      21.373940   17.043867   20.569523 H          1 MOL1         0.1041
       8    C3      19.843638   17.947018   21.829990 C.3        1 MOL1        -0.1274
       9    H6      19.007960   17.509260   21.268273 H          1 MOL1         0.1041
      10    H7      19.552136   17.934547   22.888092 H          1 MOL1         0.1041
      11    C4      20.061378   19.401390   21.360039 C.3        1 MOL1         0.0313
      12    H8      20.388850   19.391648   20.317333 H          1 MOL1         0.1015
      13    H9      20.846407   19.871642   21.956988 H          1 MOL1         0.1015
      14    N1      18.825591   20.282931   21.438259 N.4        1 MOL1        -0.4809
      15    H10     18.047899   19.855787   20.912462 H          1 MOL1         0.3726
      16    H11     19.008858   21.177976   20.958140 H          1 MOL1         0.3726
      17    C5      18.423124   20.545047   22.885561 C.3        1 MOL1        -0.0677
      18    H12     17.556770   21.209993   22.901033 H          1 MOL1         0.1026
      19    H13     18.167373   19.599576   23.367811 H          1 MOL1         0.1026
      20    H14     19.257062   21.015250   23.411066 H          1 MOL1         0.1026
@<TRIPOS>BOND
    1     1     2    1
    2     1     3    1
    3     1     4    1
    4     1     5    1
    5     5     6    1
    6     5     7    1
    7     5     8    1
    8     8     9    1
    9     8    10    1
   10     8    11    1
   11    11    12    1
   12    11    13    1
   13    11    14    1
   14    14    15    1
   15    14    16    1
   16    14    17    1
   17    17    18    1
   18    17    19    1
   19    17    20    1
@<TRIPOS>SUBSTRUCTURE
       1 MOL1            1 RESIDUE      1      MOL     
@<SCITEGIC>MOL_PROPERTY
VConf Rank
SciTegic.value.IntegerValue
388

@<SCITEGIC>MOL_PROPERTY
Conf_Id
SciTegic.value.IntegerValue
53

@<SCITEGIC>MOL_PROPERTY
Delta U+W
SciTegic.value.DoubleValue
0.379

@<SCITEGIC>MOL_PROPERTY
U+W
SciTegic.value.DoubleValue
15.717

@<SCITEGIC>MOL_PROPERTY
Grad RMS
SciTegic.value.DoubleValue
0.000000

@<SCITEGIC>MOL_PROPERTY
U
SciTegic.value.DoubleValue
70.163

@<SCITEGIC>MOL_PROPERTY
W
SciTegic.value.DoubleValue
-54.446

@<SCITEGIC>MOL_PROPERTY
W(PB)
SciTegic.value.DoubleValue
-56.322

@<SCITEGIC>MOL_PROPERTY
W(SA)
SciTegic.value.DoubleValue
1.876

@<SCITEGIC>MOL_PROPERTY
Valence
SciTegic.value.DoubleValue
1.420

@<SCITEGIC>MOL_PROPERTY
Coulomb
SciTegic.value.DoubleValue
68.566

@<SCITEGIC>MOL_PROPERTY
VdW
SciTegic.value.DoubleValue
0.177

@<SCITEGIC>MOL_PROPERTY
VdW6
SciTegic.value.DoubleValue
-4.267

@<SCITEGIC>MOL_PROPERTY
VdW12
SciTegic.value.DoubleValue
4.445

@<SCITEGIC>MOL_PROPERTY
Bond
SciTegic.value.DoubleValue
0.146

@<SCITEGIC>MOL_PROPERTY
Angle
SciTegic.value.DoubleValue
0.581

@<SCITEGIC>MOL_PROPERTY
Pdih
SciTegic.value.DoubleValue
0.693

@<SCITEGIC>MOL_PROPERTY
Idih
SciTegic.value.DoubleValue
0.000

@<SCITEGIC>MOL_PROPERTY
Tether
SciTegic.value.DoubleValue
0.000

@<TRIPOS>MOLECULE
guest-s9_confgen4.mol2 : confsearch ligand conformer 389
          20          19           1
SMALL
USER_CHARGES
 
@<TRIPOS>ATOM
       1    C1      18.958004   19.005897   19.444035 C.3        1 MOL1        -0.2224
       2    H1      18.924873   19.872936   18.771617 H          1 MOL1         0.1052
       3    H2      19.181244   18.118658   18.837308 H          1 MOL1         0.1052
       4    H3      17.958026   18.879437   19.879021 H          1 MOL1         0.1052
       5    C2      20.021350   19.209430   20.544867 C.3        1 MOL1        -0.1209
       6    H4      19.786972   20.124990   21.104754 H          1 MOL1         0.1041
       7    H5      21.004276   19.364685   20.078032 H          1 MOL1         0.1041
       8    C3      20.086749   18.000966   21.508226 C.3        1 MOL1        -0.1274
       9    H6      19.114903   17.857954   21.997926 H          1 MOL1         0.1041
      10    H7      20.277791   17.086733   20.930880 H          1 MOL1         0.1041
      11    C4      21.195915   18.141997   22.574303 C.3        1 MOL1         0.0313
      12    H8      22.162693   18.225562   22.071326 H          1 MOL1         0.1015
      13    H9      21.219226   17.243948   23.196766 H          1 MOL1         0.1015
      14    N1      21.060709   19.340677   23.501404 N.4        1 MOL1        -0.4809
      15    H10     21.031527   20.212895   22.953303 H          1 MOL1         0.3726
      16    H11     21.907841   19.422360   24.085286 H          1 MOL1         0.3726
      17    C5      19.828177   19.217830   24.390622 C.3        1 MOL1        -0.0677
      18    H12     19.895451   18.296332   24.972837 H          1 MOL1         0.1026
      19    H13     19.785920   20.076464   25.064337 H          1 MOL1         0.1026
      20    H14     18.932401   19.197351   23.766778 H          1 MOL1         0.1026
@<TRIPOS>BOND
    1     1     2    1
    2     1     3    1
    3     1     4    1
    4     1     5    1
    5     5     6    1
    6     5     7    1
    7     5     8    1
    8     8     9    1
    9     8    10    1
   10     8    11    1
   11    11    12    1
   12    11    13    1
   13    11    14    1
   14    14    15    1
   15    14    16    1
   16    14    17    1
   17    17    18    1
   18    17    19    1
   19    17    20    1
@<TRIPOS>SUBSTRUCTURE
       1 MOL1            1 RESIDUE      1      MOL     
@<SCITEGIC>MOL_PROPERTY
VConf Rank
SciTegic.value.IntegerValue
389

@<SCITEGIC>MOL_PROPERTY
Conf_Id
SciTegic.value.IntegerValue
49

@<SCITEGIC>MOL_PROPERTY
Delta U+W
SciTegic.value.DoubleValue
0.268

@<SCITEGIC>MOL_PROPERTY
U+W
SciTegic.value.DoubleValue
15.607

@<SCITEGIC>MOL_PROPERTY
Grad RMS
SciTegic.value.DoubleValue
0.000000

@<SCITEGIC>MOL_PROPERTY
U
SciTegic.value.DoubleValue
70.298

@<SCITEGIC>MOL_PROPERTY
W
SciTegic.value.DoubleValue
-54.692

@<SCITEGIC>MOL_PROPERTY
W(PB)
SciTegic.value.DoubleValue
-56.576

@<SCITEGIC>MOL_PROPERTY
W(SA)
SciTegic.value.DoubleValue
1.885

@<SCITEGIC>MOL_PROPERTY
Valence
SciTegic.value.DoubleValue
1.245

@<SCITEGIC>MOL_PROPERTY
Coulomb
SciTegic.value.DoubleValue
68.933

@<SCITEGIC>MOL_PROPERTY
VdW
SciTegic.value.DoubleValue
0.120

@<SCITEGIC>MOL_PROPERTY
VdW6
SciTegic.value.DoubleValue
-4.430

@<SCITEGIC>MOL_PROPERTY
VdW12
SciTegic.value.DoubleValue
4.550

@<SCITEGIC>MOL_PROPERTY
Bond
SciTegic.value.DoubleValue
0.148

@<SCITEGIC>MOL_PROPERTY
Angle
SciTegic.value.DoubleValue
0.587

@<SCITEGIC>MOL_PROPERTY
Pdih
SciTegic.value.DoubleValue
0.509

@<SCITEGIC>MOL_PROPERTY
Idih
SciTegic.value.DoubleValue
0.000

@<SCITEGIC>MOL_PROPERTY
Tether
SciTegic.value.DoubleValue
0.000

@<TRIPOS>MOLECULE
guest-s9_confgen4.mol2 : confsearch ligand conformer 390
          20          19           1
SMALL
USER_CHARGES
 
@<TRIPOS>ATOM
       1    C1      21.293368   19.613685   19.644889 C.3        1 MOL1        -0.2224
       2    H1      21.830479   20.503372   19.998642 H          1 MOL1         0.1052
       3    H2      22.035423   18.878147   19.308025 H          1 MOL1         0.1052
       4    H3      20.692937   19.907560   18.774188 H          1 MOL1         0.1052
       5    C2      20.393938   19.029089   20.755565 C.3        1 MOL1        -0.1209
       6    H4      19.849193   18.158482   20.364047 H          1 MOL1         0.1041
       7    H5      19.643209   19.779981   21.035059 H          1 MOL1         0.1041
       8    C3      21.214937   18.616686   21.999553 C.3        1 MOL1        -0.1274
       9    H6      22.034173   17.956458   21.685373 H          1 MOL1         0.1041
      10    H7      21.687146   19.502989   22.443446 H          1 MOL1         0.1041
      11    C4      20.395486   17.875973   23.080606 C.3        1 MOL1         0.0313
      12    H8      21.081716   17.576554   23.876961 H          1 MOL1         0.1015
      13    H9      19.953232   16.966766   22.665815 H          1 MOL1         0.1015
      14    N1      19.289662   18.686979   23.738392 N.4        1 MOL1        -0.4809
      15    H10     19.556759   19.681188   23.793601 H          1 MOL1         0.3726
      16    H11     19.185753   18.386963   24.720329 H          1 MOL1         0.3726
      17    C5      17.959103   18.505104   23.015080 C.3        1 MOL1        -0.0677
      18    H12     17.190156   19.083951   23.531427 H          1 MOL1         0.1026
      19    H13     18.047884   18.852249   21.985071 H          1 MOL1         0.1026
      20    H14     17.688683   17.447050   23.024224 H          1 MOL1         0.1026
@<TRIPOS>BOND
    1     1     2    1
    2     1     3    1
    3     1     4    1
    4     1     5    1
    5     5     6    1
    6     5     7    1
    7     5     8    1
    8     8     9    1
    9     8    10    1
   10     8    11    1
   11    11    12    1
   12    11    13    1
   13    11    14    1
   14    14    15    1
   15    14    16    1
   16    14    17    1
   17    17    18    1
   18    17    19    1
   19    17    20    1
@<TRIPOS>SUBSTRUCTURE
       1 MOL1            1 RESIDUE      1      MOL     
@<SCITEGIC>MOL_PROPERTY
VConf Rank
SciTegic.value.IntegerValue
390

@<SCITEGIC>MOL_PROPERTY
Conf_Id
SciTegic.value.IntegerValue
65

@<SCITEGIC>MOL_PROPERTY
Delta U+W
SciTegic.value.DoubleValue
1.775

@<SCITEGIC>MOL_PROPERTY
U+W
SciTegic.value.DoubleValue
17.114

@<SCITEGIC>MOL_PROPERTY
Grad RMS
SciTegic.value.DoubleValue
0.000000

@<SCITEGIC>MOL_PROPERTY
U
SciTegic.value.DoubleValue
71.726

@<SCITEGIC>MOL_PROPERTY
W
SciTegic.value.DoubleValue
-54.613

@<SCITEGIC>MOL_PROPERTY
W(PB)
SciTegic.value.DoubleValue
-56.495

@<SCITEGIC>MOL_PROPERTY
W(SA)
SciTegic.value.DoubleValue
1.883

@<SCITEGIC>MOL_PROPERTY
Valence
SciTegic.value.DoubleValue
2.885

@<SCITEGIC>MOL_PROPERTY
Coulomb
SciTegic.value.DoubleValue
68.822

@<SCITEGIC>MOL_PROPERTY
VdW
SciTegic.value.DoubleValue
0.019

@<SCITEGIC>MOL_PROPERTY
VdW6
SciTegic.value.DoubleValue
-4.600

@<SCITEGIC>MOL_PROPERTY
VdW12
SciTegic.value.DoubleValue
4.619

@<SCITEGIC>MOL_PROPERTY
Bond
SciTegic.value.DoubleValue
0.152

@<SCITEGIC>MOL_PROPERTY
Angle
SciTegic.value.DoubleValue
0.862

@<SCITEGIC>MOL_PROPERTY
Pdih
SciTegic.value.DoubleValue
1.871

@<SCITEGIC>MOL_PROPERTY
Idih
SciTegic.value.DoubleValue
0.000

@<SCITEGIC>MOL_PROPERTY
Tether
SciTegic.value.DoubleValue
0.000

@<TRIPOS>MOLECULE
guest-s9_confgen4.mol2 : confsearch ligand conformer 391
          20          19           1
SMALL
USER_CHARGES
 
@<TRIPOS>ATOM
       1    C1      19.162671   20.910286   21.671539 C.3        1 MOL1        -0.2224
       2    H1      20.181360   20.864578   22.076739 H          1 MOL1         0.1052
       3    H2      19.137981   21.718842   20.929510 H          1 MOL1         0.1052
       4    H3      18.481426   21.184496   22.487496 H          1 MOL1         0.1052
       5    C2      18.745224   19.568958   21.025981 C.3        1 MOL1        -0.1209
       6    H4      19.440389   19.317427   20.213523 H          1 MOL1         0.1041
       7    H5      17.760162   19.691190   20.554052 H          1 MOL1         0.1041
       8    C3      18.669140   18.403082   22.043302 C.3        1 MOL1        -0.1274
       9    H6      17.895745   18.625906   22.790279 H          1 MOL1         0.1041
      10    H7      18.342050   17.490193   21.528140 H          1 MOL1         0.1041
      11    C4      19.996991   18.123100   22.777732 C.3        1 MOL1         0.0313
      12    H8      19.849943   17.312039   23.495434 H          1 MOL1         0.1015
      13    H9      20.306089   19.012973   23.331221 H          1 MOL1         0.1015
      14    N1      21.136564   17.723847   21.859815 N.4        1 MOL1        -0.4809
      15    H10     21.301712   18.463284   21.160924 H          1 MOL1         0.3726
      16    H11     20.879385   16.884680   21.318006 H          1 MOL1         0.3726
      17    C5      22.396752   17.468869   22.675553 C.3        1 MOL1        -0.0677
      18    H12     22.207758   16.661747   23.386609 H          1 MOL1         0.1026
      19    H13     23.208396   17.183884   22.002510 H          1 MOL1         0.1026
      20    H14     22.667484   18.379735   23.213874 H          1 MOL1         0.1026
@<TRIPOS>BOND
    1     1     2    1
    2     1     3    1
    3     1     4    1
    4     1     5    1
    5     5     6    1
    6     5     7    1
    7     5     8    1
    8     8     9    1
    9     8    10    1
   10     8    11    1
   11    11    12    1
   12    11    13    1
   13    11    14    1
   14    14    15    1
   15    14    16    1
   16    14    17    1
   17    17    18    1
   18    17    19    1
   19    17    20    1
@<TRIPOS>SUBSTRUCTURE
       1 MOL1            1 RESIDUE      1      MOL     
@<SCITEGIC>MOL_PROPERTY
VConf Rank
SciTegic.value.IntegerValue
391

@<SCITEGIC>MOL_PROPERTY
Conf_Id
SciTegic.value.IntegerValue
23

@<SCITEGIC>MOL_PROPERTY
Delta U+W
SciTegic.value.DoubleValue
0.896

@<SCITEGIC>MOL_PROPERTY
U+W
SciTegic.value.DoubleValue
16.234

@<SCITEGIC>MOL_PROPERTY
Grad RMS
SciTegic.value.DoubleValue
0.000000

@<SCITEGIC>MOL_PROPERTY
U
SciTegic.value.DoubleValue
70.374

@<SCITEGIC>MOL_PROPERTY
W
SciTegic.value.DoubleValue
-54.140

@<SCITEGIC>MOL_PROPERTY
W(PB)
SciTegic.value.DoubleValue
-56.046

@<SCITEGIC>MOL_PROPERTY
W(SA)
SciTegic.value.DoubleValue
1.907

@<SCITEGIC>MOL_PROPERTY
Valence
SciTegic.value.DoubleValue
1.257

@<SCITEGIC>MOL_PROPERTY
Coulomb
SciTegic.value.DoubleValue
69.240

@<SCITEGIC>MOL_PROPERTY
VdW
SciTegic.value.DoubleValue
-0.123

@<SCITEGIC>MOL_PROPERTY
VdW6
SciTegic.value.DoubleValue
-4.336

@<SCITEGIC>MOL_PROPERTY
VdW12
SciTegic.value.DoubleValue
4.213

@<SCITEGIC>MOL_PROPERTY
Bond
SciTegic.value.DoubleValue
0.128

@<SCITEGIC>MOL_PROPERTY
Angle
SciTegic.value.DoubleValue
0.603

@<SCITEGIC>MOL_PROPERTY
Pdih
SciTegic.value.DoubleValue
0.526

@<SCITEGIC>MOL_PROPERTY
Idih
SciTegic.value.DoubleValue
0.000

@<SCITEGIC>MOL_PROPERTY
Tether
SciTegic.value.DoubleValue
0.000

@<TRIPOS>MOLECULE
guest-s9_confgen4.mol2 : confsearch ligand conformer 392
          20          19           1
SMALL
USER_CHARGES
 
@<TRIPOS>ATOM
       1    C1      18.372005   20.211051   22.771719 C.3        1 MOL1        -0.2224
       2    H1      17.634397   19.655421   23.365251 H          1 MOL1         0.1052
       3    H2      18.074781   21.267761   22.773364 H          1 MOL1         0.1052
       4    H3      18.316981   19.853872   21.735669 H          1 MOL1         0.1052
       5    C2      19.793649   20.046745   23.356612 C.3        1 MOL1        -0.1209
       6    H4      19.822910   20.501404   24.356829 H          1 MOL1         0.1041
       7    H5      20.511909   20.611477   22.746865 H          1 MOL1         0.1041
       8    C3      20.236740   18.566527   23.468963 C.3        1 MOL1        -0.1274
       9    H6      21.238970   18.518616   23.915038 H          1 MOL1         0.1041
      10    H7      19.567901   18.041425   24.163721 H          1 MOL1         0.1041
      11    C4      20.243094   17.809340   22.124494 C.3        1 MOL1         0.0313
      12    H8      19.238143   17.812345   21.695742 H          1 MOL1         0.1015
      13    H9      20.535186   16.770109   22.295434 H          1 MOL1         0.1015
      14    N1      21.192851   18.390438   21.094498 N.4        1 MOL1        -0.4809
      15    H10     22.154932   18.404748   21.466108 H          1 MOL1         0.3726
      16    H11     20.953547   19.376110   20.910993 H          1 MOL1         0.3726
      17    C5      21.127579   17.576748   19.809129 C.3        1 MOL1        -0.0677
      18    H12     20.108384   17.603448   19.417609 H          1 MOL1         0.1026
      19    H13     21.814678   18.006632   19.076964 H          1 MOL1         0.1026
      20    H14     21.414836   16.544742   20.021757 H          1 MOL1         0.1026
@<TRIPOS>BOND
    1     1     2    1
    2     1     3    1
    3     1     4    1
    4     1     5    1
    5     5     6    1
    6     5     7    1
    7     5     8    1
    8     8     9    1
    9     8    10    1
   10     8    11    1
   11    11    12    1
   12    11    13    1
   13    11    14    1
   14    14    15    1
   15    14    16    1
   16    14    17    1
   17    17    18    1
   18    17    19    1
   19    17    20    1
@<TRIPOS>SUBSTRUCTURE
       1 MOL1            1 RESIDUE      1      MOL     
@<SCITEGIC>MOL_PROPERTY
VConf Rank
SciTegic.value.IntegerValue
392

@<SCITEGIC>MOL_PROPERTY
Conf_Id
SciTegic.value.IntegerValue
24

@<SCITEGIC>MOL_PROPERTY
Delta U+W
SciTegic.value.DoubleValue
0.792

@<SCITEGIC>MOL_PROPERTY
U+W
SciTegic.value.DoubleValue
16.130

@<SCITEGIC>MOL_PROPERTY
Grad RMS
SciTegic.value.DoubleValue
0.000000

@<SCITEGIC>MOL_PROPERTY
U
SciTegic.value.DoubleValue
70.374

@<SCITEGIC>MOL_PROPERTY
W
SciTegic.value.DoubleValue
-54.243

@<SCITEGIC>MOL_PROPERTY
W(PB)
SciTegic.value.DoubleValue
-56.130

@<SCITEGIC>MOL_PROPERTY
W(SA)
SciTegic.value.DoubleValue
1.887

@<SCITEGIC>MOL_PROPERTY
Valence
SciTegic.value.DoubleValue
1.257

@<SCITEGIC>MOL_PROPERTY
Coulomb
SciTegic.value.DoubleValue
69.240

@<SCITEGIC>MOL_PROPERTY
VdW
SciTegic.value.DoubleValue
-0.123

@<SCITEGIC>MOL_PROPERTY
VdW6
SciTegic.value.DoubleValue
-4.336

@<SCITEGIC>MOL_PROPERTY
VdW12
SciTegic.value.DoubleValue
4.213

@<SCITEGIC>MOL_PROPERTY
Bond
SciTegic.value.DoubleValue
0.128

@<SCITEGIC>MOL_PROPERTY
Angle
SciTegic.value.DoubleValue
0.603

@<SCITEGIC>MOL_PROPERTY
Pdih
SciTegic.value.DoubleValue
0.526

@<SCITEGIC>MOL_PROPERTY
Idih
SciTegic.value.DoubleValue
0.000

@<SCITEGIC>MOL_PROPERTY
Tether
SciTegic.value.DoubleValue
0.000

@<TRIPOS>MOLECULE
guest-s9_confgen4.mol2 : confsearch ligand conformer 393
          20          19           1
SMALL
USER_CHARGES
 
@<TRIPOS>ATOM
       1    C1      21.556501   19.719696   23.204459 C.3        1 MOL1        -0.2224
       2    H1      22.118305   20.432308   23.822343 H          1 MOL1         0.1052
       3    H2      20.655681   19.447842   23.767192 H          1 MOL1         0.1052
       4    H3      22.180877   18.825615   23.078217 H          1 MOL1         0.1052
       5    C2      21.203838   20.356327   21.840718 C.3        1 MOL1        -0.1209
       6    H4      22.114527   20.801323   21.415640 H          1 MOL1         0.1041
       7    H5      20.503455   21.189020   21.996250 H          1 MOL1         0.1041
       8    C3      20.614013   19.366765   20.803554 C.3        1 MOL1        -0.1274
       9    H6      20.469508   19.911401   19.861052 H          1 MOL1         0.1041
      10    H7      21.335807   18.569309   20.582690 H          1 MOL1         0.1041
      11    C4      19.256135   18.753586   21.206625 C.3        1 MOL1         0.0313
      12    H8      18.748707   18.388795   20.309971 H          1 MOL1         0.1015
      13    H9      18.626050   19.520244   21.664350 H          1 MOL1         0.1015
      14    N1      19.358552   17.581319   22.163860 N.4        1 MOL1        -0.4809
      15    H10     19.878583   17.860014   23.007966 H          1 MOL1         0.3726
      16    H11     19.913193   16.823156   21.737749 H          1 MOL1         0.3726
      17    C5      17.966668   17.084561   22.530332 C.3        1 MOL1        -0.0677
      18    H12     17.410176   17.893451   23.008644 H          1 MOL1         0.1026
      19    H13     17.448413   16.765481   21.623488 H          1 MOL1         0.1026
      20    H14     18.056103   16.241559   23.219042 H          1 MOL1         0.1026
@<TRIPOS>BOND
    1     1     2    1
    2     1     3    1
    3     1     4    1
    4     1     5    1
    5     5     6    1
    6     5     7    1
    7     5     8    1
    8     8     9    1
    9     8    10    1
   10     8    11    1
   11    11    12    1
   12    11    13    1
   13    11    14    1
   14    14    15    1
   15    14    16    1
   16    14    17    1
   17    17    18    1
   18    17    19    1
   19    17    20    1
@<TRIPOS>SUBSTRUCTURE
       1 MOL1            1 RESIDUE      1      MOL     
@<SCITEGIC>MOL_PROPERTY
VConf Rank
SciTegic.value.IntegerValue
393

@<SCITEGIC>MOL_PROPERTY
Conf_Id
SciTegic.value.IntegerValue
26

@<SCITEGIC>MOL_PROPERTY
Delta U+W
SciTegic.value.DoubleValue
2.888

@<SCITEGIC>MOL_PROPERTY
U+W
SciTegic.value.DoubleValue
18.226

@<SCITEGIC>MOL_PROPERTY
Grad RMS
SciTegic.value.DoubleValue
0.000000

@<SCITEGIC>MOL_PROPERTY
U
SciTegic.value.DoubleValue
72.042

@<SCITEGIC>MOL_PROPERTY
W
SciTegic.value.DoubleValue
-53.816

@<SCITEGIC>MOL_PROPERTY
W(PB)
SciTegic.value.DoubleValue
-55.689

@<SCITEGIC>MOL_PROPERTY
W(SA)
SciTegic.value.DoubleValue
1.873

@<SCITEGIC>MOL_PROPERTY
Valence
SciTegic.value.DoubleValue
2.428

@<SCITEGIC>MOL_PROPERTY
Coulomb
SciTegic.value.DoubleValue
69.829

@<SCITEGIC>MOL_PROPERTY
VdW
SciTegic.value.DoubleValue
-0.215

@<SCITEGIC>MOL_PROPERTY
VdW6
SciTegic.value.DoubleValue
-4.563

@<SCITEGIC>MOL_PROPERTY
VdW12
SciTegic.value.DoubleValue
4.348

@<SCITEGIC>MOL_PROPERTY
Bond
SciTegic.value.DoubleValue
0.137

@<SCITEGIC>MOL_PROPERTY
Angle
SciTegic.value.DoubleValue
0.936

@<SCITEGIC>MOL_PROPERTY
Pdih
SciTegic.value.DoubleValue
1.356

@<SCITEGIC>MOL_PROPERTY
Idih
SciTegic.value.DoubleValue
0.000

@<SCITEGIC>MOL_PROPERTY
Tether
SciTegic.value.DoubleValue
0.000

@<TRIPOS>MOLECULE
guest-s9_confgen4.mol2 : confsearch ligand conformer 394
          20          19           1
SMALL
USER_CHARGES
 
@<TRIPOS>ATOM
       1    C1      18.659779   18.769275   20.407019 C.3        1 MOL1        -0.2224
       2    H1      17.952515   19.040771   19.612484 H          1 MOL1         0.1052
       3    H2      18.662242   17.674569   20.489344 H          1 MOL1         0.1052
       4    H3      18.272795   19.195245   21.340209 H          1 MOL1         0.1052
       5    C2      20.069159   19.311441   20.076615 C.3        1 MOL1        -0.1209
       6    H4      20.051702   20.410283   20.095209 H          1 MOL1         0.1041
       7    H5      20.320068   19.029484   19.044331 H          1 MOL1         0.1041
       8    C3      21.191931   18.792727   21.011043 C.3        1 MOL1        -0.1274
       9    H6      21.269864   17.699469   20.944570 H          1 MOL1         0.1041
      10    H7      22.148139   19.185671   20.640799 H          1 MOL1         0.1041
      11    C4      21.044757   19.223218   22.485933 C.3        1 MOL1         0.0313
      12    H8      20.716868   20.264512   22.535735 H          1 MOL1         0.1015
      13    H9      22.017920   19.150432   22.978070 H          1 MOL1         0.1015
      14    N1      20.078091   18.376018   23.291421 N.4        1 MOL1        -0.4809
      15    H10     20.388967   17.392491   23.297571 H          1 MOL1         0.3726
      16    H11     19.153675   18.368267   22.837533 H          1 MOL1         0.3726
      17    C5      19.973979   18.912755   24.712506 C.3        1 MOL1        -0.0677
      18    H12     19.612479   19.942896   24.682592 H          1 MOL1         0.1026
      19    H13     19.275553   18.293654   25.279856 H          1 MOL1         0.1026
      20    H14     20.959462   18.880574   25.182137 H          1 MOL1         0.1026
@<TRIPOS>BOND
    1     1     2    1
    2     1     3    1
    3     1     4    1
    4     1     5    1
    5     5     6    1
    6     5     7    1
    7     5     8    1
    8     8     9    1
    9     8    10    1
   10     8    11    1
   11    11    12    1
   12    11    13    1
   13    11    14    1
   14    14    15    1
   15    14    16    1
   16    14    17    1
   17    17    18    1
   18    17    19    1
   19    17    20    1
@<TRIPOS>SUBSTRUCTURE
       1 MOL1            1 RESIDUE      1      MOL     
@<SCITEGIC>MOL_PROPERTY
VConf Rank
SciTegic.value.IntegerValue
394

@<SCITEGIC>MOL_PROPERTY
Conf_Id
SciTegic.value.IntegerValue
5

@<SCITEGIC>MOL_PROPERTY
Delta U+W
SciTegic.value.DoubleValue
2.950

@<SCITEGIC>MOL_PROPERTY
U+W
SciTegic.value.DoubleValue
18.289

@<SCITEGIC>MOL_PROPERTY
Grad RMS
SciTegic.value.DoubleValue
0.000000

@<SCITEGIC>MOL_PROPERTY
U
SciTegic.value.DoubleValue
72.042

@<SCITEGIC>MOL_PROPERTY
W
SciTegic.value.DoubleValue
-53.753

@<SCITEGIC>MOL_PROPERTY
W(PB)
SciTegic.value.DoubleValue
-55.644

@<SCITEGIC>MOL_PROPERTY
W(SA)
SciTegic.value.DoubleValue
1.891

@<SCITEGIC>MOL_PROPERTY
Valence
SciTegic.value.DoubleValue
2.428

@<SCITEGIC>MOL_PROPERTY
Coulomb
SciTegic.value.DoubleValue
69.829

@<SCITEGIC>MOL_PROPERTY
VdW
SciTegic.value.DoubleValue
-0.215

@<SCITEGIC>MOL_PROPERTY
VdW6
SciTegic.value.DoubleValue
-4.563

@<SCITEGIC>MOL_PROPERTY
VdW12
SciTegic.value.DoubleValue
4.348

@<SCITEGIC>MOL_PROPERTY
Bond
SciTegic.value.DoubleValue
0.137

@<SCITEGIC>MOL_PROPERTY
Angle
SciTegic.value.DoubleValue
0.936

@<SCITEGIC>MOL_PROPERTY
Pdih
SciTegic.value.DoubleValue
1.356

@<SCITEGIC>MOL_PROPERTY
Idih
SciTegic.value.DoubleValue
0.000

@<SCITEGIC>MOL_PROPERTY
Tether
SciTegic.value.DoubleValue
0.000

@<TRIPOS>MOLECULE
guest-s9_confgen4.mol2 : confsearch ligand conformer 395
          20          19           1
SMALL
USER_CHARGES
 
@<TRIPOS>ATOM
       1    C1      19.952993   19.517450   19.660677 C.3        1 MOL1        -0.2224
       2    H1      19.677730   20.571561   19.525997 H          1 MOL1         0.1052
       3    H2      21.015629   19.473152   19.930155 H          1 MOL1         0.1052
       4    H3      19.836133   19.015090   18.691686 H          1 MOL1         0.1052
       5    C2      19.064297   18.843737   20.731411 C.3        1 MOL1        -0.1209
       6    H4      19.355237   17.790632   20.845807 H          1 MOL1         0.1041
       7    H5      18.023981   18.833557   20.377104 H          1 MOL1         0.1041
       8    C3      19.116807   19.561273   22.103155 C.3        1 MOL1        -0.1274
       9    H6      18.733026   20.583785   21.990395 H          1 MOL1         0.1041
      10    H7      18.436169   19.059497   22.802944 H          1 MOL1         0.1041
      11    C4      20.531687   19.632753   22.721650 C.3        1 MOL1         0.0313
      12    H8      20.484101   20.148455   23.684046 H          1 MOL1         0.1015
      13    H9      21.178947   20.216100   22.062225 H          1 MOL1         0.1015
      14    N1      21.207180   18.289309   22.950103 N.4        1 MOL1        -0.4809
      15    H10     22.189114   18.438940   23.230230 H          1 MOL1         0.3726
      16    H11     21.258722   17.765356   22.064145 H          1 MOL1         0.3726
      17    C5      20.480498   17.478794   24.017633 C.3        1 MOL1        -0.0677
      18    H12     19.461409   17.272927   23.684368 H          1 MOL1         0.1026
      19    H13     21.011633   16.537644   24.175871 H          1 MOL1         0.1026
      20    H14     20.457691   18.049419   24.948493 H          1 MOL1         0.1026
@<TRIPOS>BOND
    1     1     2    1
    2     1     3    1
    3     1     4    1
    4     1     5    1
    5     5     6    1
    6     5     7    1
    7     5     8    1
    8     8     9    1
    9     8    10    1
   10     8    11    1
   11    11    12    1
   12    11    13    1
   13    11    14    1
   14    14    15    1
   15    14    16    1
   16    14    17    1
   17    17    18    1
   18    17    19    1
   19    17    20    1
@<TRIPOS>SUBSTRUCTURE
       1 MOL1            1 RESIDUE      1      MOL     
@<SCITEGIC>MOL_PROPERTY
VConf Rank
SciTegic.value.IntegerValue
395

@<SCITEGIC>MOL_PROPERTY
Conf_Id
SciTegic.value.IntegerValue
52

@<SCITEGIC>MOL_PROPERTY
Delta U+W
SciTegic.value.DoubleValue
0.784

@<SCITEGIC>MOL_PROPERTY
U+W
SciTegic.value.DoubleValue
16.122

@<SCITEGIC>MOL_PROPERTY
Grad RMS
SciTegic.value.DoubleValue
0.000000

@<SCITEGIC>MOL_PROPERTY
U
SciTegic.value.DoubleValue
70.777

@<SCITEGIC>MOL_PROPERTY
W
SciTegic.value.DoubleValue
-54.655

@<SCITEGIC>MOL_PROPERTY
W(PB)
SciTegic.value.DoubleValue
-56.491

@<SCITEGIC>MOL_PROPERTY
W(SA)
SciTegic.value.DoubleValue
1.836

@<SCITEGIC>MOL_PROPERTY
Valence
SciTegic.value.DoubleValue
1.529

@<SCITEGIC>MOL_PROPERTY
Coulomb
SciTegic.value.DoubleValue
69.166

@<SCITEGIC>MOL_PROPERTY
VdW
SciTegic.value.DoubleValue
0.082

@<SCITEGIC>MOL_PROPERTY
VdW6
SciTegic.value.DoubleValue
-5.166

@<SCITEGIC>MOL_PROPERTY
VdW12
SciTegic.value.DoubleValue
5.248

@<SCITEGIC>MOL_PROPERTY
Bond
SciTegic.value.DoubleValue
0.171

@<SCITEGIC>MOL_PROPERTY
Angle
SciTegic.value.DoubleValue
0.752

@<SCITEGIC>MOL_PROPERTY
Pdih
SciTegic.value.DoubleValue
0.605

@<SCITEGIC>MOL_PROPERTY
Idih
SciTegic.value.DoubleValue
0.000

@<SCITEGIC>MOL_PROPERTY
Tether
SciTegic.value.DoubleValue
0.000

@<TRIPOS>MOLECULE
guest-s9_confgen4.mol2 : confsearch ligand conformer 396
          20          19           1
SMALL
USER_CHARGES
 
@<TRIPOS>ATOM
       1    C1      18.265220   17.782093   21.987295 C.3        1 MOL1        -0.2224
       2    H1      17.318424   17.260061   21.796958 H          1 MOL1         0.1052
       3    H2      19.070469   17.061316   21.805065 H          1 MOL1         0.1052
       4    H3      18.279255   18.069987   23.046648 H          1 MOL1         0.1052
       5    C2      18.389070   19.018145   21.067404 C.3        1 MOL1        -0.1209
       6    H4      17.449869   19.586705   21.119036 H          1 MOL1         0.1041
       7    H5      18.488108   18.690423   20.022987 H          1 MOL1         0.1041
       8    C3      19.555459   19.972908   21.429054 C.3        1 MOL1        -0.1274
       9    H6      19.485724   20.851665   20.774449 H          1 MOL1         0.1041
      10    H7      19.431720   20.353514   22.450685 H          1 MOL1         0.1041
      11    C4      20.965306   19.364660   21.244886 C.3        1 MOL1         0.0313
      12    H8      21.700838   20.171279   21.192179 H          1 MOL1         0.1015
      13    H9      20.998214   18.821491   20.297071 H          1 MOL1         0.1015
      14    N1      21.424656   18.417146   22.342032 N.4        1 MOL1        -0.4809
      15    H10     22.278938   17.924486   22.037652 H          1 MOL1         0.3726
      16    H11     20.723010   17.677826   22.486738 H          1 MOL1         0.3726
      17    C5      21.695523   19.166302   23.642077 C.3        1 MOL1        -0.0677
      18    H12     22.452725   19.932810   23.463882 H          1 MOL1         0.1026
      19    H13     20.772411   19.632147   23.992032 H          1 MOL1         0.1026
      20    H14     22.056781   18.460328   24.393081 H          1 MOL1         0.1026
@<TRIPOS>BOND
    1     1     2    1
    2     1     3    1
    3     1     4    1
    4     1     5    1
    5     5     6    1
    6     5     7    1
    7     5     8    1
    8     8     9    1
    9     8    10    1
   10     8    11    1
   11    11    12    1
   12    11    13    1
   13    11    14    1
   14    14    15    1
   15    14    16    1
   16    14    17    1
   17    17    18    1
   18    17    19    1
   19    17    20    1
@<TRIPOS>SUBSTRUCTURE
       1 MOL1            1 RESIDUE      1      MOL     
@<SCITEGIC>MOL_PROPERTY
VConf Rank
SciTegic.value.IntegerValue
396

@<SCITEGIC>MOL_PROPERTY
Conf_Id
SciTegic.value.IntegerValue
55

@<SCITEGIC>MOL_PROPERTY
Delta U+W
SciTegic.value.DoubleValue
2.745

@<SCITEGIC>MOL_PROPERTY
U+W
SciTegic.value.DoubleValue
18.083

@<SCITEGIC>MOL_PROPERTY
Grad RMS
SciTegic.value.DoubleValue
0.000000

@<SCITEGIC>MOL_PROPERTY
U
SciTegic.value.DoubleValue
72.490

@<SCITEGIC>MOL_PROPERTY
W
SciTegic.value.DoubleValue
-54.407

@<SCITEGIC>MOL_PROPERTY
W(PB)
SciTegic.value.DoubleValue
-56.269

@<SCITEGIC>MOL_PROPERTY
W(SA)
SciTegic.value.DoubleValue
1.861

@<SCITEGIC>MOL_PROPERTY
Valence
SciTegic.value.DoubleValue
2.738

@<SCITEGIC>MOL_PROPERTY
Coulomb
SciTegic.value.DoubleValue
69.795

@<SCITEGIC>MOL_PROPERTY
VdW
SciTegic.value.DoubleValue
-0.043

@<SCITEGIC>MOL_PROPERTY
VdW6
SciTegic.value.DoubleValue
-5.333

@<SCITEGIC>MOL_PROPERTY
VdW12
SciTegic.value.DoubleValue
5.290

@<SCITEGIC>MOL_PROPERTY
Bond
SciTegic.value.DoubleValue
0.182

@<SCITEGIC>MOL_PROPERTY
Angle
SciTegic.value.DoubleValue
1.135

@<SCITEGIC>MOL_PROPERTY
Pdih
SciTegic.value.DoubleValue
1.422

@<SCITEGIC>MOL_PROPERTY
Idih
SciTegic.value.DoubleValue
0.000

@<SCITEGIC>MOL_PROPERTY
Tether
SciTegic.value.DoubleValue
0.000

@<TRIPOS>MOLECULE
guest-s9_confgen4.mol2 : confsearch ligand conformer 397
          20          19           1
SMALL
USER_CHARGES
 
@<TRIPOS>ATOM
       1    C1      21.650770   19.938453   22.595000 C.3        1 MOL1        -0.2224
       2    H1      22.625513   20.361032   22.871532 H          1 MOL1         0.1052
       3    H2      21.100429   20.708083   22.038132 H          1 MOL1         0.1052
       4    H3      21.117189   19.726641   23.528583 H          1 MOL1         0.1052
       5    C2      21.842759   18.660501   21.746854 C.3        1 MOL1        -0.1209
       6    H4      22.291725   17.871936   22.367025 H          1 MOL1         0.1041
       7    H5      22.572730   18.874892   20.953630 H          1 MOL1         0.1041
       8    C3      20.546199   18.129859   21.083391 C.3        1 MOL1        -0.1274
       9    H6      20.123567   18.889906   20.414352 H          1 MOL1         0.1041
      10    H7      20.820547   17.285377   20.437504 H          1 MOL1         0.1041
      11    C4      19.473859   17.627391   22.077959 C.3        1 MOL1         0.0313
      12    H8      19.958660   17.026258   22.851311 H          1 MOL1         0.1015
      13    H9      18.767078   16.982817   21.549368 H          1 MOL1         0.1015
      14    N1      18.656734   18.707197   22.769939 N.4        1 MOL1        -0.4809
      15    H10     19.282513   19.389503   23.220159 H          1 MOL1         0.3726
      16    H11     18.112895   18.288252   23.540577 H          1 MOL1         0.3726
      17    C5      17.715957   19.401287   21.791217 C.3        1 MOL1        -0.0677
      18    H12     18.301068   19.896345   21.013926 H          1 MOL1         0.1026
      19    H13     17.054695   18.658274   21.340326 H          1 MOL1         0.1026
      20    H14     17.122267   20.142651   22.330497 H          1 MOL1         0.1026
@<TRIPOS>BOND
    1     1     2    1
    2     1     3    1
    3     1     4    1
    4     1     5    1
    5     5     6    1
    6     5     7    1
    7     5     8    1
    8     8     9    1
    9     8    10    1
   10     8    11    1
   11    11    12    1
   12    11    13    1
   13    11    14    1
   14    14    15    1
   15    14    16    1
   16    14    17    1
   17    17    18    1
   18    17    19    1
   19    17    20    1
@<TRIPOS>SUBSTRUCTURE
       1 MOL1            1 RESIDUE      1      MOL     
@<SCITEGIC>MOL_PROPERTY
VConf Rank
SciTegic.value.IntegerValue
397

@<SCITEGIC>MOL_PROPERTY
Conf_Id
SciTegic.value.IntegerValue
76

@<SCITEGIC>MOL_PROPERTY
Delta U+W
SciTegic.value.DoubleValue
2.799

@<SCITEGIC>MOL_PROPERTY
U+W
SciTegic.value.DoubleValue
18.137

@<SCITEGIC>MOL_PROPERTY
Grad RMS
SciTegic.value.DoubleValue
0.000000

@<SCITEGIC>MOL_PROPERTY
U
SciTegic.value.DoubleValue
72.490

@<SCITEGIC>MOL_PROPERTY
W
SciTegic.value.DoubleValue
-54.353

@<SCITEGIC>MOL_PROPERTY
W(PB)
SciTegic.value.DoubleValue
-56.201

@<SCITEGIC>MOL_PROPERTY
W(SA)
SciTegic.value.DoubleValue
1.848

@<SCITEGIC>MOL_PROPERTY
Valence
SciTegic.value.DoubleValue
2.738

@<SCITEGIC>MOL_PROPERTY
Coulomb
SciTegic.value.DoubleValue
69.795

@<SCITEGIC>MOL_PROPERTY
VdW
SciTegic.value.DoubleValue
-0.043

@<SCITEGIC>MOL_PROPERTY
VdW6
SciTegic.value.DoubleValue
-5.334

@<SCITEGIC>MOL_PROPERTY
VdW12
SciTegic.value.DoubleValue
5.290

@<SCITEGIC>MOL_PROPERTY
Bond
SciTegic.value.DoubleValue
0.182

@<SCITEGIC>MOL_PROPERTY
Angle
SciTegic.value.DoubleValue
1.135

@<SCITEGIC>MOL_PROPERTY
Pdih
SciTegic.value.DoubleValue
1.421

@<SCITEGIC>MOL_PROPERTY
Idih
SciTegic.value.DoubleValue
0.000

@<SCITEGIC>MOL_PROPERTY
Tether
SciTegic.value.DoubleValue
0.000

@<TRIPOS>MOLECULE
guest-s9_confgen4.mol2 : confsearch ligand conformer 398
          20          19           1
SMALL
USER_CHARGES
 
@<TRIPOS>ATOM
       1    C1      21.816759   19.865146   22.512414 C.3        1 MOL1        -0.2224
       2    H1      21.715238   18.908576   23.039403 H          1 MOL1         0.1052
       3    H2      22.670013   19.787404   21.826218 H          1 MOL1         0.1052
       4    H3      22.057807   20.631696   23.260172 H          1 MOL1         0.1052
       5    C2      20.524328   20.238255   21.750197 C.3        1 MOL1        -0.1209
       6    H4      20.652712   21.233310   21.301625 H          1 MOL1         0.1041
       7    H5      19.686082   20.334319   22.452248 H          1 MOL1         0.1041
       8    C3      20.168663   19.231808   20.628585 C.3        1 MOL1        -0.1274
       9    H6      19.269620   19.577613   20.101756 H          1 MOL1         0.1041
      10    H7      20.974818   19.238071   19.883118 H          1 MOL1         0.1041
      11    C4      19.952241   17.772197   21.092673 C.3        1 MOL1         0.0313
      12    H8      20.830424   17.405480   21.629216 H          1 MOL1         0.1015
      13    H9      19.829137   17.153149   20.200321 H          1 MOL1         0.1015
      14    N1      18.723528   17.532368   21.957363 N.4        1 MOL1        -0.4809
      15    H10     18.366734   16.579968   21.782913 H          1 MOL1         0.3726
      16    H11     17.955307   18.157145   21.670772 H          1 MOL1         0.3726
      17    C5      19.039277   17.683845   23.441480 C.3        1 MOL1        -0.0677
      18    H12     18.137882   17.473514   24.021285 H          1 MOL1         0.1026
      19    H13     19.824069   16.975236   23.714546 H          1 MOL1         0.1026
      20    H14     19.375334   18.700989   23.645210 H          1 MOL1         0.1026
@<TRIPOS>BOND
    1     1     2    1
    2     1     3    1
    3     1     4    1
    4     1     5    1
    5     5     6    1
    6     5     7    1
    7     5     8    1
    8     8     9    1
    9     8    10    1
   10     8    11    1
   11    11    12    1
   12    11    13    1
   13    11    14    1
   14    14    15    1
   15    14    16    1
   16    14    17    1
   17    17    18    1
   18    17    19    1
   19    17    20    1
@<TRIPOS>SUBSTRUCTURE
       1 MOL1            1 RESIDUE      1      MOL     
@<SCITEGIC>MOL_PROPERTY
VConf Rank
SciTegic.value.IntegerValue
398

@<SCITEGIC>MOL_PROPERTY
Conf_Id
SciTegic.value.IntegerValue
60

@<SCITEGIC>MOL_PROPERTY
Delta U+W
SciTegic.value.DoubleValue
1.788

@<SCITEGIC>MOL_PROPERTY
U+W
SciTegic.value.DoubleValue
17.127

@<SCITEGIC>MOL_PROPERTY
Grad RMS
SciTegic.value.DoubleValue
0.000000

@<SCITEGIC>MOL_PROPERTY
U
SciTegic.value.DoubleValue
72.122

@<SCITEGIC>MOL_PROPERTY
W
SciTegic.value.DoubleValue
-54.995

@<SCITEGIC>MOL_PROPERTY
W(PB)
SciTegic.value.DoubleValue
-56.810

@<SCITEGIC>MOL_PROPERTY
W(SA)
SciTegic.value.DoubleValue
1.815

@<SCITEGIC>MOL_PROPERTY
Valence
SciTegic.value.DoubleValue
3.197

@<SCITEGIC>MOL_PROPERTY
Coulomb
SciTegic.value.DoubleValue
69.115

@<SCITEGIC>MOL_PROPERTY
VdW
SciTegic.value.DoubleValue
-0.190

@<SCITEGIC>MOL_PROPERTY
VdW6
SciTegic.value.DoubleValue
-5.585

@<SCITEGIC>MOL_PROPERTY
VdW12
SciTegic.value.DoubleValue
5.395

@<SCITEGIC>MOL_PROPERTY
Bond
SciTegic.value.DoubleValue
0.177

@<SCITEGIC>MOL_PROPERTY
Angle
SciTegic.value.DoubleValue
1.207

@<SCITEGIC>MOL_PROPERTY
Pdih
SciTegic.value.DoubleValue
1.813

@<SCITEGIC>MOL_PROPERTY
Idih
SciTegic.value.DoubleValue
0.000

@<SCITEGIC>MOL_PROPERTY
Tether
SciTegic.value.DoubleValue
0.000

@<TRIPOS>MOLECULE
guest-s9_confgen4.mol2 : confsearch ligand conformer 399
          20          19           1
SMALL
USER_CHARGES
 
@<TRIPOS>ATOM
       1    C1      21.001219   16.888632   21.504516 C.3        1 MOL1        -0.2224
       2    H1      20.613528   15.879938   21.311964 H          1 MOL1         0.1052
       3    H2      22.072082   16.886958   21.263272 H          1 MOL1         0.1052
       4    H3      20.894285   17.085296   22.578266 H          1 MOL1         0.1052
       5    C2      20.242647   17.933013   20.653399 C.3        1 MOL1        -0.1209
       6    H4      19.171115   17.906658   20.889803 H          1 MOL1         0.1041
       7    H5      20.321020   17.650704   19.594158 H          1 MOL1         0.1041
       8    C3      20.791903   19.370544   20.824489 C.3        1 MOL1        -0.1274
       9    H6      21.833107   19.391930   20.476520 H          1 MOL1         0.1041
      10    H7      20.240106   20.051460   20.163217 H          1 MOL1         0.1041
      11    C4      20.754097   19.926613   22.267414 C.3        1 MOL1         0.0313
      12    H8      21.274497   20.887784   22.268304 H          1 MOL1         0.1015
      13    H9      21.289284   19.261800   22.949443 H          1 MOL1         0.1015
      14    N1      19.366931   20.186182   22.836042 N.4        1 MOL1        -0.4809
      15    H10     18.725653   20.496142   22.090835 H          1 MOL1         0.3726
      16    H11     19.412518   20.981945   23.491391 H          1 MOL1         0.3726
      17    C5      18.819687   18.965938   23.568690 C.3        1 MOL1        -0.0677
      18    H12     19.503210   18.697480   24.376969 H          1 MOL1         0.1026
      19    H13     17.839103   19.209070   23.983743 H          1 MOL1         0.1026
      20    H14     18.725289   18.130419   22.874415 H          1 MOL1         0.1026
@<TRIPOS>BOND
    1     1     2    1
    2     1     3    1
    3     1     4    1
    4     1     5    1
    5     5     6    1
    6     5     7    1
    7     5     8    1
    8     8     9    1
    9     8    10    1
   10     8    11    1
   11    11    12    1
   12    11    13    1
   13    11    14    1
   14    14    15    1
   15    14    16    1
   16    14    17    1
   17    17    18    1
   18    17    19    1
   19    17    20    1
@<TRIPOS>SUBSTRUCTURE
       1 MOL1            1 RESIDUE      1      MOL     
@<SCITEGIC>MOL_PROPERTY
VConf Rank
SciTegic.value.IntegerValue
399

@<SCITEGIC>MOL_PROPERTY
Conf_Id
SciTegic.value.IntegerValue
54

@<SCITEGIC>MOL_PROPERTY
Delta U+W
SciTegic.value.DoubleValue
1.880

@<SCITEGIC>MOL_PROPERTY
U+W
SciTegic.value.DoubleValue
17.218

@<SCITEGIC>MOL_PROPERTY
Grad RMS
SciTegic.value.DoubleValue
0.000000

@<SCITEGIC>MOL_PROPERTY
U
SciTegic.value.DoubleValue
72.122

@<SCITEGIC>MOL_PROPERTY
W
SciTegic.value.DoubleValue
-54.903

@<SCITEGIC>MOL_PROPERTY
W(PB)
SciTegic.value.DoubleValue
-56.724

@<SCITEGIC>MOL_PROPERTY
W(SA)
SciTegic.value.DoubleValue
1.821

@<SCITEGIC>MOL_PROPERTY
Valence
SciTegic.value.DoubleValue
3.197

@<SCITEGIC>MOL_PROPERTY
Coulomb
SciTegic.value.DoubleValue
69.115

@<SCITEGIC>MOL_PROPERTY
VdW
SciTegic.value.DoubleValue
-0.190

@<SCITEGIC>MOL_PROPERTY
VdW6
SciTegic.value.DoubleValue
-5.585

@<SCITEGIC>MOL_PROPERTY
VdW12
SciTegic.value.DoubleValue
5.395

@<SCITEGIC>MOL_PROPERTY
Bond
SciTegic.value.DoubleValue
0.177

@<SCITEGIC>MOL_PROPERTY
Angle
SciTegic.value.DoubleValue
1.207

@<SCITEGIC>MOL_PROPERTY
Pdih
SciTegic.value.DoubleValue
1.813

@<SCITEGIC>MOL_PROPERTY
Idih
SciTegic.value.DoubleValue
0.000

@<SCITEGIC>MOL_PROPERTY
Tether
SciTegic.value.DoubleValue
0.000

@<TRIPOS>MOLECULE
guest-s9_confgen4.mol2 : confsearch ligand conformer 400
          20          19           1
SMALL
USER_CHARGES
 
@<TRIPOS>ATOM
       1    C1      17.009786   19.372048   21.125041 C.3        1 MOL1        -0.2224
       2    H1      16.782222   18.356346   20.776127 H          1 MOL1         0.1052
       3    H2      16.105840   19.774454   21.600410 H          1 MOL1         0.1052
       4    H3      17.232628   19.992728   20.247389 H          1 MOL1         0.1052
       5    C2      18.192375   19.367343   22.117862 C.3        1 MOL1        -0.1209
       6    H4      17.926301   18.767555   22.999797 H          1 MOL1         0.1041
       7    H5      18.373220   20.391060   22.475143 H          1 MOL1         0.1041
       8    C3      19.479680   18.805348   21.475390 C.3        1 MOL1        -0.1274
       9    H6      19.299201   17.781419   21.121892 H          1 MOL1         0.1041
      10    H7      19.746658   19.407083   20.596411 H          1 MOL1         0.1041
      11    C4      20.654131   18.804082   22.471506 C.3        1 MOL1         0.0313
      12    H8      20.397647   18.193260   23.340759 H          1 MOL1         0.1015
      13    H9      20.846633   19.824133   22.813452 H          1 MOL1         0.1015
      14    N1      21.941404   18.259698   21.883902 N.4        1 MOL1        -0.4809
      15    H10     22.213777   18.807227   21.053130 H          1 MOL1         0.3726
      16    H11     21.798087   17.297249   21.541403 H          1 MOL1         0.3726
      17    C5      23.046230   18.294276   22.931442 C.3        1 MOL1        -0.0677
      18    H12     22.751500   17.681047   23.785779 H          1 MOL1         0.1026
      19    H13     23.966651   17.899794   22.495300 H          1 MOL1         0.1026
      20    H14     23.204344   19.325702   23.253886 H          1 MOL1         0.1026
@<TRIPOS>BOND
    1     1     2    1
    2     1     3    1
    3     1     4    1
    4     1     5    1
    5     5     6    1
    6     5     7    1
    7     5     8    1
    8     8     9    1
    9     8    10    1
   10     8    11    1
   11    11    12    1
   12    11    13    1
   13    11    14    1
   14    14    15    1
   15    14    16    1
   16    14    17    1
   17    17    18    1
   18    17    19    1
   19    17    20    1
@<TRIPOS>SUBSTRUCTURE
       1 MOL1            1 RESIDUE      1      MOL     
@<SCITEGIC>MOL_PROPERTY
VConf Rank
SciTegic.value.IntegerValue
400

@<SCITEGIC>MOL_PROPERTY
Conf_Id
SciTegic.value.IntegerValue
67

@<SCITEGIC>MOL_PROPERTY
Delta U+W
SciTegic.value.DoubleValue
0.000

@<SCITEGIC>MOL_PROPERTY
U+W
SciTegic.value.DoubleValue
15.338

@<SCITEGIC>MOL_PROPERTY
Grad RMS
SciTegic.value.DoubleValue
0.000000

@<SCITEGIC>MOL_PROPERTY
U
SciTegic.value.DoubleValue
69.277

@<SCITEGIC>MOL_PROPERTY
W
SciTegic.value.DoubleValue
-53.939

@<SCITEGIC>MOL_PROPERTY
W(PB)
SciTegic.value.DoubleValue
-55.889

@<SCITEGIC>MOL_PROPERTY
W(SA)
SciTegic.value.DoubleValue
1.950

@<SCITEGIC>MOL_PROPERTY
Valence
SciTegic.value.DoubleValue
0.846

@<SCITEGIC>MOL_PROPERTY
Coulomb
SciTegic.value.DoubleValue
68.557

@<SCITEGIC>MOL_PROPERTY
VdW
SciTegic.value.DoubleValue
-0.127

@<SCITEGIC>MOL_PROPERTY
VdW6
SciTegic.value.DoubleValue
-3.008

@<SCITEGIC>MOL_PROPERTY
VdW12
SciTegic.value.DoubleValue
2.882

@<SCITEGIC>MOL_PROPERTY
Bond
SciTegic.value.DoubleValue
0.088

@<SCITEGIC>MOL_PROPERTY
Angle
SciTegic.value.DoubleValue
0.332

@<SCITEGIC>MOL_PROPERTY
Pdih
SciTegic.value.DoubleValue
0.426

@<SCITEGIC>MOL_PROPERTY
Idih
SciTegic.value.DoubleValue
0.000

@<SCITEGIC>MOL_PROPERTY
Tether
SciTegic.value.DoubleValue
0.000

@<TRIPOS>MOLECULE
guest-s9_confgen4.mol2 : confsearch ligand conformer 401
          20          19           1
SMALL
USER_CHARGES
 
@<TRIPOS>ATOM
       1    C1      21.995084   21.199256   21.921684 C.3        1 MOL1        -0.2224
       2    H1      22.815813   20.522138   21.651344 H          1 MOL1         0.1052
       3    H2      22.171356   22.158693   21.418266 H          1 MOL1         0.1052
       4    H3      22.039664   21.374696   23.004459 H          1 MOL1         0.1052
       5    C2      20.628770   20.609743   21.509456 C.3        1 MOL1        -0.1209
       6    H4      20.602171   20.477793   20.418490 H          1 MOL1         0.1041
       7    H5      19.832130   21.324299   21.760622 H          1 MOL1         0.1041
       8    C3      20.353237   19.257759   22.203655 C.3        1 MOL1        -0.1274
       9    H6      21.150964   18.547754   21.950122 H          1 MOL1         0.1041
      10    H7      20.375664   19.391176   23.293296 H          1 MOL1         0.1041
      11    C4      18.985826   18.677785   21.786771 C.3        1 MOL1         0.0313
      12    H8      18.972542   18.496414   20.709130 H          1 MOL1         0.1015
      13    H9      18.205964   19.408456   22.016146 H          1 MOL1         0.1015
      14    N1      18.608935   17.380979   22.484630 N.4        1 MOL1        -0.4809
      15    H10     17.624238   17.151261   22.277537 H          1 MOL1         0.3726
      16    H11     18.641585   17.503348   23.508220 H          1 MOL1         0.3726
      17    C5      19.511175   16.232409   22.046150 C.3        1 MOL1        -0.0677
      18    H12     20.542474   16.453131   22.328269 H          1 MOL1         0.1026
      19    H13     19.185555   15.313685   22.538988 H          1 MOL1         0.1026
      20    H14     19.440787   16.113373   20.962829 H          1 MOL1         0.1026
@<TRIPOS>BOND
    1     1     2    1
    2     1     3    1
    3     1     4    1
    4     1     5    1
    5     5     6    1
    6     5     7    1
    7     5     8    1
    8     8     9    1
    9     8    10    1
   10     8    11    1
   11    11    12    1
   12    11    13    1
   13    11    14    1
   14    14    15    1
   15    14    16    1
   16    14    17    1
   17    17    18    1
   18    17    19    1
   19    17    20    1
@<TRIPOS>SUBSTRUCTURE
       1 MOL1            1 RESIDUE      1      MOL     
@<SCITEGIC>MOL_PROPERTY
VConf Rank
SciTegic.value.IntegerValue
401

@<SCITEGIC>MOL_PROPERTY
Conf_Id
SciTegic.value.IntegerValue
37

@<SCITEGIC>MOL_PROPERTY
Delta U+W
SciTegic.value.DoubleValue
-0.021

@<SCITEGIC>MOL_PROPERTY
U+W
SciTegic.value.DoubleValue
15.318

@<SCITEGIC>MOL_PROPERTY
Grad RMS
SciTegic.value.DoubleValue
0.000000

@<SCITEGIC>MOL_PROPERTY
U
SciTegic.value.DoubleValue
69.657

@<SCITEGIC>MOL_PROPERTY
W
SciTegic.value.DoubleValue
-54.340

@<SCITEGIC>MOL_PROPERTY
W(PB)
SciTegic.value.DoubleValue
-56.238

@<SCITEGIC>MOL_PROPERTY
W(SA)
SciTegic.value.DoubleValue
1.899

@<SCITEGIC>MOL_PROPERTY
Valence
SciTegic.value.DoubleValue
1.137

@<SCITEGIC>MOL_PROPERTY
Coulomb
SciTegic.value.DoubleValue
68.383

@<SCITEGIC>MOL_PROPERTY
VdW
SciTegic.value.DoubleValue
0.138

@<SCITEGIC>MOL_PROPERTY
VdW6
SciTegic.value.DoubleValue
-3.703

@<SCITEGIC>MOL_PROPERTY
VdW12
SciTegic.value.DoubleValue
3.841

@<SCITEGIC>MOL_PROPERTY
Bond
SciTegic.value.DoubleValue
0.125

@<SCITEGIC>MOL_PROPERTY
Angle
SciTegic.value.DoubleValue
0.468

@<SCITEGIC>MOL_PROPERTY
Pdih
SciTegic.value.DoubleValue
0.543

@<SCITEGIC>MOL_PROPERTY
Idih
SciTegic.value.DoubleValue
0.000

@<SCITEGIC>MOL_PROPERTY
Tether
SciTegic.value.DoubleValue
0.000

@<TRIPOS>MOLECULE
guest-s9_confgen4.mol2 : confsearch ligand conformer 402
          20          19           1
SMALL
USER_CHARGES
 
@<TRIPOS>ATOM
       1    C1      22.617133   18.539837   20.546784 C.3        1 MOL1        -0.2224
       2    H1      23.421239   17.823728   20.333194 H          1 MOL1         0.1052
       3    H2      22.126108   18.787030   19.596543 H          1 MOL1         0.1052
       4    H3      23.077985   19.454825   20.941222 H          1 MOL1         0.1052
       5    C2      21.610285   17.944899   21.555037 C.3        1 MOL1        -0.1209
       6    H4      22.137212   17.675583   22.481388 H          1 MOL1         0.1041
       7    H5      21.192296   17.013565   21.147325 H          1 MOL1         0.1041
       8    C3      20.466238   18.932025   21.875075 C.3        1 MOL1        -0.1274
       9    H6      20.884178   19.860387   22.286282 H          1 MOL1         0.1041
      10    H7      19.943180   19.198019   20.947491 H          1 MOL1         0.1041
      11    C4      19.466759   18.329423   22.883977 C.3        1 MOL1         0.0313
      12    H8      20.007206   18.040676   23.789085 H          1 MOL1         0.1015
      13    H9      19.009783   17.430778   22.462087 H          1 MOL1         0.1015
      14    N1      18.349004   19.269280   23.305936 N.4        1 MOL1        -0.4809
      15    H10     18.741782   20.146049   23.681137 H          1 MOL1         0.3726
      16    H11     17.828634   18.854312   24.094798 H          1 MOL1         0.3726
      17    C5      17.396004   19.552432   22.149591 C.3        1 MOL1        -0.0677
      18    H12     16.980935   18.609697   21.786722 H          1 MOL1         0.1026
      19    H13     16.588671   20.198434   22.501540 H          1 MOL1         0.1026
      20    H14     17.939759   20.051686   21.345252 H          1 MOL1         0.1026
@<TRIPOS>BOND
    1     1     2    1
    2     1     3    1
    3     1     4    1
    4     1     5    1
    5     5     6    1
    6     5     7    1
    7     5     8    1
    8     8     9    1
    9     8    10    1
   10     8    11    1
   11    11    12    1
   12    11    13    1
   13    11    14    1
   14    14    15    1
   15    14    16    1
   16    14    17    1
   17    17    18    1
   18    17    19    1
   19    17    20    1
@<TRIPOS>SUBSTRUCTURE
       1 MOL1            1 RESIDUE      1      MOL     
@<SCITEGIC>MOL_PROPERTY
VConf Rank
SciTegic.value.IntegerValue
402

@<SCITEGIC>MOL_PROPERTY
Conf_Id
SciTegic.value.IntegerValue
2

@<SCITEGIC>MOL_PROPERTY
Delta U+W
SciTegic.value.DoubleValue
0.069

@<SCITEGIC>MOL_PROPERTY
U+W
SciTegic.value.DoubleValue
15.407

@<SCITEGIC>MOL_PROPERTY
Grad RMS
SciTegic.value.DoubleValue
0.000000

@<SCITEGIC>MOL_PROPERTY
U
SciTegic.value.DoubleValue
69.657

@<SCITEGIC>MOL_PROPERTY
W
SciTegic.value.DoubleValue
-54.250

@<SCITEGIC>MOL_PROPERTY
W(PB)
SciTegic.value.DoubleValue
-56.176

@<SCITEGIC>MOL_PROPERTY
W(SA)
SciTegic.value.DoubleValue
1.926

@<SCITEGIC>MOL_PROPERTY
Valence
SciTegic.value.DoubleValue
1.137

@<SCITEGIC>MOL_PROPERTY
Coulomb
SciTegic.value.DoubleValue
68.383

@<SCITEGIC>MOL_PROPERTY
VdW
SciTegic.value.DoubleValue
0.138

@<SCITEGIC>MOL_PROPERTY
VdW6
SciTegic.value.DoubleValue
-3.703

@<SCITEGIC>MOL_PROPERTY
VdW12
SciTegic.value.DoubleValue
3.841

@<SCITEGIC>MOL_PROPERTY
Bond
SciTegic.value.DoubleValue
0.125

@<SCITEGIC>MOL_PROPERTY
Angle
SciTegic.value.DoubleValue
0.468

@<SCITEGIC>MOL_PROPERTY
Pdih
SciTegic.value.DoubleValue
0.543

@<SCITEGIC>MOL_PROPERTY
Idih
SciTegic.value.DoubleValue
0.000

@<SCITEGIC>MOL_PROPERTY
Tether
SciTegic.value.DoubleValue
0.000

@<TRIPOS>MOLECULE
guest-s9_confgen4.mol2 : confsearch ligand conformer 403
          20          19           1
SMALL
USER_CHARGES
 
@<TRIPOS>ATOM
       1    C1      22.682447   18.636441   21.894516 C.3        1 MOL1        -0.2224
       2    H1      22.252531   17.650086   22.109782 H          1 MOL1         0.1052
       3    H2      22.751697   18.750013   20.804835 H          1 MOL1         0.1052
       4    H3      23.703493   18.646997   22.297436 H          1 MOL1         0.1052
       5    C2      21.841011   19.772532   22.520272 C.3        1 MOL1        -0.1209
       6    H4      22.356305   20.730076   22.360285 H          1 MOL1         0.1041
       7    H5      21.782418   19.631813   23.608835 H          1 MOL1         0.1041
       8    C3      20.414737   19.864695   21.929148 C.3        1 MOL1        -0.1274
       9    H6      19.904578   20.735895   22.361127 H          1 MOL1         0.1041
      10    H7      20.475548   20.040188   20.846849 H          1 MOL1         0.1041
      11    C4      19.575916   18.600979   22.202366 C.3        1 MOL1         0.0313
      12    H8      19.513496   18.427851   23.279633 H          1 MOL1         0.1015
      13    H9      20.055541   17.733874   21.742088 H          1 MOL1         0.1015
      14    N1      18.162112   18.688600   21.662043 N.4        1 MOL1        -0.4809
      15    H10     18.179112   18.861784   20.645279 H          1 MOL1         0.3726
      16    H11     17.674382   19.501278   22.069202 H          1 MOL1         0.3726
      17    C5      17.407030   17.402915   21.971810 C.3        1 MOL1        -0.0677
      18    H12     17.371926   17.257902   23.053725 H          1 MOL1         0.1026
      19    H13     16.391295   17.479537   21.577582 H          1 MOL1         0.1026
      20    H14     17.921405   16.561440   21.502621 H          1 MOL1         0.1026
@<TRIPOS>BOND
    1     1     2    1
    2     1     3    1
    3     1     4    1
    4     1     5    1
    5     5     6    1
    6     5     7    1
    7     5     8    1
    8     8     9    1
    9     8    10    1
   10     8    11    1
   11    11    12    1
   12    11    13    1
   13    11    14    1
   14    14    15    1
   15    14    16    1
   16    14    17    1
   17    17    18    1
   18    17    19    1
   19    17    20    1
@<TRIPOS>SUBSTRUCTURE
       1 MOL1            1 RESIDUE      1      MOL     
@<SCITEGIC>MOL_PROPERTY
VConf Rank
SciTegic.value.IntegerValue
403

@<SCITEGIC>MOL_PROPERTY
Conf_Id
SciTegic.value.IntegerValue
34

@<SCITEGIC>MOL_PROPERTY
Delta U+W
SciTegic.value.DoubleValue
0.276

@<SCITEGIC>MOL_PROPERTY
U+W
SciTegic.value.DoubleValue
15.615

@<SCITEGIC>MOL_PROPERTY
Grad RMS
SciTegic.value.DoubleValue
0.000000

@<SCITEGIC>MOL_PROPERTY
U
SciTegic.value.DoubleValue
69.798

@<SCITEGIC>MOL_PROPERTY
W
SciTegic.value.DoubleValue
-54.184

@<SCITEGIC>MOL_PROPERTY
W(PB)
SciTegic.value.DoubleValue
-56.116

@<SCITEGIC>MOL_PROPERTY
W(SA)
SciTegic.value.DoubleValue
1.933

@<SCITEGIC>MOL_PROPERTY
Valence
SciTegic.value.DoubleValue
1.134

@<SCITEGIC>MOL_PROPERTY
Coulomb
SciTegic.value.DoubleValue
68.735

@<SCITEGIC>MOL_PROPERTY
VdW
SciTegic.value.DoubleValue
-0.070

@<SCITEGIC>MOL_PROPERTY
VdW6
SciTegic.value.DoubleValue
-3.565

@<SCITEGIC>MOL_PROPERTY
VdW12
SciTegic.value.DoubleValue
3.494

@<SCITEGIC>MOL_PROPERTY
Bond
SciTegic.value.DoubleValue
0.108

@<SCITEGIC>MOL_PROPERTY
Angle
SciTegic.value.DoubleValue
0.456

@<SCITEGIC>MOL_PROPERTY
Pdih
SciTegic.value.DoubleValue
0.569

@<SCITEGIC>MOL_PROPERTY
Idih
SciTegic.value.DoubleValue
0.000

@<SCITEGIC>MOL_PROPERTY
Tether
SciTegic.value.DoubleValue
0.000

@<TRIPOS>MOLECULE
guest-s9_confgen4.mol2 : confsearch ligand conformer 404
          20          19           1
SMALL
USER_CHARGES
 
@<TRIPOS>ATOM
       1    C1      19.679232   21.122094   20.083544 C.3        1 MOL1        -0.2224
       2    H1      20.172423   20.876877   19.133912 H          1 MOL1         0.1052
       3    H2      18.722687   21.607215   19.849655 H          1 MOL1         0.1052
       4    H3      20.304783   21.851144   20.614913 H          1 MOL1         0.1052
       5    C2      19.454309   19.855439   20.937371 C.3        1 MOL1        -0.1209
       6    H4      18.799957   19.160388   20.392346 H          1 MOL1         0.1041
       7    H5      18.924402   20.133368   21.858485 H          1 MOL1         0.1041
       8    C3      20.788818   19.152667   21.281435 C.3        1 MOL1        -0.1274
       9    H6      21.324397   18.916468   20.352324 H          1 MOL1         0.1041
      10    H7      21.436794   19.832211   21.850825 H          1 MOL1         0.1041
      11    C4      20.589409   17.845275   22.074217 C.3        1 MOL1         0.0313
      12    H8      21.555998   17.352827   22.207710 H          1 MOL1         0.1015
      13    H9      19.938888   17.170449   21.512197 H          1 MOL1         0.1015
      14    N1      19.983001   18.042694   23.450873 N.4        1 MOL1        -0.4809
      15    H10     19.064999   18.504760   23.371999 H          1 MOL1         0.3726
      16    H11     20.567215   18.684960   24.007861 H          1 MOL1         0.3726
      17    C5      19.844751   16.699721   24.155251 C.3        1 MOL1        -0.0677
      18    H12     19.196425   16.048681   23.564819 H          1 MOL1         0.1026
      19    H13     20.831893   16.243785   24.257516 H          1 MOL1         0.1026
      20    H14     19.407468   16.856275   25.143818 H          1 MOL1         0.1026
@<TRIPOS>BOND
    1     1     2    1
    2     1     3    1
    3     1     4    1
    4     1     5    1
    5     5     6    1
    6     5     7    1
    7     5     8    1
    8     8     9    1
    9     8    10    1
   10     8    11    1
   11    11    12    1
   12    11    13    1
   13    11    14    1
   14    14    15    1
   15    14    16    1
   16    14    17    1
   17    17    18    1
   18    17    19    1
   19    17    20    1
@<TRIPOS>SUBSTRUCTURE
       1 MOL1            1 RESIDUE      1      MOL     
@<SCITEGIC>MOL_PROPERTY
VConf Rank
SciTegic.value.IntegerValue
404

@<SCITEGIC>MOL_PROPERTY
Conf_Id
SciTegic.value.IntegerValue
50

@<SCITEGIC>MOL_PROPERTY
Delta U+W
SciTegic.value.DoubleValue
0.319

@<SCITEGIC>MOL_PROPERTY
U+W
SciTegic.value.DoubleValue
15.657

@<SCITEGIC>MOL_PROPERTY
Grad RMS
SciTegic.value.DoubleValue
0.000000

@<SCITEGIC>MOL_PROPERTY
U
SciTegic.value.DoubleValue
69.962

@<SCITEGIC>MOL_PROPERTY
W
SciTegic.value.DoubleValue
-54.305

@<SCITEGIC>MOL_PROPERTY
W(PB)
SciTegic.value.DoubleValue
-56.223

@<SCITEGIC>MOL_PROPERTY
W(SA)
SciTegic.value.DoubleValue
1.918

@<SCITEGIC>MOL_PROPERTY
Valence
SciTegic.value.DoubleValue
0.982

@<SCITEGIC>MOL_PROPERTY
Coulomb
SciTegic.value.DoubleValue
69.058

@<SCITEGIC>MOL_PROPERTY
VdW
SciTegic.value.DoubleValue
-0.078

@<SCITEGIC>MOL_PROPERTY
VdW6
SciTegic.value.DoubleValue
-3.548

@<SCITEGIC>MOL_PROPERTY
VdW12
SciTegic.value.DoubleValue
3.471

@<SCITEGIC>MOL_PROPERTY
Bond
SciTegic.value.DoubleValue
0.105

@<SCITEGIC>MOL_PROPERTY
Angle
SciTegic.value.DoubleValue
0.408

@<SCITEGIC>MOL_PROPERTY
Pdih
SciTegic.value.DoubleValue
0.469

@<SCITEGIC>MOL_PROPERTY
Idih
SciTegic.value.DoubleValue
0.000

@<SCITEGIC>MOL_PROPERTY
Tether
SciTegic.value.DoubleValue
0.000

@<TRIPOS>MOLECULE
guest-s9_confgen4.mol2 : confsearch ligand conformer 405
          20          19           1
SMALL
USER_CHARGES
 
@<TRIPOS>ATOM
       1    C1      22.135828   21.006916   22.508885 C.3        1 MOL1        -0.2224
       2    H1      23.214084   20.835348   22.622710 H          1 MOL1         0.1052
       3    H2      21.999315   21.807187   21.769900 H          1 MOL1         0.1052
       4    H3      21.748451   21.362345   23.472623 H          1 MOL1         0.1052
       5    C2      21.421028   19.712056   22.065690 C.3        1 MOL1        -0.1209
       6    H4      21.612833   18.924802   22.807267 H          1 MOL1         0.1041
       7    H5      21.852058   19.365014   21.115902 H          1 MOL1         0.1041
       8    C3      19.898240   19.927363   21.898510 C.3        1 MOL1        -0.1274
       9    H6      19.455950   20.247188   22.851373 H          1 MOL1         0.1041
      10    H7      19.723538   20.742946   21.184237 H          1 MOL1         0.1041
      11    C4      19.168561   18.668572   21.388061 C.3        1 MOL1         0.0313
      12    H8      19.612069   18.344690   20.443161 H          1 MOL1         0.1015
      13    H9      18.118060   18.909032   21.205725 H          1 MOL1         0.1015
      14    N1      19.208783   17.496752   22.350926 N.4        1 MOL1        -0.4809
      15    H10     18.806130   17.770036   23.260452 H          1 MOL1         0.3726
      16    H11     20.185306   17.234026   22.550503 H          1 MOL1         0.3726
      17    C5      18.448572   16.315250   21.763582 C.3        1 MOL1        -0.0677
      18    H12     18.485603   15.479659   22.466010 H          1 MOL1         0.1026
      19    H13     17.409873   16.605478   21.591371 H          1 MOL1         0.1026
      20    H14     18.912000   16.022829   20.818851 H          1 MOL1         0.1026
@<TRIPOS>BOND
    1     1     2    1
    2     1     3    1
    3     1     4    1
    4     1     5    1
    5     5     6    1
    6     5     7    1
    7     5     8    1
    8     8     9    1
    9     8    10    1
   10     8    11    1
   11    11    12    1
   12    11    13    1
   13    11    14    1
   14    14    15    1
   15    14    16    1
   16    14    17    1
   17    17    18    1
   18    17    19    1
   19    17    20    1
@<TRIPOS>SUBSTRUCTURE
       1 MOL1            1 RESIDUE      1      MOL     
@<SCITEGIC>MOL_PROPERTY
VConf Rank
SciTegic.value.IntegerValue
405

@<SCITEGIC>MOL_PROPERTY
Conf_Id
SciTegic.value.IntegerValue
35

@<SCITEGIC>MOL_PROPERTY
Delta U+W
SciTegic.value.DoubleValue
0.360

@<SCITEGIC>MOL_PROPERTY
U+W
SciTegic.value.DoubleValue
15.698

@<SCITEGIC>MOL_PROPERTY
Grad RMS
SciTegic.value.DoubleValue
0.000000

@<SCITEGIC>MOL_PROPERTY
U
SciTegic.value.DoubleValue
69.962

@<SCITEGIC>MOL_PROPERTY
W
SciTegic.value.DoubleValue
-54.264

@<SCITEGIC>MOL_PROPERTY
W(PB)
SciTegic.value.DoubleValue
-56.166

@<SCITEGIC>MOL_PROPERTY
W(SA)
SciTegic.value.DoubleValue
1.902

@<SCITEGIC>MOL_PROPERTY
Valence
SciTegic.value.DoubleValue
0.982

@<SCITEGIC>MOL_PROPERTY
Coulomb
SciTegic.value.DoubleValue
69.058

@<SCITEGIC>MOL_PROPERTY
VdW
SciTegic.value.DoubleValue
-0.078

@<SCITEGIC>MOL_PROPERTY
VdW6
SciTegic.value.DoubleValue
-3.548

@<SCITEGIC>MOL_PROPERTY
VdW12
SciTegic.value.DoubleValue
3.471

@<SCITEGIC>MOL_PROPERTY
Bond
SciTegic.value.DoubleValue
0.105

@<SCITEGIC>MOL_PROPERTY
Angle
SciTegic.value.DoubleValue
0.408

@<SCITEGIC>MOL_PROPERTY
Pdih
SciTegic.value.DoubleValue
0.469

@<SCITEGIC>MOL_PROPERTY
Idih
SciTegic.value.DoubleValue
0.000

@<SCITEGIC>MOL_PROPERTY
Tether
SciTegic.value.DoubleValue
0.000

@<TRIPOS>MOLECULE
guest-s9_confgen4.mol2 : confsearch ligand conformer 406
          20          19           1
SMALL
USER_CHARGES
 
@<TRIPOS>ATOM
       1    C1      22.505625   18.052198   21.686525 C.3        1 MOL1        -0.2224
       2    H1      22.537753   18.780876   22.506321 H          1 MOL1         0.1052
       3    H2      23.433174   17.466614   21.727984 H          1 MOL1         0.1052
       4    H3      22.500378   18.603944   20.737503 H          1 MOL1         0.1052
       5    C2      21.273530   17.124985   21.798004 C.3        1 MOL1        -0.1209
       6    H4      21.300230   16.589201   22.757374 H          1 MOL1         0.1041
       7    H5      21.330572   16.356918   21.013909 H          1 MOL1         0.1041
       8    C3      19.932800   17.883757   21.661692 C.3        1 MOL1        -0.1274
       9    H6      19.896348   18.385897   20.686378 H          1 MOL1         0.1041
      10    H7      19.108687   17.158343   21.673047 H          1 MOL1         0.1041
      11    C4      19.716271   18.912052   22.792705 C.3        1 MOL1         0.0313
      12    H8      20.492955   19.679400   22.751533 H          1 MOL1         0.1015
      13    H9      19.795432   18.401488   23.755839 H          1 MOL1         0.1015
      14    N1      18.367549   19.612294   22.760989 N.4        1 MOL1        -0.4809
      15    H10     18.238274   20.152427   23.630905 H          1 MOL1         0.3726
      16    H11     17.604385   18.918549   22.765200 H          1 MOL1         0.3726
      17    C5      18.252718   20.538427   21.554980 C.3        1 MOL1        -0.0677
      18    H12     18.324669   19.950383   20.637965 H          1 MOL1         0.1026
      19    H13     17.288091   21.049715   21.587250 H          1 MOL1         0.1026
      20    H14     19.059817   21.273408   21.588008 H          1 MOL1         0.1026
@<TRIPOS>BOND
    1     1     2    1
    2     1     3    1
    3     1     4    1
    4     1     5    1
    5     5     6    1
    6     5     7    1
    7     5     8    1
    8     8     9    1
    9     8    10    1
   10     8    11    1
   11    11    12    1
   12    11    13    1
   13    11    14    1
   14    14    15    1
   15    14    16    1
   16    14    17    1
   17    17    18    1
   18    17    19    1
   19    17    20    1
@<TRIPOS>SUBSTRUCTURE
       1 MOL1            1 RESIDUE      1      MOL     
@<SCITEGIC>MOL_PROPERTY
VConf Rank
SciTegic.value.IntegerValue
406

@<SCITEGIC>MOL_PROPERTY
Conf_Id
SciTegic.value.IntegerValue
33

@<SCITEGIC>MOL_PROPERTY
Delta U+W
SciTegic.value.DoubleValue
0.372

@<SCITEGIC>MOL_PROPERTY
U+W
SciTegic.value.DoubleValue
15.711

@<SCITEGIC>MOL_PROPERTY
Grad RMS
SciTegic.value.DoubleValue
0.000000

@<SCITEGIC>MOL_PROPERTY
U
SciTegic.value.DoubleValue
70.163

@<SCITEGIC>MOL_PROPERTY
W
SciTegic.value.DoubleValue
-54.452

@<SCITEGIC>MOL_PROPERTY
W(PB)
SciTegic.value.DoubleValue
-56.363

@<SCITEGIC>MOL_PROPERTY
W(SA)
SciTegic.value.DoubleValue
1.911

@<SCITEGIC>MOL_PROPERTY
Valence
SciTegic.value.DoubleValue
1.420

@<SCITEGIC>MOL_PROPERTY
Coulomb
SciTegic.value.DoubleValue
68.566

@<SCITEGIC>MOL_PROPERTY
VdW
SciTegic.value.DoubleValue
0.177

@<SCITEGIC>MOL_PROPERTY
VdW6
SciTegic.value.DoubleValue
-4.267

@<SCITEGIC>MOL_PROPERTY
VdW12
SciTegic.value.DoubleValue
4.445

@<SCITEGIC>MOL_PROPERTY
Bond
SciTegic.value.DoubleValue
0.146

@<SCITEGIC>MOL_PROPERTY
Angle
SciTegic.value.DoubleValue
0.581

@<SCITEGIC>MOL_PROPERTY
Pdih
SciTegic.value.DoubleValue
0.693

@<SCITEGIC>MOL_PROPERTY
Idih
SciTegic.value.DoubleValue
0.000

@<SCITEGIC>MOL_PROPERTY
Tether
SciTegic.value.DoubleValue
0.000

@<TRIPOS>MOLECULE
guest-s9_confgen4.mol2 : confsearch ligand conformer 407
          20          19           1
SMALL
USER_CHARGES
 
@<TRIPOS>ATOM
       1    C1      21.649940   20.613539   23.042775 C.3        1 MOL1        -0.2224
       2    H1      22.484436   21.083172   23.579463 H          1 MOL1         0.1052
       3    H2      21.882398   20.652433   21.971085 H          1 MOL1         0.1052
       4    H3      20.753141   21.220983   23.221267 H          1 MOL1         0.1052
       5    C2      21.443059   19.160031   23.527261 C.3        1 MOL1        -0.1209
       6    H4      21.304308   19.161727   24.617551 H          1 MOL1         0.1041
       7    H5      22.351817   18.573109   23.332719 H          1 MOL1         0.1041
       8    C3      20.226068   18.471100   22.866816 C.3        1 MOL1        -0.1274
       9    H6      20.093867   17.475885   23.311323 H          1 MOL1         0.1041
      10    H7      19.316548   19.041189   23.095901 H          1 MOL1         0.1041
      11    C4      20.385619   18.324493   21.338251 C.3        1 MOL1         0.0313
      12    H8      21.315383   17.789540   21.128654 H          1 MOL1         0.1015
      13    H9      20.451223   19.311693   20.874692 H          1 MOL1         0.1015
      14    N1      19.261309   17.563010   20.655262 N.4        1 MOL1        -0.4809
      15    H10     19.144508   16.633997   21.087710 H          1 MOL1         0.3726
      16    H11     19.521690   17.367579   19.675866 H          1 MOL1         0.3726
      17    C5      17.955284   18.349121   20.696446 C.3        1 MOL1        -0.0677
      18    H12     17.183283   17.788123   20.165167 H          1 MOL1         0.1026
      19    H13     17.652277   18.494848   21.735117 H          1 MOL1         0.1026
      20    H14     18.103422   19.317820   20.214391 H          1 MOL1         0.1026
@<TRIPOS>BOND
    1     1     2    1
    2     1     3    1
    3     1     4    1
    4     1     5    1
    5     5     6    1
    6     5     7    1
    7     5     8    1
    8     8     9    1
    9     8    10    1
   10     8    11    1
   11    11    12    1
   12    11    13    1
   13    11    14    1
   14    14    15    1
   15    14    16    1
   16    14    17    1
   17    17    18    1
   18    17    19    1
   19    17    20    1
@<TRIPOS>SUBSTRUCTURE
       1 MOL1            1 RESIDUE      1      MOL     
@<SCITEGIC>MOL_PROPERTY
VConf Rank
SciTegic.value.IntegerValue
407

@<SCITEGIC>MOL_PROPERTY
Conf_Id
SciTegic.value.IntegerValue
53

@<SCITEGIC>MOL_PROPERTY
Delta U+W
SciTegic.value.DoubleValue
0.379

@<SCITEGIC>MOL_PROPERTY
U+W
SciTegic.value.DoubleValue
15.717

@<SCITEGIC>MOL_PROPERTY
Grad RMS
SciTegic.value.DoubleValue
0.000000

@<SCITEGIC>MOL_PROPERTY
U
SciTegic.value.DoubleValue
70.163

@<SCITEGIC>MOL_PROPERTY
W
SciTegic.value.DoubleValue
-54.446

@<SCITEGIC>MOL_PROPERTY
W(PB)
SciTegic.value.DoubleValue
-56.322

@<SCITEGIC>MOL_PROPERTY
W(SA)
SciTegic.value.DoubleValue
1.876

@<SCITEGIC>MOL_PROPERTY
Valence
SciTegic.value.DoubleValue
1.420

@<SCITEGIC>MOL_PROPERTY
Coulomb
SciTegic.value.DoubleValue
68.566

@<SCITEGIC>MOL_PROPERTY
VdW
SciTegic.value.DoubleValue
0.177

@<SCITEGIC>MOL_PROPERTY
VdW6
SciTegic.value.DoubleValue
-4.267

@<SCITEGIC>MOL_PROPERTY
VdW12
SciTegic.value.DoubleValue
4.445

@<SCITEGIC>MOL_PROPERTY
Bond
SciTegic.value.DoubleValue
0.146

@<SCITEGIC>MOL_PROPERTY
Angle
SciTegic.value.DoubleValue
0.581

@<SCITEGIC>MOL_PROPERTY
Pdih
SciTegic.value.DoubleValue
0.693

@<SCITEGIC>MOL_PROPERTY
Idih
SciTegic.value.DoubleValue
0.000

@<SCITEGIC>MOL_PROPERTY
Tether
SciTegic.value.DoubleValue
0.000

@<TRIPOS>MOLECULE
guest-s9_confgen4.mol2 : confsearch ligand conformer 408
          20          19           1
SMALL
USER_CHARGES
 
@<TRIPOS>ATOM
       1    C1      17.754289   18.677934   23.470106 C.3        1 MOL1        -0.2224
       2    H1      16.750797   19.016997   23.181937 H          1 MOL1         0.1052
       3    H2      17.650656   17.702154   23.962306 H          1 MOL1         0.1052
       4    H3      18.151846   19.390447   24.204569 H          1 MOL1         0.1052
       5    C2      18.674117   18.582826   22.233647 C.3        1 MOL1        -0.1209
       6    H4      18.722638   19.566175   21.746484 H          1 MOL1         0.1041
       7    H5      18.234144   17.887812   21.504565 H          1 MOL1         0.1041
       8    C3      20.096638   18.108517   22.613369 C.3        1 MOL1        -0.1274
       9    H6      20.551427   18.813839   23.320780 H          1 MOL1         0.1041
      10    H7      20.030183   17.146317   23.138157 H          1 MOL1         0.1041
      11    C4      21.017545   17.928972   21.386033 C.3        1 MOL1         0.0313
      12    H8      20.578993   17.181597   20.719901 H          1 MOL1         0.1015
      13    H9      21.991331   17.555510   21.712776 H          1 MOL1         0.1015
      14    N1      21.259514   19.185401   20.562949 N.4        1 MOL1        -0.4809
      15    H10     20.363107   19.574466   20.235667 H          1 MOL1         0.3726
      16    H11     21.772560   18.939988   19.701682 H          1 MOL1         0.3726
      17    C5      22.044482   20.224969   21.355452 C.3        1 MOL1        -0.0677
      18    H12     22.995941   19.792341   21.672021 H          1 MOL1         0.1026
      19    H13     22.228723   21.094574   20.720808 H          1 MOL1         0.1026
      20    H14     21.465119   20.526269   22.230421 H          1 MOL1         0.1026
@<TRIPOS>BOND
    1     1     2    1
    2     1     3    1
    3     1     4    1
    4     1     5    1
    5     5     6    1
    6     5     7    1
    7     5     8    1
    8     8     9    1
    9     8    10    1
   10     8    11    1
   11    11    12    1
   12    11    13    1
   13    11    14    1
   14    14    15    1
   15    14    16    1
   16    14    17    1
   17    17    18    1
   18    17    19    1
   19    17    20    1
@<TRIPOS>SUBSTRUCTURE
       1 MOL1            1 RESIDUE      1      MOL     
@<SCITEGIC>MOL_PROPERTY
VConf Rank
SciTegic.value.IntegerValue
408

@<SCITEGIC>MOL_PROPERTY
Conf_Id
SciTegic.value.IntegerValue
49

@<SCITEGIC>MOL_PROPERTY
Delta U+W
SciTegic.value.DoubleValue
0.268

@<SCITEGIC>MOL_PROPERTY
U+W
SciTegic.value.DoubleValue
15.607

@<SCITEGIC>MOL_PROPERTY
Grad RMS
SciTegic.value.DoubleValue
0.000000

@<SCITEGIC>MOL_PROPERTY
U
SciTegic.value.DoubleValue
70.298

@<SCITEGIC>MOL_PROPERTY
W
SciTegic.value.DoubleValue
-54.692

@<SCITEGIC>MOL_PROPERTY
W(PB)
SciTegic.value.DoubleValue
-56.576

@<SCITEGIC>MOL_PROPERTY
W(SA)
SciTegic.value.DoubleValue
1.885

@<SCITEGIC>MOL_PROPERTY
Valence
SciTegic.value.DoubleValue
1.245

@<SCITEGIC>MOL_PROPERTY
Coulomb
SciTegic.value.DoubleValue
68.933

@<SCITEGIC>MOL_PROPERTY
VdW
SciTegic.value.DoubleValue
0.120

@<SCITEGIC>MOL_PROPERTY
VdW6
SciTegic.value.DoubleValue
-4.430

@<SCITEGIC>MOL_PROPERTY
VdW12
SciTegic.value.DoubleValue
4.550

@<SCITEGIC>MOL_PROPERTY
Bond
SciTegic.value.DoubleValue
0.148

@<SCITEGIC>MOL_PROPERTY
Angle
SciTegic.value.DoubleValue
0.587

@<SCITEGIC>MOL_PROPERTY
Pdih
SciTegic.value.DoubleValue
0.509

@<SCITEGIC>MOL_PROPERTY
Idih
SciTegic.value.DoubleValue
0.000

@<SCITEGIC>MOL_PROPERTY
Tether
SciTegic.value.DoubleValue
0.000

@<TRIPOS>MOLECULE
guest-s9_confgen4.mol2 : confsearch ligand conformer 409
          20          19           1
SMALL
USER_CHARGES
 
@<TRIPOS>ATOM
       1    C1      19.306731   16.076594   21.973986 C.3        1 MOL1        -0.2224
       2    H1      19.630226   15.758395   22.973622 H          1 MOL1         0.1052
       3    H2      18.214436   15.980201   21.921648 H          1 MOL1         0.1052
       4    H3      19.740349   15.381612   21.243250 H          1 MOL1         0.1052
       5    C2      19.752856   17.525398   21.680273 C.3        1 MOL1        -0.1209
       6    H4      19.439912   17.805168   20.664504 H          1 MOL1         0.1041
       7    H5      20.849697   17.569647   21.703244 H          1 MOL1         0.1041
       8    C3      19.163858   18.524531   22.703228 C.3        1 MOL1        -0.1274
       9    H6      18.075611   18.386660   22.752901 H          1 MOL1         0.1041
      10    H7      19.548613   18.298974   23.706544 H          1 MOL1         0.1041
      11    C4      19.440263   20.008019   22.369023 C.3        1 MOL1         0.0313
      12    H8      18.928142   20.622093   23.114267 H          1 MOL1         0.1015
      13    H9      19.025128   20.260859   21.390232 H          1 MOL1         0.1015
      14    N1      20.902714   20.425272   22.388989 N.4        1 MOL1        -0.4809
      15    H10     21.421598   19.884328   23.096788 H          1 MOL1         0.3726
      16    H11     20.972524   21.405799   22.703156 H          1 MOL1         0.3726
      17    C5      21.538766   20.294514   21.008776 C.3        1 MOL1        -0.0677
      18    H12     22.578473   20.624837   21.062206 H          1 MOL1         0.1026
      19    H13     21.501981   19.254759   20.681875 H          1 MOL1         0.1026
      20    H14     20.991357   20.921564   20.301783 H          1 MOL1         0.1026
@<TRIPOS>BOND
    1     1     2    1
    2     1     3    1
    3     1     4    1
    4     1     5    1
    5     5     6    1
    6     5     7    1
    7     5     8    1
    8     8     9    1
    9     8    10    1
   10     8    11    1
   11    11    12    1
   12    11    13    1
   13    11    14    1
   14    14    15    1
   15    14    16    1
   16    14    17    1
   17    17    18    1
   18    17    19    1
   19    17    20    1
@<TRIPOS>SUBSTRUCTURE
       1 MOL1            1 RESIDUE      1      MOL     
@<SCITEGIC>MOL_PROPERTY
VConf Rank
SciTegic.value.IntegerValue
409

@<SCITEGIC>MOL_PROPERTY
Conf_Id
SciTegic.value.IntegerValue
65

@<SCITEGIC>MOL_PROPERTY
Delta U+W
SciTegic.value.DoubleValue
1.775

@<SCITEGIC>MOL_PROPERTY
U+W
SciTegic.value.DoubleValue
17.114

@<SCITEGIC>MOL_PROPERTY
Grad RMS
SciTegic.value.DoubleValue
0.000000

@<SCITEGIC>MOL_PROPERTY
U
SciTegic.value.DoubleValue
71.726

@<SCITEGIC>MOL_PROPERTY
W
SciTegic.value.DoubleValue
-54.613

@<SCITEGIC>MOL_PROPERTY
W(PB)
SciTegic.value.DoubleValue
-56.495

@<SCITEGIC>MOL_PROPERTY
W(SA)
SciTegic.value.DoubleValue
1.883

@<SCITEGIC>MOL_PROPERTY
Valence
SciTegic.value.DoubleValue
2.885

@<SCITEGIC>MOL_PROPERTY
Coulomb
SciTegic.value.DoubleValue
68.822

@<SCITEGIC>MOL_PROPERTY
VdW
SciTegic.value.DoubleValue
0.019

@<SCITEGIC>MOL_PROPERTY
VdW6
SciTegic.value.DoubleValue
-4.600

@<SCITEGIC>MOL_PROPERTY
VdW12
SciTegic.value.DoubleValue
4.619

@<SCITEGIC>MOL_PROPERTY
Bond
SciTegic.value.DoubleValue
0.152

@<SCITEGIC>MOL_PROPERTY
Angle
SciTegic.value.DoubleValue
0.862

@<SCITEGIC>MOL_PROPERTY
Pdih
SciTegic.value.DoubleValue
1.871

@<SCITEGIC>MOL_PROPERTY
Idih
SciTegic.value.DoubleValue
0.000

@<SCITEGIC>MOL_PROPERTY
Tether
SciTegic.value.DoubleValue
0.000

@<TRIPOS>MOLECULE
guest-s9_confgen4.mol2 : confsearch ligand conformer 410
          20          19           1
SMALL
USER_CHARGES
 
@<TRIPOS>ATOM
       1    C1      21.039055   17.444404   20.281963 C.3        1 MOL1        -0.2224
       2    H1      21.706861   18.140862   20.804441 H          1 MOL1         0.1052
       3    H2      21.596377   16.513289   20.116444 H          1 MOL1         0.1052
       4    H3      20.800844   17.870672   19.298794 H          1 MOL1         0.1052
       5    C2      19.753112   17.169424   21.094926 C.3        1 MOL1        -0.1209
       6    H4      20.017516   16.743338   22.072244 H          1 MOL1         0.1041
       7    H5      19.162521   16.399259   20.579121 H          1 MOL1         0.1041
       8    C3      18.872375   18.429953   21.282986 C.3        1 MOL1        -0.1274
       9    H6      18.532088   18.782259   20.300209 H          1 MOL1         0.1041
      10    H7      17.966002   18.161619   21.841761 H          1 MOL1         0.1041
      11    C4      19.586482   19.593038   22.002883 C.3        1 MOL1         0.0313
      12    H8      18.910261   20.449309   22.066650 H          1 MOL1         0.1015
      13    H9      20.464786   19.897370   21.428660 H          1 MOL1         0.1015
      14    N1      20.040706   19.259973   23.411198 N.4        1 MOL1        -0.4809
      15    H10     20.677076   18.449282   23.393753 H          1 MOL1         0.3726
      16    H11     19.235165   18.966022   23.984430 H          1 MOL1         0.3726
      17    C5      20.729521   20.466352   24.034655 C.3        1 MOL1        -0.0677
      18    H12     20.027584   21.302245   24.071170 H          1 MOL1         0.1026
      19    H13     21.052056   20.212124   25.046736 H          1 MOL1         0.1026
      20    H14     21.596835   20.738321   23.429213 H          1 MOL1         0.1026
@<TRIPOS>BOND
    1     1     2    1
    2     1     3    1
    3     1     4    1
    4     1     5    1
    5     5     6    1
    6     5     7    1
    7     5     8    1
    8     8     9    1
    9     8    10    1
   10     8    11    1
   11    11    12    1
   12    11    13    1
   13    11    14    1
   14    14    15    1
   15    14    16    1
   16    14    17    1
   17    17    18    1
   18    17    19    1
   19    17    20    1
@<TRIPOS>SUBSTRUCTURE
       1 MOL1            1 RESIDUE      1      MOL     
@<SCITEGIC>MOL_PROPERTY
VConf Rank
SciTegic.value.IntegerValue
410

@<SCITEGIC>MOL_PROPERTY
Conf_Id
SciTegic.value.IntegerValue
23

@<SCITEGIC>MOL_PROPERTY
Delta U+W
SciTegic.value.DoubleValue
0.896

@<SCITEGIC>MOL_PROPERTY
U+W
SciTegic.value.DoubleValue
16.234

@<SCITEGIC>MOL_PROPERTY
Grad RMS
SciTegic.value.DoubleValue
0.000000

@<SCITEGIC>MOL_PROPERTY
U
SciTegic.value.DoubleValue
70.374

@<SCITEGIC>MOL_PROPERTY
W
SciTegic.value.DoubleValue
-54.140

@<SCITEGIC>MOL_PROPERTY
W(PB)
SciTegic.value.DoubleValue
-56.046

@<SCITEGIC>MOL_PROPERTY
W(SA)
SciTegic.value.DoubleValue
1.907

@<SCITEGIC>MOL_PROPERTY
Valence
SciTegic.value.DoubleValue
1.257

@<SCITEGIC>MOL_PROPERTY
Coulomb
SciTegic.value.DoubleValue
69.240

@<SCITEGIC>MOL_PROPERTY
VdW
SciTegic.value.DoubleValue
-0.123

@<SCITEGIC>MOL_PROPERTY
VdW6
SciTegic.value.DoubleValue
-4.336

@<SCITEGIC>MOL_PROPERTY
VdW12
SciTegic.value.DoubleValue
4.213

@<SCITEGIC>MOL_PROPERTY
Bond
SciTegic.value.DoubleValue
0.128

@<SCITEGIC>MOL_PROPERTY
Angle
SciTegic.value.DoubleValue
0.603

@<SCITEGIC>MOL_PROPERTY
Pdih
SciTegic.value.DoubleValue
0.526

@<SCITEGIC>MOL_PROPERTY
Idih
SciTegic.value.DoubleValue
0.000

@<SCITEGIC>MOL_PROPERTY
Tether
SciTegic.value.DoubleValue
0.000

@<TRIPOS>MOLECULE
guest-s9_confgen4.mol2 : confsearch ligand conformer 411
          20          19           1
SMALL
USER_CHARGES
 
@<TRIPOS>ATOM
       1    C1      18.259018   17.302366   21.890824 C.3        1 MOL1        -0.2224
       2    H1      17.325200   17.823058   22.139688 H          1 MOL1         0.1052
       3    H2      18.002227   16.274586   21.603237 H          1 MOL1         0.1052
       4    H3      18.873094   17.247927   22.798541 H          1 MOL1         0.1052
       5    C2      19.004396   18.017174   20.740333 C.3        1 MOL1        -0.1209
       6    H4      18.390456   17.964636   19.830211 H          1 MOL1         0.1041
       7    H5      19.933083   17.477677   20.509911 H          1 MOL1         0.1041
       8    C3      19.313148   19.503789   21.047977 C.3        1 MOL1        -0.1274
       9    H6      19.815946   19.958283   20.184048 H          1 MOL1         0.1041
      10    H7      18.368834   20.049884   21.173747 H          1 MOL1         0.1041
      11    C4      20.177332   19.717710   22.308292 C.3        1 MOL1         0.0313
      12    H8      19.662591   19.309067   23.181114 H          1 MOL1         0.1015
      13    H9      20.321648   20.788800   22.471014 H          1 MOL1         0.1015
      14    N1      21.549223   19.075405   22.231066 N.4        1 MOL1        -0.4809
      15    H10     22.065943   19.437530   21.415122 H          1 MOL1         0.3726
      16    H11     21.455136   18.061649   22.070019 H          1 MOL1         0.3726
      17    C5      22.321868   19.342697   23.515628 C.3        1 MOL1        -0.0677
      18    H12     21.772170   18.922089   24.360424 H          1 MOL1         0.1026
      19    H13     23.306011   18.874009   23.446612 H          1 MOL1         0.1026
      20    H14     22.436145   20.420625   23.648950 H          1 MOL1         0.1026
@<TRIPOS>BOND
    1     1     2    1
    2     1     3    1
    3     1     4    1
    4     1     5    1
    5     5     6    1
    6     5     7    1
    7     5     8    1
    8     8     9    1
    9     8    10    1
   10     8    11    1
   11    11    12    1
   12    11    13    1
   13    11    14    1
   14    14    15    1
   15    14    16    1
   16    14    17    1
   17    17    18    1
   18    17    19    1
   19    17    20    1
@<TRIPOS>SUBSTRUCTURE
       1 MOL1            1 RESIDUE      1      MOL     
@<SCITEGIC>MOL_PROPERTY
VConf Rank
SciTegic.value.IntegerValue
411

@<SCITEGIC>MOL_PROPERTY
Conf_Id
SciTegic.value.IntegerValue
24

@<SCITEGIC>MOL_PROPERTY
Delta U+W
SciTegic.value.DoubleValue
0.792

@<SCITEGIC>MOL_PROPERTY
U+W
SciTegic.value.DoubleValue
16.130

@<SCITEGIC>MOL_PROPERTY
Grad RMS
SciTegic.value.DoubleValue
0.000000

@<SCITEGIC>MOL_PROPERTY
U
SciTegic.value.DoubleValue
70.374

@<SCITEGIC>MOL_PROPERTY
W
SciTegic.value.DoubleValue
-54.243

@<SCITEGIC>MOL_PROPERTY
W(PB)
SciTegic.value.DoubleValue
-56.130

@<SCITEGIC>MOL_PROPERTY
W(SA)
SciTegic.value.DoubleValue
1.887

@<SCITEGIC>MOL_PROPERTY
Valence
SciTegic.value.DoubleValue
1.257

@<SCITEGIC>MOL_PROPERTY
Coulomb
SciTegic.value.DoubleValue
69.240

@<SCITEGIC>MOL_PROPERTY
VdW
SciTegic.value.DoubleValue
-0.123

@<SCITEGIC>MOL_PROPERTY
VdW6
SciTegic.value.DoubleValue
-4.336

@<SCITEGIC>MOL_PROPERTY
VdW12
SciTegic.value.DoubleValue
4.213

@<SCITEGIC>MOL_PROPERTY
Bond
SciTegic.value.DoubleValue
0.128

@<SCITEGIC>MOL_PROPERTY
Angle
SciTegic.value.DoubleValue
0.603

@<SCITEGIC>MOL_PROPERTY
Pdih
SciTegic.value.DoubleValue
0.526

@<SCITEGIC>MOL_PROPERTY
Idih
SciTegic.value.DoubleValue
0.000

@<SCITEGIC>MOL_PROPERTY
Tether
SciTegic.value.DoubleValue
0.000

@<TRIPOS>MOLECULE
guest-s9_confgen4.mol2 : confsearch ligand conformer 412
          20          19           1
SMALL
USER_CHARGES
 
@<TRIPOS>ATOM
       1    C1      19.166846   17.400272   23.530278 C.3        1 MOL1        -0.2224
       2    H1      19.004073   16.510322   24.152142 H          1 MOL1         0.1052
       3    H2      20.202766   17.720259   23.693151 H          1 MOL1         0.1052
       4    H3      18.490482   18.185863   23.891584 H          1 MOL1         0.1052
       5    C2      18.901447   17.069765   22.043742 C.3        1 MOL1        -0.1209
       6    H4      17.932466   16.556788   21.966300 H          1 MOL1         0.1041
       7    H5      19.654077   16.351585   21.688960 H          1 MOL1         0.1041
       8    C3      18.876832   18.303906   21.106122 C.3        1 MOL1        -0.1274
       9    H6      18.613145   17.957247   20.098097 H          1 MOL1         0.1041
      10    H7      18.077894   18.995252   21.405192 H          1 MOL1         0.1041
      11    C4      20.219658   19.058646   21.008815 C.3        1 MOL1         0.0313
      12    H8      20.232041   19.648430   20.088737 H          1 MOL1         0.1015
      13    H9      21.043538   18.342112   20.963135 H          1 MOL1         0.1015
      14    N1      20.481503   20.019626   22.152910 N.4        1 MOL1        -0.4809
      15    H10     20.427601   19.520212   23.051965 H          1 MOL1         0.3726
      16    H11     19.739564   20.735192   22.191643 H          1 MOL1         0.3726
      17    C5      21.846213   20.673087   21.982712 C.3        1 MOL1        -0.0677
      18    H12     22.617401   19.899776   21.977321 H          1 MOL1         0.1026
      19    H13     21.866864   21.221979   21.038755 H          1 MOL1         0.1026
      20    H14     22.020682   21.361454   22.812580 H          1 MOL1         0.1026
@<TRIPOS>BOND
    1     1     2    1
    2     1     3    1
    3     1     4    1
    4     1     5    1
    5     5     6    1
    6     5     7    1
    7     5     8    1
    8     8     9    1
    9     8    10    1
   10     8    11    1
   11    11    12    1
   12    11    13    1
   13    11    14    1
   14    14    15    1
   15    14    16    1
   16    14    17    1
   17    17    18    1
   18    17    19    1
   19    17    20    1
@<TRIPOS>SUBSTRUCTURE
       1 MOL1            1 RESIDUE      1      MOL     
@<SCITEGIC>MOL_PROPERTY
VConf Rank
SciTegic.value.IntegerValue
412

@<SCITEGIC>MOL_PROPERTY
Conf_Id
SciTegic.value.IntegerValue
26

@<SCITEGIC>MOL_PROPERTY
Delta U+W
SciTegic.value.DoubleValue
2.888

@<SCITEGIC>MOL_PROPERTY
U+W
SciTegic.value.DoubleValue
18.226

@<SCITEGIC>MOL_PROPERTY
Grad RMS
SciTegic.value.DoubleValue
0.000000

@<SCITEGIC>MOL_PROPERTY
U
SciTegic.value.DoubleValue
72.042

@<SCITEGIC>MOL_PROPERTY
W
SciTegic.value.DoubleValue
-53.816

@<SCITEGIC>MOL_PROPERTY
W(PB)
SciTegic.value.DoubleValue
-55.689

@<SCITEGIC>MOL_PROPERTY
W(SA)
SciTegic.value.DoubleValue
1.873

@<SCITEGIC>MOL_PROPERTY
Valence
SciTegic.value.DoubleValue
2.428

@<SCITEGIC>MOL_PROPERTY
Coulomb
SciTegic.value.DoubleValue
69.829

@<SCITEGIC>MOL_PROPERTY
VdW
SciTegic.value.DoubleValue
-0.215

@<SCITEGIC>MOL_PROPERTY
VdW6
SciTegic.value.DoubleValue
-4.563

@<SCITEGIC>MOL_PROPERTY
VdW12
SciTegic.value.DoubleValue
4.348

@<SCITEGIC>MOL_PROPERTY
Bond
SciTegic.value.DoubleValue
0.137

@<SCITEGIC>MOL_PROPERTY
Angle
SciTegic.value.DoubleValue
0.936

@<SCITEGIC>MOL_PROPERTY
Pdih
SciTegic.value.DoubleValue
1.356

@<SCITEGIC>MOL_PROPERTY
Idih
SciTegic.value.DoubleValue
0.000

@<SCITEGIC>MOL_PROPERTY
Tether
SciTegic.value.DoubleValue
0.000

@<TRIPOS>MOLECULE
guest-s9_confgen4.mol2 : confsearch ligand conformer 413
          20          19           1
SMALL
USER_CHARGES
 
@<TRIPOS>ATOM
       1    C1      18.488800   19.578223   23.359433 C.3        1 MOL1        -0.2224
       2    H1      17.500570   19.726994   23.813841 H          1 MOL1         0.1052
       3    H2      19.196894   20.233762   23.882917 H          1 MOL1         0.1052
       4    H3      18.412758   19.899614   22.313978 H          1 MOL1         0.1052
       5    C2      18.909731   18.094856   23.468517 C.3        1 MOL1        -0.1209
       6    H4      18.236259   17.477885   22.857054 H          1 MOL1         0.1041
       7    H5      18.764531   17.764735   24.506787 H          1 MOL1         0.1041
       8    C3      20.380572   17.813729   23.067980 C.3        1 MOL1        -0.1274
       9    H6      21.067281   18.367411   23.721872 H          1 MOL1         0.1041
      10    H7      20.583120   16.750033   23.250578 H          1 MOL1         0.1041
      11    C4      20.706858   18.108525   21.588481 C.3        1 MOL1         0.0313
      12    H8      19.883630   17.770320   20.954290 H          1 MOL1         0.1015
      13    H9      21.604362   17.553831   21.303270 H          1 MOL1         0.1015
      14    N1      20.976673   19.570405   21.286642 N.4        1 MOL1        -0.4809
      15    H10     21.779640   19.904523   21.841272 H          1 MOL1         0.3726
      16    H11     20.177373   20.145778   21.587784 H          1 MOL1         0.3726
      17    C5      21.240805   19.755199   19.798524 C.3        1 MOL1        -0.0677
      18    H12     20.365853   19.425697   19.234029 H          1 MOL1         0.1026
      19    H13     21.433238   20.811186   19.596454 H          1 MOL1         0.1026
      20    H14     22.110998   19.161046   19.511274 H          1 MOL1         0.1026
@<TRIPOS>BOND
    1     1     2    1
    2     1     3    1
    3     1     4    1
    4     1     5    1
    5     5     6    1
    6     5     7    1
    7     5     8    1
    8     8     9    1
    9     8    10    1
   10     8    11    1
   11    11    12    1
   12    11    13    1
   13    11    14    1
   14    14    15    1
   15    14    16    1
   16    14    17    1
   17    17    18    1
   18    17    19    1
   19    17    20    1
@<TRIPOS>SUBSTRUCTURE
       1 MOL1            1 RESIDUE      1      MOL     
@<SCITEGIC>MOL_PROPERTY
VConf Rank
SciTegic.value.IntegerValue
413

@<SCITEGIC>MOL_PROPERTY
Conf_Id
SciTegic.value.IntegerValue
5

@<SCITEGIC>MOL_PROPERTY
Delta U+W
SciTegic.value.DoubleValue
2.950

@<SCITEGIC>MOL_PROPERTY
U+W
SciTegic.value.DoubleValue
18.289

@<SCITEGIC>MOL_PROPERTY
Grad RMS
SciTegic.value.DoubleValue
0.000000

@<SCITEGIC>MOL_PROPERTY
U
SciTegic.value.DoubleValue
72.042

@<SCITEGIC>MOL_PROPERTY
W
SciTegic.value.DoubleValue
-53.753

@<SCITEGIC>MOL_PROPERTY
W(PB)
SciTegic.value.DoubleValue
-55.644

@<SCITEGIC>MOL_PROPERTY
W(SA)
SciTegic.value.DoubleValue
1.891

@<SCITEGIC>MOL_PROPERTY
Valence
SciTegic.value.DoubleValue
2.428

@<SCITEGIC>MOL_PROPERTY
Coulomb
SciTegic.value.DoubleValue
69.829

@<SCITEGIC>MOL_PROPERTY
VdW
SciTegic.value.DoubleValue
-0.215

@<SCITEGIC>MOL_PROPERTY
VdW6
SciTegic.value.DoubleValue
-4.563

@<SCITEGIC>MOL_PROPERTY
VdW12
SciTegic.value.DoubleValue
4.348

@<SCITEGIC>MOL_PROPERTY
Bond
SciTegic.value.DoubleValue
0.137

@<SCITEGIC>MOL_PROPERTY
Angle
SciTegic.value.DoubleValue
0.936

@<SCITEGIC>MOL_PROPERTY
Pdih
SciTegic.value.DoubleValue
1.356

@<SCITEGIC>MOL_PROPERTY
Idih
SciTegic.value.DoubleValue
0.000

@<SCITEGIC>MOL_PROPERTY
Tether
SciTegic.value.DoubleValue
0.000

@<TRIPOS>MOLECULE
guest-s9_confgen4.mol2 : confsearch ligand conformer 414
          20          19           1
SMALL
USER_CHARGES
 
@<TRIPOS>ATOM
       1    C1      17.828814   17.931544   22.298827 C.3        1 MOL1        -0.2224
       2    H1      17.460025   18.014640   23.329432 H          1 MOL1         0.1052
       3    H2      17.716720   18.910105   21.815474 H          1 MOL1         0.1052
       4    H3      17.179426   17.223732   21.767543 H          1 MOL1         0.1052
       5    C2      19.296499   17.446472   22.271488 C.3        1 MOL1        -0.1209
       6    H4      19.641722   17.367490   21.231610 H          1 MOL1         0.1041
       7    H5      19.344026   16.429004   22.684277 H          1 MOL1         0.1041
       8    C3      20.252392   18.357951   23.080668 C.3        1 MOL1        -0.1274
       9    H6      19.950402   18.350667   24.136264 H          1 MOL1         0.1041
      10    H7      21.265883   17.937363   23.054366 H          1 MOL1         0.1041
      11    C4      20.289266   19.823390   22.590094 C.3        1 MOL1         0.0313
      12    H8      20.984807   20.397824   23.207076 H          1 MOL1         0.1015
      13    H9      19.296109   20.263316   22.709185 H          1 MOL1         0.1015
      14    N1      20.698121   20.009744   21.137017 N.4        1 MOL1        -0.4809
      15    H10     20.559681   20.994823   20.862227 H          1 MOL1         0.3726
      16    H11     20.071254   19.470026   20.522324 H          1 MOL1         0.3726
      17    C5      22.152195   19.608339   20.915286 C.3        1 MOL1        -0.0677
      18    H12     22.274927   18.549124   21.149783 H          1 MOL1         0.1026
      19    H13     22.417192   19.785659   19.870661 H          1 MOL1         0.1026
      20    H14     22.793524   20.208220   21.564496 H          1 MOL1         0.1026
@<TRIPOS>BOND
    1     1     2    1
    2     1     3    1
    3     1     4    1
    4     1     5    1
    5     5     6    1
    6     5     7    1
    7     5     8    1
    8     8     9    1
    9     8    10    1
   10     8    11    1
   11    11    12    1
   12    11    13    1
   13    11    14    1
   14    14    15    1
   15    14    16    1
   16    14    17    1
   17    17    18    1
   18    17    19    1
   19    17    20    1
@<TRIPOS>SUBSTRUCTURE
       1 MOL1            1 RESIDUE      1      MOL     
@<SCITEGIC>MOL_PROPERTY
VConf Rank
SciTegic.value.IntegerValue
414

@<SCITEGIC>MOL_PROPERTY
Conf_Id
SciTegic.value.IntegerValue
52

@<SCITEGIC>MOL_PROPERTY
Delta U+W
SciTegic.value.DoubleValue
0.784

@<SCITEGIC>MOL_PROPERTY
U+W
SciTegic.value.DoubleValue
16.122

@<SCITEGIC>MOL_PROPERTY
Grad RMS
SciTegic.value.DoubleValue
0.000000

@<SCITEGIC>MOL_PROPERTY
U
SciTegic.value.DoubleValue
70.777

@<SCITEGIC>MOL_PROPERTY
W
SciTegic.value.DoubleValue
-54.655

@<SCITEGIC>MOL_PROPERTY
W(PB)
SciTegic.value.DoubleValue
-56.491

@<SCITEGIC>MOL_PROPERTY
W(SA)
SciTegic.value.DoubleValue
1.836

@<SCITEGIC>MOL_PROPERTY
Valence
SciTegic.value.DoubleValue
1.529

@<SCITEGIC>MOL_PROPERTY
Coulomb
SciTegic.value.DoubleValue
69.166

@<SCITEGIC>MOL_PROPERTY
VdW
SciTegic.value.DoubleValue
0.082

@<SCITEGIC>MOL_PROPERTY
VdW6
SciTegic.value.DoubleValue
-5.166

@<SCITEGIC>MOL_PROPERTY
VdW12
SciTegic.value.DoubleValue
5.248

@<SCITEGIC>MOL_PROPERTY
Bond
SciTegic.value.DoubleValue
0.171

@<SCITEGIC>MOL_PROPERTY
Angle
SciTegic.value.DoubleValue
0.752

@<SCITEGIC>MOL_PROPERTY
Pdih
SciTegic.value.DoubleValue
0.605

@<SCITEGIC>MOL_PROPERTY
Idih
SciTegic.value.DoubleValue
0.000

@<SCITEGIC>MOL_PROPERTY
Tether
SciTegic.value.DoubleValue
0.000

@<TRIPOS>MOLECULE
guest-s9_confgen4.mol2 : confsearch ligand conformer 415
          20          19           1
SMALL
USER_CHARGES
 
@<TRIPOS>ATOM
       1    C1      18.587463   17.695111   21.114188 C.3        1 MOL1        -0.2224
       2    H1      17.971287   16.969112   20.567908 H          1 MOL1         0.1052
       3    H2      18.632171   17.357434   22.155883 H          1 MOL1         0.1052
       4    H3      18.072131   18.663786   21.076641 H          1 MOL1         0.1052
       5    C2      19.996033   17.783178   20.483683 C.3        1 MOL1        -0.1209
       6    H4      19.884800   17.893672   19.395821 H          1 MOL1         0.1041
       7    H5      20.528194   16.834164   20.639234 H          1 MOL1         0.1041
       8    C3      20.860320   18.959368   21.005611 C.3        1 MOL1        -0.1274
       9    H6      21.791297   18.976366   20.423736 H          1 MOL1         0.1041
      10    H7      20.364069   19.915957   20.799275 H          1 MOL1         0.1041
      11    C4      21.245888   18.860657   22.499982 C.3        1 MOL1         0.0313
      12    H8      22.099254   19.514955   22.695132 H          1 MOL1         0.1015
      13    H9      21.554410   17.835886   22.721629 H          1 MOL1         0.1015
      14    N1      20.157440   19.244881   23.490014 N.4        1 MOL1        -0.4809
      15    H10     20.442570   18.966557   24.442062 H          1 MOL1         0.3726
      16    H11     19.299603   18.709396   23.297105 H          1 MOL1         0.3726
      17    C5      19.878636   20.743379   23.451335 C.3        1 MOL1        -0.0677
      18    H12     20.799882   21.286006   23.673829 H          1 MOL1         0.1026
      19    H13     19.516421   21.020024   22.459425 H          1 MOL1         0.1026
      20    H14     19.119849   20.985397   24.198718 H          1 MOL1         0.1026
@<TRIPOS>BOND
    1     1     2    1
    2     1     3    1
    3     1     4    1
    4     1     5    1
    5     5     6    1
    6     5     7    1
    7     5     8    1
    8     8     9    1
    9     8    10    1
   10     8    11    1
   11    11    12    1
   12    11    13    1
   13    11    14    1
   14    14    15    1
   15    14    16    1
   16    14    17    1
   17    17    18    1
   18    17    19    1
   19    17    20    1
@<TRIPOS>SUBSTRUCTURE
       1 MOL1            1 RESIDUE      1      MOL     
@<SCITEGIC>MOL_PROPERTY
VConf Rank
SciTegic.value.IntegerValue
415

@<SCITEGIC>MOL_PROPERTY
Conf_Id
SciTegic.value.IntegerValue
55

@<SCITEGIC>MOL_PROPERTY
Delta U+W
SciTegic.value.DoubleValue
2.745

@<SCITEGIC>MOL_PROPERTY
U+W
SciTegic.value.DoubleValue
18.083

@<SCITEGIC>MOL_PROPERTY
Grad RMS
SciTegic.value.DoubleValue
0.000000

@<SCITEGIC>MOL_PROPERTY
U
SciTegic.value.DoubleValue
72.490

@<SCITEGIC>MOL_PROPERTY
W
SciTegic.value.DoubleValue
-54.407

@<SCITEGIC>MOL_PROPERTY
W(PB)
SciTegic.value.DoubleValue
-56.269

@<SCITEGIC>MOL_PROPERTY
W(SA)
SciTegic.value.DoubleValue
1.861

@<SCITEGIC>MOL_PROPERTY
Valence
SciTegic.value.DoubleValue
2.738

@<SCITEGIC>MOL_PROPERTY
Coulomb
SciTegic.value.DoubleValue
69.795

@<SCITEGIC>MOL_PROPERTY
VdW
SciTegic.value.DoubleValue
-0.043

@<SCITEGIC>MOL_PROPERTY
VdW6
SciTegic.value.DoubleValue
-5.333

@<SCITEGIC>MOL_PROPERTY
VdW12
SciTegic.value.DoubleValue
5.290

@<SCITEGIC>MOL_PROPERTY
Bond
SciTegic.value.DoubleValue
0.182

@<SCITEGIC>MOL_PROPERTY
Angle
SciTegic.value.DoubleValue
1.135

@<SCITEGIC>MOL_PROPERTY
Pdih
SciTegic.value.DoubleValue
1.422

@<SCITEGIC>MOL_PROPERTY
Idih
SciTegic.value.DoubleValue
0.000

@<SCITEGIC>MOL_PROPERTY
Tether
SciTegic.value.DoubleValue
0.000

@<TRIPOS>MOLECULE
guest-s9_confgen4.mol2 : confsearch ligand conformer 416
          20          19           1
SMALL
USER_CHARGES
 
@<TRIPOS>ATOM
       1    C1      18.777106   18.189500   20.405733 C.3        1 MOL1        -0.2224
       2    H1      18.298830   17.741640   19.524914 H          1 MOL1         0.1052
       3    H2      17.988303   18.408731   21.137194 H          1 MOL1         0.1052
       4    H3      19.229980   19.132627   20.079286 H          1 MOL1         0.1052
       5    C2      19.832936   17.223710   20.990410 C.3        1 MOL1        -0.1209
       6    H4      20.664960   17.115439   20.280457 H          1 MOL1         0.1041
       7    H5      19.380441   16.226239   21.081648 H          1 MOL1         0.1041
       8    C3      20.381270   17.637366   22.380032 C.3        1 MOL1        -0.1274
       9    H6      19.564285   17.688701   23.110651 H          1 MOL1         0.1041
      10    H7      21.044196   16.835922   22.731889 H          1 MOL1         0.1041
      11    C4      21.195455   18.952141   22.384937 C.3        1 MOL1         0.0313
      12    H8      21.870284   18.956788   21.525256 H          1 MOL1         0.1015
      13    H9      21.807854   18.992471   23.289240 H          1 MOL1         0.1015
      14    N1      20.379542   20.234787   22.344766 N.4        1 MOL1        -0.4809
      15    H10     19.725264   20.212342   21.550250 H          1 MOL1         0.3726
      16    H11     21.003730   21.035565   22.159557 H          1 MOL1         0.3726
      17    C5      19.630868   20.455208   23.654583 C.3        1 MOL1        -0.0677
      18    H12     18.926210   19.636581   23.812462 H          1 MOL1         0.1026
      19    H13     20.348487   20.489957   24.477051 H          1 MOL1         0.1026
      20    H14     19.087152   21.400940   23.600966 H          1 MOL1         0.1026
@<TRIPOS>BOND
    1     1     2    1
    2     1     3    1
    3     1     4    1
    4     1     5    1
    5     5     6    1
    6     5     7    1
    7     5     8    1
    8     8     9    1
    9     8    10    1
   10     8    11    1
   11    11    12    1
   12    11    13    1
   13    11    14    1
   14    14    15    1
   15    14    16    1
   16    14    17    1
   17    17    18    1
   18    17    19    1
   19    17    20    1
@<TRIPOS>SUBSTRUCTURE
       1 MOL1            1 RESIDUE      1      MOL     
@<SCITEGIC>MOL_PROPERTY
VConf Rank
SciTegic.value.IntegerValue
416

@<SCITEGIC>MOL_PROPERTY
Conf_Id
SciTegic.value.IntegerValue
76

@<SCITEGIC>MOL_PROPERTY
Delta U+W
SciTegic.value.DoubleValue
2.799

@<SCITEGIC>MOL_PROPERTY
U+W
SciTegic.value.DoubleValue
18.137

@<SCITEGIC>MOL_PROPERTY
Grad RMS
SciTegic.value.DoubleValue
0.000000

@<SCITEGIC>MOL_PROPERTY
U
SciTegic.value.DoubleValue
72.490

@<SCITEGIC>MOL_PROPERTY
W
SciTegic.value.DoubleValue
-54.353

@<SCITEGIC>MOL_PROPERTY
W(PB)
SciTegic.value.DoubleValue
-56.201

@<SCITEGIC>MOL_PROPERTY
W(SA)
SciTegic.value.DoubleValue
1.848

@<SCITEGIC>MOL_PROPERTY
Valence
SciTegic.value.DoubleValue
2.738

@<SCITEGIC>MOL_PROPERTY
Coulomb
SciTegic.value.DoubleValue
69.795

@<SCITEGIC>MOL_PROPERTY
VdW
SciTegic.value.DoubleValue
-0.043

@<SCITEGIC>MOL_PROPERTY
VdW6
SciTegic.value.DoubleValue
-5.334

@<SCITEGIC>MOL_PROPERTY
VdW12
SciTegic.value.DoubleValue
5.290

@<SCITEGIC>MOL_PROPERTY
Bond
SciTegic.value.DoubleValue
0.182

@<SCITEGIC>MOL_PROPERTY
Angle
SciTegic.value.DoubleValue
1.135

@<SCITEGIC>MOL_PROPERTY
Pdih
SciTegic.value.DoubleValue
1.421

@<SCITEGIC>MOL_PROPERTY
Idih
SciTegic.value.DoubleValue
0.000

@<SCITEGIC>MOL_PROPERTY
Tether
SciTegic.value.DoubleValue
0.000

@<TRIPOS>MOLECULE
guest-s9_confgen4.mol2 : confsearch ligand conformer 417
          20          19           1
SMALL
USER_CHARGES
 
@<TRIPOS>ATOM
       1    C1      21.619126   17.743912   20.874523 C.3        1 MOL1        -0.2224
       2    H1      21.694147   17.632591   21.963114 H          1 MOL1         0.1052
       3    H2      21.361759   16.765429   20.448748 H          1 MOL1         0.1052
       4    H3      22.613255   18.020402   20.500213 H          1 MOL1         0.1052
       5    C2      20.574120   18.812791   20.479526 C.3        1 MOL1        -0.1209
       6    H4      20.589599   18.936389   19.387594 H          1 MOL1         0.1041
       7    H5      20.857330   19.789110   20.893475 H          1 MOL1         0.1041
       8    C3      19.134651   18.445218   20.915721 C.3        1 MOL1        -0.1274
       9    H6      18.440234   19.221230   20.567872 H          1 MOL1         0.1041
      10    H7      18.836784   17.522563   20.400328 H          1 MOL1         0.1041
      11    C4      18.936562   18.234331   22.435249 C.3        1 MOL1         0.0313
      12    H8      19.623462   17.471918   22.810032 H          1 MOL1         0.1015
      13    H9      17.919215   17.866432   22.591201 H          1 MOL1         0.1015
      14    N1      19.081926   19.480107   23.296559 N.4        1 MOL1        -0.4809
      15    H10     18.461063   19.399601   24.116832 H          1 MOL1         0.3726
      16    H11     18.739990   20.309532   22.788840 H          1 MOL1         0.3726
      17    C5      20.517545   19.672574   23.773217 C.3        1 MOL1        -0.0677
      18    H12     20.566270   20.558584   24.410036 H          1 MOL1         0.1026
      19    H13     20.826017   18.794004   24.343788 H          1 MOL1         0.1026
      20    H14     21.176920   19.803373   22.914650 H          1 MOL1         0.1026
@<TRIPOS>BOND
    1     1     2    1
    2     1     3    1
    3     1     4    1
    4     1     5    1
    5     5     6    1
    6     5     7    1
    7     5     8    1
    8     8     9    1
    9     8    10    1
   10     8    11    1
   11    11    12    1
   12    11    13    1
   13    11    14    1
   14    14    15    1
   15    14    16    1
   16    14    17    1
   17    17    18    1
   18    17    19    1
   19    17    20    1
@<TRIPOS>SUBSTRUCTURE
       1 MOL1            1 RESIDUE      1      MOL     
@<SCITEGIC>MOL_PROPERTY
VConf Rank
SciTegic.value.IntegerValue
417

@<SCITEGIC>MOL_PROPERTY
Conf_Id
SciTegic.value.IntegerValue
60

@<SCITEGIC>MOL_PROPERTY
Delta U+W
SciTegic.value.DoubleValue
1.788

@<SCITEGIC>MOL_PROPERTY
U+W
SciTegic.value.DoubleValue
17.127

@<SCITEGIC>MOL_PROPERTY
Grad RMS
SciTegic.value.DoubleValue
0.000000

@<SCITEGIC>MOL_PROPERTY
U
SciTegic.value.DoubleValue
72.122

@<SCITEGIC>MOL_PROPERTY
W
SciTegic.value.DoubleValue
-54.995

@<SCITEGIC>MOL_PROPERTY
W(PB)
SciTegic.value.DoubleValue
-56.810

@<SCITEGIC>MOL_PROPERTY
W(SA)
SciTegic.value.DoubleValue
1.815

@<SCITEGIC>MOL_PROPERTY
Valence
SciTegic.value.DoubleValue
3.197

@<SCITEGIC>MOL_PROPERTY
Coulomb
SciTegic.value.DoubleValue
69.115

@<SCITEGIC>MOL_PROPERTY
VdW
SciTegic.value.DoubleValue
-0.190

@<SCITEGIC>MOL_PROPERTY
VdW6
SciTegic.value.DoubleValue
-5.585

@<SCITEGIC>MOL_PROPERTY
VdW12
SciTegic.value.DoubleValue
5.395

@<SCITEGIC>MOL_PROPERTY
Bond
SciTegic.value.DoubleValue
0.177

@<SCITEGIC>MOL_PROPERTY
Angle
SciTegic.value.DoubleValue
1.207

@<SCITEGIC>MOL_PROPERTY
Pdih
SciTegic.value.DoubleValue
1.813

@<SCITEGIC>MOL_PROPERTY
Idih
SciTegic.value.DoubleValue
0.000

@<SCITEGIC>MOL_PROPERTY
Tether
SciTegic.value.DoubleValue
0.000

@<TRIPOS>MOLECULE
guest-s9_confgen4.mol2 : confsearch ligand conformer 418
          20          19           1
SMALL
USER_CHARGES
 
@<TRIPOS>ATOM
       1    C1      20.242057   18.458745   24.113025 C.3        1 MOL1        -0.2224
       2    H1      20.260174   19.096170   25.006448 H          1 MOL1         0.1052
       3    H2      20.138218   17.418167   24.446740 H          1 MOL1         0.1052
       4    H3      21.213131   18.560906   23.613395 H          1 MOL1         0.1052
       5    C2      19.074858   18.861836   23.182581 C.3        1 MOL1        -0.1209
       6    H4      19.180897   19.910440   22.876074 H          1 MOL1         0.1041
       7    H5      18.135515   18.811128   23.750820 H          1 MOL1         0.1041
       8    C3      18.949300   17.951458   21.936428 C.3        1 MOL1        -0.1274
       9    H6      18.733597   16.927858   22.270134 H          1 MOL1         0.1041
      10    H7      18.079212   18.264022   21.344264 H          1 MOL1         0.1041
      11    C4      20.194701   17.907623   21.020060 C.3        1 MOL1         0.0313
      12    H8      20.019872   17.146143   20.255697 H          1 MOL1         0.1015
      13    H9      21.078783   17.607665   21.587501 H          1 MOL1         0.1015
      14    N1      20.511823   19.198170   20.279206 N.4        1 MOL1        -0.4809
      15    H10     19.642113   19.693479   20.032388 H          1 MOL1         0.3726
      16    H11     20.950581   18.970221   19.373485 H          1 MOL1         0.3726
      17    C5      21.452871   20.092026   21.079641 C.3        1 MOL1        -0.0677
      18    H12     22.378002   19.547936   21.281356 H          1 MOL1         0.1026
      19    H13     21.674880   20.988734   20.496929 H          1 MOL1         0.1026
      20    H14     20.980696   20.375779   22.020680 H          1 MOL1         0.1026
@<TRIPOS>BOND
    1     1     2    1
    2     1     3    1
    3     1     4    1
    4     1     5    1
    5     5     6    1
    6     5     7    1
    7     5     8    1
    8     8     9    1
    9     8    10    1
   10     8    11    1
   11    11    12    1
   12    11    13    1
   13    11    14    1
   14    14    15    1
   15    14    16    1
   16    14    17    1
   17    17    18    1
   18    17    19    1
   19    17    20    1
@<TRIPOS>SUBSTRUCTURE
       1 MOL1            1 RESIDUE      1      MOL     
@<SCITEGIC>MOL_PROPERTY
VConf Rank
SciTegic.value.IntegerValue
418

@<SCITEGIC>MOL_PROPERTY
Conf_Id
SciTegic.value.IntegerValue
54

@<SCITEGIC>MOL_PROPERTY
Delta U+W
SciTegic.value.DoubleValue
1.880

@<SCITEGIC>MOL_PROPERTY
U+W
SciTegic.value.DoubleValue
17.218

@<SCITEGIC>MOL_PROPERTY
Grad RMS
SciTegic.value.DoubleValue
0.000000

@<SCITEGIC>MOL_PROPERTY
U
SciTegic.value.DoubleValue
72.122

@<SCITEGIC>MOL_PROPERTY
W
SciTegic.value.DoubleValue
-54.903

@<SCITEGIC>MOL_PROPERTY
W(PB)
SciTegic.value.DoubleValue
-56.724

@<SCITEGIC>MOL_PROPERTY
W(SA)
SciTegic.value.DoubleValue
1.821

@<SCITEGIC>MOL_PROPERTY
Valence
SciTegic.value.DoubleValue
3.197

@<SCITEGIC>MOL_PROPERTY
Coulomb
SciTegic.value.DoubleValue
69.115

@<SCITEGIC>MOL_PROPERTY
VdW
SciTegic.value.DoubleValue
-0.190

@<SCITEGIC>MOL_PROPERTY
VdW6
SciTegic.value.DoubleValue
-5.585

@<SCITEGIC>MOL_PROPERTY
VdW12
SciTegic.value.DoubleValue
5.395

@<SCITEGIC>MOL_PROPERTY
Bond
SciTegic.value.DoubleValue
0.177

@<SCITEGIC>MOL_PROPERTY
Angle
SciTegic.value.DoubleValue
1.207

@<SCITEGIC>MOL_PROPERTY
Pdih
SciTegic.value.DoubleValue
1.813

@<SCITEGIC>MOL_PROPERTY
Idih
SciTegic.value.DoubleValue
0.000

@<SCITEGIC>MOL_PROPERTY
Tether
SciTegic.value.DoubleValue
0.000

@<TRIPOS>MOLECULE
guest-s9_confgen4.mol2 : confsearch ligand conformer 419
          20          19           1
SMALL
USER_CHARGES
 
@<TRIPOS>ATOM
       1    C1      19.270444   21.783889   22.966267 C.3        1 MOL1        -0.2224
       2    H1      18.305371   21.529994   23.423813 H          1 MOL1         0.1052
       3    H2      19.735721   22.568572   23.576853 H          1 MOL1         0.1052
       4    H3      19.076448   22.203591   21.970581 H          1 MOL1         0.1052
       5    C2      20.187722   20.544874   22.878664 C.3        1 MOL1        -0.1209
       6    H4      20.391571   20.169170   23.891405 H          1 MOL1         0.1041
       7    H5      21.156534   20.837444   22.449528 H          1 MOL1         0.1041
       8    C3      19.557676   19.422831   22.024368 C.3        1 MOL1        -0.1274
       9    H6      18.591549   19.128711   22.455713 H          1 MOL1         0.1041
      10    H7      19.357426   19.797957   21.011873 H          1 MOL1         0.1041
      11    C4      20.478301   18.191082   21.941758 C.3        1 MOL1         0.0313
      12    H8      20.667149   17.805775   22.946926 H          1 MOL1         0.1015
      13    H9      21.435392   18.477133   21.498317 H          1 MOL1         0.1015
      14    N1      19.900023   17.061782   21.111709 N.4        1 MOL1        -0.4809
      15    H10     19.700012   17.389218   20.154140 H          1 MOL1         0.3726
      16    H11     18.988760   16.767600   21.495391 H          1 MOL1         0.3726
      17    C5      20.870524   15.888557   21.082616 C.3        1 MOL1        -0.0677
      18    H12     21.040581   15.536748   22.102478 H          1 MOL1         0.1026
      19    H13     20.441882   15.083157   20.482110 H          1 MOL1         0.1026
      20    H14     21.815231   16.213768   20.641511 H          1 MOL1         0.1026
@<TRIPOS>BOND
    1     1     2    1
    2     1     3    1
    3     1     4    1
    4     1     5    1
    5     5     6    1
    6     5     7    1
    7     5     8    1
    8     8     9    1
    9     8    10    1
   10     8    11    1
   11    11    12    1
   12    11    13    1
   13    11    14    1
   14    14    15    1
   15    14    16    1
   16    14    17    1
   17    17    18    1
   18    17    19    1
   19    17    20    1
@<TRIPOS>SUBSTRUCTURE
       1 MOL1            1 RESIDUE      1      MOL     
@<SCITEGIC>MOL_PROPERTY
VConf Rank
SciTegic.value.IntegerValue
419

@<SCITEGIC>MOL_PROPERTY
Conf_Id
SciTegic.value.IntegerValue
67

@<SCITEGIC>MOL_PROPERTY
Delta U+W
SciTegic.value.DoubleValue
0.000

@<SCITEGIC>MOL_PROPERTY
U+W
SciTegic.value.DoubleValue
15.338

@<SCITEGIC>MOL_PROPERTY
Grad RMS
SciTegic.value.DoubleValue
0.000000

@<SCITEGIC>MOL_PROPERTY
U
SciTegic.value.DoubleValue
69.277

@<SCITEGIC>MOL_PROPERTY
W
SciTegic.value.DoubleValue
-53.939

@<SCITEGIC>MOL_PROPERTY
W(PB)
SciTegic.value.DoubleValue
-55.889

@<SCITEGIC>MOL_PROPERTY
W(SA)
SciTegic.value.DoubleValue
1.950

@<SCITEGIC>MOL_PROPERTY
Valence
SciTegic.value.DoubleValue
0.846

@<SCITEGIC>MOL_PROPERTY
Coulomb
SciTegic.value.DoubleValue
68.557

@<SCITEGIC>MOL_PROPERTY
VdW
SciTegic.value.DoubleValue
-0.127

@<SCITEGIC>MOL_PROPERTY
VdW6
SciTegic.value.DoubleValue
-3.008

@<SCITEGIC>MOL_PROPERTY
VdW12
SciTegic.value.DoubleValue
2.882

@<SCITEGIC>MOL_PROPERTY
Bond
SciTegic.value.DoubleValue
0.088

@<SCITEGIC>MOL_PROPERTY
Angle
SciTegic.value.DoubleValue
0.332

@<SCITEGIC>MOL_PROPERTY
Pdih
SciTegic.value.DoubleValue
0.426

@<SCITEGIC>MOL_PROPERTY
Idih
SciTegic.value.DoubleValue
0.000

@<SCITEGIC>MOL_PROPERTY
Tether
SciTegic.value.DoubleValue
0.000

@<TRIPOS>MOLECULE
guest-s9_confgen4.mol2 : confsearch ligand conformer 420
          20          19           1
SMALL
USER_CHARGES
 
@<TRIPOS>ATOM
       1    C1      19.858546   21.317747   23.733476 C.3        1 MOL1        -0.2224
       2    H1      20.361967   20.785901   24.551325 H          1 MOL1         0.1052
       3    H2      20.156218   22.373070   23.785477 H          1 MOL1         0.1052
       4    H3      18.775860   21.265010   23.907194 H          1 MOL1         0.1052
       5    C2      20.232186   20.712361   22.363011 C.3        1 MOL1        -0.1209
       6    H4      21.315322   20.810724   22.203431 H          1 MOL1         0.1041
       7    H5      19.741878   21.286772   21.564288 H          1 MOL1         0.1041
       8    C3      19.824364   19.226109   22.260907 C.3        1 MOL1        -0.1274
       9    H6      20.316092   18.656720   23.060128 H          1 MOL1         0.1041
      10    H7      18.741717   19.129093   22.416099 H          1 MOL1         0.1041
      11    C4      20.200302   18.630896   20.888184 C.3        1 MOL1         0.0313
      12    H8      21.282862   18.679477   20.746460 H          1 MOL1         0.1015
      13    H9      19.729484   19.227026   20.102285 H          1 MOL1         0.1015
      14    N1      19.765347   17.188867   20.682932 N.4        1 MOL1        -0.4809
      15    H10     19.904662   16.923708   19.695223 H          1 MOL1         0.3726
      16    H11     18.750290   17.095849   20.840357 H          1 MOL1         0.3726
      17    C5      20.544238   16.240235   21.587885 C.3        1 MOL1        -0.0677
      18    H12     20.339473   16.484894   22.631963 H          1 MOL1         0.1026
      19    H13     20.230958   15.213899   21.384258 H          1 MOL1         0.1026
      20    H14     21.612169   16.345790   21.385180 H          1 MOL1         0.1026
@<TRIPOS>BOND
    1     1     2    1
    2     1     3    1
    3     1     4    1
    4     1     5    1
    5     5     6    1
    6     5     7    1
    7     5     8    1
    8     8     9    1
    9     8    10    1
   10     8    11    1
   11    11    12    1
   12    11    13    1
   13    11    14    1
   14    14    15    1
   15    14    16    1
   16    14    17    1
   17    17    18    1
   18    17    19    1
   19    17    20    1
@<TRIPOS>SUBSTRUCTURE
       1 MOL1            1 RESIDUE      1      MOL     
@<SCITEGIC>MOL_PROPERTY
VConf Rank
SciTegic.value.IntegerValue
420

@<SCITEGIC>MOL_PROPERTY
Conf_Id
SciTegic.value.IntegerValue
37

@<SCITEGIC>MOL_PROPERTY
Delta U+W
SciTegic.value.DoubleValue
-0.021

@<SCITEGIC>MOL_PROPERTY
U+W
SciTegic.value.DoubleValue
15.318

@<SCITEGIC>MOL_PROPERTY
Grad RMS
SciTegic.value.DoubleValue
0.000000

@<SCITEGIC>MOL_PROPERTY
U
SciTegic.value.DoubleValue
69.657

@<SCITEGIC>MOL_PROPERTY
W
SciTegic.value.DoubleValue
-54.340

@<SCITEGIC>MOL_PROPERTY
W(PB)
SciTegic.value.DoubleValue
-56.238

@<SCITEGIC>MOL_PROPERTY
W(SA)
SciTegic.value.DoubleValue
1.899

@<SCITEGIC>MOL_PROPERTY
Valence
SciTegic.value.DoubleValue
1.137

@<SCITEGIC>MOL_PROPERTY
Coulomb
SciTegic.value.DoubleValue
68.383

@<SCITEGIC>MOL_PROPERTY
VdW
SciTegic.value.DoubleValue
0.138

@<SCITEGIC>MOL_PROPERTY
VdW6
SciTegic.value.DoubleValue
-3.703

@<SCITEGIC>MOL_PROPERTY
VdW12
SciTegic.value.DoubleValue
3.841

@<SCITEGIC>MOL_PROPERTY
Bond
SciTegic.value.DoubleValue
0.125

@<SCITEGIC>MOL_PROPERTY
Angle
SciTegic.value.DoubleValue
0.468

@<SCITEGIC>MOL_PROPERTY
Pdih
SciTegic.value.DoubleValue
0.543

@<SCITEGIC>MOL_PROPERTY
Idih
SciTegic.value.DoubleValue
0.000

@<SCITEGIC>MOL_PROPERTY
Tether
SciTegic.value.DoubleValue
0.000

@<TRIPOS>MOLECULE
guest-s9_confgen4.mol2 : confsearch ligand conformer 421
          20          19           1
SMALL
USER_CHARGES
 
@<TRIPOS>ATOM
       1    C1      18.051312   18.324000   24.236684 C.3        1 MOL1        -0.2224
       2    H1      16.979321   18.346800   24.471916 H          1 MOL1         0.1052
       3    H2      18.392551   17.284269   24.324343 H          1 MOL1         0.1052
       4    H3      18.574625   18.920316   24.995446 H          1 MOL1         0.1052
       5    C2      18.310574   18.876943   22.818479 C.3        1 MOL1        -0.1209
       6    H4      17.927212   19.904996   22.751760 H          1 MOL1         0.1041
       7    H5      17.747302   18.281712   22.085846 H          1 MOL1         0.1041
       8    C3      19.812782   18.857242   22.459778 C.3        1 MOL1        -0.1274
       9    H6      20.374226   19.455505   23.189494 H          1 MOL1         0.1041
      10    H7      20.191055   17.829116   22.527769 H          1 MOL1         0.1041
      11    C4      20.061727   19.412752   21.042244 C.3        1 MOL1         0.0313
      12    H8      19.651794   20.424111   20.980707 H          1 MOL1         0.1015
      13    H9      19.545145   18.793298   20.304815 H          1 MOL1         0.1015
      14    N1      21.526048   19.493944   20.642331 N.4        1 MOL1        -0.4809
      15    H10     22.055451   20.045982   21.334257 H          1 MOL1         0.3726
      16    H11     21.613989   20.022295   19.760062 H          1 MOL1         0.3726
      17    C5      22.133664   18.105157   20.476227 C.3        1 MOL1        -0.0677
      18    H12     21.566264   17.552049   19.724672 H          1 MOL1         0.1026
      19    H13     23.172077   18.205495   20.152802 H          1 MOL1         0.1026
      20    H14     22.097273   17.576684   21.430836 H          1 MOL1         0.1026
@<TRIPOS>BOND
    1     1     2    1
    2     1     3    1
    3     1     4    1
    4     1     5    1
    5     5     6    1
    6     5     7    1
    7     5     8    1
    8     8     9    1
    9     8    10    1
   10     8    11    1
   11    11    12    1
   12    11    13    1
   13    11    14    1
   14    14    15    1
   15    14    16    1
   16    14    17    1
   17    17    18    1
   18    17    19    1
   19    17    20    1
@<TRIPOS>SUBSTRUCTURE
       1 MOL1            1 RESIDUE      1      MOL     
@<SCITEGIC>MOL_PROPERTY
VConf Rank
SciTegic.value.IntegerValue
421

@<SCITEGIC>MOL_PROPERTY
Conf_Id
SciTegic.value.IntegerValue
2

@<SCITEGIC>MOL_PROPERTY
Delta U+W
SciTegic.value.DoubleValue
0.069

@<SCITEGIC>MOL_PROPERTY
U+W
SciTegic.value.DoubleValue
15.407

@<SCITEGIC>MOL_PROPERTY
Grad RMS
SciTegic.value.DoubleValue
0.000000

@<SCITEGIC>MOL_PROPERTY
U
SciTegic.value.DoubleValue
69.657

@<SCITEGIC>MOL_PROPERTY
W
SciTegic.value.DoubleValue
-54.250

@<SCITEGIC>MOL_PROPERTY
W(PB)
SciTegic.value.DoubleValue
-56.176

@<SCITEGIC>MOL_PROPERTY
W(SA)
SciTegic.value.DoubleValue
1.926

@<SCITEGIC>MOL_PROPERTY
Valence
SciTegic.value.DoubleValue
1.137

@<SCITEGIC>MOL_PROPERTY
Coulomb
SciTegic.value.DoubleValue
68.383

@<SCITEGIC>MOL_PROPERTY
VdW
SciTegic.value.DoubleValue
0.138

@<SCITEGIC>MOL_PROPERTY
VdW6
SciTegic.value.DoubleValue
-3.703

@<SCITEGIC>MOL_PROPERTY
VdW12
SciTegic.value.DoubleValue
3.841

@<SCITEGIC>MOL_PROPERTY
Bond
SciTegic.value.DoubleValue
0.125

@<SCITEGIC>MOL_PROPERTY
Angle
SciTegic.value.DoubleValue
0.468

@<SCITEGIC>MOL_PROPERTY
Pdih
SciTegic.value.DoubleValue
0.543

@<SCITEGIC>MOL_PROPERTY
Idih
SciTegic.value.DoubleValue
0.000

@<SCITEGIC>MOL_PROPERTY
Tether
SciTegic.value.DoubleValue
0.000

@<TRIPOS>MOLECULE
guest-s9_confgen4.mol2 : confsearch ligand conformer 422
          20          19           1
SMALL
USER_CHARGES
 
@<TRIPOS>ATOM
       1    C1      21.086119   19.696996   19.768312 C.3        1 MOL1        -0.2224
       2    H1      20.997230   20.483713   20.528074 H          1 MOL1         0.1052
       3    H2      22.063835   19.212610   19.888901 H          1 MOL1         0.1052
       4    H3      21.073377   20.184400   18.784816 H          1 MOL1         0.1052
       5    C2      19.937642   18.667810   19.878153 C.3        1 MOL1        -0.1209
       6    H4      20.013642   17.955586   19.044501 H          1 MOL1         0.1041
       7    H5      18.971618   19.178799   19.760283 H          1 MOL1         0.1041
       8    C3      19.953422   17.884087   21.211460 C.3        1 MOL1        -0.1274
       9    H6      19.162675   17.122505   21.187590 H          1 MOL1         0.1041
      10    H7      20.905603   17.346202   21.310937 H          1 MOL1         0.1041
      11    C4      19.742164   18.793745   22.437485 C.3        1 MOL1         0.0313
      12    H8      18.793356   19.327155   22.339453 H          1 MOL1         0.1015
      13    H9      20.546814   19.530835   22.492286 H          1 MOL1         0.1015
      14    N1      19.717604   18.037258   23.751104 N.4        1 MOL1        -0.4809
      15    H10     20.596095   17.511208   23.876061 H          1 MOL1         0.3726
      16    H11     18.972089   17.324413   23.738312 H          1 MOL1         0.3726
      17    C5      19.508023   19.007909   24.905661 C.3        1 MOL1        -0.0677
      18    H12     18.557233   19.528039   24.770508 H          1 MOL1         0.1026
      19    H13     19.492301   18.450352   25.844750 H          1 MOL1         0.1026
      20    H14     20.326138   19.731275   24.920786 H          1 MOL1         0.1026
@<TRIPOS>BOND
    1     1     2    1
    2     1     3    1
    3     1     4    1
    4     1     5    1
    5     5     6    1
    6     5     7    1
    7     5     8    1
    8     8     9    1
    9     8    10    1
   10     8    11    1
   11    11    12    1
   12    11    13    1
   13    11    14    1
   14    14    15    1
   15    14    16    1
   16    14    17    1
   17    17    18    1
   18    17    19    1
   19    17    20    1
@<TRIPOS>SUBSTRUCTURE
       1 MOL1            1 RESIDUE      1      MOL     
@<SCITEGIC>MOL_PROPERTY
VConf Rank
SciTegic.value.IntegerValue
422

@<SCITEGIC>MOL_PROPERTY
Conf_Id
SciTegic.value.IntegerValue
34

@<SCITEGIC>MOL_PROPERTY
Delta U+W
SciTegic.value.DoubleValue
0.276

@<SCITEGIC>MOL_PROPERTY
U+W
SciTegic.value.DoubleValue
15.615

@<SCITEGIC>MOL_PROPERTY
Grad RMS
SciTegic.value.DoubleValue
0.000000

@<SCITEGIC>MOL_PROPERTY
U
SciTegic.value.DoubleValue
69.798

@<SCITEGIC>MOL_PROPERTY
W
SciTegic.value.DoubleValue
-54.184

@<SCITEGIC>MOL_PROPERTY
W(PB)
SciTegic.value.DoubleValue
-56.116

@<SCITEGIC>MOL_PROPERTY
W(SA)
SciTegic.value.DoubleValue
1.933

@<SCITEGIC>MOL_PROPERTY
Valence
SciTegic.value.DoubleValue
1.134

@<SCITEGIC>MOL_PROPERTY
Coulomb
SciTegic.value.DoubleValue
68.735

@<SCITEGIC>MOL_PROPERTY
VdW
SciTegic.value.DoubleValue
-0.070

@<SCITEGIC>MOL_PROPERTY
VdW6
SciTegic.value.DoubleValue
-3.565

@<SCITEGIC>MOL_PROPERTY
VdW12
SciTegic.value.DoubleValue
3.494

@<SCITEGIC>MOL_PROPERTY
Bond
SciTegic.value.DoubleValue
0.108

@<SCITEGIC>MOL_PROPERTY
Angle
SciTegic.value.DoubleValue
0.456

@<SCITEGIC>MOL_PROPERTY
Pdih
SciTegic.value.DoubleValue
0.569

@<SCITEGIC>MOL_PROPERTY
Idih
SciTegic.value.DoubleValue
0.000

@<SCITEGIC>MOL_PROPERTY
Tether
SciTegic.value.DoubleValue
0.000

@<TRIPOS>MOLECULE
guest-s9_confgen4.mol2 : confsearch ligand conformer 423
          20          19           1
SMALL
USER_CHARGES
 
@<TRIPOS>ATOM
       1    C1      20.628644   21.735022   22.485530 C.3        1 MOL1        -0.2224
       2    H1      21.435434   21.817800   23.225399 H          1 MOL1         0.1052
       3    H2      20.817776   22.476171   21.698159 H          1 MOL1         0.1052
       4    H3      19.684647   22.001702   22.978412 H          1 MOL1         0.1052
       5    C2      20.562659   20.311695   21.890708 C.3        1 MOL1        -0.1209
       6    H4      21.508691   20.087122   21.377956 H          1 MOL1         0.1041
       7    H5      19.772952   20.278089   21.127996 H          1 MOL1         0.1041
       8    C3      20.296151   19.247364   22.981284 C.3        1 MOL1        -0.1274
       9    H6      21.071381   19.319591   23.755677 H          1 MOL1         0.1041
      10    H7      19.338369   19.449344   23.478993 H          1 MOL1         0.1041
      11    C4      20.295397   17.808938   22.425881 C.3        1 MOL1         0.0313
      12    H8      20.192478   17.102323   23.253360 H          1 MOL1         0.1015
      13    H9      21.245275   17.608485   21.923901 H          1 MOL1         0.1015
      14    N1      19.176036   17.526243   21.441503 N.4        1 MOL1        -0.4809
      15    H10     19.235884   18.171801   20.640175 H          1 MOL1         0.3726
      16    H11     18.261409   17.715427   21.879354 H          1 MOL1         0.3726
      17    C5      19.252930   16.080928   20.968227 C.3        1 MOL1        -0.0677
      18    H12     20.215006   15.912989   20.479355 H          1 MOL1         0.1026
      19    H13     19.154242   15.415002   21.828221 H          1 MOL1         0.1026
      20    H14     18.442487   15.891261   20.260981 H          1 MOL1         0.1026
@<TRIPOS>BOND
    1     1     2    1
    2     1     3    1
    3     1     4    1
    4     1     5    1
    5     5     6    1
    6     5     7    1
    7     5     8    1
    8     8     9    1
    9     8    10    1
   10     8    11    1
   11    11    12    1
   12    11    13    1
   13    11    14    1
   14    14    15    1
   15    14    16    1
   16    14    17    1
   17    17    18    1
   18    17    19    1
   19    17    20    1
@<TRIPOS>SUBSTRUCTURE
       1 MOL1            1 RESIDUE      1      MOL     
@<SCITEGIC>MOL_PROPERTY
VConf Rank
SciTegic.value.IntegerValue
423

@<SCITEGIC>MOL_PROPERTY
Conf_Id
SciTegic.value.IntegerValue
50

@<SCITEGIC>MOL_PROPERTY
Delta U+W
SciTegic.value.DoubleValue
0.319

@<SCITEGIC>MOL_PROPERTY
U+W
SciTegic.value.DoubleValue
15.657

@<SCITEGIC>MOL_PROPERTY
Grad RMS
SciTegic.value.DoubleValue
0.000000

@<SCITEGIC>MOL_PROPERTY
U
SciTegic.value.DoubleValue
69.962

@<SCITEGIC>MOL_PROPERTY
W
SciTegic.value.DoubleValue
-54.305

@<SCITEGIC>MOL_PROPERTY
W(PB)
SciTegic.value.DoubleValue
-56.223

@<SCITEGIC>MOL_PROPERTY
W(SA)
SciTegic.value.DoubleValue
1.918

@<SCITEGIC>MOL_PROPERTY
Valence
SciTegic.value.DoubleValue
0.982

@<SCITEGIC>MOL_PROPERTY
Coulomb
SciTegic.value.DoubleValue
69.058

@<SCITEGIC>MOL_PROPERTY
VdW
SciTegic.value.DoubleValue
-0.078

@<SCITEGIC>MOL_PROPERTY
VdW6
SciTegic.value.DoubleValue
-3.548

@<SCITEGIC>MOL_PROPERTY
VdW12
SciTegic.value.DoubleValue
3.471

@<SCITEGIC>MOL_PROPERTY
Bond
SciTegic.value.DoubleValue
0.105

@<SCITEGIC>MOL_PROPERTY
Angle
SciTegic.value.DoubleValue
0.408

@<SCITEGIC>MOL_PROPERTY
Pdih
SciTegic.value.DoubleValue
0.469

@<SCITEGIC>MOL_PROPERTY
Idih
SciTegic.value.DoubleValue
0.000

@<SCITEGIC>MOL_PROPERTY
Tether
SciTegic.value.DoubleValue
0.000

@<TRIPOS>MOLECULE
guest-s9_confgen4.mol2 : confsearch ligand conformer 424
          20          19           1
SMALL
USER_CHARGES
 
@<TRIPOS>ATOM
       1    C1      18.981168   18.222340   19.241042 C.3        1 MOL1        -0.2224
       2    H1      18.798453   18.967271   18.455727 H          1 MOL1         0.1052
       3    H2      19.568968   17.406763   18.800025 H          1 MOL1         0.1052
       4    H3      18.009858   17.814740   19.550234 H          1 MOL1         0.1052
       5    C2      19.722542   18.859819   20.436036 C.3        1 MOL1        -0.1209
       6    H4      19.124511   19.695149   20.824721 H          1 MOL1         0.1041
       7    H5      20.674482   19.285815   20.088674 H          1 MOL1         0.1041
       8    C3      19.991866   17.829518   21.558146 C.3        1 MOL1        -0.1274
       9    H6      19.043030   17.420265   21.929736 H          1 MOL1         0.1041
      10    H7      20.556315   16.982864   21.145282 H          1 MOL1         0.1041
      11    C4      20.793769   18.421945   22.734379 C.3        1 MOL1         0.0313
      12    H8      21.735451   18.836057   22.365350 H          1 MOL1         0.1015
      13    H9      21.028096   17.627941   23.448010 H          1 MOL1         0.1015
      14    N1      20.064939   19.516367   23.491304 N.4        1 MOL1        -0.4809
      15    H10     19.163309   19.162984   23.846598 H          1 MOL1         0.3726
      16    H11     19.824945   20.290109   22.853982 H          1 MOL1         0.3726
      17    C5      20.930675   20.019953   24.638363 C.3        1 MOL1        -0.0677
      18    H12     20.394679   20.806566   25.174027 H          1 MOL1         0.1026
      19    H13     21.144762   19.192147   25.317840 H          1 MOL1         0.1026
      20    H14     21.864465   20.418878   24.236261 H          1 MOL1         0.1026
@<TRIPOS>BOND
    1     1     2    1
    2     1     3    1
    3     1     4    1
    4     1     5    1
    5     5     6    1
    6     5     7    1
    7     5     8    1
    8     8     9    1
    9     8    10    1
   10     8    11    1
   11    11    12    1
   12    11    13    1
   13    11    14    1
   14    14    15    1
   15    14    16    1
   16    14    17    1
   17    17    18    1
   18    17    19    1
   19    17    20    1
@<TRIPOS>SUBSTRUCTURE
       1 MOL1            1 RESIDUE      1      MOL     
@<SCITEGIC>MOL_PROPERTY
VConf Rank
SciTegic.value.IntegerValue
424

@<SCITEGIC>MOL_PROPERTY
Conf_Id
SciTegic.value.IntegerValue
35

@<SCITEGIC>MOL_PROPERTY
Delta U+W
SciTegic.value.DoubleValue
0.360

@<SCITEGIC>MOL_PROPERTY
U+W
SciTegic.value.DoubleValue
15.698

@<SCITEGIC>MOL_PROPERTY
Grad RMS
SciTegic.value.DoubleValue
0.000000

@<SCITEGIC>MOL_PROPERTY
U
SciTegic.value.DoubleValue
69.962

@<SCITEGIC>MOL_PROPERTY
W
SciTegic.value.DoubleValue
-54.264

@<SCITEGIC>MOL_PROPERTY
W(PB)
SciTegic.value.DoubleValue
-56.166

@<SCITEGIC>MOL_PROPERTY
W(SA)
SciTegic.value.DoubleValue
1.902

@<SCITEGIC>MOL_PROPERTY
Valence
SciTegic.value.DoubleValue
0.982

@<SCITEGIC>MOL_PROPERTY
Coulomb
SciTegic.value.DoubleValue
69.058

@<SCITEGIC>MOL_PROPERTY
VdW
SciTegic.value.DoubleValue
-0.078

@<SCITEGIC>MOL_PROPERTY
VdW6
SciTegic.value.DoubleValue
-3.548

@<SCITEGIC>MOL_PROPERTY
VdW12
SciTegic.value.DoubleValue
3.471

@<SCITEGIC>MOL_PROPERTY
Bond
SciTegic.value.DoubleValue
0.105

@<SCITEGIC>MOL_PROPERTY
Angle
SciTegic.value.DoubleValue
0.408

@<SCITEGIC>MOL_PROPERTY
Pdih
SciTegic.value.DoubleValue
0.469

@<SCITEGIC>MOL_PROPERTY
Idih
SciTegic.value.DoubleValue
0.000

@<SCITEGIC>MOL_PROPERTY
Tether
SciTegic.value.DoubleValue
0.000

@<TRIPOS>MOLECULE
guest-s9_confgen4.mol2 : confsearch ligand conformer 425
          20          19           1
SMALL
USER_CHARGES
 
@<TRIPOS>ATOM
       1    C1      18.926496   20.823317   20.983381 C.3        1 MOL1        -0.2224
       2    H1      19.587598   21.230707   21.758653 H          1 MOL1         0.1052
       3    H2      18.688852   21.639594   20.288980 H          1 MOL1         0.1052
       4    H3      17.990295   20.508105   21.462194 H          1 MOL1         0.1052
       5    C2      19.590175   19.647131   20.230836 C.3        1 MOL1        -0.1209
       6    H4      20.526175   19.987475   19.765822 H          1 MOL1         0.1041
       7    H5      18.933550   19.331802   19.407795 H          1 MOL1         0.1041
       8    C3      19.873230   18.430238   21.142387 C.3        1 MOL1        -0.1274
       9    H6      18.929965   18.071795   21.574221 H          1 MOL1         0.1041
      10    H7      20.270849   17.609926   20.530420 H          1 MOL1         0.1041
      11    C4      20.879045   18.754259   22.267914 C.3        1 MOL1         0.0313
      12    H8      20.466667   19.523399   22.925275 H          1 MOL1         0.1015
      13    H9      21.796261   19.146620   21.821443 H          1 MOL1         0.1015
      14    N1      21.268189   17.564425   23.130040 N.4        1 MOL1        -0.4809
      15    H10     22.056635   17.825126   23.742899 H          1 MOL1         0.3726
      16    H11     21.633093   16.800385   22.541137 H          1 MOL1         0.3726
      17    C5      20.092778   17.084767   23.974848 C.3        1 MOL1        -0.0677
      18    H12     19.287534   16.749041   23.318526 H          1 MOL1         0.1026
      19    H13     20.420587   16.255612   24.605727 H          1 MOL1         0.1026
      20    H14     19.741286   17.907152   24.601611 H          1 MOL1         0.1026
@<TRIPOS>BOND
    1     1     2    1
    2     1     3    1
    3     1     4    1
    4     1     5    1
    5     5     6    1
    6     5     7    1
    7     5     8    1
    8     8     9    1
    9     8    10    1
   10     8    11    1
   11    11    12    1
   12    11    13    1
   13    11    14    1
   14    14    15    1
   15    14    16    1
   16    14    17    1
   17    17    18    1
   18    17    19    1
   19    17    20    1
@<TRIPOS>SUBSTRUCTURE
       1 MOL1            1 RESIDUE      1      MOL     
@<SCITEGIC>MOL_PROPERTY
VConf Rank
SciTegic.value.IntegerValue
425

@<SCITEGIC>MOL_PROPERTY
Conf_Id
SciTegic.value.IntegerValue
33

@<SCITEGIC>MOL_PROPERTY
Delta U+W
SciTegic.value.DoubleValue
0.372

@<SCITEGIC>MOL_PROPERTY
U+W
SciTegic.value.DoubleValue
15.711

@<SCITEGIC>MOL_PROPERTY
Grad RMS
SciTegic.value.DoubleValue
0.000000

@<SCITEGIC>MOL_PROPERTY
U
SciTegic.value.DoubleValue
70.163

@<SCITEGIC>MOL_PROPERTY
W
SciTegic.value.DoubleValue
-54.452

@<SCITEGIC>MOL_PROPERTY
W(PB)
SciTegic.value.DoubleValue
-56.363

@<SCITEGIC>MOL_PROPERTY
W(SA)
SciTegic.value.DoubleValue
1.911

@<SCITEGIC>MOL_PROPERTY
Valence
SciTegic.value.DoubleValue
1.420

@<SCITEGIC>MOL_PROPERTY
Coulomb
SciTegic.value.DoubleValue
68.566

@<SCITEGIC>MOL_PROPERTY
VdW
SciTegic.value.DoubleValue
0.177

@<SCITEGIC>MOL_PROPERTY
VdW6
SciTegic.value.DoubleValue
-4.267

@<SCITEGIC>MOL_PROPERTY
VdW12
SciTegic.value.DoubleValue
4.445

@<SCITEGIC>MOL_PROPERTY
Bond
SciTegic.value.DoubleValue
0.146

@<SCITEGIC>MOL_PROPERTY
Angle
SciTegic.value.DoubleValue
0.581

@<SCITEGIC>MOL_PROPERTY
Pdih
SciTegic.value.DoubleValue
0.693

@<SCITEGIC>MOL_PROPERTY
Idih
SciTegic.value.DoubleValue
0.000

@<SCITEGIC>MOL_PROPERTY
Tether
SciTegic.value.DoubleValue
0.000

@<TRIPOS>MOLECULE
guest-s9_confgen4.mol2 : confsearch ligand conformer 426
          20          19           1
SMALL
USER_CHARGES
 
@<TRIPOS>ATOM
       1    C1      19.667101   21.155669   21.030178 C.3        1 MOL1        -0.2224
       2    H1      19.134119   22.027676   20.629543 H          1 MOL1         0.1052
       3    H2      19.856390   21.344163   22.094466 H          1 MOL1         0.1052
       4    H3      20.634925   21.089893   20.516285 H          1 MOL1         0.1052
       5    C2      18.836623   19.868736   20.819649 C.3        1 MOL1        -0.1209
       6    H4      18.593852   19.769154   19.752348 H          1 MOL1         0.1041
       7    H5      17.876643   19.958318   21.347455 H          1 MOL1         0.1041
       8    C3      19.572512   18.591978   21.288941 C.3        1 MOL1        -0.1274
       9    H6      18.960698   17.714848   21.040259 H          1 MOL1         0.1041
      10    H7      20.512393   18.488047   20.731687 H          1 MOL1         0.1041
      11    C4      19.856743   18.595837   22.806393 C.3        1 MOL1         0.0313
      12    H8      18.915453   18.739672   23.342913 H          1 MOL1         0.1015
      13    H9      20.520353   19.426404   23.058456 H          1 MOL1         0.1015
      14    N1      20.488327   17.318180   23.334689 N.4        1 MOL1        -0.4809
      15    H10     19.906624   16.503148   23.087578 H          1 MOL1         0.3726
      16    H11     20.492922   17.336242   24.366609 H          1 MOL1         0.3726
      17    C5      21.911331   17.147509   22.813828 C.3        1 MOL1        -0.0677
      18    H12     22.343101   16.240892   23.243459 H          1 MOL1         0.1026
      19    H13     21.891532   17.063174   21.725534 H          1 MOL1         0.1026
      20    H14     22.507938   18.013850   23.107446 H          1 MOL1         0.1026
@<TRIPOS>BOND
    1     1     2    1
    2     1     3    1
    3     1     4    1
    4     1     5    1
    5     5     6    1
    6     5     7    1
    7     5     8    1
    8     8     9    1
    9     8    10    1
   10     8    11    1
   11    11    12    1
   12    11    13    1
   13    11    14    1
   14    14    15    1
   15    14    16    1
   16    14    17    1
   17    17    18    1
   18    17    19    1
   19    17    20    1
@<TRIPOS>SUBSTRUCTURE
       1 MOL1            1 RESIDUE      1      MOL     
@<SCITEGIC>MOL_PROPERTY
VConf Rank
SciTegic.value.IntegerValue
426

@<SCITEGIC>MOL_PROPERTY
Conf_Id
SciTegic.value.IntegerValue
53

@<SCITEGIC>MOL_PROPERTY
Delta U+W
SciTegic.value.DoubleValue
0.379

@<SCITEGIC>MOL_PROPERTY
U+W
SciTegic.value.DoubleValue
15.717

@<SCITEGIC>MOL_PROPERTY
Grad RMS
SciTegic.value.DoubleValue
0.000000

@<SCITEGIC>MOL_PROPERTY
U
SciTegic.value.DoubleValue
70.163

@<SCITEGIC>MOL_PROPERTY
W
SciTegic.value.DoubleValue
-54.446

@<SCITEGIC>MOL_PROPERTY
W(PB)
SciTegic.value.DoubleValue
-56.322

@<SCITEGIC>MOL_PROPERTY
W(SA)
SciTegic.value.DoubleValue
1.876

@<SCITEGIC>MOL_PROPERTY
Valence
SciTegic.value.DoubleValue
1.420

@<SCITEGIC>MOL_PROPERTY
Coulomb
SciTegic.value.DoubleValue
68.566

@<SCITEGIC>MOL_PROPERTY
VdW
SciTegic.value.DoubleValue
0.177

@<SCITEGIC>MOL_PROPERTY
VdW6
SciTegic.value.DoubleValue
-4.267

@<SCITEGIC>MOL_PROPERTY
VdW12
SciTegic.value.DoubleValue
4.445

@<SCITEGIC>MOL_PROPERTY
Bond
SciTegic.value.DoubleValue
0.146

@<SCITEGIC>MOL_PROPERTY
Angle
SciTegic.value.DoubleValue
0.581

@<SCITEGIC>MOL_PROPERTY
Pdih
SciTegic.value.DoubleValue
0.693

@<SCITEGIC>MOL_PROPERTY
Idih
SciTegic.value.DoubleValue
0.000

@<SCITEGIC>MOL_PROPERTY
Tether
SciTegic.value.DoubleValue
0.000

@<TRIPOS>MOLECULE
guest-s9_confgen4.mol2 : confsearch ligand conformer 427
          20          19           1
SMALL
USER_CHARGES
 
@<TRIPOS>ATOM
       1    C1      20.763472   19.764018   19.423379 C.3        1 MOL1        -0.2224
       2    H1      20.084218   19.945097   18.580275 H          1 MOL1         0.1052
       3    H2      21.484460   20.591158   19.457464 H          1 MOL1         0.1052
       4    H3      21.315670   18.837868   19.217258 H          1 MOL1         0.1052
       5    C2      19.974763   19.658164   20.746517 C.3        1 MOL1        -0.1209
       6    H4      19.238676   18.847271   20.661167 H          1 MOL1         0.1041
       7    H5      19.408544   20.586220   20.908660 H          1 MOL1         0.1041
       8    C3      20.909882   19.400674   21.951497 C.3        1 MOL1        -0.1274
       9    H6      21.458028   18.460714   21.807439 H          1 MOL1         0.1041
      10    H7      21.667246   20.194267   21.998998 H          1 MOL1         0.1041
      11    C4      20.156759   19.367662   23.299969 C.3        1 MOL1         0.0313
      12    H8      19.664084   20.330969   23.454696 H          1 MOL1         0.1015
      13    H9      20.872291   19.223438   24.113422 H          1 MOL1         0.1015
      14    N1      19.092900   18.287461   23.426460 N.4        1 MOL1        -0.4809
      15    H10     18.395994   18.384534   22.673513 H          1 MOL1         0.3726
      16    H11     18.561212   18.427647   24.299890 H          1 MOL1         0.3726
      17    C5      19.712813   16.894439   23.414929 C.3        1 MOL1        -0.0677
      18    H12     20.431271   16.813996   24.233467 H          1 MOL1         0.1026
      19    H13     18.923609   16.150443   23.543614 H          1 MOL1         0.1026
      20    H14     20.218158   16.731063   22.461016 H          1 MOL1         0.1026
@<TRIPOS>BOND
    1     1     2    1
    2     1     3    1
    3     1     4    1
    4     1     5    1
    5     5     6    1
    6     5     7    1
    7     5     8    1
    8     8     9    1
    9     8    10    1
   10     8    11    1
   11    11    12    1
   12    11    13    1
   13    11    14    1
   14    14    15    1
   15    14    16    1
   16    14    17    1
   17    17    18    1
   18    17    19    1
   19    17    20    1
@<TRIPOS>SUBSTRUCTURE
       1 MOL1            1 RESIDUE      1      MOL     
@<SCITEGIC>MOL_PROPERTY
VConf Rank
SciTegic.value.IntegerValue
427

@<SCITEGIC>MOL_PROPERTY
Conf_Id
SciTegic.value.IntegerValue
49

@<SCITEGIC>MOL_PROPERTY
Delta U+W
SciTegic.value.DoubleValue
0.268

@<SCITEGIC>MOL_PROPERTY
U+W
SciTegic.value.DoubleValue
15.607

@<SCITEGIC>MOL_PROPERTY
Grad RMS
SciTegic.value.DoubleValue
0.000000

@<SCITEGIC>MOL_PROPERTY
U
SciTegic.value.DoubleValue
70.298

@<SCITEGIC>MOL_PROPERTY
W
SciTegic.value.DoubleValue
-54.692

@<SCITEGIC>MOL_PROPERTY
W(PB)
SciTegic.value.DoubleValue
-56.576

@<SCITEGIC>MOL_PROPERTY
W(SA)
SciTegic.value.DoubleValue
1.885

@<SCITEGIC>MOL_PROPERTY
Valence
SciTegic.value.DoubleValue
1.245

@<SCITEGIC>MOL_PROPERTY
Coulomb
SciTegic.value.DoubleValue
68.933

@<SCITEGIC>MOL_PROPERTY
VdW
SciTegic.value.DoubleValue
0.120

@<SCITEGIC>MOL_PROPERTY
VdW6
SciTegic.value.DoubleValue
-4.430

@<SCITEGIC>MOL_PROPERTY
VdW12
SciTegic.value.DoubleValue
4.550

@<SCITEGIC>MOL_PROPERTY
Bond
SciTegic.value.DoubleValue
0.148

@<SCITEGIC>MOL_PROPERTY
Angle
SciTegic.value.DoubleValue
0.587

@<SCITEGIC>MOL_PROPERTY
Pdih
SciTegic.value.DoubleValue
0.509

@<SCITEGIC>MOL_PROPERTY
Idih
SciTegic.value.DoubleValue
0.000

@<SCITEGIC>MOL_PROPERTY
Tether
SciTegic.value.DoubleValue
0.000

@<TRIPOS>MOLECULE
guest-s9_confgen4.mol2 : confsearch ligand conformer 428
          20          19           1
SMALL
USER_CHARGES
 
@<TRIPOS>ATOM
       1    C1      21.047666   17.779324   24.373601 C.3        1 MOL1        -0.2224
       2    H1      20.188981   17.211669   24.755176 H          1 MOL1         0.1052
       3    H2      21.870027   17.074790   24.193341 H          1 MOL1         0.1052
       4    H3      21.367696   18.474406   25.160647 H          1 MOL1         0.1052
       5    C2      20.678782   18.546440   23.085274 C.3        1 MOL1        -0.1209
       6    H4      21.547932   19.125986   22.743668 H          1 MOL1         0.1041
       7    H5      19.882643   19.266050   23.317373 H          1 MOL1         0.1041
       8    C3      20.213435   17.590028   21.962620 C.3        1 MOL1        -0.1274
       9    H6      20.970163   16.806729   21.822754 H          1 MOL1         0.1041
      10    H7      19.292667   17.076853   22.269854 H          1 MOL1         0.1041
      11    C4      19.985779   18.280002   20.598458 C.3        1 MOL1         0.0313
      12    H8      19.725395   17.507866   19.869931 H          1 MOL1         0.1015
      13    H9      20.906253   18.760041   20.257008 H          1 MOL1         0.1015
      14    N1      18.868144   19.310908   20.561210 N.4        1 MOL1        -0.4809
      15    H10     18.111918   19.045346   21.209623 H          1 MOL1         0.3726
      16    H11     18.429346   19.303427   19.627182 H          1 MOL1         0.3726
      17    C5      19.392154   20.712372   20.857784 C.3        1 MOL1        -0.0677
      18    H12     18.564652   21.422774   20.798401 H          1 MOL1         0.1026
      19    H13     19.826936   20.740503   21.857525 H          1 MOL1         0.1026
      20    H14     20.152668   20.973711   20.118859 H          1 MOL1         0.1026
@<TRIPOS>BOND
    1     1     2    1
    2     1     3    1
    3     1     4    1
    4     1     5    1
    5     5     6    1
    6     5     7    1
    7     5     8    1
    8     8     9    1
    9     8    10    1
   10     8    11    1
   11    11    12    1
   12    11    13    1
   13    11    14    1
   14    14    15    1
   15    14    16    1
   16    14    17    1
   17    17    18    1
   18    17    19    1
   19    17    20    1
@<TRIPOS>SUBSTRUCTURE
       1 MOL1            1 RESIDUE      1      MOL     
@<SCITEGIC>MOL_PROPERTY
VConf Rank
SciTegic.value.IntegerValue
428

@<SCITEGIC>MOL_PROPERTY
Conf_Id
SciTegic.value.IntegerValue
65

@<SCITEGIC>MOL_PROPERTY
Delta U+W
SciTegic.value.DoubleValue
1.775

@<SCITEGIC>MOL_PROPERTY
U+W
SciTegic.value.DoubleValue
17.114

@<SCITEGIC>MOL_PROPERTY
Grad RMS
SciTegic.value.DoubleValue
0.000000

@<SCITEGIC>MOL_PROPERTY
U
SciTegic.value.DoubleValue
71.726

@<SCITEGIC>MOL_PROPERTY
W
SciTegic.value.DoubleValue
-54.613

@<SCITEGIC>MOL_PROPERTY
W(PB)
SciTegic.value.DoubleValue
-56.495

@<SCITEGIC>MOL_PROPERTY
W(SA)
SciTegic.value.DoubleValue
1.883

@<SCITEGIC>MOL_PROPERTY
Valence
SciTegic.value.DoubleValue
2.885

@<SCITEGIC>MOL_PROPERTY
Coulomb
SciTegic.value.DoubleValue
68.822

@<SCITEGIC>MOL_PROPERTY
VdW
SciTegic.value.DoubleValue
0.019

@<SCITEGIC>MOL_PROPERTY
VdW6
SciTegic.value.DoubleValue
-4.600

@<SCITEGIC>MOL_PROPERTY
VdW12
SciTegic.value.DoubleValue
4.619

@<SCITEGIC>MOL_PROPERTY
Bond
SciTegic.value.DoubleValue
0.152

@<SCITEGIC>MOL_PROPERTY
Angle
SciTegic.value.DoubleValue
0.862

@<SCITEGIC>MOL_PROPERTY
Pdih
SciTegic.value.DoubleValue
1.871

@<SCITEGIC>MOL_PROPERTY
Idih
SciTegic.value.DoubleValue
0.000

@<SCITEGIC>MOL_PROPERTY
Tether
SciTegic.value.DoubleValue
0.000

@<TRIPOS>MOLECULE
guest-s9_confgen4.mol2 : confsearch ligand conformer 429
          20          19           1
SMALL
USER_CHARGES
 
@<TRIPOS>ATOM
       1    C1      18.414791   17.166853   22.616227 C.3        1 MOL1        -0.2224
       2    H1      18.085746   18.198834   22.440878 H          1 MOL1         0.1052
       3    H2      17.669741   16.500633   22.162322 H          1 MOL1         0.1052
       4    H3      18.410241   16.985117   23.698827 H          1 MOL1         0.1052
       5    C2      19.814588   16.904801   22.014505 C.3        1 MOL1        -0.1209
       6    H4      19.792947   17.092381   20.932399 H          1 MOL1         0.1041
       7    H5      20.059980   15.839904   22.131906 H          1 MOL1         0.1041
       8    C3      20.929617   17.749434   22.680314 C.3        1 MOL1        -0.1274
       9    H6      21.006444   17.474068   23.740519 H          1 MOL1         0.1041
      10    H7      21.897859   17.496630   22.228270 H          1 MOL1         0.1041
      11    C4      20.706269   19.273067   22.582200 C.3        1 MOL1         0.0313
      12    H8      21.516384   19.792053   23.100761 H          1 MOL1         0.1015
      13    H9      19.766103   19.539378   23.071008 H          1 MOL1         0.1015
      14    N1      20.659452   19.798683   21.160180 N.4        1 MOL1        -0.4809
      15    H10     19.909423   19.326037   20.634298 H          1 MOL1         0.3726
      16    H11     21.533464   19.563846   20.665354 H          1 MOL1         0.3726
      17    C5      20.437729   21.305093   21.169376 C.3        1 MOL1        -0.0677
      18    H12     21.259499   21.786339   21.704035 H          1 MOL1         0.1026
      19    H13     20.404926   21.669304   20.140180 H          1 MOL1         0.1026
      20    H14     19.492019   21.526661   21.668677 H          1 MOL1         0.1026
@<TRIPOS>BOND
    1     1     2    1
    2     1     3    1
    3     1     4    1
    4     1     5    1
    5     5     6    1
    6     5     7    1
    7     5     8    1
    8     8     9    1
    9     8    10    1
   10     8    11    1
   11    11    12    1
   12    11    13    1
   13    11    14    1
   14    14    15    1
   15    14    16    1
   16    14    17    1
   17    17    18    1
   18    17    19    1
   19    17    20    1
@<TRIPOS>SUBSTRUCTURE
       1 MOL1            1 RESIDUE      1      MOL     
@<SCITEGIC>MOL_PROPERTY
VConf Rank
SciTegic.value.IntegerValue
429

@<SCITEGIC>MOL_PROPERTY
Conf_Id
SciTegic.value.IntegerValue
23

@<SCITEGIC>MOL_PROPERTY
Delta U+W
SciTegic.value.DoubleValue
0.896

@<SCITEGIC>MOL_PROPERTY
U+W
SciTegic.value.DoubleValue
16.234

@<SCITEGIC>MOL_PROPERTY
Grad RMS
SciTegic.value.DoubleValue
0.000000

@<SCITEGIC>MOL_PROPERTY
U
SciTegic.value.DoubleValue
70.374

@<SCITEGIC>MOL_PROPERTY
W
SciTegic.value.DoubleValue
-54.140

@<SCITEGIC>MOL_PROPERTY
W(PB)
SciTegic.value.DoubleValue
-56.046

@<SCITEGIC>MOL_PROPERTY
W(SA)
SciTegic.value.DoubleValue
1.907

@<SCITEGIC>MOL_PROPERTY
Valence
SciTegic.value.DoubleValue
1.257

@<SCITEGIC>MOL_PROPERTY
Coulomb
SciTegic.value.DoubleValue
69.240

@<SCITEGIC>MOL_PROPERTY
VdW
SciTegic.value.DoubleValue
-0.123

@<SCITEGIC>MOL_PROPERTY
VdW6
SciTegic.value.DoubleValue
-4.336

@<SCITEGIC>MOL_PROPERTY
VdW12
SciTegic.value.DoubleValue
4.213

@<SCITEGIC>MOL_PROPERTY
Bond
SciTegic.value.DoubleValue
0.128

@<SCITEGIC>MOL_PROPERTY
Angle
SciTegic.value.DoubleValue
0.603

@<SCITEGIC>MOL_PROPERTY
Pdih
SciTegic.value.DoubleValue
0.526

@<SCITEGIC>MOL_PROPERTY
Idih
SciTegic.value.DoubleValue
0.000

@<SCITEGIC>MOL_PROPERTY
Tether
SciTegic.value.DoubleValue
0.000

@<TRIPOS>MOLECULE
guest-s9_confgen4.mol2 : confsearch ligand conformer 430
          20          19           1
SMALL
USER_CHARGES
 
@<TRIPOS>ATOM
       1    C1      21.510498   19.450945   23.833917 C.3        1 MOL1        -0.2224
       2    H1      22.076150   20.356020   23.577117 H          1 MOL1         0.1052
       3    H2      21.743661   19.195398   24.875700 H          1 MOL1         0.1052
       4    H3      21.873433   18.629809   23.203030 H          1 MOL1         0.1052
       5    C2      19.991166   19.676395   23.657929 C.3        1 MOL1        -0.1209
       6    H4      19.658329   20.440627   24.374291 H          1 MOL1         0.1041
       7    H5      19.448193   18.758542   23.921245 H          1 MOL1         0.1041
       8    C3      19.606513   20.132424   22.228217 C.3        1 MOL1        -0.1274
       9    H6      18.522591   20.300841   22.178292 H          1 MOL1         0.1041
      10    H7      20.076189   21.102998   22.020469 H          1 MOL1         0.1041
      11    C4      20.017201   19.139517   21.120769 C.3        1 MOL1         0.0313
      12    H8      21.101004   19.001767   21.133498 H          1 MOL1         0.1015
      13    H9      19.739309   19.548705   20.146152 H          1 MOL1         0.1015
      14    N1      19.370498   17.773358   21.247224 N.4        1 MOL1        -0.4809
      15    H10     18.343085   17.864292   21.240094 H          1 MOL1         0.3726
      16    H11     19.603965   17.356124   22.160404 H          1 MOL1         0.3726
      17    C5      19.835824   16.870481   20.112848 C.3        1 MOL1        -0.0677
      18    H12     20.921598   16.762943   20.160703 H          1 MOL1         0.1026
      19    H13     19.363839   15.891025   20.217082 H          1 MOL1         0.1026
      20    H14     19.550426   17.316750   19.157779 H          1 MOL1         0.1026
@<TRIPOS>BOND
    1     1     2    1
    2     1     3    1
    3     1     4    1
    4     1     5    1
    5     5     6    1
    6     5     7    1
    7     5     8    1
    8     8     9    1
    9     8    10    1
   10     8    11    1
   11    11    12    1
   12    11    13    1
   13    11    14    1
   14    14    15    1
   15    14    16    1
   16    14    17    1
   17    17    18    1
   18    17    19    1
   19    17    20    1
@<TRIPOS>SUBSTRUCTURE
       1 MOL1            1 RESIDUE      1      MOL     
@<SCITEGIC>MOL_PROPERTY
VConf Rank
SciTegic.value.IntegerValue
430

@<SCITEGIC>MOL_PROPERTY
Conf_Id
SciTegic.value.IntegerValue
24

@<SCITEGIC>MOL_PROPERTY
Delta U+W
SciTegic.value.DoubleValue
0.792

@<SCITEGIC>MOL_PROPERTY
U+W
SciTegic.value.DoubleValue
16.130

@<SCITEGIC>MOL_PROPERTY
Grad RMS
SciTegic.value.DoubleValue
0.000000

@<SCITEGIC>MOL_PROPERTY
U
SciTegic.value.DoubleValue
70.374

@<SCITEGIC>MOL_PROPERTY
W
SciTegic.value.DoubleValue
-54.243

@<SCITEGIC>MOL_PROPERTY
W(PB)
SciTegic.value.DoubleValue
-56.130

@<SCITEGIC>MOL_PROPERTY
W(SA)
SciTegic.value.DoubleValue
1.887

@<SCITEGIC>MOL_PROPERTY
Valence
SciTegic.value.DoubleValue
1.257

@<SCITEGIC>MOL_PROPERTY
Coulomb
SciTegic.value.DoubleValue
69.240

@<SCITEGIC>MOL_PROPERTY
VdW
SciTegic.value.DoubleValue
-0.123

@<SCITEGIC>MOL_PROPERTY
VdW6
SciTegic.value.DoubleValue
-4.336

@<SCITEGIC>MOL_PROPERTY
VdW12
SciTegic.value.DoubleValue
4.213

@<SCITEGIC>MOL_PROPERTY
Bond
SciTegic.value.DoubleValue
0.128

@<SCITEGIC>MOL_PROPERTY
Angle
SciTegic.value.DoubleValue
0.603

@<SCITEGIC>MOL_PROPERTY
Pdih
SciTegic.value.DoubleValue
0.526

@<SCITEGIC>MOL_PROPERTY
Idih
SciTegic.value.DoubleValue
0.000

@<SCITEGIC>MOL_PROPERTY
Tether
SciTegic.value.DoubleValue
0.000

@<TRIPOS>MOLECULE
guest-s9_confgen4.mol2 : confsearch ligand conformer 431
          20          19           1
SMALL
USER_CHARGES
 
@<TRIPOS>ATOM
       1    C1      19.968988   18.189078   19.942278 C.3        1 MOL1        -0.2224
       2    H1      19.641185   17.846391   18.952162 H          1 MOL1         0.1052
       3    H2      19.380095   19.081753   20.183908 H          1 MOL1         0.1052
       4    H3      21.026896   18.471231   19.862372 H          1 MOL1         0.1052
       5    C2      19.762727   17.071652   20.990265 C.3        1 MOL1        -0.1209
       6    H4      20.193829   16.139645   20.598371 H          1 MOL1         0.1041
       7    H5      18.687448   16.880149   21.113580 H          1 MOL1         0.1041
       8    C3      20.401709   17.361813   22.372418 C.3        1 MOL1        -0.1274
       9    H6      20.252306   16.477542   23.006108 H          1 MOL1         0.1041
      10    H7      21.488779   17.480969   22.273499 H          1 MOL1         0.1041
      11    C4      19.801940   18.577458   23.110503 C.3        1 MOL1         0.0313
      12    H8      20.021361   18.491243   24.177726 H          1 MOL1         0.1015
      13    H9      18.716097   18.585369   22.987352 H          1 MOL1         0.1015
      14    N1      20.347022   19.917570   22.654452 N.4        1 MOL1        -0.4809
      15    H10     20.212117   20.025844   21.639220 H          1 MOL1         0.3726
      16    H11     21.367428   19.953628   22.801015 H          1 MOL1         0.3726
      17    C5      19.658027   21.045175   23.410894 C.3        1 MOL1        -0.0677
      18    H12     18.584330   21.006701   23.214776 H          1 MOL1         0.1026
      19    H13     19.842654   20.925892   24.480684 H          1 MOL1         0.1026
      20    H14     20.060154   22.002668   23.072558 H          1 MOL1         0.1026
@<TRIPOS>BOND
    1     1     2    1
    2     1     3    1
    3     1     4    1
    4     1     5    1
    5     5     6    1
    6     5     7    1
    7     5     8    1
    8     8     9    1
    9     8    10    1
   10     8    11    1
   11    11    12    1
   12    11    13    1
   13    11    14    1
   14    14    15    1
   15    14    16    1
   16    14    17    1
   17    17    18    1
   18    17    19    1
   19    17    20    1
@<TRIPOS>SUBSTRUCTURE
       1 MOL1            1 RESIDUE      1      MOL     
@<SCITEGIC>MOL_PROPERTY
VConf Rank
SciTegic.value.IntegerValue
431

@<SCITEGIC>MOL_PROPERTY
Conf_Id
SciTegic.value.IntegerValue
26

@<SCITEGIC>MOL_PROPERTY
Delta U+W
SciTegic.value.DoubleValue
2.888

@<SCITEGIC>MOL_PROPERTY
U+W
SciTegic.value.DoubleValue
18.226

@<SCITEGIC>MOL_PROPERTY
Grad RMS
SciTegic.value.DoubleValue
0.000000

@<SCITEGIC>MOL_PROPERTY
U
SciTegic.value.DoubleValue
72.042

@<SCITEGIC>MOL_PROPERTY
W
SciTegic.value.DoubleValue
-53.816

@<SCITEGIC>MOL_PROPERTY
W(PB)
SciTegic.value.DoubleValue
-55.689

@<SCITEGIC>MOL_PROPERTY
W(SA)
SciTegic.value.DoubleValue
1.873

@<SCITEGIC>MOL_PROPERTY
Valence
SciTegic.value.DoubleValue
2.428

@<SCITEGIC>MOL_PROPERTY
Coulomb
SciTegic.value.DoubleValue
69.829

@<SCITEGIC>MOL_PROPERTY
VdW
SciTegic.value.DoubleValue
-0.215

@<SCITEGIC>MOL_PROPERTY
VdW6
SciTegic.value.DoubleValue
-4.563

@<SCITEGIC>MOL_PROPERTY
VdW12
SciTegic.value.DoubleValue
4.348

@<SCITEGIC>MOL_PROPERTY
Bond
SciTegic.value.DoubleValue
0.137

@<SCITEGIC>MOL_PROPERTY
Angle
SciTegic.value.DoubleValue
0.936

@<SCITEGIC>MOL_PROPERTY
Pdih
SciTegic.value.DoubleValue
1.356

@<SCITEGIC>MOL_PROPERTY
Idih
SciTegic.value.DoubleValue
0.000

@<SCITEGIC>MOL_PROPERTY
Tether
SciTegic.value.DoubleValue
0.000

@<TRIPOS>MOLECULE
guest-s9_confgen4.mol2 : confsearch ligand conformer 432
          20          19           1
SMALL
USER_CHARGES
 
@<TRIPOS>ATOM
       1    C1      21.365221   17.148201   21.769109 C.3        1 MOL1        -0.2224
       2    H1      21.960365   16.350536   21.305694 H          1 MOL1         0.1052
       3    H2      21.347969   16.963500   22.851123 H          1 MOL1         0.1052
       4    H3      20.345638   17.057026   21.376443 H          1 MOL1         0.1052
       5    C2      21.977605   18.529839   21.444265 C.3        1 MOL1        -0.1209
       6    H4      21.893115   18.722584   20.365461 H          1 MOL1         0.1041
       7    H5      23.054219   18.496242   21.662990 H          1 MOL1         0.1041
       8    C3      21.355501   19.709607   22.234182 C.3        1 MOL1        -0.1274
       9    H6      21.500026   19.565613   23.313110 H          1 MOL1         0.1041
      10    H7      21.911523   20.620357   21.974967 H          1 MOL1         0.1041
      11    C4      19.863995   19.965358   21.930398 C.3        1 MOL1         0.0313
      12    H8      19.681504   19.856436   20.858430 H          1 MOL1         0.1015
      13    H9      19.612221   20.990231   22.214630 H          1 MOL1         0.1015
      14    N1      18.908387   19.052983   22.675642 N.4        1 MOL1        -0.4809
      15    H10     19.029330   19.168399   23.693511 H          1 MOL1         0.3726
      16    H11     19.138703   18.067984   22.482378 H          1 MOL1         0.3726
      17    C5      17.472977   19.358344   22.269732 C.3        1 MOL1        -0.0677
      18    H12     17.360913   19.198018   21.195254 H          1 MOL1         0.1026
      19    H13     16.797150   18.694700   22.813613 H          1 MOL1         0.1026
      20    H14     17.243584   20.397794   22.514044 H          1 MOL1         0.1026
@<TRIPOS>BOND
    1     1     2    1
    2     1     3    1
    3     1     4    1
    4     1     5    1
    5     5     6    1
    6     5     7    1
    7     5     8    1
    8     8     9    1
    9     8    10    1
   10     8    11    1
   11    11    12    1
   12    11    13    1
   13    11    14    1
   14    14    15    1
   15    14    16    1
   16    14    17    1
   17    17    18    1
   18    17    19    1
   19    17    20    1
@<TRIPOS>SUBSTRUCTURE
       1 MOL1            1 RESIDUE      1      MOL     
@<SCITEGIC>MOL_PROPERTY
VConf Rank
SciTegic.value.IntegerValue
432

@<SCITEGIC>MOL_PROPERTY
Conf_Id
SciTegic.value.IntegerValue
5

@<SCITEGIC>MOL_PROPERTY
Delta U+W
SciTegic.value.DoubleValue
2.950

@<SCITEGIC>MOL_PROPERTY
U+W
SciTegic.value.DoubleValue
18.289

@<SCITEGIC>MOL_PROPERTY
Grad RMS
SciTegic.value.DoubleValue
0.000000

@<SCITEGIC>MOL_PROPERTY
U
SciTegic.value.DoubleValue
72.042

@<SCITEGIC>MOL_PROPERTY
W
SciTegic.value.DoubleValue
-53.753

@<SCITEGIC>MOL_PROPERTY
W(PB)
SciTegic.value.DoubleValue
-55.644

@<SCITEGIC>MOL_PROPERTY
W(SA)
SciTegic.value.DoubleValue
1.891

@<SCITEGIC>MOL_PROPERTY
Valence
SciTegic.value.DoubleValue
2.428

@<SCITEGIC>MOL_PROPERTY
Coulomb
SciTegic.value.DoubleValue
69.829

@<SCITEGIC>MOL_PROPERTY
VdW
SciTegic.value.DoubleValue
-0.215

@<SCITEGIC>MOL_PROPERTY
VdW6
SciTegic.value.DoubleValue
-4.563

@<SCITEGIC>MOL_PROPERTY
VdW12
SciTegic.value.DoubleValue
4.348

@<SCITEGIC>MOL_PROPERTY
Bond
SciTegic.value.DoubleValue
0.137

@<SCITEGIC>MOL_PROPERTY
Angle
SciTegic.value.DoubleValue
0.936

@<SCITEGIC>MOL_PROPERTY
Pdih
SciTegic.value.DoubleValue
1.356

@<SCITEGIC>MOL_PROPERTY
Idih
SciTegic.value.DoubleValue
0.000

@<SCITEGIC>MOL_PROPERTY
Tether
SciTegic.value.DoubleValue
0.000

@<TRIPOS>MOLECULE
guest-s9_confgen4.mol2 : confsearch ligand conformer 433
          20          19           1
SMALL
USER_CHARGES
 
@<TRIPOS>ATOM
       1    C1      21.220019   17.234190   20.583098 C.3        1 MOL1        -0.2224
       2    H1      22.225989   16.981734   20.942748 H          1 MOL1         0.1052
       3    H2      20.491625   16.676602   21.185024 H          1 MOL1         0.1052
       4    H3      21.135918   16.877972   19.548206 H          1 MOL1         0.1052
       5    C2      20.971102   18.758387   20.653850 C.3        1 MOL1        -0.1209
       6    H4      19.961494   18.986793   20.286040 H          1 MOL1         0.1041
       7    H5      21.664776   19.265641   19.968719 H          1 MOL1         0.1041
       8    C3      21.161959   19.339356   22.076996 C.3        1 MOL1        -0.1274
       9    H6      22.202655   19.187271   22.392207 H          1 MOL1         0.1041
      10    H7      21.011156   20.426222   22.049940 H          1 MOL1         0.1041
      11    C4      20.230003   18.715703   23.140974 C.3        1 MOL1         0.0313
      12    H8      20.423372   19.178074   24.112179 H          1 MOL1         0.1015
      13    H9      20.453599   17.649677   23.228562 H          1 MOL1         0.1015
      14    N1      18.741906   18.846412   22.854956 N.4        1 MOL1        -0.4809
      15    H10     18.207879   18.285655   23.537174 H          1 MOL1         0.3726
      16    H11     18.521473   18.432170   21.937396 H          1 MOL1         0.3726
      17    C5      18.292587   20.302157   22.914443 C.3        1 MOL1        -0.0677
      18    H12     18.818161   20.874652   22.147625 H          1 MOL1         0.1026
      19    H13     17.216221   20.352137   22.735992 H          1 MOL1         0.1026
      20    H14     18.521089   20.708630   23.901966 H          1 MOL1         0.1026
@<TRIPOS>BOND
    1     1     2    1
    2     1     3    1
    3     1     4    1
    4     1     5    1
    5     5     6    1
    6     5     7    1
    7     5     8    1
    8     8     9    1
    9     8    10    1
   10     8    11    1
   11    11    12    1
   12    11    13    1
   13    11    14    1
   14    14    15    1
   15    14    16    1
   16    14    17    1
   17    17    18    1
   18    17    19    1
   19    17    20    1
@<TRIPOS>SUBSTRUCTURE
       1 MOL1            1 RESIDUE      1      MOL     
@<SCITEGIC>MOL_PROPERTY
VConf Rank
SciTegic.value.IntegerValue
433

@<SCITEGIC>MOL_PROPERTY
Conf_Id
SciTegic.value.IntegerValue
52

@<SCITEGIC>MOL_PROPERTY
Delta U+W
SciTegic.value.DoubleValue
0.784

@<SCITEGIC>MOL_PROPERTY
U+W
SciTegic.value.DoubleValue
16.122

@<SCITEGIC>MOL_PROPERTY
Grad RMS
SciTegic.value.DoubleValue
0.000000

@<SCITEGIC>MOL_PROPERTY
U
SciTegic.value.DoubleValue
70.777

@<SCITEGIC>MOL_PROPERTY
W
SciTegic.value.DoubleValue
-54.655

@<SCITEGIC>MOL_PROPERTY
W(PB)
SciTegic.value.DoubleValue
-56.491

@<SCITEGIC>MOL_PROPERTY
W(SA)
SciTegic.value.DoubleValue
1.836

@<SCITEGIC>MOL_PROPERTY
Valence
SciTegic.value.DoubleValue
1.529

@<SCITEGIC>MOL_PROPERTY
Coulomb
SciTegic.value.DoubleValue
69.166

@<SCITEGIC>MOL_PROPERTY
VdW
SciTegic.value.DoubleValue
0.082

@<SCITEGIC>MOL_PROPERTY
VdW6
SciTegic.value.DoubleValue
-5.166

@<SCITEGIC>MOL_PROPERTY
VdW12
SciTegic.value.DoubleValue
5.248

@<SCITEGIC>MOL_PROPERTY
Bond
SciTegic.value.DoubleValue
0.171

@<SCITEGIC>MOL_PROPERTY
Angle
SciTegic.value.DoubleValue
0.752

@<SCITEGIC>MOL_PROPERTY
Pdih
SciTegic.value.DoubleValue
0.605

@<SCITEGIC>MOL_PROPERTY
Idih
SciTegic.value.DoubleValue
0.000

@<SCITEGIC>MOL_PROPERTY
Tether
SciTegic.value.DoubleValue
0.000

@<TRIPOS>MOLECULE
guest-s9_confgen4.mol2 : confsearch ligand conformer 434
          20          19           1
SMALL
USER_CHARGES
 
@<TRIPOS>ATOM
       1    C1      21.918826   19.835530   22.231995 C.3        1 MOL1        -0.2224
       2    H1      22.873698   20.373116   22.165738 H          1 MOL1         0.1052
       3    H2      21.213772   20.497628   22.747435 H          1 MOL1         0.1052
       4    H3      22.082268   18.941834   22.848358 H          1 MOL1         0.1052
       5    C2      21.417241   19.459591   20.819039 C.3        1 MOL1        -0.1209
       6    H4      22.247778   18.999830   20.265096 H          1 MOL1         0.1041
       7    H5      21.153830   20.373096   20.267548 H          1 MOL1         0.1041
       8    C3      20.219586   18.475608   20.803984 C.3        1 MOL1        -0.1274
       9    H6      20.015251   18.210908   19.758151 H          1 MOL1         0.1041
      10    H7      20.493972   17.535942   21.299607 H          1 MOL1         0.1041
      11    C4      18.912913   19.043502   21.405360 C.3        1 MOL1         0.0313
      12    H8      18.067612   18.442452   21.060935 H          1 MOL1         0.1015
      13    H9      18.766638   20.063500   21.041112 H          1 MOL1         0.1015
      14    N1      18.843928   19.075862   22.924144 N.4        1 MOL1        -0.4809
      15    H10     18.030967   19.638070   23.221088 H          1 MOL1         0.3726
      16    H11     19.665373   19.566113   23.304568 H          1 MOL1         0.3726
      17    C5      18.738724   17.669250   23.503020 C.3        1 MOL1        -0.0677
      18    H12     17.852453   17.178393   23.095314 H          1 MOL1         0.1026
      19    H13     19.631799   17.099890   23.238702 H          1 MOL1         0.1026
      20    H14     18.655092   17.735174   24.590022 H          1 MOL1         0.1026
@<TRIPOS>BOND
    1     1     2    1
    2     1     3    1
    3     1     4    1
    4     1     5    1
    5     5     6    1
    6     5     7    1
    7     5     8    1
    8     8     9    1
    9     8    10    1
   10     8    11    1
   11    11    12    1
   12    11    13    1
   13    11    14    1
   14    14    15    1
   15    14    16    1
   16    14    17    1
   17    17    18    1
   18    17    19    1
   19    17    20    1
@<TRIPOS>SUBSTRUCTURE
       1 MOL1            1 RESIDUE      1      MOL     
@<SCITEGIC>MOL_PROPERTY
VConf Rank
SciTegic.value.IntegerValue
434

@<SCITEGIC>MOL_PROPERTY
Conf_Id
SciTegic.value.IntegerValue
55

@<SCITEGIC>MOL_PROPERTY
Delta U+W
SciTegic.value.DoubleValue
2.745

@<SCITEGIC>MOL_PROPERTY
U+W
SciTegic.value.DoubleValue
18.083

@<SCITEGIC>MOL_PROPERTY
Grad RMS
SciTegic.value.DoubleValue
0.000000

@<SCITEGIC>MOL_PROPERTY
U
SciTegic.value.DoubleValue
72.490

@<SCITEGIC>MOL_PROPERTY
W
SciTegic.value.DoubleValue
-54.407

@<SCITEGIC>MOL_PROPERTY
W(PB)
SciTegic.value.DoubleValue
-56.269

@<SCITEGIC>MOL_PROPERTY
W(SA)
SciTegic.value.DoubleValue
1.861

@<SCITEGIC>MOL_PROPERTY
Valence
SciTegic.value.DoubleValue
2.738

@<SCITEGIC>MOL_PROPERTY
Coulomb
SciTegic.value.DoubleValue
69.795

@<SCITEGIC>MOL_PROPERTY
VdW
SciTegic.value.DoubleValue
-0.043

@<SCITEGIC>MOL_PROPERTY
VdW6
SciTegic.value.DoubleValue
-5.333

@<SCITEGIC>MOL_PROPERTY
VdW12
SciTegic.value.DoubleValue
5.290

@<SCITEGIC>MOL_PROPERTY
Bond
SciTegic.value.DoubleValue
0.182

@<SCITEGIC>MOL_PROPERTY
Angle
SciTegic.value.DoubleValue
1.135

@<SCITEGIC>MOL_PROPERTY
Pdih
SciTegic.value.DoubleValue
1.422

@<SCITEGIC>MOL_PROPERTY
Idih
SciTegic.value.DoubleValue
0.000

@<SCITEGIC>MOL_PROPERTY
Tether
SciTegic.value.DoubleValue
0.000

@<TRIPOS>MOLECULE
guest-s9_confgen4.mol2 : confsearch ligand conformer 435
          20          19           1
SMALL
USER_CHARGES
 
@<TRIPOS>ATOM
       1    C1      18.108753   18.069304   21.367445 C.3        1 MOL1        -0.2224
       2    H1      17.086308   17.709855   21.192602 H          1 MOL1         0.1052
       3    H2      18.457383   18.544253   20.441061 H          1 MOL1         0.1052
       4    H3      18.727999   17.187722   21.568688 H          1 MOL1         0.1052
       5    C2      18.131534   19.062894   22.551351 C.3        1 MOL1        -0.1209
       6    H4      17.889541   18.530921   23.482190 H          1 MOL1         0.1041
       7    H5      17.328046   19.798384   22.404771 H          1 MOL1         0.1041
       8    C3      19.467835   19.830276   22.719454 C.3        1 MOL1        -0.1274
       9    H6      19.687035   20.413374   21.816210 H          1 MOL1         0.1041
      10    H7      19.333753   20.566620   23.522825 H          1 MOL1         0.1041
      11    C4      20.676343   18.942420   23.097309 C.3        1 MOL1         0.0313
      12    H8      20.370151   18.234030   23.871194 H          1 MOL1         0.1015
      13    H9      21.467323   19.570460   23.514851 H          1 MOL1         0.1015
      14    N1      21.295701   18.149288   21.957202 N.4        1 MOL1        -0.4809
      15    H10     20.571619   17.596988   21.477088 H          1 MOL1         0.3726
      16    H11     21.957585   17.455399   22.338760 H          1 MOL1         0.3726
      17    C5      22.016586   19.065056   20.974138 C.3        1 MOL1        -0.0677
      18    H12     21.298487   19.754693   20.526530 H          1 MOL1         0.1026
      19    H13     22.787661   19.626761   21.505710 H          1 MOL1         0.1026
      20    H14     22.477511   18.457957   20.191905 H          1 MOL1         0.1026
@<TRIPOS>BOND
    1     1     2    1
    2     1     3    1
    3     1     4    1
    4     1     5    1
    5     5     6    1
    6     5     7    1
    7     5     8    1
    8     8     9    1
    9     8    10    1
   10     8    11    1
   11    11    12    1
   12    11    13    1
   13    11    14    1
   14    14    15    1
   15    14    16    1
   16    14    17    1
   17    17    18    1
   18    17    19    1
   19    17    20    1
@<TRIPOS>SUBSTRUCTURE
       1 MOL1            1 RESIDUE      1      MOL     
@<SCITEGIC>MOL_PROPERTY
VConf Rank
SciTegic.value.IntegerValue
435

@<SCITEGIC>MOL_PROPERTY
Conf_Id
SciTegic.value.IntegerValue
76

@<SCITEGIC>MOL_PROPERTY
Delta U+W
SciTegic.value.DoubleValue
2.799

@<SCITEGIC>MOL_PROPERTY
U+W
SciTegic.value.DoubleValue
18.137

@<SCITEGIC>MOL_PROPERTY
Grad RMS
SciTegic.value.DoubleValue
0.000000

@<SCITEGIC>MOL_PROPERTY
U
SciTegic.value.DoubleValue
72.490

@<SCITEGIC>MOL_PROPERTY
W
SciTegic.value.DoubleValue
-54.353

@<SCITEGIC>MOL_PROPERTY
W(PB)
SciTegic.value.DoubleValue
-56.201

@<SCITEGIC>MOL_PROPERTY
W(SA)
SciTegic.value.DoubleValue
1.848

@<SCITEGIC>MOL_PROPERTY
Valence
SciTegic.value.DoubleValue
2.738

@<SCITEGIC>MOL_PROPERTY
Coulomb
SciTegic.value.DoubleValue
69.795

@<SCITEGIC>MOL_PROPERTY
VdW
SciTegic.value.DoubleValue
-0.043

@<SCITEGIC>MOL_PROPERTY
VdW6
SciTegic.value.DoubleValue
-5.334

@<SCITEGIC>MOL_PROPERTY
VdW12
SciTegic.value.DoubleValue
5.290

@<SCITEGIC>MOL_PROPERTY
Bond
SciTegic.value.DoubleValue
0.182

@<SCITEGIC>MOL_PROPERTY
Angle
SciTegic.value.DoubleValue
1.135

@<SCITEGIC>MOL_PROPERTY
Pdih
SciTegic.value.DoubleValue
1.421

@<SCITEGIC>MOL_PROPERTY
Idih
SciTegic.value.DoubleValue
0.000

@<SCITEGIC>MOL_PROPERTY
Tether
SciTegic.value.DoubleValue
0.000

@<TRIPOS>MOLECULE
guest-s9_confgen4.mol2 : confsearch ligand conformer 436
          20          19           1
SMALL
USER_CHARGES
 
@<TRIPOS>ATOM
       1    C1      20.486177   20.765411   21.488296 C.3        1 MOL1        -0.2224
       2    H1      19.573787   20.605863   22.075782 H          1 MOL1         0.1052
       3    H2      21.213636   21.287317   22.123410 H          1 MOL1         0.1052
       4    H3      20.231266   21.432182   20.654461 H          1 MOL1         0.1052
       5    C2      21.066461   19.433288   20.959826 C.3        1 MOL1        -0.1209
       6    H4      21.933394   19.653457   20.321245 H          1 MOL1         0.1041
       7    H5      20.336464   18.935017   20.308987 H          1 MOL1         0.1041
       8    C3      21.515081   18.475234   22.090454 C.3        1 MOL1        -0.1274
       9    H6      21.954977   17.571827   21.648012 H          1 MOL1         0.1041
      10    H7      22.323046   18.956026   22.657621 H          1 MOL1         0.1041
      11    C4      20.406501   18.061483   23.086718 C.3        1 MOL1         0.0313
      12    H8      19.944598   18.943906   23.535651 H          1 MOL1         0.1015
      13    H9      20.877088   17.490648   23.891306 H          1 MOL1         0.1015
      14    N1      19.306477   17.178178   22.516927 N.4        1 MOL1        -0.4809
      15    H10     18.956029   16.552085   23.258543 H          1 MOL1         0.3726
      16    H11     19.689727   16.545728   21.798754 H          1 MOL1         0.3726
      17    C5      18.146609   18.003112   21.969721 C.3        1 MOL1        -0.0677
      18    H12     17.371414   17.327922   21.600780 H          1 MOL1         0.1026
      19    H13     17.740269   18.624535   22.770541 H          1 MOL1         0.1026
      20    H14     18.496970   18.636875   21.154482 H          1 MOL1         0.1026
@<TRIPOS>BOND
    1     1     2    1
    2     1     3    1
    3     1     4    1
    4     1     5    1
    5     5     6    1
    6     5     7    1
    7     5     8    1
    8     8     9    1
    9     8    10    1
   10     8    11    1
   11    11    12    1
   12    11    13    1
   13    11    14    1
   14    14    15    1
   15    14    16    1
   16    14    17    1
   17    17    18    1
   18    17    19    1
   19    17    20    1
@<TRIPOS>SUBSTRUCTURE
       1 MOL1            1 RESIDUE      1      MOL     
@<SCITEGIC>MOL_PROPERTY
VConf Rank
SciTegic.value.IntegerValue
436

@<SCITEGIC>MOL_PROPERTY
Conf_Id
SciTegic.value.IntegerValue
60

@<SCITEGIC>MOL_PROPERTY
Delta U+W
SciTegic.value.DoubleValue
1.788

@<SCITEGIC>MOL_PROPERTY
U+W
SciTegic.value.DoubleValue
17.127

@<SCITEGIC>MOL_PROPERTY
Grad RMS
SciTegic.value.DoubleValue
0.000000

@<SCITEGIC>MOL_PROPERTY
U
SciTegic.value.DoubleValue
72.122

@<SCITEGIC>MOL_PROPERTY
W
SciTegic.value.DoubleValue
-54.995

@<SCITEGIC>MOL_PROPERTY
W(PB)
SciTegic.value.DoubleValue
-56.810

@<SCITEGIC>MOL_PROPERTY
W(SA)
SciTegic.value.DoubleValue
1.815

@<SCITEGIC>MOL_PROPERTY
Valence
SciTegic.value.DoubleValue
3.197

@<SCITEGIC>MOL_PROPERTY
Coulomb
SciTegic.value.DoubleValue
69.115

@<SCITEGIC>MOL_PROPERTY
VdW
SciTegic.value.DoubleValue
-0.190

@<SCITEGIC>MOL_PROPERTY
VdW6
SciTegic.value.DoubleValue
-5.585

@<SCITEGIC>MOL_PROPERTY
VdW12
SciTegic.value.DoubleValue
5.395

@<SCITEGIC>MOL_PROPERTY
Bond
SciTegic.value.DoubleValue
0.177

@<SCITEGIC>MOL_PROPERTY
Angle
SciTegic.value.DoubleValue
1.207

@<SCITEGIC>MOL_PROPERTY
Pdih
SciTegic.value.DoubleValue
1.813

@<SCITEGIC>MOL_PROPERTY
Idih
SciTegic.value.DoubleValue
0.000

@<SCITEGIC>MOL_PROPERTY
Tether
SciTegic.value.DoubleValue
0.000

@<TRIPOS>MOLECULE
guest-s9_confgen4.mol2 : confsearch ligand conformer 437
          20          19           1
SMALL
USER_CHARGES
 
@<TRIPOS>ATOM
       1    C1      20.851815   17.504816   23.560492 C.3        1 MOL1        -0.2224
       2    H1      20.778841   16.433523   23.788195 H          1 MOL1         0.1052
       3    H2      21.557094   17.950941   24.273588 H          1 MOL1         0.1052
       4    H3      19.864168   17.948714   23.735303 H          1 MOL1         0.1052
       5    C2      21.325530   17.718905   22.104360 C.3        1 MOL1        -0.1209
       6    H4      20.622410   17.248107   21.405266 H          1 MOL1         0.1041
       7    H5      22.281642   17.195827   21.962679 H          1 MOL1         0.1041
       8    C3      21.519576   19.211735   21.742071 C.3        1 MOL1        -0.1274
       9    H6      22.307295   19.628774   22.383337 H          1 MOL1         0.1041
      10    H7      21.896392   19.290098   20.713832 H          1 MOL1         0.1041
      11    C4      20.259945   20.097671   21.887410 C.3        1 MOL1         0.0313
      12    H8      20.560570   21.135101   21.719981 H          1 MOL1         0.1015
      13    H9      19.858160   20.030808   22.901147 H          1 MOL1         0.1015
      14    N1      19.136154   19.809590   20.903009 N.4        1 MOL1        -0.4809
      15    H10     19.522136   19.515800   19.993421 H          1 MOL1         0.3726
      16    H11     18.628183   20.685134   20.702539 H          1 MOL1         0.3726
      17    C5      18.156451   18.777477   21.450885 C.3        1 MOL1        -0.0677
      18    H12     17.736679   19.145438   22.389493 H          1 MOL1         0.1026
      19    H13     17.354324   18.626516   20.725123 H          1 MOL1         0.1026
      20    H14     18.673915   17.833531   21.624720 H          1 MOL1         0.1026
@<TRIPOS>BOND
    1     1     2    1
    2     1     3    1
    3     1     4    1
    4     1     5    1
    5     5     6    1
    6     5     7    1
    7     5     8    1
    8     8     9    1
    9     8    10    1
   10     8    11    1
   11    11    12    1
   12    11    13    1
   13    11    14    1
   14    14    15    1
   15    14    16    1
   16    14    17    1
   17    17    18    1
   18    17    19    1
   19    17    20    1
@<TRIPOS>SUBSTRUCTURE
       1 MOL1            1 RESIDUE      1      MOL     
@<SCITEGIC>MOL_PROPERTY
VConf Rank
SciTegic.value.IntegerValue
437

@<SCITEGIC>MOL_PROPERTY
Conf_Id
SciTegic.value.IntegerValue
54

@<SCITEGIC>MOL_PROPERTY
Delta U+W
SciTegic.value.DoubleValue
1.880

@<SCITEGIC>MOL_PROPERTY
U+W
SciTegic.value.DoubleValue
17.218

@<SCITEGIC>MOL_PROPERTY
Grad RMS
SciTegic.value.DoubleValue
0.000000

@<SCITEGIC>MOL_PROPERTY
U
SciTegic.value.DoubleValue
72.122

@<SCITEGIC>MOL_PROPERTY
W
SciTegic.value.DoubleValue
-54.903

@<SCITEGIC>MOL_PROPERTY
W(PB)
SciTegic.value.DoubleValue
-56.724

@<SCITEGIC>MOL_PROPERTY
W(SA)
SciTegic.value.DoubleValue
1.821

@<SCITEGIC>MOL_PROPERTY
Valence
SciTegic.value.DoubleValue
3.197

@<SCITEGIC>MOL_PROPERTY
Coulomb
SciTegic.value.DoubleValue
69.115

@<SCITEGIC>MOL_PROPERTY
VdW
SciTegic.value.DoubleValue
-0.190

@<SCITEGIC>MOL_PROPERTY
VdW6
SciTegic.value.DoubleValue
-5.585

@<SCITEGIC>MOL_PROPERTY
VdW12
SciTegic.value.DoubleValue
5.395

@<SCITEGIC>MOL_PROPERTY
Bond
SciTegic.value.DoubleValue
0.177

@<SCITEGIC>MOL_PROPERTY
Angle
SciTegic.value.DoubleValue
1.207

@<SCITEGIC>MOL_PROPERTY
Pdih
SciTegic.value.DoubleValue
1.813

@<SCITEGIC>MOL_PROPERTY
Idih
SciTegic.value.DoubleValue
0.000

@<SCITEGIC>MOL_PROPERTY
Tether
SciTegic.value.DoubleValue
0.000

@<TRIPOS>MOLECULE
guest-s9_confgen4.mol2 : confsearch ligand conformer 438
          20          19           1
SMALL
USER_CHARGES
 
@<TRIPOS>ATOM
       1    C1      20.551188   16.501327   24.169402 C.3        1 MOL1        -0.2224
       2    H1      21.177705   17.087487   24.854289 H          1 MOL1         0.1052
       3    H2      19.927188   15.831345   24.775020 H          1 MOL1         0.1052
       4    H3      21.211036   15.878638   23.551312 H          1 MOL1         0.1052
       5    C2      19.673231   17.421226   23.293497 C.3        1 MOL1        -0.1209
       6    H4      19.000601   18.005330   23.937502 H          1 MOL1         0.1041
       7    H5      19.033745   16.806002   22.644720 H          1 MOL1         0.1041
       8    C3      20.525690   18.376332   22.429293 C.3        1 MOL1        -0.1274
       9    H6      21.161659   18.992993   23.078321 H          1 MOL1         0.1041
      10    H7      21.194968   17.792004   21.783852 H          1 MOL1         0.1041
      11    C4      19.643107   19.290065   21.558821 C.3        1 MOL1         0.0313
      12    H8      18.986412   19.884487   22.199058 H          1 MOL1         0.1015
      13    H9      19.019967   18.679661   20.900345 H          1 MOL1         0.1015
      14    N1      20.438028   20.246723   20.691866 N.4        1 MOL1        -0.4809
      15    H10     21.078118   19.722046   20.076110 H          1 MOL1         0.3726
      16    H11     21.047000   20.837582   21.278547 H          1 MOL1         0.3726
      17    C5      19.491824   21.109199   19.867239 C.3        1 MOL1        -0.0677
      18    H12     18.847936   21.680781   20.539184 H          1 MOL1         0.1026
      19    H13     20.077011   21.792850   19.248218 H          1 MOL1         0.1026
      20    H14     18.881902   20.465771   19.229427 H          1 MOL1         0.1026
@<TRIPOS>BOND
    1     1     2    1
    2     1     3    1
    3     1     4    1
    4     1     5    1
    5     5     6    1
    6     5     7    1
    7     5     8    1
    8     8     9    1
    9     8    10    1
   10     8    11    1
   11    11    12    1
   12    11    13    1
   13    11    14    1
   14    14    15    1
   15    14    16    1
   16    14    17    1
   17    17    18    1
   18    17    19    1
   19    17    20    1
@<TRIPOS>SUBSTRUCTURE
       1 MOL1            1 RESIDUE      1      MOL     
@<SCITEGIC>MOL_PROPERTY
VConf Rank
SciTegic.value.IntegerValue
438

@<SCITEGIC>MOL_PROPERTY
Conf_Id
SciTegic.value.IntegerValue
67

@<SCITEGIC>MOL_PROPERTY
Delta U+W
SciTegic.value.DoubleValue
0.000

@<SCITEGIC>MOL_PROPERTY
U+W
SciTegic.value.DoubleValue
15.338

@<SCITEGIC>MOL_PROPERTY
Grad RMS
SciTegic.value.DoubleValue
0.000000

@<SCITEGIC>MOL_PROPERTY
U
SciTegic.value.DoubleValue
69.277

@<SCITEGIC>MOL_PROPERTY
W
SciTegic.value.DoubleValue
-53.939

@<SCITEGIC>MOL_PROPERTY
W(PB)
SciTegic.value.DoubleValue
-55.889

@<SCITEGIC>MOL_PROPERTY
W(SA)
SciTegic.value.DoubleValue
1.950

@<SCITEGIC>MOL_PROPERTY
Valence
SciTegic.value.DoubleValue
0.846

@<SCITEGIC>MOL_PROPERTY
Coulomb
SciTegic.value.DoubleValue
68.557

@<SCITEGIC>MOL_PROPERTY
VdW
SciTegic.value.DoubleValue
-0.127

@<SCITEGIC>MOL_PROPERTY
VdW6
SciTegic.value.DoubleValue
-3.008

@<SCITEGIC>MOL_PROPERTY
VdW12
SciTegic.value.DoubleValue
2.882

@<SCITEGIC>MOL_PROPERTY
Bond
SciTegic.value.DoubleValue
0.088

@<SCITEGIC>MOL_PROPERTY
Angle
SciTegic.value.DoubleValue
0.332

@<SCITEGIC>MOL_PROPERTY
Pdih
SciTegic.value.DoubleValue
0.426

@<SCITEGIC>MOL_PROPERTY
Idih
SciTegic.value.DoubleValue
0.000

@<SCITEGIC>MOL_PROPERTY
Tether
SciTegic.value.DoubleValue
0.000

@<TRIPOS>MOLECULE
guest-s9_confgen4.mol2 : confsearch ligand conformer 439
          20          19           1
SMALL
USER_CHARGES
 
@<TRIPOS>ATOM
       1    C1      19.194417   16.030267   21.635419 C.3        1 MOL1        -0.2224
       2    H1      19.999038   15.690722   22.300597 H          1 MOL1         0.1052
       3    H2      18.331063   15.369692   21.787998 H          1 MOL1         0.1052
       4    H3      19.533291   15.906348   20.598608 H          1 MOL1         0.1052
       5    C2      18.815633   17.498901   21.925088 C.3        1 MOL1        -0.1209
       6    H4      18.448562   17.584493   22.957686 H          1 MOL1         0.1041
       7    H5      17.985835   17.798071   21.269160 H          1 MOL1         0.1041
       8    C3      20.012765   18.452675   21.718011 C.3        1 MOL1        -0.1274
       9    H6      20.838598   18.150160   22.374698 H          1 MOL1         0.1041
      10    H7      20.376138   18.369839   20.685189 H          1 MOL1         0.1041
      11    C4      19.624167   19.917161   22.008264 C.3        1 MOL1         0.0313
      12    H8      19.307123   20.017703   23.049300 H          1 MOL1         0.1015
      13    H9      18.780973   20.193431   21.370002 H          1 MOL1         0.1015
      14    N1      20.731398   20.927741   21.756212 N.4        1 MOL1        -0.4809
      15    H10     20.345858   21.883443   21.813460 H          1 MOL1         0.3726
      16    H11     21.080618   20.841666   20.789562 H          1 MOL1         0.3726
      17    C5      21.867916   20.767557   22.760296 C.3        1 MOL1        -0.0677
      18    H12     22.314236   19.777550   22.648180 H          1 MOL1         0.1026
      19    H13     22.623363   21.533218   22.570470 H          1 MOL1         0.1026
      20    H14     21.472945   20.883510   23.771860 H          1 MOL1         0.1026
@<TRIPOS>BOND
    1     1     2    1
    2     1     3    1
    3     1     4    1
    4     1     5    1
    5     5     6    1
    6     5     7    1
    7     5     8    1
    8     8     9    1
    9     8    10    1
   10     8    11    1
   11    11    12    1
   12    11    13    1
   13    11    14    1
   14    14    15    1
   15    14    16    1
   16    14    17    1
   17    17    18    1
   18    17    19    1
   19    17    20    1
@<TRIPOS>SUBSTRUCTURE
       1 MOL1            1 RESIDUE      1      MOL     
@<SCITEGIC>MOL_PROPERTY
VConf Rank
SciTegic.value.IntegerValue
439

@<SCITEGIC>MOL_PROPERTY
Conf_Id
SciTegic.value.IntegerValue
37

@<SCITEGIC>MOL_PROPERTY
Delta U+W
SciTegic.value.DoubleValue
-0.021

@<SCITEGIC>MOL_PROPERTY
U+W
SciTegic.value.DoubleValue
15.318

@<SCITEGIC>MOL_PROPERTY
Grad RMS
SciTegic.value.DoubleValue
0.000000

@<SCITEGIC>MOL_PROPERTY
U
SciTegic.value.DoubleValue
69.657

@<SCITEGIC>MOL_PROPERTY
W
SciTegic.value.DoubleValue
-54.340

@<SCITEGIC>MOL_PROPERTY
W(PB)
SciTegic.value.DoubleValue
-56.238

@<SCITEGIC>MOL_PROPERTY
W(SA)
SciTegic.value.DoubleValue
1.899

@<SCITEGIC>MOL_PROPERTY
Valence
SciTegic.value.DoubleValue
1.137

@<SCITEGIC>MOL_PROPERTY
Coulomb
SciTegic.value.DoubleValue
68.383

@<SCITEGIC>MOL_PROPERTY
VdW
SciTegic.value.DoubleValue
0.138

@<SCITEGIC>MOL_PROPERTY
VdW6
SciTegic.value.DoubleValue
-3.703

@<SCITEGIC>MOL_PROPERTY
VdW12
SciTegic.value.DoubleValue
3.841

@<SCITEGIC>MOL_PROPERTY
Bond
SciTegic.value.DoubleValue
0.125

@<SCITEGIC>MOL_PROPERTY
Angle
SciTegic.value.DoubleValue
0.468

@<SCITEGIC>MOL_PROPERTY
Pdih
SciTegic.value.DoubleValue
0.543

@<SCITEGIC>MOL_PROPERTY
Idih
SciTegic.value.DoubleValue
0.000

@<SCITEGIC>MOL_PROPERTY
Tether
SciTegic.value.DoubleValue
0.000

@<TRIPOS>MOLECULE
guest-s9_confgen4.mol2 : confsearch ligand conformer 440
          20          19           1
SMALL
USER_CHARGES
 
@<TRIPOS>ATOM
       1    C1      21.991015   16.815631   20.913972 C.3        1 MOL1        -0.2224
       2    H1      22.356558   15.790643   21.058185 H          1 MOL1         0.1052
       3    H2      21.520748   16.868447   19.923403 H          1 MOL1         0.1052
       4    H3      22.860498   17.485831   20.915416 H          1 MOL1         0.1052
       5    C2      20.990794   17.199687   22.025874 C.3        1 MOL1        -0.1209
       6    H4      21.479533   17.103355   23.005754 H          1 MOL1         0.1041
       7    H5      20.150091   16.491503   22.021335 H          1 MOL1         0.1041
       8    C3      20.459238   18.639022   21.848543 C.3        1 MOL1        -0.1274
       9    H6      21.299123   19.346225   21.857488 H          1 MOL1         0.1041
      10    H7      19.972281   18.730442   20.869119 H          1 MOL1         0.1041
      11    C4      19.462278   19.013824   22.964591 C.3        1 MOL1         0.0313
      12    H8      19.951246   18.887483   23.933934 H          1 MOL1         0.1015
      13    H9      18.599245   18.344146   22.931622 H          1 MOL1         0.1015
      14    N1      18.948692   20.443130   22.900792 N.4        1 MOL1        -0.4809
      15    H10     19.738195   21.106792   22.897197 H          1 MOL1         0.3726
      16    H11     18.425112   20.660456   23.763300 H          1 MOL1         0.3726
      17    C5      18.053839   20.657392   21.684714 C.3        1 MOL1        -0.0677
      18    H12     17.217507   19.956272   21.725786 H          1 MOL1         0.1026
      19    H13     17.675616   21.681995   21.695122 H          1 MOL1         0.1026
      20    H14     18.632782   20.490387   20.774319 H          1 MOL1         0.1026
@<TRIPOS>BOND
    1     1     2    1
    2     1     3    1
    3     1     4    1
    4     1     5    1
    5     5     6    1
    6     5     7    1
    7     5     8    1
    8     8     9    1
    9     8    10    1
   10     8    11    1
   11    11    12    1
   12    11    13    1
   13    11    14    1
   14    14    15    1
   15    14    16    1
   16    14    17    1
   17    17    18    1
   18    17    19    1
   19    17    20    1
@<TRIPOS>SUBSTRUCTURE
       1 MOL1            1 RESIDUE      1      MOL     
@<SCITEGIC>MOL_PROPERTY
VConf Rank
SciTegic.value.IntegerValue
440

@<SCITEGIC>MOL_PROPERTY
Conf_Id
SciTegic.value.IntegerValue
2

@<SCITEGIC>MOL_PROPERTY
Delta U+W
SciTegic.value.DoubleValue
0.069

@<SCITEGIC>MOL_PROPERTY
U+W
SciTegic.value.DoubleValue
15.407

@<SCITEGIC>MOL_PROPERTY
Grad RMS
SciTegic.value.DoubleValue
0.000000

@<SCITEGIC>MOL_PROPERTY
U
SciTegic.value.DoubleValue
69.657

@<SCITEGIC>MOL_PROPERTY
W
SciTegic.value.DoubleValue
-54.250

@<SCITEGIC>MOL_PROPERTY
W(PB)
SciTegic.value.DoubleValue
-56.176

@<SCITEGIC>MOL_PROPERTY
W(SA)
SciTegic.value.DoubleValue
1.926

@<SCITEGIC>MOL_PROPERTY
Valence
SciTegic.value.DoubleValue
1.137

@<SCITEGIC>MOL_PROPERTY
Coulomb
SciTegic.value.DoubleValue
68.383

@<SCITEGIC>MOL_PROPERTY
VdW
SciTegic.value.DoubleValue
0.138

@<SCITEGIC>MOL_PROPERTY
VdW6
SciTegic.value.DoubleValue
-3.703

@<SCITEGIC>MOL_PROPERTY
VdW12
SciTegic.value.DoubleValue
3.841

@<SCITEGIC>MOL_PROPERTY
Bond
SciTegic.value.DoubleValue
0.125

@<SCITEGIC>MOL_PROPERTY
Angle
SciTegic.value.DoubleValue
0.468

@<SCITEGIC>MOL_PROPERTY
Pdih
SciTegic.value.DoubleValue
0.543

@<SCITEGIC>MOL_PROPERTY
Idih
SciTegic.value.DoubleValue
0.000

@<SCITEGIC>MOL_PROPERTY
Tether
SciTegic.value.DoubleValue
0.000

@<TRIPOS>MOLECULE
guest-s9_confgen4.mol2 : confsearch ligand conformer 441
          20          19           1
SMALL
USER_CHARGES
 
@<TRIPOS>ATOM
       1    C1      20.185730   21.381897   21.631732 C.3        1 MOL1        -0.2224
       2    H1      19.663449   21.150537   22.568620 H          1 MOL1         0.1052
       3    H2      21.258671   21.464752   21.848601 H          1 MOL1         0.1052
       4    H3      19.836100   22.365666   21.292694 H          1 MOL1         0.1052
       5    C2      19.917414   20.309276   20.551095 C.3        1 MOL1        -0.1209
       6    H4      20.380758   20.628081   19.606802 H          1 MOL1         0.1041
       7    H5      18.837455   20.242318   20.357674 H          1 MOL1         0.1041
       8    C3      20.465755   18.914691   20.934024 C.3        1 MOL1        -0.1274
       9    H6      20.309488   18.226101   20.093023 H          1 MOL1         0.1041
      10    H7      21.550576   18.976655   21.092735 H          1 MOL1         0.1041
      11    C4      19.790572   18.336334   22.192943 C.3        1 MOL1         0.0313
      12    H8      18.711217   18.272496   22.033910 H          1 MOL1         0.1015
      13    H9      19.974103   18.995186   23.044998 H          1 MOL1         0.1015
      14    N1      20.289588   16.953107   22.561912 N.4        1 MOL1        -0.4809
      15    H10     21.310111   16.970363   22.711331 H          1 MOL1         0.3726
      16    H11     20.139480   16.299033   21.778485 H          1 MOL1         0.3726
      17    C5      19.575340   16.459873   23.813176 C.3        1 MOL1        -0.0677
      18    H12     18.501064   16.417005   23.621087 H          1 MOL1         0.1026
      19    H13     19.943819   15.463584   24.067411 H          1 MOL1         0.1026
      20    H14     19.776291   17.147941   24.637179 H          1 MOL1         0.1026
@<TRIPOS>BOND
    1     1     2    1
    2     1     3    1
    3     1     4    1
    4     1     5    1
    5     5     6    1
    6     5     7    1
    7     5     8    1
    8     8     9    1
    9     8    10    1
   10     8    11    1
   11    11    12    1
   12    11    13    1
   13    11    14    1
   14    14    15    1
   15    14    16    1
   16    14    17    1
   17    17    18    1
   18    17    19    1
   19    17    20    1
@<TRIPOS>SUBSTRUCTURE
       1 MOL1            1 RESIDUE      1      MOL     
@<SCITEGIC>MOL_PROPERTY
VConf Rank
SciTegic.value.IntegerValue
441

@<SCITEGIC>MOL_PROPERTY
Conf_Id
SciTegic.value.IntegerValue
34

@<SCITEGIC>MOL_PROPERTY
Delta U+W
SciTegic.value.DoubleValue
0.276

@<SCITEGIC>MOL_PROPERTY
U+W
SciTegic.value.DoubleValue
15.615

@<SCITEGIC>MOL_PROPERTY
Grad RMS
SciTegic.value.DoubleValue
0.000000

@<SCITEGIC>MOL_PROPERTY
U
SciTegic.value.DoubleValue
69.798

@<SCITEGIC>MOL_PROPERTY
W
SciTegic.value.DoubleValue
-54.184

@<SCITEGIC>MOL_PROPERTY
W(PB)
SciTegic.value.DoubleValue
-56.116

@<SCITEGIC>MOL_PROPERTY
W(SA)
SciTegic.value.DoubleValue
1.933

@<SCITEGIC>MOL_PROPERTY
Valence
SciTegic.value.DoubleValue
1.134

@<SCITEGIC>MOL_PROPERTY
Coulomb
SciTegic.value.DoubleValue
68.735

@<SCITEGIC>MOL_PROPERTY
VdW
SciTegic.value.DoubleValue
-0.070

@<SCITEGIC>MOL_PROPERTY
VdW6
SciTegic.value.DoubleValue
-3.565

@<SCITEGIC>MOL_PROPERTY
VdW12
SciTegic.value.DoubleValue
3.494

@<SCITEGIC>MOL_PROPERTY
Bond
SciTegic.value.DoubleValue
0.108

@<SCITEGIC>MOL_PROPERTY
Angle
SciTegic.value.DoubleValue
0.456

@<SCITEGIC>MOL_PROPERTY
Pdih
SciTegic.value.DoubleValue
0.569

@<SCITEGIC>MOL_PROPERTY
Idih
SciTegic.value.DoubleValue
0.000

@<SCITEGIC>MOL_PROPERTY
Tether
SciTegic.value.DoubleValue
0.000

@<TRIPOS>MOLECULE
guest-s9_confgen4.mol2 : confsearch ligand conformer 442
          20          19           1
SMALL
USER_CHARGES
 
@<TRIPOS>ATOM
       1    C1      18.941397   17.833510   19.339882 C.3        1 MOL1        -0.2224
       2    H1      18.120586   17.128187   19.524159 H          1 MOL1         0.1052
       3    H2      18.643733   18.485239   18.508215 H          1 MOL1         0.1052
       4    H3      19.819870   17.258770   19.018729 H          1 MOL1         0.1052
       5    C2      19.253074   18.666954   20.601728 C.3        1 MOL1        -0.1209
       6    H4      18.365886   19.253879   20.878751 H          1 MOL1         0.1041
       7    H5      20.049204   19.386822   20.368352 H          1 MOL1         0.1041
       8    C3      19.676141   17.770725   21.789571 C.3        1 MOL1        -0.1274
       9    H6      18.887661   17.031887   21.985276 H          1 MOL1         0.1041
      10    H7      20.578916   17.202049   21.529835 H          1 MOL1         0.1041
      11    C4      19.925407   18.571053   23.083744 C.3        1 MOL1         0.0313
      12    H8      20.131688   17.877711   23.903100 H          1 MOL1         0.1015
      13    H9      19.030236   19.143298   23.339949 H          1 MOL1         0.1015
      14    N1      21.091541   19.537882   22.998554 N.4        1 MOL1        -0.4809
      15    H10     20.937492   20.214344   22.236241 H          1 MOL1         0.3726
      16    H11     21.954843   19.032286   22.747298 H          1 MOL1         0.3726
      17    C5      21.264114   20.262217   24.326860 C.3        1 MOL1        -0.0677
      18    H12     20.351293   20.816382   24.555874 H          1 MOL1         0.1026
      19    H13     21.458930   19.529906   25.113342 H          1 MOL1         0.1026
      20    H14     22.105835   20.954196   24.251613 H          1 MOL1         0.1026
@<TRIPOS>BOND
    1     1     2    1
    2     1     3    1
    3     1     4    1
    4     1     5    1
    5     5     6    1
    6     5     7    1
    7     5     8    1
    8     8     9    1
    9     8    10    1
   10     8    11    1
   11    11    12    1
   12    11    13    1
   13    11    14    1
   14    14    15    1
   15    14    16    1
   16    14    17    1
   17    17    18    1
   18    17    19    1
   19    17    20    1
@<TRIPOS>SUBSTRUCTURE
       1 MOL1            1 RESIDUE      1      MOL     
@<SCITEGIC>MOL_PROPERTY
VConf Rank
SciTegic.value.IntegerValue
442

@<SCITEGIC>MOL_PROPERTY
Conf_Id
SciTegic.value.IntegerValue
50

@<SCITEGIC>MOL_PROPERTY
Delta U+W
SciTegic.value.DoubleValue
0.319

@<SCITEGIC>MOL_PROPERTY
U+W
SciTegic.value.DoubleValue
15.657

@<SCITEGIC>MOL_PROPERTY
Grad RMS
SciTegic.value.DoubleValue
0.000000

@<SCITEGIC>MOL_PROPERTY
U
SciTegic.value.DoubleValue
69.962

@<SCITEGIC>MOL_PROPERTY
W
SciTegic.value.DoubleValue
-54.305

@<SCITEGIC>MOL_PROPERTY
W(PB)
SciTegic.value.DoubleValue
-56.223

@<SCITEGIC>MOL_PROPERTY
W(SA)
SciTegic.value.DoubleValue
1.918

@<SCITEGIC>MOL_PROPERTY
Valence
SciTegic.value.DoubleValue
0.982

@<SCITEGIC>MOL_PROPERTY
Coulomb
SciTegic.value.DoubleValue
69.058

@<SCITEGIC>MOL_PROPERTY
VdW
SciTegic.value.DoubleValue
-0.078

@<SCITEGIC>MOL_PROPERTY
VdW6
SciTegic.value.DoubleValue
-3.548

@<SCITEGIC>MOL_PROPERTY
VdW12
SciTegic.value.DoubleValue
3.471

@<SCITEGIC>MOL_PROPERTY
Bond
SciTegic.value.DoubleValue
0.105

@<SCITEGIC>MOL_PROPERTY
Angle
SciTegic.value.DoubleValue
0.408

@<SCITEGIC>MOL_PROPERTY
Pdih
SciTegic.value.DoubleValue
0.469

@<SCITEGIC>MOL_PROPERTY
Idih
SciTegic.value.DoubleValue
0.000

@<SCITEGIC>MOL_PROPERTY
Tether
SciTegic.value.DoubleValue
0.000

@<TRIPOS>MOLECULE
guest-s9_confgen4.mol2 : confsearch ligand conformer 443
          20          19           1
SMALL
USER_CHARGES
 
@<TRIPOS>ATOM
       1    C1      17.770439   18.158114   20.146243 C.3        1 MOL1        -0.2224
       2    H1      17.686926   18.486038   19.101964 H          1 MOL1         0.1052
       3    H2      17.599686   17.073989   20.172442 H          1 MOL1         0.1052
       4    H3      16.967934   18.644065   20.716348 H          1 MOL1         0.1052
       5    C2      19.157459   18.517285   20.721736 C.3        1 MOL1        -0.1209
       6    H4      19.308650   19.602321   20.642151 H          1 MOL1         0.1041
       7    H5      19.938895   18.042499   20.111605 H          1 MOL1         0.1041
       8    C3      19.300551   18.065698   22.194415 C.3        1 MOL1        -0.1274
       9    H6      18.540334   18.558168   22.815221 H          1 MOL1         0.1041
      10    H7      19.108283   16.986724   22.263207 H          1 MOL1         0.1041
      11    C4      20.701391   18.348436   22.773421 C.3        1 MOL1         0.0313
      12    H8      21.459878   17.864816   22.152740 H          1 MOL1         0.1015
      13    H9      20.767603   17.928271   23.780246 H          1 MOL1         0.1015
      14    N1      21.045035   19.823045   22.869993 N.4        1 MOL1        -0.4809
      15    H10     20.341917   20.315156   23.442270 H          1 MOL1         0.3726
      16    H11     20.996442   20.261122   21.938231 H          1 MOL1         0.3726
      17    C5      22.435116   19.994614   23.467555 C.3        1 MOL1        -0.0677
      18    H12     22.669522   21.059509   23.531127 H          1 MOL1         0.1026
      19    H13     22.454340   19.553307   24.466386 H          1 MOL1         0.1026
      20    H14     23.165882   19.494315   22.828435 H          1 MOL1         0.1026
@<TRIPOS>BOND
    1     1     2    1
    2     1     3    1
    3     1     4    1
    4     1     5    1
    5     5     6    1
    6     5     7    1
    7     5     8    1
    8     8     9    1
    9     8    10    1
   10     8    11    1
   11    11    12    1
   12    11    13    1
   13    11    14    1
   14    14    15    1
   15    14    16    1
   16    14    17    1
   17    17    18    1
   18    17    19    1
   19    17    20    1
@<TRIPOS>SUBSTRUCTURE
       1 MOL1            1 RESIDUE      1      MOL     
@<SCITEGIC>MOL_PROPERTY
VConf Rank
SciTegic.value.IntegerValue
443

@<SCITEGIC>MOL_PROPERTY
Conf_Id
SciTegic.value.IntegerValue
35

@<SCITEGIC>MOL_PROPERTY
Delta U+W
SciTegic.value.DoubleValue
0.360

@<SCITEGIC>MOL_PROPERTY
U+W
SciTegic.value.DoubleValue
15.698

@<SCITEGIC>MOL_PROPERTY
Grad RMS
SciTegic.value.DoubleValue
0.000000

@<SCITEGIC>MOL_PROPERTY
U
SciTegic.value.DoubleValue
69.962

@<SCITEGIC>MOL_PROPERTY
W
SciTegic.value.DoubleValue
-54.264

@<SCITEGIC>MOL_PROPERTY
W(PB)
SciTegic.value.DoubleValue
-56.166

@<SCITEGIC>MOL_PROPERTY
W(SA)
SciTegic.value.DoubleValue
1.902

@<SCITEGIC>MOL_PROPERTY
Valence
SciTegic.value.DoubleValue
0.982

@<SCITEGIC>MOL_PROPERTY
Coulomb
SciTegic.value.DoubleValue
69.058

@<SCITEGIC>MOL_PROPERTY
VdW
SciTegic.value.DoubleValue
-0.078

@<SCITEGIC>MOL_PROPERTY
VdW6
SciTegic.value.DoubleValue
-3.548

@<SCITEGIC>MOL_PROPERTY
VdW12
SciTegic.value.DoubleValue
3.471

@<SCITEGIC>MOL_PROPERTY
Bond
SciTegic.value.DoubleValue
0.105

@<SCITEGIC>MOL_PROPERTY
Angle
SciTegic.value.DoubleValue
0.408

@<SCITEGIC>MOL_PROPERTY
Pdih
SciTegic.value.DoubleValue
0.469

@<SCITEGIC>MOL_PROPERTY
Idih
SciTegic.value.DoubleValue
0.000

@<SCITEGIC>MOL_PROPERTY
Tether
SciTegic.value.DoubleValue
0.000

@<TRIPOS>MOLECULE
guest-s9_confgen4.mol2 : confsearch ligand conformer 444
          20          19           1
SMALL
USER_CHARGES
 
@<TRIPOS>ATOM
       1    C1      20.999541   17.025373   23.664729 C.3        1 MOL1        -0.2224
       2    H1      21.888822   17.522011   23.256561 H          1 MOL1         0.1052
       3    H2      21.292849   16.543255   24.606274 H          1 MOL1         0.1052
       4    H3      20.696247   16.235897   22.964849 H          1 MOL1         0.1052
       5    C2      19.848018   18.028615   23.904960 C.3        1 MOL1        -0.1209
       6    H4      20.178775   18.809922   24.603764 H          1 MOL1         0.1041
       7    H5      19.014866   17.507210   24.396874 H          1 MOL1         0.1041
       8    C3      19.333006   18.680052   22.600251 C.3        1 MOL1        -0.1274
       9    H6      18.969535   17.897649   21.921690 H          1 MOL1         0.1041
      10    H7      18.470885   19.318031   22.835295 H          1 MOL1         0.1041
      11    C4      20.412747   19.529317   21.895714 C.3        1 MOL1         0.0313
      12    H8      21.249029   18.893423   21.595668 H          1 MOL1         0.1015
      13    H9      20.790510   20.276312   22.598467 H          1 MOL1         0.1015
      14    N1      19.927100   20.272945   20.662198 N.4        1 MOL1        -0.4809
      15    H10     20.653245   20.937134   20.351112 H          1 MOL1         0.3726
      16    H11     19.113756   20.862041   20.897050 H          1 MOL1         0.3726
      17    C5      19.589791   19.307759   19.530824 C.3        1 MOL1        -0.0677
      18    H12     18.775723   18.651457   19.844591 H          1 MOL1         0.1026
      19    H13     19.281310   19.879624   18.652888 H          1 MOL1         0.1026
      20    H14     20.473507   18.712851   19.290350 H          1 MOL1         0.1026
@<TRIPOS>BOND
    1     1     2    1
    2     1     3    1
    3     1     4    1
    4     1     5    1
    5     5     6    1
    6     5     7    1
    7     5     8    1
    8     8     9    1
    9     8    10    1
   10     8    11    1
   11    11    12    1
   12    11    13    1
   13    11    14    1
   14    14    15    1
   15    14    16    1
   16    14    17    1
   17    17    18    1
   18    17    19    1
   19    17    20    1
@<TRIPOS>SUBSTRUCTURE
       1 MOL1            1 RESIDUE      1      MOL     
@<SCITEGIC>MOL_PROPERTY
VConf Rank
SciTegic.value.IntegerValue
444

@<SCITEGIC>MOL_PROPERTY
Conf_Id
SciTegic.value.IntegerValue
33

@<SCITEGIC>MOL_PROPERTY
Delta U+W
SciTegic.value.DoubleValue
0.372

@<SCITEGIC>MOL_PROPERTY
U+W
SciTegic.value.DoubleValue
15.711

@<SCITEGIC>MOL_PROPERTY
Grad RMS
SciTegic.value.DoubleValue
0.000000

@<SCITEGIC>MOL_PROPERTY
U
SciTegic.value.DoubleValue
70.163

@<SCITEGIC>MOL_PROPERTY
W
SciTegic.value.DoubleValue
-54.452

@<SCITEGIC>MOL_PROPERTY
W(PB)
SciTegic.value.DoubleValue
-56.363

@<SCITEGIC>MOL_PROPERTY
W(SA)
SciTegic.value.DoubleValue
1.911

@<SCITEGIC>MOL_PROPERTY
Valence
SciTegic.value.DoubleValue
1.420

@<SCITEGIC>MOL_PROPERTY
Coulomb
SciTegic.value.DoubleValue
68.566

@<SCITEGIC>MOL_PROPERTY
VdW
SciTegic.value.DoubleValue
0.177

@<SCITEGIC>MOL_PROPERTY
VdW6
SciTegic.value.DoubleValue
-4.267

@<SCITEGIC>MOL_PROPERTY
VdW12
SciTegic.value.DoubleValue
4.445

@<SCITEGIC>MOL_PROPERTY
Bond
SciTegic.value.DoubleValue
0.146

@<SCITEGIC>MOL_PROPERTY
Angle
SciTegic.value.DoubleValue
0.581

@<SCITEGIC>MOL_PROPERTY
Pdih
SciTegic.value.DoubleValue
0.693

@<SCITEGIC>MOL_PROPERTY
Idih
SciTegic.value.DoubleValue
0.000

@<SCITEGIC>MOL_PROPERTY
Tether
SciTegic.value.DoubleValue
0.000

@<TRIPOS>MOLECULE
guest-s9_confgen4.mol2 : confsearch ligand conformer 445
          20          19           1
SMALL
USER_CHARGES
 
@<TRIPOS>ATOM
       1    C1      20.296332   21.244803   21.165095 C.3        1 MOL1        -0.2224
       2    H1      20.157673   22.331330   21.092934 H          1 MOL1         0.1052
       3    H2      21.257801   21.066558   21.662966 H          1 MOL1         0.1052
       4    H3      20.360189   20.847076   20.143904 H          1 MOL1         0.1052
       5    C2      19.125700   20.599145   21.941599 C.3        1 MOL1        -0.1209
       6    H4      18.178229   20.878957   21.459945 H          1 MOL1         0.1041
       7    H5      19.087172   21.010070   22.960335 H          1 MOL1         0.1041
       8    C3      19.221116   19.056814   22.004757 C.3        1 MOL1        -0.1274
       9    H6      18.323885   18.663079   22.500200 H          1 MOL1         0.1041
      10    H7      19.221457   18.650168   20.985272 H          1 MOL1         0.1041
      11    C4      20.473039   18.571320   22.766628 C.3        1 MOL1         0.0313
      12    H8      20.475791   19.017285   23.764463 H          1 MOL1         0.1015
      13    H9      21.375850   18.900100   22.246444 H          1 MOL1         0.1015
      14    N1      20.560427   17.064240   22.944042 N.4        1 MOL1        -0.4809
      15    H10     19.708538   16.708409   23.403811 H          1 MOL1         0.3726
      16    H11     21.327177   16.837166   23.596529 H          1 MOL1         0.3726
      17    C5      20.791105   16.362137   21.610173 C.3        1 MOL1        -0.0677
      18    H12     20.885236   15.287799   21.783087 H          1 MOL1         0.1026
      19    H13     19.944147   16.553414   20.948384 H          1 MOL1         0.1026
      20    H14     21.708716   16.743521   21.157145 H          1 MOL1         0.1026
@<TRIPOS>BOND
    1     1     2    1
    2     1     3    1
    3     1     4    1
    4     1     5    1
    5     5     6    1
    6     5     7    1
    7     5     8    1
    8     8     9    1
    9     8    10    1
   10     8    11    1
   11    11    12    1
   12    11    13    1
   13    11    14    1
   14    14    15    1
   15    14    16    1
   16    14    17    1
   17    17    18    1
   18    17    19    1
   19    17    20    1
@<TRIPOS>SUBSTRUCTURE
       1 MOL1            1 RESIDUE      1      MOL     
@<SCITEGIC>MOL_PROPERTY
VConf Rank
SciTegic.value.IntegerValue
445

@<SCITEGIC>MOL_PROPERTY
Conf_Id
SciTegic.value.IntegerValue
53

@<SCITEGIC>MOL_PROPERTY
Delta U+W
SciTegic.value.DoubleValue
0.379

@<SCITEGIC>MOL_PROPERTY
U+W
SciTegic.value.DoubleValue
15.717

@<SCITEGIC>MOL_PROPERTY
Grad RMS
SciTegic.value.DoubleValue
0.000000

@<SCITEGIC>MOL_PROPERTY
U
SciTegic.value.DoubleValue
70.163

@<SCITEGIC>MOL_PROPERTY
W
SciTegic.value.DoubleValue
-54.446

@<SCITEGIC>MOL_PROPERTY
W(PB)
SciTegic.value.DoubleValue
-56.322

@<SCITEGIC>MOL_PROPERTY
W(SA)
SciTegic.value.DoubleValue
1.876

@<SCITEGIC>MOL_PROPERTY
Valence
SciTegic.value.DoubleValue
1.420

@<SCITEGIC>MOL_PROPERTY
Coulomb
SciTegic.value.DoubleValue
68.566

@<SCITEGIC>MOL_PROPERTY
VdW
SciTegic.value.DoubleValue
0.177

@<SCITEGIC>MOL_PROPERTY
VdW6
SciTegic.value.DoubleValue
-4.267

@<SCITEGIC>MOL_PROPERTY
VdW12
SciTegic.value.DoubleValue
4.445

@<SCITEGIC>MOL_PROPERTY
Bond
SciTegic.value.DoubleValue
0.146

@<SCITEGIC>MOL_PROPERTY
Angle
SciTegic.value.DoubleValue
0.581

@<SCITEGIC>MOL_PROPERTY
Pdih
SciTegic.value.DoubleValue
0.693

@<SCITEGIC>MOL_PROPERTY
Idih
SciTegic.value.DoubleValue
0.000

@<SCITEGIC>MOL_PROPERTY
Tether
SciTegic.value.DoubleValue
0.000

@<TRIPOS>MOLECULE
guest-s9_confgen4.mol2 : confsearch ligand conformer 446
          20          19           1
SMALL
USER_CHARGES
 
@<TRIPOS>ATOM
       1    C1      19.755870   16.113746   21.504971 C.3        1 MOL1        -0.2224
       2    H1      19.517977   15.621571   20.553041 H          1 MOL1         0.1052
       3    H2      20.514057   15.506722   22.016655 H          1 MOL1         0.1052
       4    H3      18.846426   16.113824   22.119848 H          1 MOL1         0.1052
       5    C2      20.263896   17.551695   21.263776 C.3        1 MOL1        -0.1209
       6    H4      19.496217   18.116135   20.717211 H          1 MOL1         0.1041
       7    H5      21.154517   17.520560   20.620342 H          1 MOL1         0.1041
       8    C3      20.604610   18.268814   22.591322 C.3        1 MOL1        -0.1274
       9    H6      19.711570   18.326901   23.226811 H          1 MOL1         0.1041
      10    H7      21.339718   17.672281   23.147569 H          1 MOL1         0.1041
      11    C4      21.189379   19.682652   22.377388 C.3        1 MOL1         0.0313
      12    H8      22.108752   19.601325   21.791923 H          1 MOL1         0.1015
      13    H9      21.446695   20.120711   23.345059 H          1 MOL1         0.1015
      14    N1      20.276757   20.663621   21.656658 N.4        1 MOL1        -0.4809
      15    H10     20.005852   20.287237   20.736344 H          1 MOL1         0.3726
      16    H11     20.798213   21.529121   21.446378 H          1 MOL1         0.3726
      17    C5      19.044230   20.991176   22.492432 C.3        1 MOL1        -0.0677
      18    H12     19.360481   21.405455   23.452128 H          1 MOL1         0.1026
      19    H13     18.434163   21.723250   21.958749 H          1 MOL1         0.1026
      20    H14     18.464668   20.080306   22.655024 H          1 MOL1         0.1026
@<TRIPOS>BOND
    1     1     2    1
    2     1     3    1
    3     1     4    1
    4     1     5    1
    5     5     6    1
    6     5     7    1
    7     5     8    1
    8     8     9    1
    9     8    10    1
   10     8    11    1
   11    11    12    1
   12    11    13    1
   13    11    14    1
   14    14    15    1
   15    14    16    1
   16    14    17    1
   17    17    18    1
   18    17    19    1
   19    17    20    1
@<TRIPOS>SUBSTRUCTURE
       1 MOL1            1 RESIDUE      1      MOL     
@<SCITEGIC>MOL_PROPERTY
VConf Rank
SciTegic.value.IntegerValue
446

@<SCITEGIC>MOL_PROPERTY
Conf_Id
SciTegic.value.IntegerValue
49

@<SCITEGIC>MOL_PROPERTY
Delta U+W
SciTegic.value.DoubleValue
0.268

@<SCITEGIC>MOL_PROPERTY
U+W
SciTegic.value.DoubleValue
15.607

@<SCITEGIC>MOL_PROPERTY
Grad RMS
SciTegic.value.DoubleValue
0.000000

@<SCITEGIC>MOL_PROPERTY
U
SciTegic.value.DoubleValue
70.298

@<SCITEGIC>MOL_PROPERTY
W
SciTegic.value.DoubleValue
-54.692

@<SCITEGIC>MOL_PROPERTY
W(PB)
SciTegic.value.DoubleValue
-56.576

@<SCITEGIC>MOL_PROPERTY
W(SA)
SciTegic.value.DoubleValue
1.885

@<SCITEGIC>MOL_PROPERTY
Valence
SciTegic.value.DoubleValue
1.245

@<SCITEGIC>MOL_PROPERTY
Coulomb
SciTegic.value.DoubleValue
68.933

@<SCITEGIC>MOL_PROPERTY
VdW
SciTegic.value.DoubleValue
0.120

@<SCITEGIC>MOL_PROPERTY
VdW6
SciTegic.value.DoubleValue
-4.430

@<SCITEGIC>MOL_PROPERTY
VdW12
SciTegic.value.DoubleValue
4.550

@<SCITEGIC>MOL_PROPERTY
Bond
SciTegic.value.DoubleValue
0.148

@<SCITEGIC>MOL_PROPERTY
Angle
SciTegic.value.DoubleValue
0.587

@<SCITEGIC>MOL_PROPERTY
Pdih
SciTegic.value.DoubleValue
0.509

@<SCITEGIC>MOL_PROPERTY
Idih
SciTegic.value.DoubleValue
0.000

@<SCITEGIC>MOL_PROPERTY
Tether
SciTegic.value.DoubleValue
0.000

@<TRIPOS>MOLECULE
guest-s9_confgen4.mol2 : confsearch ligand conformer 447
          20          19           1
SMALL
USER_CHARGES
 
@<TRIPOS>ATOM
       1    C1      19.622740   19.687265   24.549339 C.3        1 MOL1        -0.2224
       2    H1      20.483933   19.265028   25.083412 H          1 MOL1         0.1052
       3    H2      19.704424   20.781563   24.580623 H          1 MOL1         0.1052
       4    H3      18.714996   19.402708   25.097088 H          1 MOL1         0.1052
       5    C2      19.565075   19.174293   23.094051 C.3        1 MOL1        -0.1209
       6    H4      18.679097   19.591013   22.594672 H          1 MOL1         0.1041
       7    H5      19.443865   18.083117   23.107824 H          1 MOL1         0.1041
       8    C3      20.838556   19.552847   22.302491 C.3        1 MOL1        -0.1274
       9    H6      21.010347   20.633383   22.395696 H          1 MOL1         0.1041
      10    H7      21.713303   19.062596   22.749735 H          1 MOL1         0.1041
      11    C4      20.772107   19.210261   20.796818 C.3        1 MOL1         0.0313
      12    H8      21.688675   19.576713   20.327394 H          1 MOL1         0.1015
      13    H9      19.930813   19.725421   20.326570 H          1 MOL1         0.1015
      14    N1      20.671662   17.729820   20.462951 N.4        1 MOL1        -0.4809
      15    H10     21.178182   17.167853   21.163287 H          1 MOL1         0.3726
      16    H11     21.162422   17.547533   19.573607 H          1 MOL1         0.3726
      17    C5      19.218445   17.284623   20.334090 C.3        1 MOL1        -0.0677
      18    H12     19.191816   16.224648   20.071981 H          1 MOL1         0.1026
      19    H13     18.698924   17.440296   21.280226 H          1 MOL1         0.1026
      20    H14     18.733854   17.868243   19.548438 H          1 MOL1         0.1026
@<TRIPOS>BOND
    1     1     2    1
    2     1     3    1
    3     1     4    1
    4     1     5    1
    5     5     6    1
    6     5     7    1
    7     5     8    1
    8     8     9    1
    9     8    10    1
   10     8    11    1
   11    11    12    1
   12    11    13    1
   13    11    14    1
   14    14    15    1
   15    14    16    1
   16    14    17    1
   17    17    18    1
   18    17    19    1
   19    17    20    1
@<TRIPOS>SUBSTRUCTURE
       1 MOL1            1 RESIDUE      1      MOL     
@<SCITEGIC>MOL_PROPERTY
VConf Rank
SciTegic.value.IntegerValue
447

@<SCITEGIC>MOL_PROPERTY
Conf_Id
SciTegic.value.IntegerValue
65

@<SCITEGIC>MOL_PROPERTY
Delta U+W
SciTegic.value.DoubleValue
1.775

@<SCITEGIC>MOL_PROPERTY
U+W
SciTegic.value.DoubleValue
17.114

@<SCITEGIC>MOL_PROPERTY
Grad RMS
SciTegic.value.DoubleValue
0.000000

@<SCITEGIC>MOL_PROPERTY
U
SciTegic.value.DoubleValue
71.726

@<SCITEGIC>MOL_PROPERTY
W
SciTegic.value.DoubleValue
-54.613

@<SCITEGIC>MOL_PROPERTY
W(PB)
SciTegic.value.DoubleValue
-56.495

@<SCITEGIC>MOL_PROPERTY
W(SA)
SciTegic.value.DoubleValue
1.883

@<SCITEGIC>MOL_PROPERTY
Valence
SciTegic.value.DoubleValue
2.885

@<SCITEGIC>MOL_PROPERTY
Coulomb
SciTegic.value.DoubleValue
68.822

@<SCITEGIC>MOL_PROPERTY
VdW
SciTegic.value.DoubleValue
0.019

@<SCITEGIC>MOL_PROPERTY
VdW6
SciTegic.value.DoubleValue
-4.600

@<SCITEGIC>MOL_PROPERTY
VdW12
SciTegic.value.DoubleValue
4.619

@<SCITEGIC>MOL_PROPERTY
Bond
SciTegic.value.DoubleValue
0.152

@<SCITEGIC>MOL_PROPERTY
Angle
SciTegic.value.DoubleValue
0.862

@<SCITEGIC>MOL_PROPERTY
Pdih
SciTegic.value.DoubleValue
1.871

@<SCITEGIC>MOL_PROPERTY
Idih
SciTegic.value.DoubleValue
0.000

@<SCITEGIC>MOL_PROPERTY
Tether
SciTegic.value.DoubleValue
0.000

@<TRIPOS>MOLECULE
guest-s9_confgen4.mol2 : confsearch ligand conformer 448
          20          19           1
SMALL
USER_CHARGES
 
@<TRIPOS>ATOM
       1    C1      19.668843   19.557822   24.223261 C.3        1 MOL1        -0.2224
       2    H1      19.699875   18.469120   24.089960 H          1 MOL1         0.1052
       3    H2      20.186917   19.790801   25.162569 H          1 MOL1         0.1052
       4    H3      18.619400   19.859283   24.336668 H          1 MOL1         0.1052
       5    C2      20.334460   20.296313   23.039304 C.3        1 MOL1        -0.1209
       6    H4      21.381997   19.978798   22.947322 H          1 MOL1         0.1041
       7    H5      20.363060   21.372535   23.260512 H          1 MOL1         0.1041
       8    C3      19.592368   20.083219   21.696215 C.3        1 MOL1        -0.1274
       9    H6      18.579364   20.499865   21.773636 H          1 MOL1         0.1041
      10    H7      20.097616   20.653869   20.905754 H          1 MOL1         0.1041
      11    C4      19.485406   18.605326   21.265684 C.3        1 MOL1         0.0313
      12    H8      18.924071   18.540293   20.330155 H          1 MOL1         0.1015
      13    H9      18.942660   18.038881   22.026167 H          1 MOL1         0.1015
      14    N1      20.825152   17.928995   21.046003 N.4        1 MOL1        -0.4809
      15    H10     21.389208   17.976232   21.907454 H          1 MOL1         0.3726
      16    H11     21.368103   18.438896   20.332487 H          1 MOL1         0.3726
      17    C5      20.614116   16.481130   20.624496 C.3        1 MOL1        -0.0677
      18    H12     20.042037   16.457004   19.694492 H          1 MOL1         0.1026
      19    H13     21.585905   16.006681   20.471225 H          1 MOL1         0.1026
      20    H14     20.066664   15.954053   21.408872 H          1 MOL1         0.1026
@<TRIPOS>BOND
    1     1     2    1
    2     1     3    1
    3     1     4    1
    4     1     5    1
    5     5     6    1
    6     5     7    1
    7     5     8    1
    8     8     9    1
    9     8    10    1
   10     8    11    1
   11    11    12    1
   12    11    13    1
   13    11    14    1
   14    14    15    1
   15    14    16    1
   16    14    17    1
   17    17    18    1
   18    17    19    1
   19    17    20    1
@<TRIPOS>SUBSTRUCTURE
       1 MOL1            1 RESIDUE      1      MOL     
@<SCITEGIC>MOL_PROPERTY
VConf Rank
SciTegic.value.IntegerValue
448

@<SCITEGIC>MOL_PROPERTY
Conf_Id
SciTegic.value.IntegerValue
23

@<SCITEGIC>MOL_PROPERTY
Delta U+W
SciTegic.value.DoubleValue
0.896

@<SCITEGIC>MOL_PROPERTY
U+W
SciTegic.value.DoubleValue
16.234

@<SCITEGIC>MOL_PROPERTY
Grad RMS
SciTegic.value.DoubleValue
0.000000

@<SCITEGIC>MOL_PROPERTY
U
SciTegic.value.DoubleValue
70.374

@<SCITEGIC>MOL_PROPERTY
W
SciTegic.value.DoubleValue
-54.140

@<SCITEGIC>MOL_PROPERTY
W(PB)
SciTegic.value.DoubleValue
-56.046

@<SCITEGIC>MOL_PROPERTY
W(SA)
SciTegic.value.DoubleValue
1.907

@<SCITEGIC>MOL_PROPERTY
Valence
SciTegic.value.DoubleValue
1.257

@<SCITEGIC>MOL_PROPERTY
Coulomb
SciTegic.value.DoubleValue
69.240

@<SCITEGIC>MOL_PROPERTY
VdW
SciTegic.value.DoubleValue
-0.123

@<SCITEGIC>MOL_PROPERTY
VdW6
SciTegic.value.DoubleValue
-4.336

@<SCITEGIC>MOL_PROPERTY
VdW12
SciTegic.value.DoubleValue
4.213

@<SCITEGIC>MOL_PROPERTY
Bond
SciTegic.value.DoubleValue
0.128

@<SCITEGIC>MOL_PROPERTY
Angle
SciTegic.value.DoubleValue
0.603

@<SCITEGIC>MOL_PROPERTY
Pdih
SciTegic.value.DoubleValue
0.526

@<SCITEGIC>MOL_PROPERTY
Idih
SciTegic.value.DoubleValue
0.000

@<SCITEGIC>MOL_PROPERTY
Tether
SciTegic.value.DoubleValue
0.000

@<TRIPOS>MOLECULE
guest-s9_confgen4.mol2 : confsearch ligand conformer 449
          20          19           1
SMALL
USER_CHARGES
 
@<TRIPOS>ATOM
       1    C1      18.940484   18.048305   20.096126 C.3        1 MOL1        -0.2224
       2    H1      18.172616   18.777099   19.805766 H          1 MOL1         0.1052
       3    H2      18.939367   17.245416   19.347562 H          1 MOL1         0.1052
       4    H3      18.646713   17.605505   21.056142 H          1 MOL1         0.1052
       5    C2      20.334407   18.712057   20.177257 C.3        1 MOL1        -0.1209
       6    H4      20.624582   19.056716   19.174754 H          1 MOL1         0.1041
       7    H5      21.083974   17.963646   20.468190 H          1 MOL1         0.1041
       8    C3      20.377626   19.916808   21.150244 C.3        1 MOL1        -0.1274
       9    H6      21.383194   20.357805   21.140339 H          1 MOL1         0.1041
      10    H7      19.697731   20.698723   20.786764 H          1 MOL1         0.1041
      11    C4      19.992159   19.565128   22.602382 C.3        1 MOL1         0.0313
      12    H8      18.974453   19.168359   22.627141 H          1 MOL1         0.1015
      13    H9      20.017367   20.471005   23.213357 H          1 MOL1         0.1015
      14    N1      20.907580   18.545866   23.253315 N.4        1 MOL1        -0.4809
      15    H10     21.880983   18.886958   23.247002 H          1 MOL1         0.3726
      16    H11     20.916634   17.676236   22.700005 H          1 MOL1         0.3726
      17    C5      20.447074   18.267806   24.677794 C.3        1 MOL1        -0.0677
      18    H12     19.427358   17.877303   24.656649 H          1 MOL1         0.1026
      19    H13     21.113694   17.532233   25.133337 H          1 MOL1         0.1026
      20    H14     20.475475   19.195986   25.252634 H          1 MOL1         0.1026
@<TRIPOS>BOND
    1     1     2    1
    2     1     3    1
    3     1     4    1
    4     1     5    1
    5     5     6    1
    6     5     7    1
    7     5     8    1
    8     8     9    1
    9     8    10    1
   10     8    11    1
   11    11    12    1
   12    11    13    1
   13    11    14    1
   14    14    15    1
   15    14    16    1
   16    14    17    1
   17    17    18    1
   18    17    19    1
   19    17    20    1
@<TRIPOS>SUBSTRUCTURE
       1 MOL1            1 RESIDUE      1      MOL     
@<SCITEGIC>MOL_PROPERTY
VConf Rank
SciTegic.value.IntegerValue
449

@<SCITEGIC>MOL_PROPERTY
Conf_Id
SciTegic.value.IntegerValue
24

@<SCITEGIC>MOL_PROPERTY
Delta U+W
SciTegic.value.DoubleValue
0.792

@<SCITEGIC>MOL_PROPERTY
U+W
SciTegic.value.DoubleValue
16.130

@<SCITEGIC>MOL_PROPERTY
Grad RMS
SciTegic.value.DoubleValue
0.000000

@<SCITEGIC>MOL_PROPERTY
U
SciTegic.value.DoubleValue
70.374

@<SCITEGIC>MOL_PROPERTY
W
SciTegic.value.DoubleValue
-54.243

@<SCITEGIC>MOL_PROPERTY
W(PB)
SciTegic.value.DoubleValue
-56.130

@<SCITEGIC>MOL_PROPERTY
W(SA)
SciTegic.value.DoubleValue
1.887

@<SCITEGIC>MOL_PROPERTY
Valence
SciTegic.value.DoubleValue
1.257

@<SCITEGIC>MOL_PROPERTY
Coulomb
SciTegic.value.DoubleValue
69.240

@<SCITEGIC>MOL_PROPERTY
VdW
SciTegic.value.DoubleValue
-0.123

@<SCITEGIC>MOL_PROPERTY
VdW6
SciTegic.value.DoubleValue
-4.336

@<SCITEGIC>MOL_PROPERTY
VdW12
SciTegic.value.DoubleValue
4.213

@<SCITEGIC>MOL_PROPERTY
Bond
SciTegic.value.DoubleValue
0.128

@<SCITEGIC>MOL_PROPERTY
Angle
SciTegic.value.DoubleValue
0.603

@<SCITEGIC>MOL_PROPERTY
Pdih
SciTegic.value.DoubleValue
0.526

@<SCITEGIC>MOL_PROPERTY
Idih
SciTegic.value.DoubleValue
0.000

@<SCITEGIC>MOL_PROPERTY
Tether
SciTegic.value.DoubleValue
0.000

@<TRIPOS>MOLECULE
guest-s9_confgen4.mol2 : confsearch ligand conformer 450
          20          19           1
SMALL
USER_CHARGES
 
@<TRIPOS>ATOM
       1    C1      21.976901   19.335249   21.395563 C.3        1 MOL1        -0.2224
       2    H1      23.036930   19.620731   21.403257 H          1 MOL1         0.1052
       3    H2      21.899373   18.375600   21.920075 H          1 MOL1         0.1052
       4    H3      21.678845   19.193887   20.348499 H          1 MOL1         0.1052
       5    C2      21.123940   20.427459   22.080396 C.3        1 MOL1        -0.1209
       6    H4      21.398148   21.403651   21.656221 H          1 MOL1         0.1041
       7    H5      21.382055   20.477164   23.147641 H          1 MOL1         0.1041
       8    C3      19.593337   20.239373   21.923178 C.3        1 MOL1        -0.1274
       9    H6      19.097482   21.103321   22.385282 H          1 MOL1         0.1041
      10    H7      19.312329   20.263206   20.861966 H          1 MOL1         0.1041
      11    C4      19.035134   18.963701   22.589027 C.3        1 MOL1         0.0313
      12    H8      17.963070   19.089964   22.760136 H          1 MOL1         0.1015
      13    H9      19.517325   18.811594   23.557861 H          1 MOL1         0.1015
      14    N1      19.205106   17.701958   21.764337 N.4        1 MOL1        -0.4809
      15    H10     20.198540   17.565533   21.529614 H          1 MOL1         0.3726
      16    H11     18.720593   17.802132   20.859229 H          1 MOL1         0.3726
      17    C5      18.664689   16.502018   22.530175 C.3        1 MOL1        -0.0677
      18    H12     19.213903   16.396673   23.468276 H          1 MOL1         0.1026
      19    H13     17.603804   16.656510   22.738551 H          1 MOL1         0.1026
      20    H14     18.793587   15.602047   21.924858 H          1 MOL1         0.1026
@<TRIPOS>BOND
    1     1     2    1
    2     1     3    1
    3     1     4    1
    4     1     5    1
    5     5     6    1
    6     5     7    1
    7     5     8    1
    8     8     9    1
    9     8    10    1
   10     8    11    1
   11    11    12    1
   12    11    13    1
   13    11    14    1
   14    14    15    1
   15    14    16    1
   16    14    17    1
   17    17    18    1
   18    17    19    1
   19    17    20    1
@<TRIPOS>SUBSTRUCTURE
       1 MOL1            1 RESIDUE      1      MOL     
@<SCITEGIC>MOL_PROPERTY
VConf Rank
SciTegic.value.IntegerValue
450

@<SCITEGIC>MOL_PROPERTY
Conf_Id
SciTegic.value.IntegerValue
26

@<SCITEGIC>MOL_PROPERTY
Delta U+W
SciTegic.value.DoubleValue
2.888

@<SCITEGIC>MOL_PROPERTY
U+W
SciTegic.value.DoubleValue
18.226

@<SCITEGIC>MOL_PROPERTY
Grad RMS
SciTegic.value.DoubleValue
0.000000

@<SCITEGIC>MOL_PROPERTY
U
SciTegic.value.DoubleValue
72.042

@<SCITEGIC>MOL_PROPERTY
W
SciTegic.value.DoubleValue
-53.816

@<SCITEGIC>MOL_PROPERTY
W(PB)
SciTegic.value.DoubleValue
-55.689

@<SCITEGIC>MOL_PROPERTY
W(SA)
SciTegic.value.DoubleValue
1.873

@<SCITEGIC>MOL_PROPERTY
Valence
SciTegic.value.DoubleValue
2.428

@<SCITEGIC>MOL_PROPERTY
Coulomb
SciTegic.value.DoubleValue
69.829

@<SCITEGIC>MOL_PROPERTY
VdW
SciTegic.value.DoubleValue
-0.215

@<SCITEGIC>MOL_PROPERTY
VdW6
SciTegic.value.DoubleValue
-4.563

@<SCITEGIC>MOL_PROPERTY
VdW12
SciTegic.value.DoubleValue
4.348

@<SCITEGIC>MOL_PROPERTY
Bond
SciTegic.value.DoubleValue
0.137

@<SCITEGIC>MOL_PROPERTY
Angle
SciTegic.value.DoubleValue
0.936

@<SCITEGIC>MOL_PROPERTY
Pdih
SciTegic.value.DoubleValue
1.356

@<SCITEGIC>MOL_PROPERTY
Idih
SciTegic.value.DoubleValue
0.000

@<SCITEGIC>MOL_PROPERTY
Tether
SciTegic.value.DoubleValue
0.000

@<TRIPOS>MOLECULE
guest-s9_confgen4.mol2 : confsearch ligand conformer 451
          20          19           1
SMALL
USER_CHARGES
 
@<TRIPOS>ATOM
       1    C1      20.603248   20.243713   23.682836 C.3        1 MOL1        -0.2224
       2    H1      20.982783   21.103773   24.249818 H          1 MOL1         0.1052
       3    H2      20.240366   19.502774   24.407053 H          1 MOL1         0.1052
       4    H3      21.453586   19.819626   23.135913 H          1 MOL1         0.1052
       5    C2      19.476692   20.690728   22.723403 C.3        1 MOL1        -0.1209
       6    H4      19.893781   21.357119   21.955246 H          1 MOL1         0.1041
       7    H5      18.753707   21.295099   23.289171 H          1 MOL1         0.1041
       8    C3      18.712908   19.525951   22.043134 C.3        1 MOL1        -0.1274
       9    H6      18.227747   18.894080   22.798822 H          1 MOL1         0.1041
      10    H7      17.899628   19.958597   21.445463 H          1 MOL1         0.1041
      11    C4      19.577353   18.657707   21.104427 C.3        1 MOL1         0.0313
      12    H8      20.248318   19.296270   20.524489 H          1 MOL1         0.1015
      13    H9      18.924649   18.128669   20.405399 H          1 MOL1         0.1015
      14    N1      20.408946   17.606197   21.814203 N.4        1 MOL1        -0.4809
      15    H10     19.795321   16.961485   22.335563 H          1 MOL1         0.3726
      16    H11     21.006715   18.050619   22.525386 H          1 MOL1         0.3726
      17    C5      21.253856   16.841100   20.804667 C.3        1 MOL1        -0.0677
      18    H12     21.917558   17.538369   20.288834 H          1 MOL1         0.1026
      19    H13     21.846374   16.088451   21.329464 H          1 MOL1         0.1026
      20    H14     20.596410   16.353424   20.081685 H          1 MOL1         0.1026
@<TRIPOS>BOND
    1     1     2    1
    2     1     3    1
    3     1     4    1
    4     1     5    1
    5     5     6    1
    6     5     7    1
    7     5     8    1
    8     8     9    1
    9     8    10    1
   10     8    11    1
   11    11    12    1
   12    11    13    1
   13    11    14    1
   14    14    15    1
   15    14    16    1
   16    14    17    1
   17    17    18    1
   18    17    19    1
   19    17    20    1
@<TRIPOS>SUBSTRUCTURE
       1 MOL1            1 RESIDUE      1      MOL     
@<SCITEGIC>MOL_PROPERTY
VConf Rank
SciTegic.value.IntegerValue
451

@<SCITEGIC>MOL_PROPERTY
Conf_Id
SciTegic.value.IntegerValue
5

@<SCITEGIC>MOL_PROPERTY
Delta U+W
SciTegic.value.DoubleValue
2.950

@<SCITEGIC>MOL_PROPERTY
U+W
SciTegic.value.DoubleValue
18.289

@<SCITEGIC>MOL_PROPERTY
Grad RMS
SciTegic.value.DoubleValue
0.000000

@<SCITEGIC>MOL_PROPERTY
U
SciTegic.value.DoubleValue
72.042

@<SCITEGIC>MOL_PROPERTY
W
SciTegic.value.DoubleValue
-53.753

@<SCITEGIC>MOL_PROPERTY
W(PB)
SciTegic.value.DoubleValue
-55.644

@<SCITEGIC>MOL_PROPERTY
W(SA)
SciTegic.value.DoubleValue
1.891

@<SCITEGIC>MOL_PROPERTY
Valence
SciTegic.value.DoubleValue
2.428

@<SCITEGIC>MOL_PROPERTY
Coulomb
SciTegic.value.DoubleValue
69.829

@<SCITEGIC>MOL_PROPERTY
VdW
SciTegic.value.DoubleValue
-0.215

@<SCITEGIC>MOL_PROPERTY
VdW6
SciTegic.value.DoubleValue
-4.563

@<SCITEGIC>MOL_PROPERTY
VdW12
SciTegic.value.DoubleValue
4.348

@<SCITEGIC>MOL_PROPERTY
Bond
SciTegic.value.DoubleValue
0.137

@<SCITEGIC>MOL_PROPERTY
Angle
SciTegic.value.DoubleValue
0.936

@<SCITEGIC>MOL_PROPERTY
Pdih
SciTegic.value.DoubleValue
1.356

@<SCITEGIC>MOL_PROPERTY
Idih
SciTegic.value.DoubleValue
0.000

@<SCITEGIC>MOL_PROPERTY
Tether
SciTegic.value.DoubleValue
0.000

@<TRIPOS>MOLECULE
guest-s9_confgen4.mol2 : confsearch ligand conformer 452
          20          19           1
SMALL
USER_CHARGES
 
@<TRIPOS>ATOM
       1    C1      19.594908   18.856935   19.613151 C.3        1 MOL1        -0.2224
       2    H1      18.560612   19.143394   19.382431 H          1 MOL1         0.1052
       3    H2      20.162381   19.770373   19.830822 H          1 MOL1         0.1052
       4    H3      20.026419   18.406673   18.709807 H          1 MOL1         0.1052
       5    C2      19.644921   17.859365   20.793191 C.3        1 MOL1        -0.1209
       6    H4      20.687726   17.584843   21.002854 H          1 MOL1         0.1041
       7    H5      19.140954   16.929036   20.495871 H          1 MOL1         0.1041
       8    C3      18.970493   18.403366   22.077133 C.3        1 MOL1        -0.1274
       9    H6      17.905961   18.583055   21.877090 H          1 MOL1         0.1041
      10    H7      19.004360   17.634749   22.859969 H          1 MOL1         0.1041
      11    C4      19.597876   19.711341   22.611103 C.3        1 MOL1         0.0313
      12    H8      19.070751   20.026986   23.514943 H          1 MOL1         0.1015
      13    H9      19.474500   20.496774   21.861469 H          1 MOL1         0.1015
      14    N1      21.079516   19.629709   22.944876 N.4        1 MOL1        -0.4809
      15    H10     21.438962   20.573600   23.156829 H          1 MOL1         0.3726
      16    H11     21.610831   19.320765   22.117615 H          1 MOL1         0.3726
      17    C5      21.330080   18.701020   24.127829 C.3        1 MOL1        -0.0677
      18    H12     21.003000   17.691556   23.870943 H          1 MOL1         0.1026
      19    H13     22.397965   18.693226   24.356885 H          1 MOL1         0.1026
      20    H14     20.770769   19.062666   24.993287 H          1 MOL1         0.1026
@<TRIPOS>BOND
    1     1     2    1
    2     1     3    1
    3     1     4    1
    4     1     5    1
    5     5     6    1
    6     5     7    1
    7     5     8    1
    8     8     9    1
    9     8    10    1
   10     8    11    1
   11    11    12    1
   12    11    13    1
   13    11    14    1
   14    14    15    1
   15    14    16    1
   16    14    17    1
   17    17    18    1
   18    17    19    1
   19    17    20    1
@<TRIPOS>SUBSTRUCTURE
       1 MOL1            1 RESIDUE      1      MOL     
@<SCITEGIC>MOL_PROPERTY
VConf Rank
SciTegic.value.IntegerValue
452

@<SCITEGIC>MOL_PROPERTY
Conf_Id
SciTegic.value.IntegerValue
52

@<SCITEGIC>MOL_PROPERTY
Delta U+W
SciTegic.value.DoubleValue
0.784

@<SCITEGIC>MOL_PROPERTY
U+W
SciTegic.value.DoubleValue
16.122

@<SCITEGIC>MOL_PROPERTY
Grad RMS
SciTegic.value.DoubleValue
0.000000

@<SCITEGIC>MOL_PROPERTY
U
SciTegic.value.DoubleValue
70.777

@<SCITEGIC>MOL_PROPERTY
W
SciTegic.value.DoubleValue
-54.655

@<SCITEGIC>MOL_PROPERTY
W(PB)
SciTegic.value.DoubleValue
-56.491

@<SCITEGIC>MOL_PROPERTY
W(SA)
SciTegic.value.DoubleValue
1.836

@<SCITEGIC>MOL_PROPERTY
Valence
SciTegic.value.DoubleValue
1.529

@<SCITEGIC>MOL_PROPERTY
Coulomb
SciTegic.value.DoubleValue
69.166

@<SCITEGIC>MOL_PROPERTY
VdW
SciTegic.value.DoubleValue
0.082

@<SCITEGIC>MOL_PROPERTY
VdW6
SciTegic.value.DoubleValue
-5.166

@<SCITEGIC>MOL_PROPERTY
VdW12
SciTegic.value.DoubleValue
5.248

@<SCITEGIC>MOL_PROPERTY
Bond
SciTegic.value.DoubleValue
0.171

@<SCITEGIC>MOL_PROPERTY
Angle
SciTegic.value.DoubleValue
0.752

@<SCITEGIC>MOL_PROPERTY
Pdih
SciTegic.value.DoubleValue
0.605

@<SCITEGIC>MOL_PROPERTY
Idih
SciTegic.value.DoubleValue
0.000

@<SCITEGIC>MOL_PROPERTY
Tether
SciTegic.value.DoubleValue
0.000

@<TRIPOS>MOLECULE
guest-s9_confgen4.mol2 : confsearch ligand conformer 453
          20          19           1
SMALL
USER_CHARGES
 
@<TRIPOS>ATOM
       1    C1      18.127967   19.246287   22.840154 C.3        1 MOL1        -0.2224
       2    H1      17.096101   19.248935   23.214873 H          1 MOL1         0.1052
       3    H2      18.781445   19.073924   23.702946 H          1 MOL1         0.1052
       4    H3      18.335808   20.243557   22.430810 H          1 MOL1         0.1052
       5    C2      18.304013   18.149709   21.765031 C.3        1 MOL1        -0.1209
       6    H4      17.478006   18.231920   21.044630 H          1 MOL1         0.1041
       7    H5      18.202932   17.159191   22.230513 H          1 MOL1         0.1041
       8    C3      19.640166   18.226431   20.982960 C.3        1 MOL1        -0.1274
       9    H6      19.610871   17.465281   20.192152 H          1 MOL1         0.1041
      10    H7      19.721789   19.189932   20.464398 H          1 MOL1         0.1041
      11    C4      20.901782   17.962923   21.837618 C.3        1 MOL1         0.0313
      12    H8      21.735150   17.706068   21.178872 H          1 MOL1         0.1015
      13    H9      20.717365   17.106320   22.490834 H          1 MOL1         0.1015
      14    N1      21.364916   19.121569   22.706847 N.4        1 MOL1        -0.4809
      15    H10     22.083273   18.790438   23.369776 H          1 MOL1         0.3726
      16    H11     20.587918   19.454989   23.294168 H          1 MOL1         0.3726
      17    C5      21.927645   20.257742   21.859989 C.3        1 MOL1        -0.0677
      18    H12     22.758315   19.880801   21.259534 H          1 MOL1         0.1026
      19    H13     21.144407   20.645813   21.206113 H          1 MOL1         0.1026
      20    H14     22.281848   21.053459   22.518994 H          1 MOL1         0.1026
@<TRIPOS>BOND
    1     1     2    1
    2     1     3    1
    3     1     4    1
    4     1     5    1
    5     5     6    1
    6     5     7    1
    7     5     8    1
    8     8     9    1
    9     8    10    1
   10     8    11    1
   11    11    12    1
   12    11    13    1
   13    11    14    1
   14    14    15    1
   15    14    16    1
   16    14    17    1
   17    17    18    1
   18    17    19    1
   19    17    20    1
@<TRIPOS>SUBSTRUCTURE
       1 MOL1            1 RESIDUE      1      MOL     
@<SCITEGIC>MOL_PROPERTY
VConf Rank
SciTegic.value.IntegerValue
453

@<SCITEGIC>MOL_PROPERTY
Conf_Id
SciTegic.value.IntegerValue
55

@<SCITEGIC>MOL_PROPERTY
Delta U+W
SciTegic.value.DoubleValue
2.745

@<SCITEGIC>MOL_PROPERTY
U+W
SciTegic.value.DoubleValue
18.083

@<SCITEGIC>MOL_PROPERTY
Grad RMS
SciTegic.value.DoubleValue
0.000000

@<SCITEGIC>MOL_PROPERTY
U
SciTegic.value.DoubleValue
72.490

@<SCITEGIC>MOL_PROPERTY
W
SciTegic.value.DoubleValue
-54.407

@<SCITEGIC>MOL_PROPERTY
W(PB)
SciTegic.value.DoubleValue
-56.269

@<SCITEGIC>MOL_PROPERTY
W(SA)
SciTegic.value.DoubleValue
1.861

@<SCITEGIC>MOL_PROPERTY
Valence
SciTegic.value.DoubleValue
2.738

@<SCITEGIC>MOL_PROPERTY
Coulomb
SciTegic.value.DoubleValue
69.795

@<SCITEGIC>MOL_PROPERTY
VdW
SciTegic.value.DoubleValue
-0.043

@<SCITEGIC>MOL_PROPERTY
VdW6
SciTegic.value.DoubleValue
-5.333

@<SCITEGIC>MOL_PROPERTY
VdW12
SciTegic.value.DoubleValue
5.290

@<SCITEGIC>MOL_PROPERTY
Bond
SciTegic.value.DoubleValue
0.182

@<SCITEGIC>MOL_PROPERTY
Angle
SciTegic.value.DoubleValue
1.135

@<SCITEGIC>MOL_PROPERTY
Pdih
SciTegic.value.DoubleValue
1.422

@<SCITEGIC>MOL_PROPERTY
Idih
SciTegic.value.DoubleValue
0.000

@<SCITEGIC>MOL_PROPERTY
Tether
SciTegic.value.DoubleValue
0.000

@<TRIPOS>MOLECULE
guest-s9_confgen4.mol2 : confsearch ligand conformer 454
          20          19           1
SMALL
USER_CHARGES
 
@<TRIPOS>ATOM
       1    C1      21.828023   19.346114   21.216104 C.3        1 MOL1        -0.2224
       2    H1      22.830488   19.436585   20.777872 H          1 MOL1         0.1052
       3    H2      21.221505   20.177493   20.833674 H          1 MOL1         0.1052
       4    H3      21.941207   19.459227   22.300330 H          1 MOL1         0.1052
       5    C2      21.204625   17.980226   20.848549 C.3        1 MOL1        -0.1209
       6    H4      21.767744   17.174919   21.340886 H          1 MOL1         0.1041
       7    H5      21.328169   17.819981   19.768232 H          1 MOL1         0.1041
       8    C3      19.698210   17.849699   21.189883 C.3        1 MOL1        -0.1274
       9    H6      19.119982   18.612876   20.654052 H          1 MOL1         0.1041
      10    H7      19.347908   16.884497   20.800961 H          1 MOL1         0.1041
      11    C4      19.375530   17.888301   22.701816 C.3        1 MOL1         0.0313
      12    H8      20.096771   17.264928   23.236312 H          1 MOL1         0.1015
      13    H9      18.381745   17.465108   22.868312 H          1 MOL1         0.1015
      14    N1      19.383499   19.266625   23.344209 N.4        1 MOL1        -0.4809
      15    H10     20.275018   19.742540   23.147899 H          1 MOL1         0.3726
      16    H11     19.348360   19.169333   24.371077 H          1 MOL1         0.3726
      17    C5      18.205595   20.107322   22.864115 C.3        1 MOL1        -0.0677
      18    H12     18.283739   20.260041   21.786067 H          1 MOL1         0.1026
      19    H13     17.274178   19.587295   23.097936 H          1 MOL1         0.1026
      20    H14     18.224858   21.073542   23.372996 H          1 MOL1         0.1026
@<TRIPOS>BOND
    1     1     2    1
    2     1     3    1
    3     1     4    1
    4     1     5    1
    5     5     6    1
    6     5     7    1
    7     5     8    1
    8     8     9    1
    9     8    10    1
   10     8    11    1
   11    11    12    1
   12    11    13    1
   13    11    14    1
   14    14    15    1
   15    14    16    1
   16    14    17    1
   17    17    18    1
   18    17    19    1
   19    17    20    1
@<TRIPOS>SUBSTRUCTURE
       1 MOL1            1 RESIDUE      1      MOL     
@<SCITEGIC>MOL_PROPERTY
VConf Rank
SciTegic.value.IntegerValue
454

@<SCITEGIC>MOL_PROPERTY
Conf_Id
SciTegic.value.IntegerValue
76

@<SCITEGIC>MOL_PROPERTY
Delta U+W
SciTegic.value.DoubleValue
2.799

@<SCITEGIC>MOL_PROPERTY
U+W
SciTegic.value.DoubleValue
18.137

@<SCITEGIC>MOL_PROPERTY
Grad RMS
SciTegic.value.DoubleValue
0.000000

@<SCITEGIC>MOL_PROPERTY
U
SciTegic.value.DoubleValue
72.490

@<SCITEGIC>MOL_PROPERTY
W
SciTegic.value.DoubleValue
-54.353

@<SCITEGIC>MOL_PROPERTY
W(PB)
SciTegic.value.DoubleValue
-56.201

@<SCITEGIC>MOL_PROPERTY
W(SA)
SciTegic.value.DoubleValue
1.848

@<SCITEGIC>MOL_PROPERTY
Valence
SciTegic.value.DoubleValue
2.738

@<SCITEGIC>MOL_PROPERTY
Coulomb
SciTegic.value.DoubleValue
69.795

@<SCITEGIC>MOL_PROPERTY
VdW
SciTegic.value.DoubleValue
-0.043

@<SCITEGIC>MOL_PROPERTY
VdW6
SciTegic.value.DoubleValue
-5.334

@<SCITEGIC>MOL_PROPERTY
VdW12
SciTegic.value.DoubleValue
5.290

@<SCITEGIC>MOL_PROPERTY
Bond
SciTegic.value.DoubleValue
0.182

@<SCITEGIC>MOL_PROPERTY
Angle
SciTegic.value.DoubleValue
1.135

@<SCITEGIC>MOL_PROPERTY
Pdih
SciTegic.value.DoubleValue
1.421

@<SCITEGIC>MOL_PROPERTY
Idih
SciTegic.value.DoubleValue
0.000

@<SCITEGIC>MOL_PROPERTY
Tether
SciTegic.value.DoubleValue
0.000

@<TRIPOS>MOLECULE
guest-s9_confgen4.mol2 : confsearch ligand conformer 455
          20          19           1
SMALL
USER_CHARGES
 
@<TRIPOS>ATOM
       1    C1      20.222093   20.595157   20.961631 C.3        1 MOL1        -0.2224
       2    H1      20.363917   19.706021   20.335234 H          1 MOL1         0.1052
       3    H2      19.272492   21.065687   20.675604 H          1 MOL1         0.1052
       4    H3      21.029345   21.300072   20.724388 H          1 MOL1         0.1052
       5    C2      20.234916   20.242324   22.466924 C.3        1 MOL1        -0.1209
       6    H4      20.162091   21.171726   23.048939 H          1 MOL1         0.1041
       7    H5      21.198387   19.793988   22.741660 H          1 MOL1         0.1041
       8    C3      19.073068   19.306459   22.881304 C.3        1 MOL1        -0.1274
       9    H6      19.115757   19.131855   23.964400 H          1 MOL1         0.1041
      10    H7      18.122650   19.824787   22.697762 H          1 MOL1         0.1041
      11    C4      19.027936   17.943495   22.151254 C.3        1 MOL1         0.0313
      12    H8      18.994340   18.088374   21.068920 H          1 MOL1         0.1015
      13    H9      18.104256   17.438205   22.444790 H          1 MOL1         0.1015
      14    N1      20.165350   16.986142   22.474840 N.4        1 MOL1        -0.4809
      15    H10     19.820902   16.015674   22.408909 H          1 MOL1         0.3726
      16    H11     20.457596   17.094853   23.457398 H          1 MOL1         0.3726
      17    C5      21.342101   17.164761   21.521635 C.3        1 MOL1        -0.0677
      18    H12     22.118266   16.438608   21.773024 H          1 MOL1         0.1026
      19    H13     21.001740   16.997337   20.497568 H          1 MOL1         0.1026
      20    H14     21.742769   18.174566   21.615333 H          1 MOL1         0.1026
@<TRIPOS>BOND
    1     1     2    1
    2     1     3    1
    3     1     4    1
    4     1     5    1
    5     5     6    1
    6     5     7    1
    7     5     8    1
    8     8     9    1
    9     8    10    1
   10     8    11    1
   11    11    12    1
   12    11    13    1
   13    11    14    1
   14    14    15    1
   15    14    16    1
   16    14    17    1
   17    17    18    1
   18    17    19    1
   19    17    20    1
@<TRIPOS>SUBSTRUCTURE
       1 MOL1            1 RESIDUE      1      MOL     
@<SCITEGIC>MOL_PROPERTY
VConf Rank
SciTegic.value.IntegerValue
455

@<SCITEGIC>MOL_PROPERTY
Conf_Id
SciTegic.value.IntegerValue
60

@<SCITEGIC>MOL_PROPERTY
Delta U+W
SciTegic.value.DoubleValue
1.788

@<SCITEGIC>MOL_PROPERTY
U+W
SciTegic.value.DoubleValue
17.127

@<SCITEGIC>MOL_PROPERTY
Grad RMS
SciTegic.value.DoubleValue
0.000000

@<SCITEGIC>MOL_PROPERTY
U
SciTegic.value.DoubleValue
72.122

@<SCITEGIC>MOL_PROPERTY
W
SciTegic.value.DoubleValue
-54.995

@<SCITEGIC>MOL_PROPERTY
W(PB)
SciTegic.value.DoubleValue
-56.810

@<SCITEGIC>MOL_PROPERTY
W(SA)
SciTegic.value.DoubleValue
1.815

@<SCITEGIC>MOL_PROPERTY
Valence
SciTegic.value.DoubleValue
3.197

@<SCITEGIC>MOL_PROPERTY
Coulomb
SciTegic.value.DoubleValue
69.115

@<SCITEGIC>MOL_PROPERTY
VdW
SciTegic.value.DoubleValue
-0.190

@<SCITEGIC>MOL_PROPERTY
VdW6
SciTegic.value.DoubleValue
-5.585

@<SCITEGIC>MOL_PROPERTY
VdW12
SciTegic.value.DoubleValue
5.395

@<SCITEGIC>MOL_PROPERTY
Bond
SciTegic.value.DoubleValue
0.177

@<SCITEGIC>MOL_PROPERTY
Angle
SciTegic.value.DoubleValue
1.207

@<SCITEGIC>MOL_PROPERTY
Pdih
SciTegic.value.DoubleValue
1.813

@<SCITEGIC>MOL_PROPERTY
Idih
SciTegic.value.DoubleValue
0.000

@<SCITEGIC>MOL_PROPERTY
Tether
SciTegic.value.DoubleValue
0.000

@<TRIPOS>MOLECULE
guest-s9_confgen4.mol2 : confsearch ligand conformer 456
          20          19           1
SMALL
USER_CHARGES
 
@<TRIPOS>ATOM
       1    C1      20.295929   18.202423   24.053398 C.3        1 MOL1        -0.2224
       2    H1      20.784590   17.386972   24.602118 H          1 MOL1         0.1052
       3    H2      19.903150   18.913755   24.791423 H          1 MOL1         0.1052
       4    H3      19.446330   17.772777   23.508755 H          1 MOL1         0.1052
       5    C2      21.298356   18.890849   23.098530 C.3        1 MOL1        -0.1209
       6    H4      21.698705   18.162271   22.381831 H          1 MOL1         0.1041
       7    H5      22.161568   19.239207   23.682777 H          1 MOL1         0.1041
       8    C3      20.689024   20.099668   22.346919 C.3        1 MOL1        -0.1274
       9    H6      20.398092   20.860262   23.083466 H          1 MOL1         0.1041
      10    H7      21.462011   20.566425   21.722390 H          1 MOL1         0.1041
      11    C4      19.455391   19.780842   21.469893 C.3        1 MOL1         0.0313
      12    H8      19.056980   20.728080   21.097501 H          1 MOL1         0.1015
      13    H9      18.672614   19.306043   22.066040 H          1 MOL1         0.1015
      14    N1      19.723346   18.914950   20.247857 N.4        1 MOL1        -0.4809
      15    H10     20.657516   19.117689   19.862020 H          1 MOL1         0.3726
      16    H11     19.066218   19.176262   19.496392 H          1 MOL1         0.3726
      17    C5      19.560804   17.431353   20.560528 C.3        1 MOL1        -0.0677
      18    H12     18.546471   17.250984   20.922725 H          1 MOL1         0.1026
      19    H13     19.732592   16.853844   19.649540 H          1 MOL1         0.1026
      20    H14     20.281594   17.133851   21.322745 H          1 MOL1         0.1026
@<TRIPOS>BOND
    1     1     2    1
    2     1     3    1
    3     1     4    1
    4     1     5    1
    5     5     6    1
    6     5     7    1
    7     5     8    1
    8     8     9    1
    9     8    10    1
   10     8    11    1
   11    11    12    1
   12    11    13    1
   13    11    14    1
   14    14    15    1
   15    14    16    1
   16    14    17    1
   17    17    18    1
   18    17    19    1
   19    17    20    1
@<TRIPOS>SUBSTRUCTURE
       1 MOL1            1 RESIDUE      1      MOL     
@<SCITEGIC>MOL_PROPERTY
VConf Rank
SciTegic.value.IntegerValue
456

@<SCITEGIC>MOL_PROPERTY
Conf_Id
SciTegic.value.IntegerValue
54

@<SCITEGIC>MOL_PROPERTY
Delta U+W
SciTegic.value.DoubleValue
1.880

@<SCITEGIC>MOL_PROPERTY
U+W
SciTegic.value.DoubleValue
17.218

@<SCITEGIC>MOL_PROPERTY
Grad RMS
SciTegic.value.DoubleValue
0.000000

@<SCITEGIC>MOL_PROPERTY
U
SciTegic.value.DoubleValue
72.122

@<SCITEGIC>MOL_PROPERTY
W
SciTegic.value.DoubleValue
-54.903

@<SCITEGIC>MOL_PROPERTY
W(PB)
SciTegic.value.DoubleValue
-56.724

@<SCITEGIC>MOL_PROPERTY
W(SA)
SciTegic.value.DoubleValue
1.821

@<SCITEGIC>MOL_PROPERTY
Valence
SciTegic.value.DoubleValue
3.197

@<SCITEGIC>MOL_PROPERTY
Coulomb
SciTegic.value.DoubleValue
69.115

@<SCITEGIC>MOL_PROPERTY
VdW
SciTegic.value.DoubleValue
-0.190

@<SCITEGIC>MOL_PROPERTY
VdW6
SciTegic.value.DoubleValue
-5.585

@<SCITEGIC>MOL_PROPERTY
VdW12
SciTegic.value.DoubleValue
5.395

@<SCITEGIC>MOL_PROPERTY
Bond
SciTegic.value.DoubleValue
0.177

@<SCITEGIC>MOL_PROPERTY
Angle
SciTegic.value.DoubleValue
1.207

@<SCITEGIC>MOL_PROPERTY
Pdih
SciTegic.value.DoubleValue
1.813

@<SCITEGIC>MOL_PROPERTY
Idih
SciTegic.value.DoubleValue
0.000

@<SCITEGIC>MOL_PROPERTY
Tether
SciTegic.value.DoubleValue
0.000

@<TRIPOS>MOLECULE
guest-s9_confgen4.mol2 : confsearch ligand conformer 457
          20          19           1
SMALL
USER_CHARGES
 
@<TRIPOS>ATOM
       1    C1      16.997634   18.144712   21.264101 C.3        1 MOL1        -0.2224
       2    H1      16.708498   17.731930   22.239390 H          1 MOL1         0.1052
       3    H2      16.136808   18.696001   20.863997 H          1 MOL1         0.1052
       4    H3      17.204363   17.306364   20.586154 H          1 MOL1         0.1052
       5    C2      18.226173   19.071003   21.394142 C.3        1 MOL1        -0.1209
       6    H4      17.977442   19.917468   22.049871 H          1 MOL1         0.1041
       7    H5      18.469458   19.495172   20.409640 H          1 MOL1         0.1041
       8    C3      19.454255   18.321108   21.955599 C.3        1 MOL1        -0.1274
       9    H6      19.211511   17.900669   22.940623 H          1 MOL1         0.1041
      10    H7      19.704119   17.477686   21.298200 H          1 MOL1         0.1041
      11    C4      20.674986   19.251367   22.082145 C.3        1 MOL1         0.0313
      12    H8      20.434714   20.083863   22.748259 H          1 MOL1         0.1015
      13    H9      20.928989   19.659379   21.100566 H          1 MOL1         0.1015
      14    N1      21.906510   18.557447   22.630351 N.4        1 MOL1        -0.4809
      15    H10     22.161726   17.757620   22.030936 H          1 MOL1         0.3726
      16    H11     21.704106   18.150692   23.556493 H          1 MOL1         0.3726
      17    C5      23.061880   19.545284   22.722407 C.3        1 MOL1        -0.0677
      18    H12     22.782606   20.364747   23.388210 H          1 MOL1         0.1026
      19    H13     23.941421   19.032794   23.118351 H          1 MOL1         0.1026
      20    H14     23.281115   19.936543   21.726585 H          1 MOL1         0.1026
@<TRIPOS>BOND
    1     1     2    1
    2     1     3    1
    3     1     4    1
    4     1     5    1
    5     5     6    1
    6     5     7    1
    7     5     8    1
    8     8     9    1
    9     8    10    1
   10     8    11    1
   11    11    12    1
   12    11    13    1
   13    11    14    1
   14    14    15    1
   15    14    16    1
   16    14    17    1
   17    17    18    1
   18    17    19    1
   19    17    20    1
@<TRIPOS>SUBSTRUCTURE
       1 MOL1            1 RESIDUE      1      MOL     
@<SCITEGIC>MOL_PROPERTY
VConf Rank
SciTegic.value.IntegerValue
457

@<SCITEGIC>MOL_PROPERTY
Conf_Id
SciTegic.value.IntegerValue
67

@<SCITEGIC>MOL_PROPERTY
Delta U+W
SciTegic.value.DoubleValue
0.000

@<SCITEGIC>MOL_PROPERTY
U+W
SciTegic.value.DoubleValue
15.338

@<SCITEGIC>MOL_PROPERTY
Grad RMS
SciTegic.value.DoubleValue
0.000000

@<SCITEGIC>MOL_PROPERTY
U
SciTegic.value.DoubleValue
69.277

@<SCITEGIC>MOL_PROPERTY
W
SciTegic.value.DoubleValue
-53.939

@<SCITEGIC>MOL_PROPERTY
W(PB)
SciTegic.value.DoubleValue
-55.889

@<SCITEGIC>MOL_PROPERTY
W(SA)
SciTegic.value.DoubleValue
1.950

@<SCITEGIC>MOL_PROPERTY
Valence
SciTegic.value.DoubleValue
0.846

@<SCITEGIC>MOL_PROPERTY
Coulomb
SciTegic.value.DoubleValue
68.557

@<SCITEGIC>MOL_PROPERTY
VdW
SciTegic.value.DoubleValue
-0.127

@<SCITEGIC>MOL_PROPERTY
VdW6
SciTegic.value.DoubleValue
-3.008

@<SCITEGIC>MOL_PROPERTY
VdW12
SciTegic.value.DoubleValue
2.882

@<SCITEGIC>MOL_PROPERTY
Bond
SciTegic.value.DoubleValue
0.088

@<SCITEGIC>MOL_PROPERTY
Angle
SciTegic.value.DoubleValue
0.332

@<SCITEGIC>MOL_PROPERTY
Pdih
SciTegic.value.DoubleValue
0.426

@<SCITEGIC>MOL_PROPERTY
Idih
SciTegic.value.DoubleValue
0.000

@<SCITEGIC>MOL_PROPERTY
Tether
SciTegic.value.DoubleValue
0.000

@<TRIPOS>MOLECULE
guest-s9_confgen4.mol2 : confsearch ligand conformer 458
          20          19           1
SMALL
USER_CHARGES
 
@<TRIPOS>ATOM
       1    C1      19.861348   21.834979   21.486407 C.3        1 MOL1        -0.2224
       2    H1      18.875323   21.848185   21.968848 H          1 MOL1         0.1052
       3    H2      20.357076   22.788808   21.708856 H          1 MOL1         0.1052
       4    H3      19.709554   21.780352   20.400524 H          1 MOL1         0.1052
       5    C2      20.711127   20.648037   21.989712 C.3        1 MOL1        -0.1209
       6    H4      20.874463   20.748880   23.072060 H          1 MOL1         0.1041
       7    H5      21.702562   20.682162   21.516216 H          1 MOL1         0.1041
       8    C3      20.037403   19.290916   21.689695 C.3        1 MOL1        -0.1274
       9    H6      19.048113   19.261458   22.164237 H          1 MOL1         0.1041
      10    H7      19.878506   19.189007   20.608035 H          1 MOL1         0.1041
      11    C4      20.894333   18.111697   22.194759 C.3        1 MOL1         0.0313
      12    H8      21.016621   18.179225   23.278672 H          1 MOL1         0.1015
      13    H9      21.885624   18.172720   21.738364 H          1 MOL1         0.1015
      14    N1      20.332319   16.736748   21.871618 N.4        1 MOL1        -0.4809
      15    H10     21.036331   16.015357   22.093536 H          1 MOL1         0.3726
      16    H11     20.172081   16.645579   20.856833 H          1 MOL1         0.3726
      17    C5      19.049743   16.464560   22.650353 C.3        1 MOL1        -0.0677
      18    H12     18.288368   17.191481   22.360905 H          1 MOL1         0.1026
      19    H13     18.699023   15.456032   22.420489 H          1 MOL1         0.1026
      20    H14     19.254017   16.547965   23.719943 H          1 MOL1         0.1026
@<TRIPOS>BOND
    1     1     2    1
    2     1     3    1
    3     1     4    1
    4     1     5    1
    5     5     6    1
    6     5     7    1
    7     5     8    1
    8     8     9    1
    9     8    10    1
   10     8    11    1
   11    11    12    1
   12    11    13    1
   13    11    14    1
   14    14    15    1
   15    14    16    1
   16    14    17    1
   17    17    18    1
   18    17    19    1
   19    17    20    1
@<TRIPOS>SUBSTRUCTURE
       1 MOL1            1 RESIDUE      1      MOL     
@<SCITEGIC>MOL_PROPERTY
VConf Rank
SciTegic.value.IntegerValue
458

@<SCITEGIC>MOL_PROPERTY
Conf_Id
SciTegic.value.IntegerValue
37

@<SCITEGIC>MOL_PROPERTY
Delta U+W
SciTegic.value.DoubleValue
-0.021

@<SCITEGIC>MOL_PROPERTY
U+W
SciTegic.value.DoubleValue
15.318

@<SCITEGIC>MOL_PROPERTY
Grad RMS
SciTegic.value.DoubleValue
0.000000

@<SCITEGIC>MOL_PROPERTY
U
SciTegic.value.DoubleValue
69.657

@<SCITEGIC>MOL_PROPERTY
W
SciTegic.value.DoubleValue
-54.340

@<SCITEGIC>MOL_PROPERTY
W(PB)
SciTegic.value.DoubleValue
-56.238

@<SCITEGIC>MOL_PROPERTY
W(SA)
SciTegic.value.DoubleValue
1.899

@<SCITEGIC>MOL_PROPERTY
Valence
SciTegic.value.DoubleValue
1.137

@<SCITEGIC>MOL_PROPERTY
Coulomb
SciTegic.value.DoubleValue
68.383

@<SCITEGIC>MOL_PROPERTY
VdW
SciTegic.value.DoubleValue
0.138

@<SCITEGIC>MOL_PROPERTY
VdW6
SciTegic.value.DoubleValue
-3.703

@<SCITEGIC>MOL_PROPERTY
VdW12
SciTegic.value.DoubleValue
3.841

@<SCITEGIC>MOL_PROPERTY
Bond
SciTegic.value.DoubleValue
0.125

@<SCITEGIC>MOL_PROPERTY
Angle
SciTegic.value.DoubleValue
0.468

@<SCITEGIC>MOL_PROPERTY
Pdih
SciTegic.value.DoubleValue
0.543

@<SCITEGIC>MOL_PROPERTY
Idih
SciTegic.value.DoubleValue
0.000

@<SCITEGIC>MOL_PROPERTY
Tether
SciTegic.value.DoubleValue
0.000

@<TRIPOS>MOLECULE
guest-s9_confgen4.mol2 : confsearch ligand conformer 459
          20          19           1
SMALL
USER_CHARGES
 
@<TRIPOS>ATOM
       1    C1      17.952101   18.225532   24.123922 C.3        1 MOL1        -0.2224
       2    H1      17.663598   17.468945   24.865112 H          1 MOL1         0.1052
       3    H2      18.267597   19.125501   24.667692 H          1 MOL1         0.1052
       4    H3      17.059964   18.477086   23.535721 H          1 MOL1         0.1052
       5    C2      19.085174   17.697251   23.217648 C.3        1 MOL1        -0.1209
       6    H4      18.752029   16.778287   22.714828 H          1 MOL1         0.1041
       7    H5      19.950326   17.422192   23.837471 H          1 MOL1         0.1041
       8    C3      19.512046   18.742096   22.163246 C.3        1 MOL1        -0.1274
       9    H6      18.648402   19.013162   21.541744 H          1 MOL1         0.1041
      10    H7      19.843743   19.657620   22.669752 H          1 MOL1         0.1041
      11    C4      20.642972   18.204695   21.262039 C.3        1 MOL1         0.0313
      12    H8      20.309545   17.277058   20.789817 H          1 MOL1         0.1015
      13    H9      21.524055   17.977917   21.867552 H          1 MOL1         0.1015
      14    N1      21.069372   19.149496   20.150152 N.4        1 MOL1        -0.4809
      15    H10     20.255816   19.413350   19.573712 H          1 MOL1         0.3726
      16    H11     21.703124   18.655917   19.502060 H          1 MOL1         0.3726
      17    C5      21.762860   20.387220   20.709285 C.3        1 MOL1        -0.0677
      18    H12     22.630081   20.078732   21.297052 H          1 MOL1         0.1026
      19    H13     22.086756   21.020701   19.880572 H          1 MOL1         0.1026
      20    H14     21.064830   20.939907   21.341091 H          1 MOL1         0.1026
@<TRIPOS>BOND
    1     1     2    1
    2     1     3    1
    3     1     4    1
    4     1     5    1
    5     5     6    1
    6     5     7    1
    7     5     8    1
    8     8     9    1
    9     8    10    1
   10     8    11    1
   11    11    12    1
   12    11    13    1
   13    11    14    1
   14    14    15    1
   15    14    16    1
   16    14    17    1
   17    17    18    1
   18    17    19    1
   19    17    20    1
@<TRIPOS>SUBSTRUCTURE
       1 MOL1            1 RESIDUE      1      MOL     
@<SCITEGIC>MOL_PROPERTY
VConf Rank
SciTegic.value.IntegerValue
459

@<SCITEGIC>MOL_PROPERTY
Conf_Id
SciTegic.value.IntegerValue
2

@<SCITEGIC>MOL_PROPERTY
Delta U+W
SciTegic.value.DoubleValue
0.069

@<SCITEGIC>MOL_PROPERTY
U+W
SciTegic.value.DoubleValue
15.407

@<SCITEGIC>MOL_PROPERTY
Grad RMS
SciTegic.value.DoubleValue
0.000000

@<SCITEGIC>MOL_PROPERTY
U
SciTegic.value.DoubleValue
69.657

@<SCITEGIC>MOL_PROPERTY
W
SciTegic.value.DoubleValue
-54.250

@<SCITEGIC>MOL_PROPERTY
W(PB)
SciTegic.value.DoubleValue
-56.176

@<SCITEGIC>MOL_PROPERTY
W(SA)
SciTegic.value.DoubleValue
1.926

@<SCITEGIC>MOL_PROPERTY
Valence
SciTegic.value.DoubleValue
1.137

@<SCITEGIC>MOL_PROPERTY
Coulomb
SciTegic.value.DoubleValue
68.383

@<SCITEGIC>MOL_PROPERTY
VdW
SciTegic.value.DoubleValue
0.138

@<SCITEGIC>MOL_PROPERTY
VdW6
SciTegic.value.DoubleValue
-3.703

@<SCITEGIC>MOL_PROPERTY
VdW12
SciTegic.value.DoubleValue
3.841

@<SCITEGIC>MOL_PROPERTY
Bond
SciTegic.value.DoubleValue
0.125

@<SCITEGIC>MOL_PROPERTY
Angle
SciTegic.value.DoubleValue
0.468

@<SCITEGIC>MOL_PROPERTY
Pdih
SciTegic.value.DoubleValue
0.543

@<SCITEGIC>MOL_PROPERTY
Idih
SciTegic.value.DoubleValue
0.000

@<SCITEGIC>MOL_PROPERTY
Tether
SciTegic.value.DoubleValue
0.000

@<TRIPOS>MOLECULE
guest-s9_confgen4.mol2 : confsearch ligand conformer 460
          20          19           1
SMALL
USER_CHARGES
 
@<TRIPOS>ATOM
       1    C1      21.788635   18.212987   20.098210 C.3        1 MOL1        -0.2224
       2    H1      20.935964   18.782542   19.707541 H          1 MOL1         0.1052
       3    H2      22.550613   18.926265   20.438390 H          1 MOL1         0.1052
       4    H3      22.214564   17.641356   19.263457 H          1 MOL1         0.1052
       5    C2      21.362926   17.265034   21.242956 C.3        1 MOL1        -0.1209
       6    H4      22.224770   16.650302   21.538494 H          1 MOL1         0.1041
       7    H5      20.596485   16.566706   20.878111 H          1 MOL1         0.1041
       8    C3      20.832944   18.017701   22.485852 C.3        1 MOL1        -0.1274
       9    H6      20.624068   17.290513   23.281732 H          1 MOL1         0.1041
      10    H7      21.612519   18.689151   22.869629 H          1 MOL1         0.1041
      11    C4      19.553796   18.825020   22.190451 C.3        1 MOL1         0.0313
      12    H8      18.777300   18.156224   21.810795 H          1 MOL1         0.1015
      13    H9      19.761835   19.578516   21.427084 H          1 MOL1         0.1015
      14    N1      18.998890   19.539839   23.406833 N.4        1 MOL1        -0.4809
      15    H10     19.708737   20.175993   23.801186 H          1 MOL1         0.3726
      16    H11     18.793738   18.861521   24.156433 H          1 MOL1         0.3726
      17    C5      17.742344   20.311935   23.027294 C.3        1 MOL1        -0.0677
      18    H12     16.993406   19.615005   22.644954 H          1 MOL1         0.1026
      19    H13     17.353465   20.821411   23.911722 H          1 MOL1         0.1026
      20    H14     17.989981   21.046877   22.258310 H          1 MOL1         0.1026
@<TRIPOS>BOND
    1     1     2    1
    2     1     3    1
    3     1     4    1
    4     1     5    1
    5     5     6    1
    6     5     7    1
    7     5     8    1
    8     8     9    1
    9     8    10    1
   10     8    11    1
   11    11    12    1
   12    11    13    1
   13    11    14    1
   14    14    15    1
   15    14    16    1
   16    14    17    1
   17    17    18    1
   18    17    19    1
   19    17    20    1
@<TRIPOS>SUBSTRUCTURE
       1 MOL1            1 RESIDUE      1      MOL     
@<SCITEGIC>MOL_PROPERTY
VConf Rank
SciTegic.value.IntegerValue
460

@<SCITEGIC>MOL_PROPERTY
Conf_Id
SciTegic.value.IntegerValue
34

@<SCITEGIC>MOL_PROPERTY
Delta U+W
SciTegic.value.DoubleValue
0.276

@<SCITEGIC>MOL_PROPERTY
U+W
SciTegic.value.DoubleValue
15.615

@<SCITEGIC>MOL_PROPERTY
Grad RMS
SciTegic.value.DoubleValue
0.000000

@<SCITEGIC>MOL_PROPERTY
U
SciTegic.value.DoubleValue
69.798

@<SCITEGIC>MOL_PROPERTY
W
SciTegic.value.DoubleValue
-54.184

@<SCITEGIC>MOL_PROPERTY
W(PB)
SciTegic.value.DoubleValue
-56.116

@<SCITEGIC>MOL_PROPERTY
W(SA)
SciTegic.value.DoubleValue
1.933

@<SCITEGIC>MOL_PROPERTY
Valence
SciTegic.value.DoubleValue
1.134

@<SCITEGIC>MOL_PROPERTY
Coulomb
SciTegic.value.DoubleValue
68.735

@<SCITEGIC>MOL_PROPERTY
VdW
SciTegic.value.DoubleValue
-0.070

@<SCITEGIC>MOL_PROPERTY
VdW6
SciTegic.value.DoubleValue
-3.565

@<SCITEGIC>MOL_PROPERTY
VdW12
SciTegic.value.DoubleValue
3.494

@<SCITEGIC>MOL_PROPERTY
Bond
SciTegic.value.DoubleValue
0.108

@<SCITEGIC>MOL_PROPERTY
Angle
SciTegic.value.DoubleValue
0.456

@<SCITEGIC>MOL_PROPERTY
Pdih
SciTegic.value.DoubleValue
0.569

@<SCITEGIC>MOL_PROPERTY
Idih
SciTegic.value.DoubleValue
0.000

@<SCITEGIC>MOL_PROPERTY
Tether
SciTegic.value.DoubleValue
0.000

@<TRIPOS>MOLECULE
guest-s9_confgen4.mol2 : confsearch ligand conformer 461
          20          19           1
SMALL
USER_CHARGES
 
@<TRIPOS>ATOM
       1    C1      19.597848   21.661345   21.093407 C.3        1 MOL1        -0.2224
       2    H1      18.970072   21.657910   20.192821 H          1 MOL1         0.1052
       3    H2      19.257041   22.482612   21.737143 H          1 MOL1         0.1052
       4    H3      20.630042   21.878777   20.789304 H          1 MOL1         0.1052
       5    C2      19.510180   20.311713   21.838277 C.3        1 MOL1        -0.1209
       6    H4      18.472461   20.138287   22.156692 H          1 MOL1         0.1041
       7    H5      20.117221   20.366405   22.752064 H          1 MOL1         0.1041
       8    C3      19.986014   19.136665   20.951693 C.3        1 MOL1        -0.1274
       9    H6      19.396280   19.119183   20.025522 H          1 MOL1         0.1041
      10    H7      21.031591   19.289346   20.652840 H          1 MOL1         0.1041
      11    C4      19.842837   17.767314   21.645898 C.3        1 MOL1         0.0313
      12    H8      20.108648   16.975457   20.940968 H          1 MOL1         0.1015
      13    H9      18.804088   17.616667   21.950432 H          1 MOL1         0.1015
      14    N1      20.719974   17.600647   22.872576 N.4        1 MOL1        -0.4809
      15    H10     20.500782   18.329238   23.567964 H          1 MOL1         0.3726
      16    H11     21.710348   17.746851   22.623920 H          1 MOL1         0.3726
      17    C5      20.518464   16.215008   23.471107 C.3        1 MOL1        -0.0677
      18    H12     19.471176   16.095177   23.756792 H          1 MOL1         0.1026
      19    H13     20.787819   15.460030   22.729324 H          1 MOL1         0.1026
      20    H14     21.154963   16.108664   24.352328 H          1 MOL1         0.1026
@<TRIPOS>BOND
    1     1     2    1
    2     1     3    1
    3     1     4    1
    4     1     5    1
    5     5     6    1
    6     5     7    1
    7     5     8    1
    8     8     9    1
    9     8    10    1
   10     8    11    1
   11    11    12    1
   12    11    13    1
   13    11    14    1
   14    14    15    1
   15    14    16    1
   16    14    17    1
   17    17    18    1
   18    17    19    1
   19    17    20    1
@<TRIPOS>SUBSTRUCTURE
       1 MOL1            1 RESIDUE      1      MOL     
@<SCITEGIC>MOL_PROPERTY
VConf Rank
SciTegic.value.IntegerValue
461

@<SCITEGIC>MOL_PROPERTY
Conf_Id
SciTegic.value.IntegerValue
50

@<SCITEGIC>MOL_PROPERTY
Delta U+W
SciTegic.value.DoubleValue
0.319

@<SCITEGIC>MOL_PROPERTY
U+W
SciTegic.value.DoubleValue
15.657

@<SCITEGIC>MOL_PROPERTY
Grad RMS
SciTegic.value.DoubleValue
0.000000

@<SCITEGIC>MOL_PROPERTY
U
SciTegic.value.DoubleValue
69.962

@<SCITEGIC>MOL_PROPERTY
W
SciTegic.value.DoubleValue
-54.305

@<SCITEGIC>MOL_PROPERTY
W(PB)
SciTegic.value.DoubleValue
-56.223

@<SCITEGIC>MOL_PROPERTY
W(SA)
SciTegic.value.DoubleValue
1.918

@<SCITEGIC>MOL_PROPERTY
Valence
SciTegic.value.DoubleValue
0.982

@<SCITEGIC>MOL_PROPERTY
Coulomb
SciTegic.value.DoubleValue
69.058

@<SCITEGIC>MOL_PROPERTY
VdW
SciTegic.value.DoubleValue
-0.078

@<SCITEGIC>MOL_PROPERTY
VdW6
SciTegic.value.DoubleValue
-3.548

@<SCITEGIC>MOL_PROPERTY
VdW12
SciTegic.value.DoubleValue
3.471

@<SCITEGIC>MOL_PROPERTY
Bond
SciTegic.value.DoubleValue
0.105

@<SCITEGIC>MOL_PROPERTY
Angle
SciTegic.value.DoubleValue
0.408

@<SCITEGIC>MOL_PROPERTY
Pdih
SciTegic.value.DoubleValue
0.469

@<SCITEGIC>MOL_PROPERTY
Idih
SciTegic.value.DoubleValue
0.000

@<SCITEGIC>MOL_PROPERTY
Tether
SciTegic.value.DoubleValue
0.000

@<TRIPOS>MOLECULE
guest-s9_confgen4.mol2 : confsearch ligand conformer 462
          20          19           1
SMALL
USER_CHARGES
 
@<TRIPOS>ATOM
       1    C1      20.266859   16.949237   24.374829 C.3        1 MOL1        -0.2224
       2    H1      19.685625   17.038794   25.301745 H          1 MOL1         0.1052
       3    H2      20.169220   15.916438   24.015716 H          1 MOL1         0.1052
       4    H3      21.321836   17.126818   24.621141 H          1 MOL1         0.1052
       5    C2      19.765694   17.956163   23.317021 C.3        1 MOL1        -0.1209
       6    H4      19.840886   18.972877   23.725842 H          1 MOL1         0.1041
       7    H5      18.700639   17.773088   23.115862 H          1 MOL1         0.1041
       8    C3      20.570006   17.850405   21.999795 C.3        1 MOL1        -0.1274
       9    H6      21.631309   18.060017   22.188355 H          1 MOL1         0.1041
      10    H7      20.517530   16.819707   21.624574 H          1 MOL1         0.1041
      11    C4      20.044994   18.795897   20.900726 C.3        1 MOL1         0.0313
      12    H8      18.986905   18.593428   20.716637 H          1 MOL1         0.1015
      13    H9      20.592853   18.610966   19.973217 H          1 MOL1         0.1015
      14    N1      20.189830   20.269590   21.231087 N.4        1 MOL1        -0.4809
      15    H10     21.178065   20.495712   21.421636 H          1 MOL1         0.3726
      16    H11     19.684612   20.489946   22.102093 H          1 MOL1         0.3726
      17    C5      19.660883   21.114599   20.079994 C.3        1 MOL1        -0.0677
      18    H12     19.770906   22.171939   20.330825 H          1 MOL1         0.1026
      19    H13     20.231602   20.889410   19.176470 H          1 MOL1         0.1026
      20    H14     18.606029   20.882459   19.918171 H          1 MOL1         0.1026
@<TRIPOS>BOND
    1     1     2    1
    2     1     3    1
    3     1     4    1
    4     1     5    1
    5     5     6    1
    6     5     7    1
    7     5     8    1
    8     8     9    1
    9     8    10    1
   10     8    11    1
   11    11    12    1
   12    11    13    1
   13    11    14    1
   14    14    15    1
   15    14    16    1
   16    14    17    1
   17    17    18    1
   18    17    19    1
   19    17    20    1
@<TRIPOS>SUBSTRUCTURE
       1 MOL1            1 RESIDUE      1      MOL     
@<SCITEGIC>MOL_PROPERTY
VConf Rank
SciTegic.value.IntegerValue
462

@<SCITEGIC>MOL_PROPERTY
Conf_Id
SciTegic.value.IntegerValue
35

@<SCITEGIC>MOL_PROPERTY
Delta U+W
SciTegic.value.DoubleValue
0.360

@<SCITEGIC>MOL_PROPERTY
U+W
SciTegic.value.DoubleValue
15.698

@<SCITEGIC>MOL_PROPERTY
Grad RMS
SciTegic.value.DoubleValue
0.000000

@<SCITEGIC>MOL_PROPERTY
U
SciTegic.value.DoubleValue
69.962

@<SCITEGIC>MOL_PROPERTY
W
SciTegic.value.DoubleValue
-54.264

@<SCITEGIC>MOL_PROPERTY
W(PB)
SciTegic.value.DoubleValue
-56.166

@<SCITEGIC>MOL_PROPERTY
W(SA)
SciTegic.value.DoubleValue
1.902

@<SCITEGIC>MOL_PROPERTY
Valence
SciTegic.value.DoubleValue
0.982

@<SCITEGIC>MOL_PROPERTY
Coulomb
SciTegic.value.DoubleValue
69.058

@<SCITEGIC>MOL_PROPERTY
VdW
SciTegic.value.DoubleValue
-0.078

@<SCITEGIC>MOL_PROPERTY
VdW6
SciTegic.value.DoubleValue
-3.548

@<SCITEGIC>MOL_PROPERTY
VdW12
SciTegic.value.DoubleValue
3.471

@<SCITEGIC>MOL_PROPERTY
Bond
SciTegic.value.DoubleValue
0.105

@<SCITEGIC>MOL_PROPERTY
Angle
SciTegic.value.DoubleValue
0.408

@<SCITEGIC>MOL_PROPERTY
Pdih
SciTegic.value.DoubleValue
0.469

@<SCITEGIC>MOL_PROPERTY
Idih
SciTegic.value.DoubleValue
0.000

@<SCITEGIC>MOL_PROPERTY
Tether
SciTegic.value.DoubleValue
0.000

@<TRIPOS>MOLECULE
guest-s9_confgen4.mol2 : confsearch ligand conformer 463
          20          19           1
SMALL
USER_CHARGES
 
@<TRIPOS>ATOM
       1    C1      18.520658   20.449589   23.178529 C.3        1 MOL1        -0.2224
       2    H1      19.491446   20.575502   23.674297 H          1 MOL1         0.1052
       3    H2      17.930616   21.354793   23.371996 H          1 MOL1         0.1052
       4    H3      18.001908   19.604875   23.650177 H          1 MOL1         0.1052
       5    C2      18.683961   20.223461   21.657869 C.3        1 MOL1        -0.1209
       6    H4      19.209693   21.079420   21.211654 H          1 MOL1         0.1041
       7    H5      17.689500   20.194478   21.190758 H          1 MOL1         0.1041
       8    C3      19.436462   18.915351   21.319541 C.3        1 MOL1        -0.1274
       9    H6      18.886816   18.061276   21.735660 H          1 MOL1         0.1041
      10    H7      19.448158   18.781208   20.229869 H          1 MOL1         0.1041
      11    C4      20.888405   18.914345   21.844257 C.3        1 MOL1         0.0313
      12    H8      20.889860   18.979763   22.934888 H          1 MOL1         0.1015
      13    H9      21.407732   19.792276   21.451695 H          1 MOL1         0.1015
      14    N1      21.702454   17.692810   21.449834 N.4        1 MOL1        -0.4809
      15    H10     22.693572   17.844514   21.694537 H          1 MOL1         0.3726
      16    H11     21.698473   17.576211   20.425086 H          1 MOL1         0.3726
      17    C5      21.185294   16.435902   22.141278 C.3        1 MOL1        -0.0677
      18    H12     20.157512   16.245439   21.826195 H          1 MOL1         0.1026
      19    H13     21.816447   15.589112   21.862792 H          1 MOL1         0.1026
      20    H14     21.220294   16.580550   23.223197 H          1 MOL1         0.1026
@<TRIPOS>BOND
    1     1     2    1
    2     1     3    1
    3     1     4    1
    4     1     5    1
    5     5     6    1
    6     5     7    1
    7     5     8    1
    8     8     9    1
    9     8    10    1
   10     8    11    1
   11    11    12    1
   12    11    13    1
   13    11    14    1
   14    14    15    1
   15    14    16    1
   16    14    17    1
   17    17    18    1
   18    17    19    1
   19    17    20    1
@<TRIPOS>SUBSTRUCTURE
       1 MOL1            1 RESIDUE      1      MOL     
@<SCITEGIC>MOL_PROPERTY
VConf Rank
SciTegic.value.IntegerValue
463

@<SCITEGIC>MOL_PROPERTY
Conf_Id
SciTegic.value.IntegerValue
33

@<SCITEGIC>MOL_PROPERTY
Delta U+W
SciTegic.value.DoubleValue
0.372

@<SCITEGIC>MOL_PROPERTY
U+W
SciTegic.value.DoubleValue
15.711

@<SCITEGIC>MOL_PROPERTY
Grad RMS
SciTegic.value.DoubleValue
0.000000

@<SCITEGIC>MOL_PROPERTY
U
SciTegic.value.DoubleValue
70.163

@<SCITEGIC>MOL_PROPERTY
W
SciTegic.value.DoubleValue
-54.452

@<SCITEGIC>MOL_PROPERTY
W(PB)
SciTegic.value.DoubleValue
-56.363

@<SCITEGIC>MOL_PROPERTY
W(SA)
SciTegic.value.DoubleValue
1.911

@<SCITEGIC>MOL_PROPERTY
Valence
SciTegic.value.DoubleValue
1.420

@<SCITEGIC>MOL_PROPERTY
Coulomb
SciTegic.value.DoubleValue
68.566

@<SCITEGIC>MOL_PROPERTY
VdW
SciTegic.value.DoubleValue
0.177

@<SCITEGIC>MOL_PROPERTY
VdW6
SciTegic.value.DoubleValue
-4.267

@<SCITEGIC>MOL_PROPERTY
VdW12
SciTegic.value.DoubleValue
4.445

@<SCITEGIC>MOL_PROPERTY
Bond
SciTegic.value.DoubleValue
0.146

@<SCITEGIC>MOL_PROPERTY
Angle
SciTegic.value.DoubleValue
0.581

@<SCITEGIC>MOL_PROPERTY
Pdih
SciTegic.value.DoubleValue
0.693

@<SCITEGIC>MOL_PROPERTY
Idih
SciTegic.value.DoubleValue
0.000

@<SCITEGIC>MOL_PROPERTY
Tether
SciTegic.value.DoubleValue
0.000

@<TRIPOS>MOLECULE
guest-s9_confgen4.mol2 : confsearch ligand conformer 464
          20          19           1
SMALL
USER_CHARGES
 
@<TRIPOS>ATOM
       1    C1      20.524509   17.893804   19.640044 C.3        1 MOL1        -0.2224
       2    H1      20.584103   17.197211   18.793770 H          1 MOL1         0.1052
       3    H2      19.572754   18.433637   19.557504 H          1 MOL1         0.1052
       4    H3      21.340838   18.620034   19.533776 H          1 MOL1         0.1052
       5    C2      20.630359   17.129657   20.979853 C.3        1 MOL1        -0.1209
       6    H4      21.553362   16.532958   20.980453 H          1 MOL1         0.1041
       7    H5      19.800213   16.414082   21.063375 H          1 MOL1         0.1041
       8    C3      20.636844   18.066663   22.210242 C.3        1 MOL1        -0.1274
       9    H6      20.791044   17.465983   23.116290 H          1 MOL1         0.1041
      10    H7      21.489636   18.754036   22.139715 H          1 MOL1         0.1041
      11    C4      19.324476   18.867284   22.352221 C.3        1 MOL1         0.0313
      12    H8      18.484463   18.168635   22.381110 H          1 MOL1         0.1015
      13    H9      19.191758   19.520582   21.486575 H          1 MOL1         0.1015
      14    N1      19.240823   19.727829   23.602368 N.4        1 MOL1        -0.4809
      15    H10     19.394495   19.151693   24.443897 H          1 MOL1         0.3726
      16    H11     18.281819   20.095153   23.705285 H          1 MOL1         0.3726
      17    C5      20.234305   20.883362   23.546660 C.3        1 MOL1        -0.0677
      18    H12     20.118537   21.498021   24.442067 H          1 MOL1         0.1026
      19    H13     21.250406   20.486340   23.504233 H          1 MOL1         0.1026
      20    H14     20.034837   21.486425   22.658276 H          1 MOL1         0.1026
@<TRIPOS>BOND
    1     1     2    1
    2     1     3    1
    3     1     4    1
    4     1     5    1
    5     5     6    1
    6     5     7    1
    7     5     8    1
    8     8     9    1
    9     8    10    1
   10     8    11    1
   11    11    12    1
   12    11    13    1
   13    11    14    1
   14    14    15    1
   15    14    16    1
   16    14    17    1
   17    17    18    1
   18    17    19    1
   19    17    20    1
@<TRIPOS>SUBSTRUCTURE
       1 MOL1            1 RESIDUE      1      MOL     
@<SCITEGIC>MOL_PROPERTY
VConf Rank
SciTegic.value.IntegerValue
464

@<SCITEGIC>MOL_PROPERTY
Conf_Id
SciTegic.value.IntegerValue
53

@<SCITEGIC>MOL_PROPERTY
Delta U+W
SciTegic.value.DoubleValue
0.379

@<SCITEGIC>MOL_PROPERTY
U+W
SciTegic.value.DoubleValue
15.717

@<SCITEGIC>MOL_PROPERTY
Grad RMS
SciTegic.value.DoubleValue
0.000000

@<SCITEGIC>MOL_PROPERTY
U
SciTegic.value.DoubleValue
70.163

@<SCITEGIC>MOL_PROPERTY
W
SciTegic.value.DoubleValue
-54.446

@<SCITEGIC>MOL_PROPERTY
W(PB)
SciTegic.value.DoubleValue
-56.322

@<SCITEGIC>MOL_PROPERTY
W(SA)
SciTegic.value.DoubleValue
1.876

@<SCITEGIC>MOL_PROPERTY
Valence
SciTegic.value.DoubleValue
1.420

@<SCITEGIC>MOL_PROPERTY
Coulomb
SciTegic.value.DoubleValue
68.566

@<SCITEGIC>MOL_PROPERTY
VdW
SciTegic.value.DoubleValue
0.177

@<SCITEGIC>MOL_PROPERTY
VdW6
SciTegic.value.DoubleValue
-4.267

@<SCITEGIC>MOL_PROPERTY
VdW12
SciTegic.value.DoubleValue
4.445

@<SCITEGIC>MOL_PROPERTY
Bond
SciTegic.value.DoubleValue
0.146

@<SCITEGIC>MOL_PROPERTY
Angle
SciTegic.value.DoubleValue
0.581

@<SCITEGIC>MOL_PROPERTY
Pdih
SciTegic.value.DoubleValue
0.693

@<SCITEGIC>MOL_PROPERTY
Idih
SciTegic.value.DoubleValue
0.000

@<SCITEGIC>MOL_PROPERTY
Tether
SciTegic.value.DoubleValue
0.000

@<TRIPOS>MOLECULE
guest-s9_confgen4.mol2 : confsearch ligand conformer 465
          20          19           1
SMALL
USER_CHARGES
 
@<TRIPOS>ATOM
       1    C1      17.956179   17.626640   23.274577 C.3        1 MOL1        -0.2224
       2    H1      17.126956   17.068518   22.820826 H          1 MOL1         0.1052
       3    H2      18.272584   17.084794   24.175376 H          1 MOL1         0.1052
       4    H3      17.572000   18.607579   23.583326 H          1 MOL1         0.1052
       5    C2      19.124209   17.776337   22.275948 C.3        1 MOL1        -0.1209
       6    H4      18.761272   18.287311   21.373818 H          1 MOL1         0.1041
       7    H5      19.465256   16.779752   21.961803 H          1 MOL1         0.1041
       8    C3      20.306236   18.562008   22.890973 C.3        1 MOL1        -0.1274
       9    H6      19.977745   19.568135   23.181736 H          1 MOL1         0.1041
      10    H7      20.630380   18.065222   23.814976 H          1 MOL1         0.1041
      11    C4      21.520894   18.660445   21.941459 C.3        1 MOL1         0.0313
      12    H8      21.871044   17.651770   21.707795 H          1 MOL1         0.1015
      13    H9      22.334659   19.188848   22.444519 H          1 MOL1         0.1015
      14    N1      21.260213   19.368569   20.620385 N.4        1 MOL1        -0.4809
      15    H10     20.494211   18.902798   20.112123 H          1 MOL1         0.3726
      16    H11     22.084504   19.269181   20.007286 H          1 MOL1         0.3726
      17    C5      20.948882   20.845726   20.834894 C.3        1 MOL1        -0.0677
      18    H12     21.784311   21.316960   21.357057 H          1 MOL1         0.1026
      19    H13     20.803821   21.325488   19.864472 H          1 MOL1         0.1026
      20    H14     20.038691   20.941023   21.430281 H          1 MOL1         0.1026
@<TRIPOS>BOND
    1     1     2    1
    2     1     3    1
    3     1     4    1
    4     1     5    1
    5     5     6    1
    6     5     7    1
    7     5     8    1
    8     8     9    1
    9     8    10    1
   10     8    11    1
   11    11    12    1
   12    11    13    1
   13    11    14    1
   14    14    15    1
   15    14    16    1
   16    14    17    1
   17    17    18    1
   18    17    19    1
   19    17    20    1
@<TRIPOS>SUBSTRUCTURE
       1 MOL1            1 RESIDUE      1      MOL     
@<SCITEGIC>MOL_PROPERTY
VConf Rank
SciTegic.value.IntegerValue
465

@<SCITEGIC>MOL_PROPERTY
Conf_Id
SciTegic.value.IntegerValue
49

@<SCITEGIC>MOL_PROPERTY
Delta U+W
SciTegic.value.DoubleValue
0.268

@<SCITEGIC>MOL_PROPERTY
U+W
SciTegic.value.DoubleValue
15.607

@<SCITEGIC>MOL_PROPERTY
Grad RMS
SciTegic.value.DoubleValue
0.000000

@<SCITEGIC>MOL_PROPERTY
U
SciTegic.value.DoubleValue
70.298

@<SCITEGIC>MOL_PROPERTY
W
SciTegic.value.DoubleValue
-54.692

@<SCITEGIC>MOL_PROPERTY
W(PB)
SciTegic.value.DoubleValue
-56.576

@<SCITEGIC>MOL_PROPERTY
W(SA)
SciTegic.value.DoubleValue
1.885

@<SCITEGIC>MOL_PROPERTY
Valence
SciTegic.value.DoubleValue
1.245

@<SCITEGIC>MOL_PROPERTY
Coulomb
SciTegic.value.DoubleValue
68.933

@<SCITEGIC>MOL_PROPERTY
VdW
SciTegic.value.DoubleValue
0.120

@<SCITEGIC>MOL_PROPERTY
VdW6
SciTegic.value.DoubleValue
-4.430

@<SCITEGIC>MOL_PROPERTY
VdW12
SciTegic.value.DoubleValue
4.550

@<SCITEGIC>MOL_PROPERTY
Bond
SciTegic.value.DoubleValue
0.148

@<SCITEGIC>MOL_PROPERTY
Angle
SciTegic.value.DoubleValue
0.587

@<SCITEGIC>MOL_PROPERTY
Pdih
SciTegic.value.DoubleValue
0.509

@<SCITEGIC>MOL_PROPERTY
Idih
SciTegic.value.DoubleValue
0.000

@<SCITEGIC>MOL_PROPERTY
Tether
SciTegic.value.DoubleValue
0.000

@<TRIPOS>MOLECULE
guest-s9_confgen4.mol2 : confsearch ligand conformer 466
          20          19           1
SMALL
USER_CHARGES
 
@<TRIPOS>ATOM
       1    C1      19.359512   20.659933   23.863915 C.3        1 MOL1        -0.2224
       2    H1      20.103724   21.443092   23.669024 H          1 MOL1         0.1052
       3    H2      18.365109   21.072748   23.649706 H          1 MOL1         0.1052
       4    H3      19.398884   20.417528   24.933816 H          1 MOL1         0.1052
       5    C2      19.637251   19.404102   23.009469 C.3        1 MOL1        -0.1209
       6    H4      18.894500   18.629418   23.246484 H          1 MOL1         0.1041
       7    H5      20.621519   19.001018   23.282028 H          1 MOL1         0.1041
       8    C3      19.598440   19.720894   21.496274 C.3        1 MOL1        -0.1274
       9    H6      18.654177   20.229513   21.260838 H          1 MOL1         0.1041
      10    H7      20.399812   20.427855   21.244152 H          1 MOL1         0.1041
      11    C4      19.707342   18.475939   20.586847 C.3        1 MOL1         0.0313
      12    H8      19.604040   18.806298   19.550056 H          1 MOL1         0.1015
      13    H9      18.890654   17.780341   20.795321 H          1 MOL1         0.1015
      14    N1      21.019076   17.710994   20.673303 N.4        1 MOL1        -0.4809
      15    H10     21.799377   18.355744   20.868926 H          1 MOL1         0.3726
      16    H11     21.237668   17.304977   19.750062 H          1 MOL1         0.3726
      17    C5      20.945294   16.592743   21.708057 C.3        1 MOL1        -0.0677
      18    H12     21.896349   16.055841   21.721733 H          1 MOL1         0.1026
      19    H13     20.749419   17.014366   22.694554 H          1 MOL1         0.1026
      20    H14     20.141088   15.905880   21.435729 H          1 MOL1         0.1026
@<TRIPOS>BOND
    1     1     2    1
    2     1     3    1
    3     1     4    1
    4     1     5    1
    5     5     6    1
    6     5     7    1
    7     5     8    1
    8     8     9    1
    9     8    10    1
   10     8    11    1
   11    11    12    1
   12    11    13    1
   13    11    14    1
   14    14    15    1
   15    14    16    1
   16    14    17    1
   17    17    18    1
   18    17    19    1
   19    17    20    1
@<TRIPOS>SUBSTRUCTURE
       1 MOL1            1 RESIDUE      1      MOL     
@<SCITEGIC>MOL_PROPERTY
VConf Rank
SciTegic.value.IntegerValue
466

@<SCITEGIC>MOL_PROPERTY
Conf_Id
SciTegic.value.IntegerValue
65

@<SCITEGIC>MOL_PROPERTY
Delta U+W
SciTegic.value.DoubleValue
1.775

@<SCITEGIC>MOL_PROPERTY
U+W
SciTegic.value.DoubleValue
17.114

@<SCITEGIC>MOL_PROPERTY
Grad RMS
SciTegic.value.DoubleValue
0.000000

@<SCITEGIC>MOL_PROPERTY
U
SciTegic.value.DoubleValue
71.726

@<SCITEGIC>MOL_PROPERTY
W
SciTegic.value.DoubleValue
-54.613

@<SCITEGIC>MOL_PROPERTY
W(PB)
SciTegic.value.DoubleValue
-56.495

@<SCITEGIC>MOL_PROPERTY
W(SA)
SciTegic.value.DoubleValue
1.883

@<SCITEGIC>MOL_PROPERTY
Valence
SciTegic.value.DoubleValue
2.885

@<SCITEGIC>MOL_PROPERTY
Coulomb
SciTegic.value.DoubleValue
68.822

@<SCITEGIC>MOL_PROPERTY
VdW
SciTegic.value.DoubleValue
0.019

@<SCITEGIC>MOL_PROPERTY
VdW6
SciTegic.value.DoubleValue
-4.600

@<SCITEGIC>MOL_PROPERTY
VdW12
SciTegic.value.DoubleValue
4.619

@<SCITEGIC>MOL_PROPERTY
Bond
SciTegic.value.DoubleValue
0.152

@<SCITEGIC>MOL_PROPERTY
Angle
SciTegic.value.DoubleValue
0.862

@<SCITEGIC>MOL_PROPERTY
Pdih
SciTegic.value.DoubleValue
1.871

@<SCITEGIC>MOL_PROPERTY
Idih
SciTegic.value.DoubleValue
0.000

@<SCITEGIC>MOL_PROPERTY
Tether
SciTegic.value.DoubleValue
0.000

@<TRIPOS>MOLECULE
guest-s9_confgen4.mol2 : confsearch ligand conformer 467
          20          19           1
SMALL
USER_CHARGES
 
@<TRIPOS>ATOM
       1    C1      20.858999   19.049985   24.256085 C.3        1 MOL1        -0.2224
       2    H1      21.565714   18.614625   23.538437 H          1 MOL1         0.1052
       3    H2      21.416786   19.760400   24.879915 H          1 MOL1         0.1052
       4    H3      20.494864   18.246092   24.908950 H          1 MOL1         0.1052
       5    C2      19.686135   19.760218   23.541852 C.3        1 MOL1        -0.1209
       6    H4      20.075571   20.559291   22.896536 H          1 MOL1         0.1041
       7    H5      19.058773   20.258174   24.294489 H          1 MOL1         0.1041
       8    C3      18.801431   18.791975   22.717351 C.3        1 MOL1        -0.1274
       9    H6      18.337945   18.061909   23.394071 H          1 MOL1         0.1041
      10    H7      17.975011   19.352426   22.260550 H          1 MOL1         0.1041
      11    C4      19.565380   18.027069   21.616321 C.3        1 MOL1         0.0313
      12    H8      18.879453   17.346519   21.105541 H          1 MOL1         0.1015
      13    H9      20.361170   17.429807   22.067722 H          1 MOL1         0.1015
      14    N1      20.191926   18.923059   20.565015 N.4        1 MOL1        -0.4809
      15    H10     20.842605   19.587031   21.010264 H          1 MOL1         0.3726
      16    H11     19.467973   19.505028   20.116570 H          1 MOL1         0.3726
      17    C5      20.918207   18.078130   19.527167 C.3        1 MOL1        -0.0677
      18    H12     20.204053   17.405401   19.047392 H          1 MOL1         0.1026
      19    H13     21.364997   18.735556   18.778074 H          1 MOL1         0.1026
      20    H14     21.700229   17.496423   20.019935 H          1 MOL1         0.1026
@<TRIPOS>BOND
    1     1     2    1
    2     1     3    1
    3     1     4    1
    4     1     5    1
    5     5     6    1
    6     5     7    1
    7     5     8    1
    8     8     9    1
    9     8    10    1
   10     8    11    1
   11    11    12    1
   12    11    13    1
   13    11    14    1
   14    14    15    1
   15    14    16    1
   16    14    17    1
   17    17    18    1
   18    17    19    1
   19    17    20    1
@<TRIPOS>SUBSTRUCTURE
       1 MOL1            1 RESIDUE      1      MOL     
@<SCITEGIC>MOL_PROPERTY
VConf Rank
SciTegic.value.IntegerValue
467

@<SCITEGIC>MOL_PROPERTY
Conf_Id
SciTegic.value.IntegerValue
23

@<SCITEGIC>MOL_PROPERTY
Delta U+W
SciTegic.value.DoubleValue
0.896

@<SCITEGIC>MOL_PROPERTY
U+W
SciTegic.value.DoubleValue
16.234

@<SCITEGIC>MOL_PROPERTY
Grad RMS
SciTegic.value.DoubleValue
0.000000

@<SCITEGIC>MOL_PROPERTY
U
SciTegic.value.DoubleValue
70.374

@<SCITEGIC>MOL_PROPERTY
W
SciTegic.value.DoubleValue
-54.140

@<SCITEGIC>MOL_PROPERTY
W(PB)
SciTegic.value.DoubleValue
-56.046

@<SCITEGIC>MOL_PROPERTY
W(SA)
SciTegic.value.DoubleValue
1.907

@<SCITEGIC>MOL_PROPERTY
Valence
SciTegic.value.DoubleValue
1.257

@<SCITEGIC>MOL_PROPERTY
Coulomb
SciTegic.value.DoubleValue
69.240

@<SCITEGIC>MOL_PROPERTY
VdW
SciTegic.value.DoubleValue
-0.123

@<SCITEGIC>MOL_PROPERTY
VdW6
SciTegic.value.DoubleValue
-4.336

@<SCITEGIC>MOL_PROPERTY
VdW12
SciTegic.value.DoubleValue
4.213

@<SCITEGIC>MOL_PROPERTY
Bond
SciTegic.value.DoubleValue
0.128

@<SCITEGIC>MOL_PROPERTY
Angle
SciTegic.value.DoubleValue
0.603

@<SCITEGIC>MOL_PROPERTY
Pdih
SciTegic.value.DoubleValue
0.526

@<SCITEGIC>MOL_PROPERTY
Idih
SciTegic.value.DoubleValue
0.000

@<SCITEGIC>MOL_PROPERTY
Tether
SciTegic.value.DoubleValue
0.000

@<TRIPOS>MOLECULE
guest-s9_confgen4.mol2 : confsearch ligand conformer 468
          20          19           1
SMALL
USER_CHARGES
 
@<TRIPOS>ATOM
       1    C1      22.145831   19.995453   22.268759 C.3        1 MOL1        -0.2224
       2    H1      22.659804   19.721586   23.199296 H          1 MOL1         0.1052
       3    H2      22.784722   20.708158   21.731310 H          1 MOL1         0.1052
       4    H3      21.216952   20.517177   22.531423 H          1 MOL1         0.1052
       5    C2      21.872238   18.748251   21.397092 C.3        1 MOL1        -0.1209
       6    H4      22.832115   18.314908   21.082679 H          1 MOL1         0.1041
       7    H5      21.359027   19.048072   20.473332 H          1 MOL1         0.1041
       8    C3      21.051961   17.660245   22.134239 C.3        1 MOL1        -0.1274
       9    H6      20.917005   16.794333   21.472629 H          1 MOL1         0.1041
      10    H7      21.626189   17.298394   22.997426 H          1 MOL1         0.1041
      11    C4      19.671525   18.141560   22.627897 C.3        1 MOL1         0.0313
      12    H8      19.799357   18.974217   23.323675 H          1 MOL1         0.1015
      13    H9      19.173717   17.327872   23.161412 H          1 MOL1         0.1015
      14    N1      18.744740   18.598015   21.517346 N.4        1 MOL1        -0.4809
      15    H10     18.601200   17.835257   20.838012 H          1 MOL1         0.3726
      16    H11     19.183824   19.363078   20.984079 H          1 MOL1         0.3726
      17    C5      17.414104   19.050450   22.103208 C.3        1 MOL1        -0.0677
      18    H12     17.587772   19.878906   22.793324 H          1 MOL1         0.1026
      19    H13     16.757967   19.377126   21.293432 H          1 MOL1         0.1026
      20    H14     16.953419   18.215904   22.636188 H          1 MOL1         0.1026
@<TRIPOS>BOND
    1     1     2    1
    2     1     3    1
    3     1     4    1
    4     1     5    1
    5     5     6    1
    6     5     7    1
    7     5     8    1
    8     8     9    1
    9     8    10    1
   10     8    11    1
   11    11    12    1
   12    11    13    1
   13    11    14    1
   14    14    15    1
   15    14    16    1
   16    14    17    1
   17    17    18    1
   18    17    19    1
   19    17    20    1
@<TRIPOS>SUBSTRUCTURE
       1 MOL1            1 RESIDUE      1      MOL     
@<SCITEGIC>MOL_PROPERTY
VConf Rank
SciTegic.value.IntegerValue
468

@<SCITEGIC>MOL_PROPERTY
Conf_Id
SciTegic.value.IntegerValue
24

@<SCITEGIC>MOL_PROPERTY
Delta U+W
SciTegic.value.DoubleValue
0.792

@<SCITEGIC>MOL_PROPERTY
U+W
SciTegic.value.DoubleValue
16.130

@<SCITEGIC>MOL_PROPERTY
Grad RMS
SciTegic.value.DoubleValue
0.000000

@<SCITEGIC>MOL_PROPERTY
U
SciTegic.value.DoubleValue
70.374

@<SCITEGIC>MOL_PROPERTY
W
SciTegic.value.DoubleValue
-54.243

@<SCITEGIC>MOL_PROPERTY
W(PB)
SciTegic.value.DoubleValue
-56.130

@<SCITEGIC>MOL_PROPERTY
W(SA)
SciTegic.value.DoubleValue
1.887

@<SCITEGIC>MOL_PROPERTY
Valence
SciTegic.value.DoubleValue
1.257

@<SCITEGIC>MOL_PROPERTY
Coulomb
SciTegic.value.DoubleValue
69.240

@<SCITEGIC>MOL_PROPERTY
VdW
SciTegic.value.DoubleValue
-0.123

@<SCITEGIC>MOL_PROPERTY
VdW6
SciTegic.value.DoubleValue
-4.336

@<SCITEGIC>MOL_PROPERTY
VdW12
SciTegic.value.DoubleValue
4.213

@<SCITEGIC>MOL_PROPERTY
Bond
SciTegic.value.DoubleValue
0.128

@<SCITEGIC>MOL_PROPERTY
Angle
SciTegic.value.DoubleValue
0.603

@<SCITEGIC>MOL_PROPERTY
Pdih
SciTegic.value.DoubleValue
0.526

@<SCITEGIC>MOL_PROPERTY
Idih
SciTegic.value.DoubleValue
0.000

@<SCITEGIC>MOL_PROPERTY
Tether
SciTegic.value.DoubleValue
0.000

@<TRIPOS>MOLECULE
guest-s9_confgen4.mol2 : confsearch ligand conformer 469
          20          19           1
SMALL
USER_CHARGES
 
@<TRIPOS>ATOM
       1    C1      18.176616   19.768416   22.785321 C.3        1 MOL1        -0.2224
       2    H1      17.261571   20.372561   22.839363 H          1 MOL1         0.1052
       3    H2      18.010159   19.002011   22.019184 H          1 MOL1         0.1052
       4    H3      18.307736   19.276893   23.758139 H          1 MOL1         0.1052
       5    C2      19.388665   20.663352   22.439652 C.3        1 MOL1        -0.1209
       6    H4      19.384364   21.533818   23.110724 H          1 MOL1         0.1041
       7    H5      19.269363   21.063567   21.422942 H          1 MOL1         0.1041
       8    C3      20.763507   19.958157   22.563541 C.3        1 MOL1        -0.1274
       9    H6      21.544800   20.703486   22.363826 H          1 MOL1         0.1041
      10    H7      20.927609   19.619137   23.594968 H          1 MOL1         0.1041
      11    C4      20.969763   18.784568   21.582505 C.3        1 MOL1         0.0313
      12    H8      22.040636   18.597433   21.469565 H          1 MOL1         0.1015
      13    H9      20.566489   19.048022   20.601564 H          1 MOL1         0.1015
      14    N1      20.337825   17.479172   22.027019 N.4        1 MOL1        -0.4809
      15    H10     19.331715   17.615488   22.199590 H          1 MOL1         0.3726
      16    H11     20.733952   17.183843   22.932487 H          1 MOL1         0.3726
      17    C5      20.560715   16.405814   20.970309 C.3        1 MOL1        -0.0677
      18    H12     20.105163   16.725696   20.030673 H          1 MOL1         0.1026
      19    H13     21.633482   16.257506   20.829092 H          1 MOL1         0.1026
      20    H14     20.100960   15.472829   21.303677 H          1 MOL1         0.1026
@<TRIPOS>BOND
    1     1     2    1
    2     1     3    1
    3     1     4    1
    4     1     5    1
    5     5     6    1
    6     5     7    1
    7     5     8    1
    8     8     9    1
    9     8    10    1
   10     8    11    1
   11    11    12    1
   12    11    13    1
   13    11    14    1
   14    14    15    1
   15    14    16    1
   16    14    17    1
   17    17    18    1
   18    17    19    1
   19    17    20    1
@<TRIPOS>SUBSTRUCTURE
       1 MOL1            1 RESIDUE      1      MOL     
@<SCITEGIC>MOL_PROPERTY
VConf Rank
SciTegic.value.IntegerValue
469

@<SCITEGIC>MOL_PROPERTY
Conf_Id
SciTegic.value.IntegerValue
26

@<SCITEGIC>MOL_PROPERTY
Delta U+W
SciTegic.value.DoubleValue
2.888

@<SCITEGIC>MOL_PROPERTY
U+W
SciTegic.value.DoubleValue
18.226

@<SCITEGIC>MOL_PROPERTY
Grad RMS
SciTegic.value.DoubleValue
0.000000

@<SCITEGIC>MOL_PROPERTY
U
SciTegic.value.DoubleValue
72.042

@<SCITEGIC>MOL_PROPERTY
W
SciTegic.value.DoubleValue
-53.816

@<SCITEGIC>MOL_PROPERTY
W(PB)
SciTegic.value.DoubleValue
-55.689

@<SCITEGIC>MOL_PROPERTY
W(SA)
SciTegic.value.DoubleValue
1.873

@<SCITEGIC>MOL_PROPERTY
Valence
SciTegic.value.DoubleValue
2.428

@<SCITEGIC>MOL_PROPERTY
Coulomb
SciTegic.value.DoubleValue
69.829

@<SCITEGIC>MOL_PROPERTY
VdW
SciTegic.value.DoubleValue
-0.215

@<SCITEGIC>MOL_PROPERTY
VdW6
SciTegic.value.DoubleValue
-4.563

@<SCITEGIC>MOL_PROPERTY
VdW12
SciTegic.value.DoubleValue
4.348

@<SCITEGIC>MOL_PROPERTY
Bond
SciTegic.value.DoubleValue
0.137

@<SCITEGIC>MOL_PROPERTY
Angle
SciTegic.value.DoubleValue
0.936

@<SCITEGIC>MOL_PROPERTY
Pdih
SciTegic.value.DoubleValue
1.356

@<SCITEGIC>MOL_PROPERTY
Idih
SciTegic.value.DoubleValue
0.000

@<SCITEGIC>MOL_PROPERTY
Tether
SciTegic.value.DoubleValue
0.000

@<TRIPOS>MOLECULE
guest-s9_confgen4.mol2 : confsearch ligand conformer 470
          20          19           1
SMALL
USER_CHARGES
 
@<TRIPOS>ATOM
       1    C1      19.805993   20.275279   20.382851 C.3        1 MOL1        -0.2224
       2    H1      19.619082   20.679639   19.379469 H          1 MOL1         0.1052
       3    H2      20.056146   21.118849   21.039340 H          1 MOL1         0.1052
       4    H3      20.677416   19.614497   20.305145 H          1 MOL1         0.1052
       5    C2      18.560611   19.515331   20.893697 C.3        1 MOL1        -0.1209
       6    H4      18.394750   18.624994   20.270883 H          1 MOL1         0.1041
       7    H5      17.677447   20.153931   20.751298 H          1 MOL1         0.1041
       8    C3      18.628373   19.101490   22.386003 C.3        1 MOL1        -0.1274
       9    H6      18.718690   19.989705   23.025239 H          1 MOL1         0.1041
      10    H7      17.669941   18.635889   22.651413 H          1 MOL1         0.1041
      11    C4      19.749809   18.094631   22.719020 C.3        1 MOL1         0.0313
      12    H8      19.816454   17.341715   21.929742 H          1 MOL1         0.1015
      13    H9      19.505667   17.584508   23.654281 H          1 MOL1         0.1015
      14    N1      21.119037   18.721266   22.902175 N.4        1 MOL1        -0.4809
      15    H10     21.095067   19.406426   23.672881 H          1 MOL1         0.3726
      16    H11     21.374469   19.261387   22.063341 H          1 MOL1         0.3726
      17    C5      22.154184   17.639793   23.180196 C.3        1 MOL1        -0.0677
      18    H12     22.184784   16.945700   22.337541 H          1 MOL1         0.1026
      19    H13     23.133756   18.105222   23.309757 H          1 MOL1         0.1026
      20    H14     21.878269   17.103501   24.090705 H          1 MOL1         0.1026
@<TRIPOS>BOND
    1     1     2    1
    2     1     3    1
    3     1     4    1
    4     1     5    1
    5     5     6    1
    6     5     7    1
    7     5     8    1
    8     8     9    1
    9     8    10    1
   10     8    11    1
   11    11    12    1
   12    11    13    1
   13    11    14    1
   14    14    15    1
   15    14    16    1
   16    14    17    1
   17    17    18    1
   18    17    19    1
   19    17    20    1
@<TRIPOS>SUBSTRUCTURE
       1 MOL1            1 RESIDUE      1      MOL     
@<SCITEGIC>MOL_PROPERTY
VConf Rank
SciTegic.value.IntegerValue
470

@<SCITEGIC>MOL_PROPERTY
Conf_Id
SciTegic.value.IntegerValue
5

@<SCITEGIC>MOL_PROPERTY
Delta U+W
SciTegic.value.DoubleValue
2.950

@<SCITEGIC>MOL_PROPERTY
U+W
SciTegic.value.DoubleValue
18.289

@<SCITEGIC>MOL_PROPERTY
Grad RMS
SciTegic.value.DoubleValue
0.000000

@<SCITEGIC>MOL_PROPERTY
U
SciTegic.value.DoubleValue
72.042

@<SCITEGIC>MOL_PROPERTY
W
SciTegic.value.DoubleValue
-53.753

@<SCITEGIC>MOL_PROPERTY
W(PB)
SciTegic.value.DoubleValue
-55.644

@<SCITEGIC>MOL_PROPERTY
W(SA)
SciTegic.value.DoubleValue
1.891

@<SCITEGIC>MOL_PROPERTY
Valence
SciTegic.value.DoubleValue
2.428

@<SCITEGIC>MOL_PROPERTY
Coulomb
SciTegic.value.DoubleValue
69.829

@<SCITEGIC>MOL_PROPERTY
VdW
SciTegic.value.DoubleValue
-0.215

@<SCITEGIC>MOL_PROPERTY
VdW6
SciTegic.value.DoubleValue
-4.563

@<SCITEGIC>MOL_PROPERTY
VdW12
SciTegic.value.DoubleValue
4.348

@<SCITEGIC>MOL_PROPERTY
Bond
SciTegic.value.DoubleValue
0.137

@<SCITEGIC>MOL_PROPERTY
Angle
SciTegic.value.DoubleValue
0.936

@<SCITEGIC>MOL_PROPERTY
Pdih
SciTegic.value.DoubleValue
1.356

@<SCITEGIC>MOL_PROPERTY
Idih
SciTegic.value.DoubleValue
0.000

@<SCITEGIC>MOL_PROPERTY
Tether
SciTegic.value.DoubleValue
0.000

@<TRIPOS>MOLECULE
guest-s9_confgen4.mol2 : confsearch ligand conformer 471
          20          19           1
SMALL
USER_CHARGES
 
@<TRIPOS>ATOM
       1    C1      21.116370   20.293406   20.332289 C.3        1 MOL1        -0.2224
       2    H1      21.999345   19.838163   19.865208 H          1 MOL1         0.1052
       3    H2      20.221855   19.855573   19.871939 H          1 MOL1         0.1052
       4    H3      21.123778   21.363696   20.088587 H          1 MOL1         0.1052
       5    C2      21.129269   20.086002   21.864268 C.3        1 MOL1        -0.1209
       6    H4      20.239753   20.552430   22.309204 H          1 MOL1         0.1041
       7    H5      21.993373   20.615882   22.289056 H          1 MOL1         0.1041
       8    C3      21.208192   18.594406   22.274399 C.3        1 MOL1        -0.1274
       9    H6      22.148975   18.167341   21.902814 H          1 MOL1         0.1041
      10    H7      21.254720   18.519475   23.368461 H          1 MOL1         0.1041
      11    C4      20.036351   17.734655   21.747949 C.3        1 MOL1         0.0313
      12    H8      20.163161   16.701318   22.080441 H          1 MOL1         0.1015
      13    H9      20.055483   17.738286   20.655383 H          1 MOL1         0.1015
      14    N1      18.651905   18.192655   22.180233 N.4        1 MOL1        -0.4809
      15    H10     17.934361   17.651143   21.673330 H          1 MOL1         0.3726
      16    H11     18.499282   19.171239   21.895304 H          1 MOL1         0.3726
      17    C5      18.459376   18.029645   23.683889 C.3        1 MOL1        -0.0677
      18    H12     19.183110   18.654309   24.211141 H          1 MOL1         0.1026
      19    H13     17.446057   18.337864   23.950521 H          1 MOL1         0.1026
      20    H14     18.608268   16.981945   23.953682 H          1 MOL1         0.1026
@<TRIPOS>BOND
    1     1     2    1
    2     1     3    1
    3     1     4    1
    4     1     5    1
    5     5     6    1
    6     5     7    1
    7     5     8    1
    8     8     9    1
    9     8    10    1
   10     8    11    1
   11    11    12    1
   12    11    13    1
   13    11    14    1
   14    14    15    1
   15    14    16    1
   16    14    17    1
   17    17    18    1
   18    17    19    1
   19    17    20    1
@<TRIPOS>SUBSTRUCTURE
       1 MOL1            1 RESIDUE      1      MOL     
@<SCITEGIC>MOL_PROPERTY
VConf Rank
SciTegic.value.IntegerValue
471

@<SCITEGIC>MOL_PROPERTY
Conf_Id
SciTegic.value.IntegerValue
52

@<SCITEGIC>MOL_PROPERTY
Delta U+W
SciTegic.value.DoubleValue
0.784

@<SCITEGIC>MOL_PROPERTY
U+W
SciTegic.value.DoubleValue
16.122

@<SCITEGIC>MOL_PROPERTY
Grad RMS
SciTegic.value.DoubleValue
0.000000

@<SCITEGIC>MOL_PROPERTY
U
SciTegic.value.DoubleValue
70.777

@<SCITEGIC>MOL_PROPERTY
W
SciTegic.value.DoubleValue
-54.655

@<SCITEGIC>MOL_PROPERTY
W(PB)
SciTegic.value.DoubleValue
-56.491

@<SCITEGIC>MOL_PROPERTY
W(SA)
SciTegic.value.DoubleValue
1.836

@<SCITEGIC>MOL_PROPERTY
Valence
SciTegic.value.DoubleValue
1.529

@<SCITEGIC>MOL_PROPERTY
Coulomb
SciTegic.value.DoubleValue
69.166

@<SCITEGIC>MOL_PROPERTY
VdW
SciTegic.value.DoubleValue
0.082

@<SCITEGIC>MOL_PROPERTY
VdW6
SciTegic.value.DoubleValue
-5.166

@<SCITEGIC>MOL_PROPERTY
VdW12
SciTegic.value.DoubleValue
5.248

@<SCITEGIC>MOL_PROPERTY
Bond
SciTegic.value.DoubleValue
0.171

@<SCITEGIC>MOL_PROPERTY
Angle
SciTegic.value.DoubleValue
0.752

@<SCITEGIC>MOL_PROPERTY
Pdih
SciTegic.value.DoubleValue
0.605

@<SCITEGIC>MOL_PROPERTY
Idih
SciTegic.value.DoubleValue
0.000

@<SCITEGIC>MOL_PROPERTY
Tether
SciTegic.value.DoubleValue
0.000

@<TRIPOS>MOLECULE
guest-s9_confgen4.mol2 : confsearch ligand conformer 472
          20          19           1
SMALL
USER_CHARGES
 
@<TRIPOS>ATOM
       1    C1      19.023341   18.478335   23.819831 C.3        1 MOL1        -0.2224
       2    H1      18.646005   18.307080   24.836423 H          1 MOL1         0.1052
       3    H2      18.632000   19.448227   23.492244 H          1 MOL1         0.1052
       4    H3      18.609766   17.692209   23.174641 H          1 MOL1         0.1052
       5    C2      20.568922   18.456395   23.811977 C.3        1 MOL1        -0.1209
       6    H4      20.907786   17.566544   24.360943 H          1 MOL1         0.1041
       7    H5      20.951505   19.321699   24.371350 H          1 MOL1         0.1041
       8    C3      21.203073   18.425548   22.397861 C.3        1 MOL1        -0.1274
       9    H6      22.288929   18.316574   22.518806 H          1 MOL1         0.1041
      10    H7      20.874034   17.531432   21.853624 H          1 MOL1         0.1041
      11    C4      20.952969   19.696379   21.552882 C.3        1 MOL1         0.0313
      12    H8      21.684846   19.739058   20.742354 H          1 MOL1         0.1015
      13    H9      21.101039   20.577686   22.182041 H          1 MOL1         0.1015
      14    N1      19.577319   19.804870   20.913876 N.4        1 MOL1        -0.4809
      15    H10     19.444554   20.757395   20.539403 H          1 MOL1         0.3726
      16    H11     18.845728   19.690976   21.629169 H          1 MOL1         0.3726
      17    C5      19.404192   18.781626   19.796861 C.3        1 MOL1        -0.0677
      18    H12     20.182281   18.934466   19.045956 H          1 MOL1         0.1026
      19    H13     19.482302   17.774744   20.211232 H          1 MOL1         0.1026
      20    H14     18.421128   18.914048   19.339738 H          1 MOL1         0.1026
@<TRIPOS>BOND
    1     1     2    1
    2     1     3    1
    3     1     4    1
    4     1     5    1
    5     5     6    1
    6     5     7    1
    7     5     8    1
    8     8     9    1
    9     8    10    1
   10     8    11    1
   11    11    12    1
   12    11    13    1
   13    11    14    1
   14    14    15    1
   15    14    16    1
   16    14    17    1
   17    17    18    1
   18    17    19    1
   19    17    20    1
@<TRIPOS>SUBSTRUCTURE
       1 MOL1            1 RESIDUE      1      MOL     
@<SCITEGIC>MOL_PROPERTY
VConf Rank
SciTegic.value.IntegerValue
472

@<SCITEGIC>MOL_PROPERTY
Conf_Id
SciTegic.value.IntegerValue
55

@<SCITEGIC>MOL_PROPERTY
Delta U+W
SciTegic.value.DoubleValue
2.745

@<SCITEGIC>MOL_PROPERTY
U+W
SciTegic.value.DoubleValue
18.083

@<SCITEGIC>MOL_PROPERTY
Grad RMS
SciTegic.value.DoubleValue
0.000000

@<SCITEGIC>MOL_PROPERTY
U
SciTegic.value.DoubleValue
72.490

@<SCITEGIC>MOL_PROPERTY
W
SciTegic.value.DoubleValue
-54.407

@<SCITEGIC>MOL_PROPERTY
W(PB)
SciTegic.value.DoubleValue
-56.269

@<SCITEGIC>MOL_PROPERTY
W(SA)
SciTegic.value.DoubleValue
1.861

@<SCITEGIC>MOL_PROPERTY
Valence
SciTegic.value.DoubleValue
2.738

@<SCITEGIC>MOL_PROPERTY
Coulomb
SciTegic.value.DoubleValue
69.795

@<SCITEGIC>MOL_PROPERTY
VdW
SciTegic.value.DoubleValue
-0.043

@<SCITEGIC>MOL_PROPERTY
VdW6
SciTegic.value.DoubleValue
-5.333

@<SCITEGIC>MOL_PROPERTY
VdW12
SciTegic.value.DoubleValue
5.290

@<SCITEGIC>MOL_PROPERTY
Bond
SciTegic.value.DoubleValue
0.182

@<SCITEGIC>MOL_PROPERTY
Angle
SciTegic.value.DoubleValue
1.135

@<SCITEGIC>MOL_PROPERTY
Pdih
SciTegic.value.DoubleValue
1.422

@<SCITEGIC>MOL_PROPERTY
Idih
SciTegic.value.DoubleValue
0.000

@<SCITEGIC>MOL_PROPERTY
Tether
SciTegic.value.DoubleValue
0.000

@<TRIPOS>MOLECULE
guest-s9_confgen4.mol2 : confsearch ligand conformer 473
          20          19           1
SMALL
USER_CHARGES
 
@<TRIPOS>ATOM
       1    C1      19.630014   17.013127   23.037792 C.3        1 MOL1        -0.2224
       2    H1      19.544330   16.146097   23.705689 H          1 MOL1         0.1052
       3    H2      18.717394   17.055556   22.428996 H          1 MOL1         0.1052
       4    H3      20.486679   16.827108   22.380013 H          1 MOL1         0.1052
       5    C2      19.816179   18.307347   23.862237 C.3        1 MOL1        -0.1209
       6    H4      20.791195   18.283135   24.368967 H          1 MOL1         0.1041
       7    H5      19.060235   18.324365   24.659912 H          1 MOL1         0.1041
       8    C3      19.685536   19.615617   23.041145 C.3        1 MOL1        -0.1274
       9    H6      18.691528   19.677201   22.580648 H          1 MOL1         0.1041
      10    H7      19.740793   20.459117   23.741888 H          1 MOL1         0.1041
      11    C4      20.788871   19.820093   21.977004 C.3        1 MOL1         0.0313
      12    H8      21.757102   19.561679   22.413145 H          1 MOL1         0.1015
      13    H9      20.822724   20.874683   21.692194 H          1 MOL1         0.1015
      14    N1      20.626218   19.019694   20.694267 N.4        1 MOL1        -0.4809
      15    H10     20.510008   18.020624   20.913793 H          1 MOL1         0.3726
      16    H11     21.494586   19.076237   20.139382 H          1 MOL1         0.3726
      17    C5      19.450996   19.531240   19.868498 C.3        1 MOL1        -0.0677
      18    H12     18.527128   19.409316   20.437024 H          1 MOL1         0.1026
      19    H13     19.606991   20.587115   19.637344 H          1 MOL1         0.1026
      20    H14     19.388646   18.957303   18.941341 H          1 MOL1         0.1026
@<TRIPOS>BOND
    1     1     2    1
    2     1     3    1
    3     1     4    1
    4     1     5    1
    5     5     6    1
    6     5     7    1
    7     5     8    1
    8     8     9    1
    9     8    10    1
   10     8    11    1
   11    11    12    1
   12    11    13    1
   13    11    14    1
   14    14    15    1
   15    14    16    1
   16    14    17    1
   17    17    18    1
   18    17    19    1
   19    17    20    1
@<TRIPOS>SUBSTRUCTURE
       1 MOL1            1 RESIDUE      1      MOL     
@<SCITEGIC>MOL_PROPERTY
VConf Rank
SciTegic.value.IntegerValue
473

@<SCITEGIC>MOL_PROPERTY
Conf_Id
SciTegic.value.IntegerValue
76

@<SCITEGIC>MOL_PROPERTY
Delta U+W
SciTegic.value.DoubleValue
2.799

@<SCITEGIC>MOL_PROPERTY
U+W
SciTegic.value.DoubleValue
18.137

@<SCITEGIC>MOL_PROPERTY
Grad RMS
SciTegic.value.DoubleValue
0.000000

@<SCITEGIC>MOL_PROPERTY
U
SciTegic.value.DoubleValue
72.490

@<SCITEGIC>MOL_PROPERTY
W
SciTegic.value.DoubleValue
-54.353

@<SCITEGIC>MOL_PROPERTY
W(PB)
SciTegic.value.DoubleValue
-56.201

@<SCITEGIC>MOL_PROPERTY
W(SA)
SciTegic.value.DoubleValue
1.848

@<SCITEGIC>MOL_PROPERTY
Valence
SciTegic.value.DoubleValue
2.738

@<SCITEGIC>MOL_PROPERTY
Coulomb
SciTegic.value.DoubleValue
69.795

@<SCITEGIC>MOL_PROPERTY
VdW
SciTegic.value.DoubleValue
-0.043

@<SCITEGIC>MOL_PROPERTY
VdW6
SciTegic.value.DoubleValue
-5.334

@<SCITEGIC>MOL_PROPERTY
VdW12
SciTegic.value.DoubleValue
5.290

@<SCITEGIC>MOL_PROPERTY
Bond
SciTegic.value.DoubleValue
0.182

@<SCITEGIC>MOL_PROPERTY
Angle
SciTegic.value.DoubleValue
1.135

@<SCITEGIC>MOL_PROPERTY
Pdih
SciTegic.value.DoubleValue
1.421

@<SCITEGIC>MOL_PROPERTY
Idih
SciTegic.value.DoubleValue
0.000

@<SCITEGIC>MOL_PROPERTY
Tether
SciTegic.value.DoubleValue
0.000

@<TRIPOS>MOLECULE
guest-s9_confgen4.mol2 : confsearch ligand conformer 474
          20          19           1
SMALL
USER_CHARGES
 
@<TRIPOS>ATOM
       1    C1      18.011975   18.466290   21.491655 C.3        1 MOL1        -0.2224
       2    H1      18.540786   19.229961   20.908375 H          1 MOL1         0.1052
       3    H2      17.776455   17.628660   20.822432 H          1 MOL1         0.1052
       4    H3      17.062628   18.903534   21.826921 H          1 MOL1         0.1052
       5    C2      18.847776   17.990734   22.702375 C.3        1 MOL1        -0.1209
       6    H4      18.247151   17.283319   23.291143 H          1 MOL1         0.1041
       7    H5      19.055506   18.834569   23.372862 H          1 MOL1         0.1041
       8    C3      20.169711   17.296400   22.292701 C.3        1 MOL1        -0.1274
       9    H6      20.690712   16.946498   23.193553 H          1 MOL1         0.1041
      10    H7      19.927791   16.393939   21.715914 H          1 MOL1         0.1041
      11    C4      21.138880   18.160622   21.452157 C.3        1 MOL1         0.0313
      12    H8      20.641850   18.530307   20.552234 H          1 MOL1         0.1015
      13    H9      21.965183   17.520437   21.132700 H          1 MOL1         0.1015
      14    N1      21.764170   19.342551   22.178103 N.4        1 MOL1        -0.4809
      15    H10     22.705800   19.516989   21.793779 H          1 MOL1         0.3726
      16    H11     21.924080   19.111030   23.169805 H          1 MOL1         0.3726
      17    C5      20.922236   20.605342   22.030614 C.3        1 MOL1        -0.0677
      18    H12     21.424350   21.430475   22.540482 H          1 MOL1         0.1026
      19    H13     20.814294   20.841643   20.969906 H          1 MOL1         0.1026
      20    H14     19.938638   20.446793   22.473806 H          1 MOL1         0.1026
@<TRIPOS>BOND
    1     1     2    1
    2     1     3    1
    3     1     4    1
    4     1     5    1
    5     5     6    1
    6     5     7    1
    7     5     8    1
    8     8     9    1
    9     8    10    1
   10     8    11    1
   11    11    12    1
   12    11    13    1
   13    11    14    1
   14    14    15    1
   15    14    16    1
   16    14    17    1
   17    17    18    1
   18    17    19    1
   19    17    20    1
@<TRIPOS>SUBSTRUCTURE
       1 MOL1            1 RESIDUE      1      MOL     
@<SCITEGIC>MOL_PROPERTY
VConf Rank
SciTegic.value.IntegerValue
474

@<SCITEGIC>MOL_PROPERTY
Conf_Id
SciTegic.value.IntegerValue
60

@<SCITEGIC>MOL_PROPERTY
Delta U+W
SciTegic.value.DoubleValue
1.788

@<SCITEGIC>MOL_PROPERTY
U+W
SciTegic.value.DoubleValue
17.127

@<SCITEGIC>MOL_PROPERTY
Grad RMS
SciTegic.value.DoubleValue
0.000000

@<SCITEGIC>MOL_PROPERTY
U
SciTegic.value.DoubleValue
72.122

@<SCITEGIC>MOL_PROPERTY
W
SciTegic.value.DoubleValue
-54.995

@<SCITEGIC>MOL_PROPERTY
W(PB)
SciTegic.value.DoubleValue
-56.810

@<SCITEGIC>MOL_PROPERTY
W(SA)
SciTegic.value.DoubleValue
1.815

@<SCITEGIC>MOL_PROPERTY
Valence
SciTegic.value.DoubleValue
3.197

@<SCITEGIC>MOL_PROPERTY
Coulomb
SciTegic.value.DoubleValue
69.115

@<SCITEGIC>MOL_PROPERTY
VdW
SciTegic.value.DoubleValue
-0.190

@<SCITEGIC>MOL_PROPERTY
VdW6
SciTegic.value.DoubleValue
-5.585

@<SCITEGIC>MOL_PROPERTY
VdW12
SciTegic.value.DoubleValue
5.395

@<SCITEGIC>MOL_PROPERTY
Bond
SciTegic.value.DoubleValue
0.177

@<SCITEGIC>MOL_PROPERTY
Angle
SciTegic.value.DoubleValue
1.207

@<SCITEGIC>MOL_PROPERTY
Pdih
SciTegic.value.DoubleValue
1.813

@<SCITEGIC>MOL_PROPERTY
Idih
SciTegic.value.DoubleValue
0.000

@<SCITEGIC>MOL_PROPERTY
Tether
SciTegic.value.DoubleValue
0.000

@<TRIPOS>MOLECULE
guest-s9_confgen4.mol2 : confsearch ligand conformer 475
          20          19           1
SMALL
USER_CHARGES
 
@<TRIPOS>ATOM
       1    C1      18.243726   19.602589   21.435924 C.3        1 MOL1        -0.2224
       2    H1      17.900813   20.499193   20.903611 H          1 MOL1         0.1052
       3    H2      17.372495   18.953752   21.593780 H          1 MOL1         0.1052
       4    H3      18.613334   19.921483   22.418140 H          1 MOL1         0.1052
       5    C2      19.337816   18.873719   20.622120 C.3        1 MOL1        -0.1209
       6    H4      20.191739   19.542409   20.453503 H          1 MOL1         0.1041
       7    H5      18.940492   18.640560   19.624321 H          1 MOL1         0.1041
       8    C3      19.813012   17.557871   21.285582 C.3        1 MOL1        -0.1274
       9    H6      18.962334   16.865823   21.340908 H          1 MOL1         0.1041
      10    H7      20.554332   17.071516   20.638041 H          1 MOL1         0.1041
      11    C4      20.405115   17.708865   22.706600 C.3        1 MOL1         0.0313
      12    H8      20.586127   16.705677   23.100954 H          1 MOL1         0.1015
      13    H9      19.689743   18.199576   23.370687 H          1 MOL1         0.1015
      14    N1      21.730244   18.451686   22.791395 N.4        1 MOL1        -0.4809
      15    H10     22.302129   18.262384   21.954879 H          1 MOL1         0.3726
      16    H11     22.281298   18.073513   23.577604 H          1 MOL1         0.3726
      17    C5      21.526113   19.948592   22.998393 C.3        1 MOL1        -0.0677
      18    H12     20.956449   20.108542   23.916265 H          1 MOL1         0.1026
      19    H13     22.501212   20.433261   23.083276 H          1 MOL1         0.1026
      20    H14     20.982758   20.367495   22.150864 H          1 MOL1         0.1026
@<TRIPOS>BOND
    1     1     2    1
    2     1     3    1
    3     1     4    1
    4     1     5    1
    5     5     6    1
    6     5     7    1
    7     5     8    1
    8     8     9    1
    9     8    10    1
   10     8    11    1
   11    11    12    1
   12    11    13    1
   13    11    14    1
   14    14    15    1
   15    14    16    1
   16    14    17    1
   17    17    18    1
   18    17    19    1
   19    17    20    1
@<TRIPOS>SUBSTRUCTURE
       1 MOL1            1 RESIDUE      1      MOL     
@<SCITEGIC>MOL_PROPERTY
VConf Rank
SciTegic.value.IntegerValue
475

@<SCITEGIC>MOL_PROPERTY
Conf_Id
SciTegic.value.IntegerValue
54

@<SCITEGIC>MOL_PROPERTY
Delta U+W
SciTegic.value.DoubleValue
1.880

@<SCITEGIC>MOL_PROPERTY
U+W
SciTegic.value.DoubleValue
17.218

@<SCITEGIC>MOL_PROPERTY
Grad RMS
SciTegic.value.DoubleValue
0.000000

@<SCITEGIC>MOL_PROPERTY
U
SciTegic.value.DoubleValue
72.122

@<SCITEGIC>MOL_PROPERTY
W
SciTegic.value.DoubleValue
-54.903

@<SCITEGIC>MOL_PROPERTY
W(PB)
SciTegic.value.DoubleValue
-56.724

@<SCITEGIC>MOL_PROPERTY
W(SA)
SciTegic.value.DoubleValue
1.821

@<SCITEGIC>MOL_PROPERTY
Valence
SciTegic.value.DoubleValue
3.197

@<SCITEGIC>MOL_PROPERTY
Coulomb
SciTegic.value.DoubleValue
69.115

@<SCITEGIC>MOL_PROPERTY
VdW
SciTegic.value.DoubleValue
-0.190

@<SCITEGIC>MOL_PROPERTY
VdW6
SciTegic.value.DoubleValue
-5.585

@<SCITEGIC>MOL_PROPERTY
VdW12
SciTegic.value.DoubleValue
5.395

@<SCITEGIC>MOL_PROPERTY
Bond
SciTegic.value.DoubleValue
0.177

@<SCITEGIC>MOL_PROPERTY
Angle
SciTegic.value.DoubleValue
1.207

@<SCITEGIC>MOL_PROPERTY
Pdih
SciTegic.value.DoubleValue
1.813

@<SCITEGIC>MOL_PROPERTY
Idih
SciTegic.value.DoubleValue
0.000

@<SCITEGIC>MOL_PROPERTY
Tether
SciTegic.value.DoubleValue
0.000

@<TRIPOS>MOLECULE
guest-s9_confgen4.mol2 : confsearch ligand conformer 476
          20          19           1
SMALL
USER_CHARGES
 
@<TRIPOS>ATOM
       1    C1      21.147534   16.106122   20.686557 C.3        1 MOL1        -0.2224
       2    H1      21.791487   15.799933   21.521272 H          1 MOL1         0.1052
       3    H2      20.707318   15.199429   20.251650 H          1 MOL1         0.1052
       4    H3      21.780266   16.573164   19.920596 H          1 MOL1         0.1052
       5    C2      20.043116   17.074753   21.162210 C.3        1 MOL1        -0.1209
       6    H4      19.406426   16.567945   21.901211 H          1 MOL1         0.1041
       7    H5      19.395358   17.335162   20.313123 H          1 MOL1         0.1041
       8    C3      20.634144   18.361310   21.779638 C.3        1 MOL1        -0.1274
       9    H6      21.278313   18.100538   22.629939 H          1 MOL1         0.1041
      10    H7      21.267360   18.868744   21.039696 H          1 MOL1         0.1041
      11    C4      19.526751   19.321931   22.251305 C.3        1 MOL1         0.0313
      12    H8      18.903870   18.825144   22.999443 H          1 MOL1         0.1015
      13    H9      18.893004   19.595929   21.404087 H          1 MOL1         0.1015
      14    N1      20.060720   20.601047   22.865669 N.4        1 MOL1        -0.4809
      15    H10     20.662340   21.097038   22.190241 H          1 MOL1         0.3726
      16    H11     20.672347   20.383392   23.667351 H          1 MOL1         0.3726
      17    C5      18.903990   21.489846   23.302921 C.3        1 MOL1        -0.0677
      18    H12     18.301181   20.958230   24.042389 H          1 MOL1         0.1026
      19    H13     19.302452   22.406579   23.743192 H          1 MOL1         0.1026
      20    H14     18.290338   21.735615   22.433532 H          1 MOL1         0.1026
@<TRIPOS>BOND
    1     1     2    1
    2     1     3    1
    3     1     4    1
    4     1     5    1
    5     5     6    1
    6     5     7    1
    7     5     8    1
    8     8     9    1
    9     8    10    1
   10     8    11    1
   11    11    12    1
   12    11    13    1
   13    11    14    1
   14    14    15    1
   15    14    16    1
   16    14    17    1
   17    17    18    1
   18    17    19    1
   19    17    20    1
@<TRIPOS>SUBSTRUCTURE
       1 MOL1            1 RESIDUE      1      MOL     
@<SCITEGIC>MOL_PROPERTY
VConf Rank
SciTegic.value.IntegerValue
476

@<SCITEGIC>MOL_PROPERTY
Conf_Id
SciTegic.value.IntegerValue
67

@<SCITEGIC>MOL_PROPERTY
Delta U+W
SciTegic.value.DoubleValue
0.000

@<SCITEGIC>MOL_PROPERTY
U+W
SciTegic.value.DoubleValue
15.338

@<SCITEGIC>MOL_PROPERTY
Grad RMS
SciTegic.value.DoubleValue
0.000000

@<SCITEGIC>MOL_PROPERTY
U
SciTegic.value.DoubleValue
69.277

@<SCITEGIC>MOL_PROPERTY
W
SciTegic.value.DoubleValue
-53.939

@<SCITEGIC>MOL_PROPERTY
W(PB)
SciTegic.value.DoubleValue
-55.889

@<SCITEGIC>MOL_PROPERTY
W(SA)
SciTegic.value.DoubleValue
1.950

@<SCITEGIC>MOL_PROPERTY
Valence
SciTegic.value.DoubleValue
0.846

@<SCITEGIC>MOL_PROPERTY
Coulomb
SciTegic.value.DoubleValue
68.557

@<SCITEGIC>MOL_PROPERTY
VdW
SciTegic.value.DoubleValue
-0.127

@<SCITEGIC>MOL_PROPERTY
VdW6
SciTegic.value.DoubleValue
-3.008

@<SCITEGIC>MOL_PROPERTY
VdW12
SciTegic.value.DoubleValue
2.882

@<SCITEGIC>MOL_PROPERTY
Bond
SciTegic.value.DoubleValue
0.088

@<SCITEGIC>MOL_PROPERTY
Angle
SciTegic.value.DoubleValue
0.332

@<SCITEGIC>MOL_PROPERTY
Pdih
SciTegic.value.DoubleValue
0.426

@<SCITEGIC>MOL_PROPERTY
Idih
SciTegic.value.DoubleValue
0.000

@<SCITEGIC>MOL_PROPERTY
Tether
SciTegic.value.DoubleValue
0.000

@<TRIPOS>MOLECULE
guest-s9_confgen4.mol2 : confsearch ligand conformer 477
          20          19           1
SMALL
USER_CHARGES
 
@<TRIPOS>ATOM
       1    C1      22.313854   18.242036   23.902197 C.3        1 MOL1        -0.2224
       2    H1      21.650253   17.568045   24.459456 H          1 MOL1         0.1052
       3    H2      23.327172   17.821428   23.938208 H          1 MOL1         0.1052
       4    H3      22.332737   19.209068   24.421485 H          1 MOL1         0.1052
       5    C2      21.842150   18.404449   22.440900 C.3        1 MOL1        -0.1209
       6    H4      21.866744   17.427061   21.938472 H          1 MOL1         0.1041
       7    H5      22.544555   19.054943   21.900721 H          1 MOL1         0.1041
       8    C3      20.417443   18.995411   22.359269 C.3        1 MOL1        -0.1274
       9    H6      19.719831   18.342831   22.899853 H          1 MOL1         0.1041
      10    H7      20.394649   19.973596   22.857522 H          1 MOL1         0.1041
      11    C4      19.955874   19.155196   20.895917 C.3        1 MOL1         0.0313
      12    H8      19.929179   18.178451   20.406387 H          1 MOL1         0.1015
      13    H9      20.676645   19.780692   20.363073 H          1 MOL1         0.1015
      14    N1      18.589181   19.799705   20.730033 N.4        1 MOL1        -0.4809
      15    H10     18.429550   20.018675   19.734113 H          1 MOL1         0.3726
      16    H11     18.564390   20.713219   21.208211 H          1 MOL1         0.3726
      17    C5      17.479786   18.887973   21.243359 C.3        1 MOL1        -0.0677
      18    H12     17.618107   18.714706   22.312345 H          1 MOL1         0.1026
      19    H13     16.514054   19.368734   21.072472 H          1 MOL1         0.1026
      20    H14     17.517780   17.937930   20.706068 H          1 MOL1         0.1026
@<TRIPOS>BOND
    1     1     2    1
    2     1     3    1
    3     1     4    1
    4     1     5    1
    5     5     6    1
    6     5     7    1
    7     5     8    1
    8     8     9    1
    9     8    10    1
   10     8    11    1
   11    11    12    1
   12    11    13    1
   13    11    14    1
   14    14    15    1
   15    14    16    1
   16    14    17    1
   17    17    18    1
   18    17    19    1
   19    17    20    1
@<TRIPOS>SUBSTRUCTURE
       1 MOL1            1 RESIDUE      1      MOL     
@<SCITEGIC>MOL_PROPERTY
VConf Rank
SciTegic.value.IntegerValue
477

@<SCITEGIC>MOL_PROPERTY
Conf_Id
SciTegic.value.IntegerValue
37

@<SCITEGIC>MOL_PROPERTY
Delta U+W
SciTegic.value.DoubleValue
-0.021

@<SCITEGIC>MOL_PROPERTY
U+W
SciTegic.value.DoubleValue
15.318

@<SCITEGIC>MOL_PROPERTY
Grad RMS
SciTegic.value.DoubleValue
0.000000

@<SCITEGIC>MOL_PROPERTY
U
SciTegic.value.DoubleValue
69.657

@<SCITEGIC>MOL_PROPERTY
W
SciTegic.value.DoubleValue
-54.340

@<SCITEGIC>MOL_PROPERTY
W(PB)
SciTegic.value.DoubleValue
-56.238

@<SCITEGIC>MOL_PROPERTY
W(SA)
SciTegic.value.DoubleValue
1.899

@<SCITEGIC>MOL_PROPERTY
Valence
SciTegic.value.DoubleValue
1.137

@<SCITEGIC>MOL_PROPERTY
Coulomb
SciTegic.value.DoubleValue
68.383

@<SCITEGIC>MOL_PROPERTY
VdW
SciTegic.value.DoubleValue
0.138

@<SCITEGIC>MOL_PROPERTY
VdW6
SciTegic.value.DoubleValue
-3.703

@<SCITEGIC>MOL_PROPERTY
VdW12
SciTegic.value.DoubleValue
3.841

@<SCITEGIC>MOL_PROPERTY
Bond
SciTegic.value.DoubleValue
0.125

@<SCITEGIC>MOL_PROPERTY
Angle
SciTegic.value.DoubleValue
0.468

@<SCITEGIC>MOL_PROPERTY
Pdih
SciTegic.value.DoubleValue
0.543

@<SCITEGIC>MOL_PROPERTY
Idih
SciTegic.value.DoubleValue
0.000

@<SCITEGIC>MOL_PROPERTY
Tether
SciTegic.value.DoubleValue
0.000

@<TRIPOS>MOLECULE
guest-s9_confgen4.mol2 : confsearch ligand conformer 478
          20          19           1
SMALL
USER_CHARGES
 
@<TRIPOS>ATOM
       1    C1      22.621862   18.211756   20.652793 C.3        1 MOL1        -0.2224
       2    H1      23.090193   18.134479   19.662987 H          1 MOL1         0.1052
       3    H2      23.077762   19.063176   21.174720 H          1 MOL1         0.1052
       4    H3      22.864818   17.298674   21.211741 H          1 MOL1         0.1052
       5    C2      21.094151   18.393307   20.520869 C.3        1 MOL1        -0.1209
       6    H4      20.672318   17.544265   19.964546 H          1 MOL1         0.1041
       7    H5      20.883368   19.294985   19.928522 H          1 MOL1         0.1041
       8    C3      20.407520   18.504790   21.899925 C.3        1 MOL1        -0.1274
       9    H6      20.614917   17.601949   22.489405 H          1 MOL1         0.1041
      10    H7      20.831791   19.353550   22.451610 H          1 MOL1         0.1041
      11    C4      18.881896   18.684305   21.757756 C.3        1 MOL1         0.0313
      12    H8      18.478911   17.848781   21.179671 H          1 MOL1         0.1015
      13    H9      18.665857   19.607092   21.213538 H          1 MOL1         0.1015
      14    N1      18.124340   18.729084   23.074898 N.4        1 MOL1        -0.4809
      15    H10     18.328646   17.886507   23.633555 H          1 MOL1         0.3726
      16    H11     17.109705   18.684272   22.891065 H          1 MOL1         0.3726
      17    C5      18.452165   19.994171   23.860774 C.3        1 MOL1        -0.0677
      18    H12     18.207277   20.868218   23.253503 H          1 MOL1         0.1026
      19    H13     17.861635   20.007539   24.779506 H          1 MOL1         0.1026
      20    H14     19.515260   20.001768   24.109083 H          1 MOL1         0.1026
@<TRIPOS>BOND
    1     1     2    1
    2     1     3    1
    3     1     4    1
    4     1     5    1
    5     5     6    1
    6     5     7    1
    7     5     8    1
    8     8     9    1
    9     8    10    1
   10     8    11    1
   11    11    12    1
   12    11    13    1
   13    11    14    1
   14    14    15    1
   15    14    16    1
   16    14    17    1
   17    17    18    1
   18    17    19    1
   19    17    20    1
@<TRIPOS>SUBSTRUCTURE
       1 MOL1            1 RESIDUE      1      MOL     
@<SCITEGIC>MOL_PROPERTY
VConf Rank
SciTegic.value.IntegerValue
478

@<SCITEGIC>MOL_PROPERTY
Conf_Id
SciTegic.value.IntegerValue
2

@<SCITEGIC>MOL_PROPERTY
Delta U+W
SciTegic.value.DoubleValue
0.069

@<SCITEGIC>MOL_PROPERTY
U+W
SciTegic.value.DoubleValue
15.407

@<SCITEGIC>MOL_PROPERTY
Grad RMS
SciTegic.value.DoubleValue
0.000000

@<SCITEGIC>MOL_PROPERTY
U
SciTegic.value.DoubleValue
69.657

@<SCITEGIC>MOL_PROPERTY
W
SciTegic.value.DoubleValue
-54.250

@<SCITEGIC>MOL_PROPERTY
W(PB)
SciTegic.value.DoubleValue
-56.176

@<SCITEGIC>MOL_PROPERTY
W(SA)
SciTegic.value.DoubleValue
1.926

@<SCITEGIC>MOL_PROPERTY
Valence
SciTegic.value.DoubleValue
1.137

@<SCITEGIC>MOL_PROPERTY
Coulomb
SciTegic.value.DoubleValue
68.383

@<SCITEGIC>MOL_PROPERTY
VdW
SciTegic.value.DoubleValue
0.138

@<SCITEGIC>MOL_PROPERTY
VdW6
SciTegic.value.DoubleValue
-3.703

@<SCITEGIC>MOL_PROPERTY
VdW12
SciTegic.value.DoubleValue
3.841

@<SCITEGIC>MOL_PROPERTY
Bond
SciTegic.value.DoubleValue
0.125

@<SCITEGIC>MOL_PROPERTY
Angle
SciTegic.value.DoubleValue
0.468

@<SCITEGIC>MOL_PROPERTY
Pdih
SciTegic.value.DoubleValue
0.543

@<SCITEGIC>MOL_PROPERTY
Idih
SciTegic.value.DoubleValue
0.000

@<SCITEGIC>MOL_PROPERTY
Tether
SciTegic.value.DoubleValue
0.000

@<TRIPOS>MOLECULE
guest-s9_confgen4.mol2 : confsearch ligand conformer 479
          20          19           1
SMALL
USER_CHARGES
 
@<TRIPOS>ATOM
       1    C1      21.539132   17.650949   23.920030 C.3        1 MOL1        -0.2224
       2    H1      22.150975   18.173055   23.173628 H          1 MOL1         0.1052
       3    H2      21.275226   18.367214   24.708964 H          1 MOL1         0.1052
       4    H3      22.164452   16.870403   24.372482 H          1 MOL1         0.1052
       5    C2      20.273251   17.030948   23.284865 C.3        1 MOL1        -0.1209
       6    H4      19.742068   16.442086   24.045851 H          1 MOL1         0.1041
       7    H5      20.564907   16.323716   22.495583 H          1 MOL1         0.1041
       8    C3      19.307085   18.090167   22.704558 C.3        1 MOL1        -0.1274
       9    H6      18.400825   17.586783   22.342405 H          1 MOL1         0.1041
      10    H7      18.989462   18.774830   23.502191 H          1 MOL1         0.1041
      11    C4      19.933461   18.895868   21.549679 C.3        1 MOL1         0.0313
      12    H8      20.247312   18.214521   20.754923 H          1 MOL1         0.1015
      13    H9      20.814305   19.432437   21.910198 H          1 MOL1         0.1015
      14    N1      18.987541   19.913978   20.943743 N.4        1 MOL1        -0.4809
      15    H10     18.660486   20.571932   21.667774 H          1 MOL1         0.3726
      16    H11     18.136508   19.446857   20.594967 H          1 MOL1         0.3726
      17    C5      19.684508   20.664182   19.816569 C.3        1 MOL1        -0.0677
      18    H12     19.991199   19.952943   19.046580 H          1 MOL1         0.1026
      19    H13     18.992606   21.393440   19.389418 H          1 MOL1         0.1026
      20    H14     20.561673   21.178589   20.215025 H          1 MOL1         0.1026
@<TRIPOS>BOND
    1     1     2    1
    2     1     3    1
    3     1     4    1
    4     1     5    1
    5     5     6    1
    6     5     7    1
    7     5     8    1
    8     8     9    1
    9     8    10    1
   10     8    11    1
   11    11    12    1
   12    11    13    1
   13    11    14    1
   14    14    15    1
   15    14    16    1
   16    14    17    1
   17    17    18    1
   18    17    19    1
   19    17    20    1
@<TRIPOS>SUBSTRUCTURE
       1 MOL1            1 RESIDUE      1      MOL     
@<SCITEGIC>MOL_PROPERTY
VConf Rank
SciTegic.value.IntegerValue
479

@<SCITEGIC>MOL_PROPERTY
Conf_Id
SciTegic.value.IntegerValue
34

@<SCITEGIC>MOL_PROPERTY
Delta U+W
SciTegic.value.DoubleValue
0.276

@<SCITEGIC>MOL_PROPERTY
U+W
SciTegic.value.DoubleValue
15.615

@<SCITEGIC>MOL_PROPERTY
Grad RMS
SciTegic.value.DoubleValue
0.000000

@<SCITEGIC>MOL_PROPERTY
U
SciTegic.value.DoubleValue
69.798

@<SCITEGIC>MOL_PROPERTY
W
SciTegic.value.DoubleValue
-54.184

@<SCITEGIC>MOL_PROPERTY
W(PB)
SciTegic.value.DoubleValue
-56.116

@<SCITEGIC>MOL_PROPERTY
W(SA)
SciTegic.value.DoubleValue
1.933

@<SCITEGIC>MOL_PROPERTY
Valence
SciTegic.value.DoubleValue
1.134

@<SCITEGIC>MOL_PROPERTY
Coulomb
SciTegic.value.DoubleValue
68.735

@<SCITEGIC>MOL_PROPERTY
VdW
SciTegic.value.DoubleValue
-0.070

@<SCITEGIC>MOL_PROPERTY
VdW6
SciTegic.value.DoubleValue
-3.565

@<SCITEGIC>MOL_PROPERTY
VdW12
SciTegic.value.DoubleValue
3.494

@<SCITEGIC>MOL_PROPERTY
Bond
SciTegic.value.DoubleValue
0.108

@<SCITEGIC>MOL_PROPERTY
Angle
SciTegic.value.DoubleValue
0.456

@<SCITEGIC>MOL_PROPERTY
Pdih
SciTegic.value.DoubleValue
0.569

@<SCITEGIC>MOL_PROPERTY
Idih
SciTegic.value.DoubleValue
0.000

@<SCITEGIC>MOL_PROPERTY
Tether
SciTegic.value.DoubleValue
0.000

@<TRIPOS>MOLECULE
guest-s9_confgen4.mol2 : confsearch ligand conformer 480
          20          19           1
SMALL
USER_CHARGES
 
@<TRIPOS>ATOM
       1    C1      17.780480   16.758506   22.021237 C.3        1 MOL1        -0.2224
       2    H1      16.823252   17.282543   21.901787 H          1 MOL1         0.1052
       3    H2      17.747096   15.852906   21.401722 H          1 MOL1         0.1052
       4    H3      17.869871   16.445431   23.069652 H          1 MOL1         0.1052
       5    C2      18.963926   17.659626   21.607154 C.3        1 MOL1        -0.1209
       6    H4      18.862391   17.929435   20.546391 H          1 MOL1         0.1041
       7    H5      19.898381   17.090046   21.701332 H          1 MOL1         0.1041
       8    C3      19.033510   18.943971   22.466689 C.3        1 MOL1        -0.1274
       9    H6      18.078931   19.481785   22.393090 H          1 MOL1         0.1041
      10    H7      19.163348   18.682469   23.525280 H          1 MOL1         0.1041
      11    C4      20.164013   19.896573   22.028450 C.3        1 MOL1         0.0313
      12    H8      20.104816   20.819456   22.611032 H          1 MOL1         0.1015
      13    H9      20.040447   20.152314   20.973100 H          1 MOL1         0.1015
      14    N1      21.558558   19.328182   22.213007 N.4        1 MOL1        -0.4809
      15    H10     21.659831   18.453701   21.676835 H          1 MOL1         0.3726
      16    H11     21.707470   19.064924   23.199195 H          1 MOL1         0.3726
      17    C5      22.598419   20.348456   21.769647 C.3        1 MOL1        -0.0677
      18    H12     22.442027   20.586903   20.715382 H          1 MOL1         0.1026
      19    H13     22.494570   21.253233   22.372456 H          1 MOL1         0.1026
      20    H14     23.596511   19.926837   21.907634 H          1 MOL1         0.1026
@<TRIPOS>BOND
    1     1     2    1
    2     1     3    1
    3     1     4    1
    4     1     5    1
    5     5     6    1
    6     5     7    1
    7     5     8    1
    8     8     9    1
    9     8    10    1
   10     8    11    1
   11    11    12    1
   12    11    13    1
   13    11    14    1
   14    14    15    1
   15    14    16    1
   16    14    17    1
   17    17    18    1
   18    17    19    1
   19    17    20    1
@<TRIPOS>SUBSTRUCTURE
       1 MOL1            1 RESIDUE      1      MOL     
@<SCITEGIC>MOL_PROPERTY
VConf Rank
SciTegic.value.IntegerValue
480

@<SCITEGIC>MOL_PROPERTY
Conf_Id
SciTegic.value.IntegerValue
50

@<SCITEGIC>MOL_PROPERTY
Delta U+W
SciTegic.value.DoubleValue
0.319

@<SCITEGIC>MOL_PROPERTY
U+W
SciTegic.value.DoubleValue
15.657

@<SCITEGIC>MOL_PROPERTY
Grad RMS
SciTegic.value.DoubleValue
0.000000

@<SCITEGIC>MOL_PROPERTY
U
SciTegic.value.DoubleValue
69.962

@<SCITEGIC>MOL_PROPERTY
W
SciTegic.value.DoubleValue
-54.305

@<SCITEGIC>MOL_PROPERTY
W(PB)
SciTegic.value.DoubleValue
-56.223

@<SCITEGIC>MOL_PROPERTY
W(SA)
SciTegic.value.DoubleValue
1.918

@<SCITEGIC>MOL_PROPERTY
Valence
SciTegic.value.DoubleValue
0.982

@<SCITEGIC>MOL_PROPERTY
Coulomb
SciTegic.value.DoubleValue
69.058

@<SCITEGIC>MOL_PROPERTY
VdW
SciTegic.value.DoubleValue
-0.078

@<SCITEGIC>MOL_PROPERTY
VdW6
SciTegic.value.DoubleValue
-3.548

@<SCITEGIC>MOL_PROPERTY
VdW12
SciTegic.value.DoubleValue
3.471

@<SCITEGIC>MOL_PROPERTY
Bond
SciTegic.value.DoubleValue
0.105

@<SCITEGIC>MOL_PROPERTY
Angle
SciTegic.value.DoubleValue
0.408

@<SCITEGIC>MOL_PROPERTY
Pdih
SciTegic.value.DoubleValue
0.469

@<SCITEGIC>MOL_PROPERTY
Idih
SciTegic.value.DoubleValue
0.000

@<SCITEGIC>MOL_PROPERTY
Tether
SciTegic.value.DoubleValue
0.000

@<TRIPOS>MOLECULE
guest-s9_confgen4.mol2 : confsearch ligand conformer 481
          20          19           1
SMALL
USER_CHARGES
 
@<TRIPOS>ATOM
       1    C1      17.384001   20.178240   21.555207 C.3        1 MOL1        -0.2224
       2    H1      16.408312   19.712296   21.744823 H          1 MOL1         0.1052
       3    H2      17.388259   21.160183   22.046063 H          1 MOL1         0.1052
       4    H3      17.475947   20.337130   20.472857 H          1 MOL1         0.1052
       5    C2      18.527120   19.285899   22.085330 C.3        1 MOL1        -0.1209
       6    H4      18.466636   18.301162   21.602495 H          1 MOL1         0.1041
       7    H5      18.389378   19.119731   23.163170 H          1 MOL1         0.1041
       8    C3      19.914463   19.920746   21.829526 C.3        1 MOL1        -0.1274
       9    H6      20.070636   20.063738   20.752020 H          1 MOL1         0.1041
      10    H7      19.945624   20.919716   22.284466 H          1 MOL1         0.1041
      11    C4      21.071617   19.084367   22.411770 C.3        1 MOL1         0.0313
      12    H8      20.914225   18.935087   23.482928 H          1 MOL1         0.1015
      13    H9      22.011499   19.626121   22.278556 H          1 MOL1         0.1015
      14    N1      21.234813   17.720586   21.767288 N.4        1 MOL1        -0.4809
      15    H10     21.375481   17.822472   20.750489 H          1 MOL1         0.3726
      16    H11     20.368194   17.172301   21.871251 H          1 MOL1         0.3726
      17    C5      22.409545   16.985014   22.397985 C.3        1 MOL1        -0.0677
      18    H12     22.515451   16.005987   21.925460 H          1 MOL1         0.1026
      19    H13     23.321320   17.566996   22.247154 H          1 MOL1         0.1026
      20    H14     22.223760   16.859721   23.466899 H          1 MOL1         0.1026
@<TRIPOS>BOND
    1     1     2    1
    2     1     3    1
    3     1     4    1
    4     1     5    1
    5     5     6    1
    6     5     7    1
    7     5     8    1
    8     8     9    1
    9     8    10    1
   10     8    11    1
   11    11    12    1
   12    11    13    1
   13    11    14    1
   14    14    15    1
   15    14    16    1
   16    14    17    1
   17    17    18    1
   18    17    19    1
   19    17    20    1
@<TRIPOS>SUBSTRUCTURE
       1 MOL1            1 RESIDUE      1      MOL     
@<SCITEGIC>MOL_PROPERTY
VConf Rank
SciTegic.value.IntegerValue
481

@<SCITEGIC>MOL_PROPERTY
Conf_Id
SciTegic.value.IntegerValue
35

@<SCITEGIC>MOL_PROPERTY
Delta U+W
SciTegic.value.DoubleValue
0.360

@<SCITEGIC>MOL_PROPERTY
U+W
SciTegic.value.DoubleValue
15.698

@<SCITEGIC>MOL_PROPERTY
Grad RMS
SciTegic.value.DoubleValue
0.000000

@<SCITEGIC>MOL_PROPERTY
U
SciTegic.value.DoubleValue
69.962

@<SCITEGIC>MOL_PROPERTY
W
SciTegic.value.DoubleValue
-54.264

@<SCITEGIC>MOL_PROPERTY
W(PB)
SciTegic.value.DoubleValue
-56.166

@<SCITEGIC>MOL_PROPERTY
W(SA)
SciTegic.value.DoubleValue
1.902

@<SCITEGIC>MOL_PROPERTY
Valence
SciTegic.value.DoubleValue
0.982

@<SCITEGIC>MOL_PROPERTY
Coulomb
SciTegic.value.DoubleValue
69.058

@<SCITEGIC>MOL_PROPERTY
VdW
SciTegic.value.DoubleValue
-0.078

@<SCITEGIC>MOL_PROPERTY
VdW6
SciTegic.value.DoubleValue
-3.548

@<SCITEGIC>MOL_PROPERTY
VdW12
SciTegic.value.DoubleValue
3.471

@<SCITEGIC>MOL_PROPERTY
Bond
SciTegic.value.DoubleValue
0.105

@<SCITEGIC>MOL_PROPERTY
Angle
SciTegic.value.DoubleValue
0.408

@<SCITEGIC>MOL_PROPERTY
Pdih
SciTegic.value.DoubleValue
0.469

@<SCITEGIC>MOL_PROPERTY
Idih
SciTegic.value.DoubleValue
0.000

@<SCITEGIC>MOL_PROPERTY
Tether
SciTegic.value.DoubleValue
0.000

@<TRIPOS>MOLECULE
guest-s9_confgen4.mol2 : confsearch ligand conformer 482
          20          19           1
SMALL
USER_CHARGES
 
@<TRIPOS>ATOM
       1    C1      22.164808   19.010699   20.565590 C.3        1 MOL1        -0.2224
       2    H1      22.076832   17.926801   20.712201 H          1 MOL1         0.1052
       3    H2      22.816940   19.175244   19.698051 H          1 MOL1         0.1052
       4    H3      22.664721   19.436151   21.445460 H          1 MOL1         0.1052
       5    C2      20.783856   19.667581   20.338244 C.3        1 MOL1        -0.1209
       6    H4      20.303300   19.221081   19.456274 H          1 MOL1         0.1041
       7    H5      20.927028   20.732230   20.105841 H          1 MOL1         0.1041
       8    C3      19.846843   19.541928   21.562209 C.3        1 MOL1        -0.1274
       9    H6      20.315852   20.022473   22.430436 H          1 MOL1         0.1041
      10    H7      18.919150   20.093444   21.360390 H          1 MOL1         0.1041
      11    C4      19.500122   18.074753   21.894849 C.3        1 MOL1         0.0313
      12    H8      20.408106   17.529645   22.163508 H          1 MOL1         0.1015
      13    H9      19.071372   17.601976   21.007593 H          1 MOL1         0.1015
      14    N1      18.501011   17.902235   23.027286 N.4        1 MOL1        -0.4809
      15    H10     18.200946   16.915925   23.075883 H          1 MOL1         0.3726
      16    H11     17.638484   18.430932   22.826676 H          1 MOL1         0.3726
      17    C5      19.099945   18.327328   24.363677 C.3        1 MOL1        -0.0677
      18    H12     19.354240   19.388368   24.326048 H          1 MOL1         0.1026
      19    H13     18.367387   18.154299   25.155121 H          1 MOL1         0.1026
      20    H14     19.998318   17.737785   24.558771 H          1 MOL1         0.1026
@<TRIPOS>BOND
    1     1     2    1
    2     1     3    1
    3     1     4    1
    4     1     5    1
    5     5     6    1
    6     5     7    1
    7     5     8    1
    8     8     9    1
    9     8    10    1
   10     8    11    1
   11    11    12    1
   12    11    13    1
   13    11    14    1
   14    14    15    1
   15    14    16    1
   16    14    17    1
   17    17    18    1
   18    17    19    1
   19    17    20    1
@<TRIPOS>SUBSTRUCTURE
       1 MOL1            1 RESIDUE      1      MOL     
@<SCITEGIC>MOL_PROPERTY
VConf Rank
SciTegic.value.IntegerValue
482

@<SCITEGIC>MOL_PROPERTY
Conf_Id
SciTegic.value.IntegerValue
33

@<SCITEGIC>MOL_PROPERTY
Delta U+W
SciTegic.value.DoubleValue
0.372

@<SCITEGIC>MOL_PROPERTY
U+W
SciTegic.value.DoubleValue
15.711

@<SCITEGIC>MOL_PROPERTY
Grad RMS
SciTegic.value.DoubleValue
0.000000

@<SCITEGIC>MOL_PROPERTY
U
SciTegic.value.DoubleValue
70.163

@<SCITEGIC>MOL_PROPERTY
W
SciTegic.value.DoubleValue
-54.452

@<SCITEGIC>MOL_PROPERTY
W(PB)
SciTegic.value.DoubleValue
-56.363

@<SCITEGIC>MOL_PROPERTY
W(SA)
SciTegic.value.DoubleValue
1.911

@<SCITEGIC>MOL_PROPERTY
Valence
SciTegic.value.DoubleValue
1.420

@<SCITEGIC>MOL_PROPERTY
Coulomb
SciTegic.value.DoubleValue
68.566

@<SCITEGIC>MOL_PROPERTY
VdW
SciTegic.value.DoubleValue
0.177

@<SCITEGIC>MOL_PROPERTY
VdW6
SciTegic.value.DoubleValue
-4.267

@<SCITEGIC>MOL_PROPERTY
VdW12
SciTegic.value.DoubleValue
4.445

@<SCITEGIC>MOL_PROPERTY
Bond
SciTegic.value.DoubleValue
0.146

@<SCITEGIC>MOL_PROPERTY
Angle
SciTegic.value.DoubleValue
0.581

@<SCITEGIC>MOL_PROPERTY
Pdih
SciTegic.value.DoubleValue
0.693

@<SCITEGIC>MOL_PROPERTY
Idih
SciTegic.value.DoubleValue
0.000

@<SCITEGIC>MOL_PROPERTY
Tether
SciTegic.value.DoubleValue
0.000

@<TRIPOS>MOLECULE
guest-s9_confgen4.mol2 : confsearch ligand conformer 483
          20          19           1
SMALL
USER_CHARGES
 
@<TRIPOS>ATOM
       1    C1      19.761925   20.021991   24.252532 C.3        1 MOL1        -0.2224
       2    H1      19.758729   20.230215   25.330311 H          1 MOL1         0.1052
       3    H2      20.640031   20.519829   23.822234 H          1 MOL1         0.1052
       4    H3      18.862444   20.479700   23.820639 H          1 MOL1         0.1052
       5    C2      19.789292   18.497842   23.994791 C.3        1 MOL1        -0.1209
       6    H4      18.943886   18.030252   24.518847 H          1 MOL1         0.1041
       7    H5      20.700512   18.065743   24.431982 H          1 MOL1         0.1041
       8    C3      19.710478   18.138188   22.492687 C.3        1 MOL1        -0.1274
       9    H6      19.656923   17.046469   22.388774 H          1 MOL1         0.1041
      10    H7      18.780528   18.540274   22.070515 H          1 MOL1         0.1041
      11    C4      20.922646   18.662849   21.693411 C.3        1 MOL1         0.0313
      12    H8      21.839944   18.284498   22.151650 H          1 MOL1         0.1015
      13    H9      20.949919   19.754391   21.732737 H          1 MOL1         0.1015
      14    N1      20.942963   18.248815   20.231027 N.4        1 MOL1        -0.4809
      15    H10     20.885005   17.222329   20.149265 H          1 MOL1         0.3726
      16    H11     21.854492   18.495870   19.814752 H          1 MOL1         0.3726
      17    C5      19.818428   18.920037   19.449843 C.3        1 MOL1        -0.0677
      18    H12     19.888612   18.627971   18.399731 H          1 MOL1         0.1026
      19    H13     18.855641   18.601992   19.854535 H          1 MOL1         0.1026
      20    H14     19.917183   20.004136   19.537450 H          1 MOL1         0.1026
@<TRIPOS>BOND
    1     1     2    1
    2     1     3    1
    3     1     4    1
    4     1     5    1
    5     5     6    1
    6     5     7    1
    7     5     8    1
    8     8     9    1
    9     8    10    1
   10     8    11    1
   11    11    12    1
   12    11    13    1
   13    11    14    1
   14    14    15    1
   15    14    16    1
   16    14    17    1
   17    17    18    1
   18    17    19    1
   19    17    20    1
@<TRIPOS>SUBSTRUCTURE
       1 MOL1            1 RESIDUE      1      MOL     
@<SCITEGIC>MOL_PROPERTY
VConf Rank
SciTegic.value.IntegerValue
483

@<SCITEGIC>MOL_PROPERTY
Conf_Id
SciTegic.value.IntegerValue
53

@<SCITEGIC>MOL_PROPERTY
Delta U+W
SciTegic.value.DoubleValue
0.379

@<SCITEGIC>MOL_PROPERTY
U+W
SciTegic.value.DoubleValue
15.717

@<SCITEGIC>MOL_PROPERTY
Grad RMS
SciTegic.value.DoubleValue
0.000000

@<SCITEGIC>MOL_PROPERTY
U
SciTegic.value.DoubleValue
70.163

@<SCITEGIC>MOL_PROPERTY
W
SciTegic.value.DoubleValue
-54.446

@<SCITEGIC>MOL_PROPERTY
W(PB)
SciTegic.value.DoubleValue
-56.322

@<SCITEGIC>MOL_PROPERTY
W(SA)
SciTegic.value.DoubleValue
1.876

@<SCITEGIC>MOL_PROPERTY
Valence
SciTegic.value.DoubleValue
1.420

@<SCITEGIC>MOL_PROPERTY
Coulomb
SciTegic.value.DoubleValue
68.566

@<SCITEGIC>MOL_PROPERTY
VdW
SciTegic.value.DoubleValue
0.177

@<SCITEGIC>MOL_PROPERTY
VdW6
SciTegic.value.DoubleValue
-4.267

@<SCITEGIC>MOL_PROPERTY
VdW12
SciTegic.value.DoubleValue
4.445

@<SCITEGIC>MOL_PROPERTY
Bond
SciTegic.value.DoubleValue
0.146

@<SCITEGIC>MOL_PROPERTY
Angle
SciTegic.value.DoubleValue
0.581

@<SCITEGIC>MOL_PROPERTY
Pdih
SciTegic.value.DoubleValue
0.693

@<SCITEGIC>MOL_PROPERTY
Idih
SciTegic.value.DoubleValue
0.000

@<SCITEGIC>MOL_PROPERTY
Tether
SciTegic.value.DoubleValue
0.000

@<TRIPOS>MOLECULE
guest-s9_confgen4.mol2 : confsearch ligand conformer 484
          20          19           1
SMALL
USER_CHARGES
 
@<TRIPOS>ATOM
       1    C1      18.609768   16.516559   22.339354 C.3        1 MOL1        -0.2224
       2    H1      18.946285   15.475399   22.251361 H          1 MOL1         0.1052
       3    H2      17.955508   16.584933   23.218226 H          1 MOL1         0.1052
       4    H3      18.012086   16.753014   21.449395 H          1 MOL1         0.1052
       5    C2      19.816567   17.471027   22.468148 C.3        1 MOL1        -0.1209
       6    H4      20.466848   17.346983   21.591560 H          1 MOL1         0.1041
       7    H5      20.411726   17.189491   23.348321 H          1 MOL1         0.1041
       8    C3      19.368971   18.946533   22.591680 C.3        1 MOL1        -0.1274
       9    H6      18.797028   19.241263   21.702434 H          1 MOL1         0.1041
      10    H7      18.685187   19.047973   23.444790 H          1 MOL1         0.1041
      11    C4      20.552178   19.917688   22.800342 C.3        1 MOL1         0.0313
      12    H8      21.076284   19.645686   23.720101 H          1 MOL1         0.1015
      13    H9      20.171540   20.935106   22.920635 H          1 MOL1         0.1015
      14    N1      21.581718   19.941332   21.680468 N.4        1 MOL1        -0.4809
      15    H10     21.966050   18.996966   21.530492 H          1 MOL1         0.3726
      16    H11     22.390556   20.514515   21.967636 H          1 MOL1         0.3726
      17    C5      20.985785   20.495081   20.390832 C.3        1 MOL1        -0.0677
      18    H12     20.604794   21.501978   20.574305 H          1 MOL1         0.1026
      19    H13     21.762441   20.529669   19.623668 H          1 MOL1         0.1026
      20    H14     20.172729   19.845909   20.059881 H          1 MOL1         0.1026
@<TRIPOS>BOND
    1     1     2    1
    2     1     3    1
    3     1     4    1
    4     1     5    1
    5     5     6    1
    6     5     7    1
    7     5     8    1
    8     8     9    1
    9     8    10    1
   10     8    11    1
   11    11    12    1
   12    11    13    1
   13    11    14    1
   14    14    15    1
   15    14    16    1
   16    14    17    1
   17    17    18    1
   18    17    19    1
   19    17    20    1
@<TRIPOS>SUBSTRUCTURE
       1 MOL1            1 RESIDUE      1      MOL     
@<SCITEGIC>MOL_PROPERTY
VConf Rank
SciTegic.value.IntegerValue
484

@<SCITEGIC>MOL_PROPERTY
Conf_Id
SciTegic.value.IntegerValue
49

@<SCITEGIC>MOL_PROPERTY
Delta U+W
SciTegic.value.DoubleValue
0.268

@<SCITEGIC>MOL_PROPERTY
U+W
SciTegic.value.DoubleValue
15.607

@<SCITEGIC>MOL_PROPERTY
Grad RMS
SciTegic.value.DoubleValue
0.000000

@<SCITEGIC>MOL_PROPERTY
U
SciTegic.value.DoubleValue
70.298

@<SCITEGIC>MOL_PROPERTY
W
SciTegic.value.DoubleValue
-54.692

@<SCITEGIC>MOL_PROPERTY
W(PB)
SciTegic.value.DoubleValue
-56.576

@<SCITEGIC>MOL_PROPERTY
W(SA)
SciTegic.value.DoubleValue
1.885

@<SCITEGIC>MOL_PROPERTY
Valence
SciTegic.value.DoubleValue
1.245

@<SCITEGIC>MOL_PROPERTY
Coulomb
SciTegic.value.DoubleValue
68.933

@<SCITEGIC>MOL_PROPERTY
VdW
SciTegic.value.DoubleValue
0.120

@<SCITEGIC>MOL_PROPERTY
VdW6
SciTegic.value.DoubleValue
-4.430

@<SCITEGIC>MOL_PROPERTY
VdW12
SciTegic.value.DoubleValue
4.550

@<SCITEGIC>MOL_PROPERTY
Bond
SciTegic.value.DoubleValue
0.148

@<SCITEGIC>MOL_PROPERTY
Angle
SciTegic.value.DoubleValue
0.587

@<SCITEGIC>MOL_PROPERTY
Pdih
SciTegic.value.DoubleValue
0.509

@<SCITEGIC>MOL_PROPERTY
Idih
SciTegic.value.DoubleValue
0.000

@<SCITEGIC>MOL_PROPERTY
Tether
SciTegic.value.DoubleValue
0.000

@<TRIPOS>MOLECULE
guest-s9_confgen4.mol2 : confsearch ligand conformer 485
          20          19           1
SMALL
USER_CHARGES
 
@<TRIPOS>ATOM
       1    C1      20.612143   21.341149   22.795047 C.3        1 MOL1        -0.2224
       2    H1      19.758788   21.553366   23.452253 H          1 MOL1         0.1052
       3    H2      21.525658   21.363378   23.403435 H          1 MOL1         0.1052
       4    H3      20.679425   22.152607   22.058834 H          1 MOL1         0.1052
       5    C2      20.445306   19.977481   22.090134 C.3        1 MOL1        -0.1209
       6    H4      21.299005   19.806090   21.419453 H          1 MOL1         0.1041
       7    H5      19.544555   20.010878   21.463173 H          1 MOL1         0.1041
       8    C3      20.336926   18.816890   23.106454 C.3        1 MOL1        -0.1274
       9    H6      21.186668   18.867572   23.800086 H          1 MOL1         0.1041
      10    H7      19.433221   18.941462   23.717482 H          1 MOL1         0.1041
      11    C4      20.331773   17.411631   22.462987 C.3        1 MOL1         0.0313
      12    H8      20.318303   16.672653   23.268267 H          1 MOL1         0.1015
      13    H9      21.246092   17.254753   21.885313 H          1 MOL1         0.1015
      14    N1      19.142460   17.103080   21.566553 N.4        1 MOL1        -0.4809
      15    H10     18.298824   17.586767   21.908846 H          1 MOL1         0.3726
      16    H11     18.916428   16.098471   21.634936 H          1 MOL1         0.3726
      17    C5      19.435566   17.453116   20.111146 C.3        1 MOL1        -0.0677
      18    H12     18.567528   17.195482   19.500334 H          1 MOL1         0.1026
      19    H13     19.641440   18.520340   20.021931 H          1 MOL1         0.1026
      20    H14     20.303128   16.882060   19.773624 H          1 MOL1         0.1026
@<TRIPOS>BOND
    1     1     2    1
    2     1     3    1
    3     1     4    1
    4     1     5    1
    5     5     6    1
    6     5     7    1
    7     5     8    1
    8     8     9    1
    9     8    10    1
   10     8    11    1
   11    11    12    1
   12    11    13    1
   13    11    14    1
   14    14    15    1
   15    14    16    1
   16    14    17    1
   17    17    18    1
   18    17    19    1
   19    17    20    1
@<TRIPOS>SUBSTRUCTURE
       1 MOL1            1 RESIDUE      1      MOL     
@<SCITEGIC>MOL_PROPERTY
VConf Rank
SciTegic.value.IntegerValue
485

@<SCITEGIC>MOL_PROPERTY
Conf_Id
SciTegic.value.IntegerValue
65

@<SCITEGIC>MOL_PROPERTY
Delta U+W
SciTegic.value.DoubleValue
1.775

@<SCITEGIC>MOL_PROPERTY
U+W
SciTegic.value.DoubleValue
17.114

@<SCITEGIC>MOL_PROPERTY
Grad RMS
SciTegic.value.DoubleValue
0.000000

@<SCITEGIC>MOL_PROPERTY
U
SciTegic.value.DoubleValue
71.726

@<SCITEGIC>MOL_PROPERTY
W
SciTegic.value.DoubleValue
-54.613

@<SCITEGIC>MOL_PROPERTY
W(PB)
SciTegic.value.DoubleValue
-56.495

@<SCITEGIC>MOL_PROPERTY
W(SA)
SciTegic.value.DoubleValue
1.883

@<SCITEGIC>MOL_PROPERTY
Valence
SciTegic.value.DoubleValue
2.885

@<SCITEGIC>MOL_PROPERTY
Coulomb
SciTegic.value.DoubleValue
68.822

@<SCITEGIC>MOL_PROPERTY
VdW
SciTegic.value.DoubleValue
0.019

@<SCITEGIC>MOL_PROPERTY
VdW6
SciTegic.value.DoubleValue
-4.600

@<SCITEGIC>MOL_PROPERTY
VdW12
SciTegic.value.DoubleValue
4.619

@<SCITEGIC>MOL_PROPERTY
Bond
SciTegic.value.DoubleValue
0.152

@<SCITEGIC>MOL_PROPERTY
Angle
SciTegic.value.DoubleValue
0.862

@<SCITEGIC>MOL_PROPERTY
Pdih
SciTegic.value.DoubleValue
1.871

@<SCITEGIC>MOL_PROPERTY
Idih
SciTegic.value.DoubleValue
0.000

@<SCITEGIC>MOL_PROPERTY
Tether
SciTegic.value.DoubleValue
0.000

@<TRIPOS>MOLECULE
guest-s9_confgen4.mol2 : confsearch ligand conformer 486
          20          19           1
SMALL
USER_CHARGES
 
@<TRIPOS>ATOM
       1    C1      19.075692   19.314255   24.102691 C.3        1 MOL1        -0.2224
       2    H1      20.170850   19.360798   24.053021 H          1 MOL1         0.1052
       3    H2      18.733634   20.183549   24.679149 H          1 MOL1         0.1052
       4    H3      18.796170   18.411632   24.661449 H          1 MOL1         0.1052
       5    C2      18.440592   19.314364   22.693145 C.3        1 MOL1        -0.1209
       6    H4      18.733975   20.226186   22.155449 H          1 MOL1         0.1041
       7    H5      17.347178   19.361577   22.794253 H          1 MOL1         0.1041
       8    C3      18.810360   18.061458   21.860380 C.3        1 MOL1        -0.1274
       9    H6      18.418821   17.166466   22.361830 H          1 MOL1         0.1041
      10    H7      18.307332   18.109915   20.885517 H          1 MOL1         0.1041
      11    C4      20.326689   17.878994   21.640335 C.3        1 MOL1         0.0313
      12    H8      20.502659   16.960733   21.074320 H          1 MOL1         0.1015
      13    H9      20.829691   17.783325   22.605531 H          1 MOL1         0.1015
      14    N1      20.980945   19.018595   20.882800 N.4        1 MOL1        -0.4809
      15    H10     20.830061   19.906962   21.383328 H          1 MOL1         0.3726
      16    H11     20.529429   19.139882   19.963386 H          1 MOL1         0.3726
      17    C5      22.469646   18.745598   20.716190 C.3        1 MOL1        -0.0677
      18    H12     22.604704   17.817317   20.156889 H          1 MOL1         0.1026
      19    H13     22.927561   19.573791   20.170864 H          1 MOL1         0.1026
      20    H14     22.931233   18.653717   21.701713 H          1 MOL1         0.1026
@<TRIPOS>BOND
    1     1     2    1
    2     1     3    1
    3     1     4    1
    4     1     5    1
    5     5     6    1
    6     5     7    1
    7     5     8    1
    8     8     9    1
    9     8    10    1
   10     8    11    1
   11    11    12    1
   12    11    13    1
   13    11    14    1
   14    14    15    1
   15    14    16    1
   16    14    17    1
   17    17    18    1
   18    17    19    1
   19    17    20    1
@<TRIPOS>SUBSTRUCTURE
       1 MOL1            1 RESIDUE      1      MOL     
@<SCITEGIC>MOL_PROPERTY
VConf Rank
SciTegic.value.IntegerValue
486

@<SCITEGIC>MOL_PROPERTY
Conf_Id
SciTegic.value.IntegerValue
23

@<SCITEGIC>MOL_PROPERTY
Delta U+W
SciTegic.value.DoubleValue
0.896

@<SCITEGIC>MOL_PROPERTY
U+W
SciTegic.value.DoubleValue
16.234

@<SCITEGIC>MOL_PROPERTY
Grad RMS
SciTegic.value.DoubleValue
0.000000

@<SCITEGIC>MOL_PROPERTY
U
SciTegic.value.DoubleValue
70.374

@<SCITEGIC>MOL_PROPERTY
W
SciTegic.value.DoubleValue
-54.140

@<SCITEGIC>MOL_PROPERTY
W(PB)
SciTegic.value.DoubleValue
-56.046

@<SCITEGIC>MOL_PROPERTY
W(SA)
SciTegic.value.DoubleValue
1.907

@<SCITEGIC>MOL_PROPERTY
Valence
SciTegic.value.DoubleValue
1.257

@<SCITEGIC>MOL_PROPERTY
Coulomb
SciTegic.value.DoubleValue
69.240

@<SCITEGIC>MOL_PROPERTY
VdW
SciTegic.value.DoubleValue
-0.123

@<SCITEGIC>MOL_PROPERTY
VdW6
SciTegic.value.DoubleValue
-4.336

@<SCITEGIC>MOL_PROPERTY
VdW12
SciTegic.value.DoubleValue
4.213

@<SCITEGIC>MOL_PROPERTY
Bond
SciTegic.value.DoubleValue
0.128

@<SCITEGIC>MOL_PROPERTY
Angle
SciTegic.value.DoubleValue
0.603

@<SCITEGIC>MOL_PROPERTY
Pdih
SciTegic.value.DoubleValue
0.526

@<SCITEGIC>MOL_PROPERTY
Idih
SciTegic.value.DoubleValue
0.000

@<SCITEGIC>MOL_PROPERTY
Tether
SciTegic.value.DoubleValue
0.000

@<TRIPOS>MOLECULE
guest-s9_confgen4.mol2 : confsearch ligand conformer 487
          20          19           1
SMALL
USER_CHARGES
 
@<TRIPOS>ATOM
       1    C1      18.298858   18.830516   20.498133 C.3        1 MOL1        -0.2224
       2    H1      18.570173   18.349031   19.549644 H          1 MOL1         0.1052
       3    H2      17.243419   19.125216   20.433483 H          1 MOL1         0.1052
       4    H3      18.892560   19.747809   20.598610 H          1 MOL1         0.1052
       5    C2      18.522412   17.873210   21.691347 C.3        1 MOL1        -0.1209
       6    H4      17.840642   17.016594   21.594367 H          1 MOL1         0.1041
       7    H5      18.243564   18.376924   22.626829 H          1 MOL1         0.1041
       8    C3      19.976044   17.345309   21.782288 C.3        1 MOL1        -0.1274
       9    H6      20.060219   16.652665   22.630170 H          1 MOL1         0.1041
      10    H7      20.203049   16.756715   20.883516 H          1 MOL1         0.1041
      11    C4      21.038967   18.454602   21.925924 C.3        1 MOL1         0.0313
      12    H8      20.992966   19.122341   21.062341 H          1 MOL1         0.1015
      13    H9      22.033539   18.002151   21.951493 H          1 MOL1         0.1015
      14    N1      20.884875   19.297336   23.177587 N.4        1 MOL1        -0.4809
      15    H10     20.922247   18.698264   24.016404 H          1 MOL1         0.3726
      16    H11     19.952600   19.736749   23.193994 H          1 MOL1         0.3726
      17    C5      21.976212   20.357967   23.228269 C.3        1 MOL1        -0.0677
      18    H12     21.896057   20.999230   22.347862 H          1 MOL1         0.1026
      19    H13     21.852397   20.957362   24.132904 H          1 MOL1         0.1026
      20    H14     22.952671   19.868973   23.241593 H          1 MOL1         0.1026
@<TRIPOS>BOND
    1     1     2    1
    2     1     3    1
    3     1     4    1
    4     1     5    1
    5     5     6    1
    6     5     7    1
    7     5     8    1
    8     8     9    1
    9     8    10    1
   10     8    11    1
   11    11    12    1
   12    11    13    1
   13    11    14    1
   14    14    15    1
   15    14    16    1
   16    14    17    1
   17    17    18    1
   18    17    19    1
   19    17    20    1
@<TRIPOS>SUBSTRUCTURE
       1 MOL1            1 RESIDUE      1      MOL     
@<SCITEGIC>MOL_PROPERTY
VConf Rank
SciTegic.value.IntegerValue
487

@<SCITEGIC>MOL_PROPERTY
Conf_Id
SciTegic.value.IntegerValue
24

@<SCITEGIC>MOL_PROPERTY
Delta U+W
SciTegic.value.DoubleValue
0.792

@<SCITEGIC>MOL_PROPERTY
U+W
SciTegic.value.DoubleValue
16.130

@<SCITEGIC>MOL_PROPERTY
Grad RMS
SciTegic.value.DoubleValue
0.000000

@<SCITEGIC>MOL_PROPERTY
U
SciTegic.value.DoubleValue
70.374

@<SCITEGIC>MOL_PROPERTY
W
SciTegic.value.DoubleValue
-54.243

@<SCITEGIC>MOL_PROPERTY
W(PB)
SciTegic.value.DoubleValue
-56.130

@<SCITEGIC>MOL_PROPERTY
W(SA)
SciTegic.value.DoubleValue
1.887

@<SCITEGIC>MOL_PROPERTY
Valence
SciTegic.value.DoubleValue
1.257

@<SCITEGIC>MOL_PROPERTY
Coulomb
SciTegic.value.DoubleValue
69.240

@<SCITEGIC>MOL_PROPERTY
VdW
SciTegic.value.DoubleValue
-0.123

@<SCITEGIC>MOL_PROPERTY
VdW6
SciTegic.value.DoubleValue
-4.336

@<SCITEGIC>MOL_PROPERTY
VdW12
SciTegic.value.DoubleValue
4.213

@<SCITEGIC>MOL_PROPERTY
Bond
SciTegic.value.DoubleValue
0.128

@<SCITEGIC>MOL_PROPERTY
Angle
SciTegic.value.DoubleValue
0.603

@<SCITEGIC>MOL_PROPERTY
Pdih
SciTegic.value.DoubleValue
0.526

@<SCITEGIC>MOL_PROPERTY
Idih
SciTegic.value.DoubleValue
0.000

@<SCITEGIC>MOL_PROPERTY
Tether
SciTegic.value.DoubleValue
0.000

@<TRIPOS>MOLECULE
guest-s9_confgen4.mol2 : confsearch ligand conformer 488
          20          19           1
SMALL
USER_CHARGES
 
@<TRIPOS>ATOM
       1    C1      18.530844   18.459044   23.648661 C.3        1 MOL1        -0.2224
       2    H1      17.610662   18.475911   24.247161 H          1 MOL1         0.1052
       3    H2      18.281672   17.987942   22.690524 H          1 MOL1         0.1052
       4    H3      19.258637   17.829148   24.176593 H          1 MOL1         0.1052
       5    C2      19.067832   19.895277   23.452857 C.3        1 MOL1        -0.1209
       6    H4      19.098354   20.394550   24.431561 H          1 MOL1         0.1041
       7    H5      18.358682   20.470392   22.840932 H          1 MOL1         0.1041
       8    C3      20.481477   19.971667   22.821502 C.3        1 MOL1        -0.1274
       9    H6      20.783689   21.027057   22.796210 H          1 MOL1         0.1041
      10    H7      21.214328   19.464060   23.462571 H          1 MOL1         0.1041
      11    C4      20.568305   19.421837   21.381907 C.3        1 MOL1         0.0313
      12    H8      21.452330   19.838948   20.892968 H          1 MOL1         0.1015
      13    H9      19.688196   19.733387   20.813905 H          1 MOL1         0.1015
      14    N1      20.686615   17.912055   21.294955 N.4        1 MOL1        -0.4809
      15    H10     19.900372   17.467862   21.790063 H          1 MOL1         0.3726
      16    H11     21.535542   17.594098   21.787129 H          1 MOL1         0.3726
      17    C5      20.718600   17.474903   19.836775 C.3        1 MOL1        -0.0677
      18    H12     19.796867   17.793536   19.345196 H          1 MOL1         0.1026
      19    H13     21.578146   17.933076   19.342788 H          1 MOL1         0.1026
      20    H14     20.803943   16.387021   19.789882 H          1 MOL1         0.1026
@<TRIPOS>BOND
    1     1     2    1
    2     1     3    1
    3     1     4    1
    4     1     5    1
    5     5     6    1
    6     5     7    1
    7     5     8    1
    8     8     9    1
    9     8    10    1
   10     8    11    1
   11    11    12    1
   12    11    13    1
   13    11    14    1
   14    14    15    1
   15    14    16    1
   16    14    17    1
   17    17    18    1
   18    17    19    1
   19    17    20    1
@<TRIPOS>SUBSTRUCTURE
       1 MOL1            1 RESIDUE      1      MOL     
@<SCITEGIC>MOL_PROPERTY
VConf Rank
SciTegic.value.IntegerValue
488

@<SCITEGIC>MOL_PROPERTY
Conf_Id
SciTegic.value.IntegerValue
26

@<SCITEGIC>MOL_PROPERTY
Delta U+W
SciTegic.value.DoubleValue
2.888

@<SCITEGIC>MOL_PROPERTY
U+W
SciTegic.value.DoubleValue
18.226

@<SCITEGIC>MOL_PROPERTY
Grad RMS
SciTegic.value.DoubleValue
0.000000

@<SCITEGIC>MOL_PROPERTY
U
SciTegic.value.DoubleValue
72.042

@<SCITEGIC>MOL_PROPERTY
W
SciTegic.value.DoubleValue
-53.816

@<SCITEGIC>MOL_PROPERTY
W(PB)
SciTegic.value.DoubleValue
-55.689

@<SCITEGIC>MOL_PROPERTY
W(SA)
SciTegic.value.DoubleValue
1.873

@<SCITEGIC>MOL_PROPERTY
Valence
SciTegic.value.DoubleValue
2.428

@<SCITEGIC>MOL_PROPERTY
Coulomb
SciTegic.value.DoubleValue
69.829

@<SCITEGIC>MOL_PROPERTY
VdW
SciTegic.value.DoubleValue
-0.215

@<SCITEGIC>MOL_PROPERTY
VdW6
SciTegic.value.DoubleValue
-4.563

@<SCITEGIC>MOL_PROPERTY
VdW12
SciTegic.value.DoubleValue
4.348

@<SCITEGIC>MOL_PROPERTY
Bond
SciTegic.value.DoubleValue
0.137

@<SCITEGIC>MOL_PROPERTY
Angle
SciTegic.value.DoubleValue
0.936

@<SCITEGIC>MOL_PROPERTY
Pdih
SciTegic.value.DoubleValue
1.356

@<SCITEGIC>MOL_PROPERTY
Idih
SciTegic.value.DoubleValue
0.000

@<SCITEGIC>MOL_PROPERTY
Tether
SciTegic.value.DoubleValue
0.000

@<TRIPOS>MOLECULE
guest-s9_confgen4.mol2 : confsearch ligand conformer 489
          20          19           1
SMALL
USER_CHARGES
 
@<TRIPOS>ATOM
       1    C1      21.169728   20.199793   20.672343 C.3        1 MOL1        -0.2224
       2    H1      21.684850   20.584902   19.782647 H          1 MOL1         0.1052
       3    H2      21.253176   20.960484   21.459459 H          1 MOL1         0.1052
       4    H3      21.708011   19.298959   20.989828 H          1 MOL1         0.1052
       5    C2      19.691266   19.891559   20.342790 C.3        1 MOL1        -0.1209
       6    H4      19.642431   19.062336   19.622992 H          1 MOL1         0.1041
       7    H5      19.257046   20.762558   19.832026 H          1 MOL1         0.1041
       8    C3      18.813596   19.561784   21.577205 C.3        1 MOL1        -0.1274
       9    H6      18.793361   20.413243   22.270251 H          1 MOL1         0.1041
      10    H7      17.779668   19.430594   21.231373 H          1 MOL1         0.1041
      11    C4      19.225643   18.278304   22.328990 C.3        1 MOL1         0.0313
      12    H8      19.490209   17.498389   21.610644 H          1 MOL1         0.1015
      13    H9      18.377392   17.922034   22.918977 H          1 MOL1         0.1015
      14    N1      20.385764   18.460823   23.289099 N.4        1 MOL1        -0.4809
      15    H10     20.145379   19.162182   24.006257 H          1 MOL1         0.3726
      16    H11     21.199121   18.847522   22.789566 H          1 MOL1         0.3726
      17    C5      20.738201   17.130044   23.939657 C.3        1 MOL1        -0.0677
      18    H12     21.020366   16.414103   23.164688 H          1 MOL1         0.1026
      19    H13     21.573914   17.276795   24.627421 H          1 MOL1         0.1026
      20    H14     19.870824   16.757342   24.488762 H          1 MOL1         0.1026
@<TRIPOS>BOND
    1     1     2    1
    2     1     3    1
    3     1     4    1
    4     1     5    1
    5     5     6    1
    6     5     7    1
    7     5     8    1
    8     8     9    1
    9     8    10    1
   10     8    11    1
   11    11    12    1
   12    11    13    1
   13    11    14    1
   14    14    15    1
   15    14    16    1
   16    14    17    1
   17    17    18    1
   18    17    19    1
   19    17    20    1
@<TRIPOS>SUBSTRUCTURE
       1 MOL1            1 RESIDUE      1      MOL     
@<SCITEGIC>MOL_PROPERTY
VConf Rank
SciTegic.value.IntegerValue
489

@<SCITEGIC>MOL_PROPERTY
Conf_Id
SciTegic.value.IntegerValue
5

@<SCITEGIC>MOL_PROPERTY
Delta U+W
SciTegic.value.DoubleValue
2.950

@<SCITEGIC>MOL_PROPERTY
U+W
SciTegic.value.DoubleValue
18.289

@<SCITEGIC>MOL_PROPERTY
Grad RMS
SciTegic.value.DoubleValue
0.000000

@<SCITEGIC>MOL_PROPERTY
U
SciTegic.value.DoubleValue
72.042

@<SCITEGIC>MOL_PROPERTY
W
SciTegic.value.DoubleValue
-53.753

@<SCITEGIC>MOL_PROPERTY
W(PB)
SciTegic.value.DoubleValue
-55.644

@<SCITEGIC>MOL_PROPERTY
W(SA)
SciTegic.value.DoubleValue
1.891

@<SCITEGIC>MOL_PROPERTY
Valence
SciTegic.value.DoubleValue
2.428

@<SCITEGIC>MOL_PROPERTY
Coulomb
SciTegic.value.DoubleValue
69.829

@<SCITEGIC>MOL_PROPERTY
VdW
SciTegic.value.DoubleValue
-0.215

@<SCITEGIC>MOL_PROPERTY
VdW6
SciTegic.value.DoubleValue
-4.563

@<SCITEGIC>MOL_PROPERTY
VdW12
SciTegic.value.DoubleValue
4.348

@<SCITEGIC>MOL_PROPERTY
Bond
SciTegic.value.DoubleValue
0.137

@<SCITEGIC>MOL_PROPERTY
Angle
SciTegic.value.DoubleValue
0.936

@<SCITEGIC>MOL_PROPERTY
Pdih
SciTegic.value.DoubleValue
1.356

@<SCITEGIC>MOL_PROPERTY
Idih
SciTegic.value.DoubleValue
0.000

@<SCITEGIC>MOL_PROPERTY
Tether
SciTegic.value.DoubleValue
0.000

@<TRIPOS>MOLECULE
guest-s9_confgen4.mol2 : confsearch ligand conformer 490
          20          19           1
SMALL
USER_CHARGES
 
@<TRIPOS>ATOM
       1    C1      19.178866   17.693551   20.053781 C.3        1 MOL1        -0.2224
       2    H1      19.375765   16.613697   20.068053 H          1 MOL1         0.1052
       3    H2      18.334269   17.896135   20.724147 H          1 MOL1         0.1052
       4    H3      18.865979   17.962800   19.036641 H          1 MOL1         0.1052
       5    C2      20.437048   18.493041   20.463583 C.3        1 MOL1        -0.1209
       6    H4      20.217294   19.569066   20.438302 H          1 MOL1         0.1041
       7    H5      21.224790   18.327350   19.715316 H          1 MOL1         0.1041
       8    C3      20.982026   18.094877   21.857771 C.3        1 MOL1        -0.1274
       9    H6      21.286174   17.040052   21.838484 H          1 MOL1         0.1041
      10    H7      21.894146   18.667580   22.069430 H          1 MOL1         0.1041
      11    C4      19.969581   18.293510   23.008871 C.3        1 MOL1         0.0313
      12    H8      20.428266   17.994138   23.954600 H          1 MOL1         0.1015
      13    H9      19.105390   17.646982   22.837832 H          1 MOL1         0.1015
      14    N1      19.449709   19.713028   23.176279 N.4        1 MOL1        -0.4809
      15    H10     18.683685   19.721667   23.867790 H          1 MOL1         0.3726
      16    H11     19.020188   20.037197   22.297342 H          1 MOL1         0.3726
      17    C5      20.559383   20.660312   23.618883 C.3        1 MOL1        -0.0677
      18    H12     21.335860   20.691378   22.852001 H          1 MOL1         0.1026
      19    H13     20.142093   21.659912   23.758794 H          1 MOL1         0.1026
      20    H14     20.982472   20.303160   24.560197 H          1 MOL1         0.1026
@<TRIPOS>BOND
    1     1     2    1
    2     1     3    1
    3     1     4    1
    4     1     5    1
    5     5     6    1
    6     5     7    1
    7     5     8    1
    8     8     9    1
    9     8    10    1
   10     8    11    1
   11    11    12    1
   12    11    13    1
   13    11    14    1
   14    14    15    1
   15    14    16    1
   16    14    17    1
   17    17    18    1
   18    17    19    1
   19    17    20    1
@<TRIPOS>SUBSTRUCTURE
       1 MOL1            1 RESIDUE      1      MOL     
@<SCITEGIC>MOL_PROPERTY
VConf Rank
SciTegic.value.IntegerValue
490

@<SCITEGIC>MOL_PROPERTY
Conf_Id
SciTegic.value.IntegerValue
52

@<SCITEGIC>MOL_PROPERTY
Delta U+W
SciTegic.value.DoubleValue
0.784

@<SCITEGIC>MOL_PROPERTY
U+W
SciTegic.value.DoubleValue
16.122

@<SCITEGIC>MOL_PROPERTY
Grad RMS
SciTegic.value.DoubleValue
0.000000

@<SCITEGIC>MOL_PROPERTY
U
SciTegic.value.DoubleValue
70.777

@<SCITEGIC>MOL_PROPERTY
W
SciTegic.value.DoubleValue
-54.655

@<SCITEGIC>MOL_PROPERTY
W(PB)
SciTegic.value.DoubleValue
-56.491

@<SCITEGIC>MOL_PROPERTY
W(SA)
SciTegic.value.DoubleValue
1.836

@<SCITEGIC>MOL_PROPERTY
Valence
SciTegic.value.DoubleValue
1.529

@<SCITEGIC>MOL_PROPERTY
Coulomb
SciTegic.value.DoubleValue
69.166

@<SCITEGIC>MOL_PROPERTY
VdW
SciTegic.value.DoubleValue
0.082

@<SCITEGIC>MOL_PROPERTY
VdW6
SciTegic.value.DoubleValue
-5.166

@<SCITEGIC>MOL_PROPERTY
VdW12
SciTegic.value.DoubleValue
5.248

@<SCITEGIC>MOL_PROPERTY
Bond
SciTegic.value.DoubleValue
0.171

@<SCITEGIC>MOL_PROPERTY
Angle
SciTegic.value.DoubleValue
0.752

@<SCITEGIC>MOL_PROPERTY
Pdih
SciTegic.value.DoubleValue
0.605

@<SCITEGIC>MOL_PROPERTY
Idih
SciTegic.value.DoubleValue
0.000

@<SCITEGIC>MOL_PROPERTY
Tether
SciTegic.value.DoubleValue
0.000

@<TRIPOS>MOLECULE
guest-s9_confgen4.mol2 : confsearch ligand conformer 491
          20          19           1
SMALL
USER_CHARGES
 
@<TRIPOS>ATOM
       1    C1      19.595449   20.823429   21.274678 C.3        1 MOL1        -0.2224
       2    H1      19.501857   21.791742   20.765975 H          1 MOL1         0.1052
       3    H2      18.842598   20.157871   20.837183 H          1 MOL1         0.1052
       4    H3      19.357671   20.980294   22.334943 H          1 MOL1         0.1052
       5    C2      21.024277   20.261247   21.096450 C.3        1 MOL1        -0.1209
       6    H4      21.744215   21.057130   21.333693 H          1 MOL1         0.1041
       7    H5      21.190108   20.007410   20.040001 H          1 MOL1         0.1041
       8    C3      21.346478   19.033618   21.986359 C.3        1 MOL1        -0.1274
       9    H6      22.406430   18.784671   21.844542 H          1 MOL1         0.1041
      10    H7      21.242642   19.295646   23.046765 H          1 MOL1         0.1041
      11    C4      20.521850   17.767161   21.658291 C.3        1 MOL1         0.0313
      12    H8      21.025173   16.891958   22.076749 H          1 MOL1         0.1015
      13    H9      20.479776   17.640207   20.573588 H          1 MOL1         0.1015
      14    N1      19.095593   17.752357   22.185628 N.4        1 MOL1        -0.4809
      15    H10     18.577672   16.968251   21.758904 H          1 MOL1         0.3726
      16    H11     18.598407   18.601527   21.883041 H          1 MOL1         0.3726
      17    C5      19.068959   17.623525   23.704646 C.3        1 MOL1        -0.0677
      18    H12     19.588867   16.708629   23.996711 H          1 MOL1         0.1026
      19    H13     19.562710   18.488575   24.151318 H          1 MOL1         0.1026
      20    H14     18.030987   17.580046   24.041746 H          1 MOL1         0.1026
@<TRIPOS>BOND
    1     1     2    1
    2     1     3    1
    3     1     4    1
    4     1     5    1
    5     5     6    1
    6     5     7    1
    7     5     8    1
    8     8     9    1
    9     8    10    1
   10     8    11    1
   11    11    12    1
   12    11    13    1
   13    11    14    1
   14    14    15    1
   15    14    16    1
   16    14    17    1
   17    17    18    1
   18    17    19    1
   19    17    20    1
@<TRIPOS>SUBSTRUCTURE
       1 MOL1            1 RESIDUE      1      MOL     
@<SCITEGIC>MOL_PROPERTY
VConf Rank
SciTegic.value.IntegerValue
491

@<SCITEGIC>MOL_PROPERTY
Conf_Id
SciTegic.value.IntegerValue
55

@<SCITEGIC>MOL_PROPERTY
Delta U+W
SciTegic.value.DoubleValue
2.745

@<SCITEGIC>MOL_PROPERTY
U+W
SciTegic.value.DoubleValue
18.083

@<SCITEGIC>MOL_PROPERTY
Grad RMS
SciTegic.value.DoubleValue
0.000000

@<SCITEGIC>MOL_PROPERTY
U
SciTegic.value.DoubleValue
72.490

@<SCITEGIC>MOL_PROPERTY
W
SciTegic.value.DoubleValue
-54.407

@<SCITEGIC>MOL_PROPERTY
W(PB)
SciTegic.value.DoubleValue
-56.269

@<SCITEGIC>MOL_PROPERTY
W(SA)
SciTegic.value.DoubleValue
1.861

@<SCITEGIC>MOL_PROPERTY
Valence
SciTegic.value.DoubleValue
2.738

@<SCITEGIC>MOL_PROPERTY
Coulomb
SciTegic.value.DoubleValue
69.795

@<SCITEGIC>MOL_PROPERTY
VdW
SciTegic.value.DoubleValue
-0.043

@<SCITEGIC>MOL_PROPERTY
VdW6
SciTegic.value.DoubleValue
-5.333

@<SCITEGIC>MOL_PROPERTY
VdW12
SciTegic.value.DoubleValue
5.290

@<SCITEGIC>MOL_PROPERTY
Bond
SciTegic.value.DoubleValue
0.182

@<SCITEGIC>MOL_PROPERTY
Angle
SciTegic.value.DoubleValue
1.135

@<SCITEGIC>MOL_PROPERTY
Pdih
SciTegic.value.DoubleValue
1.422

@<SCITEGIC>MOL_PROPERTY
Idih
SciTegic.value.DoubleValue
0.000

@<SCITEGIC>MOL_PROPERTY
Tether
SciTegic.value.DoubleValue
0.000

@<TRIPOS>MOLECULE
guest-s9_confgen4.mol2 : confsearch ligand conformer 492
          20          19           1
SMALL
USER_CHARGES
 
@<TRIPOS>ATOM
       1    C1      18.411363   19.879851   22.991025 C.3        1 MOL1        -0.2224
       2    H1      17.669804   20.574454   23.406700 H          1 MOL1         0.1052
       3    H2      17.911556   18.915273   22.832628 H          1 MOL1         0.1052
       4    H3      19.192560   19.754079   23.749355 H          1 MOL1         0.1052
       5    C2      18.986087   20.438647   21.669355 C.3        1 MOL1        -0.1209
       6    H4      19.576920   21.341572   21.878308 H          1 MOL1         0.1041
       7    H5      18.149338   20.763834   21.035218 H          1 MOL1         0.1041
       8    C3      19.841982   19.428058   20.863758 C.3        1 MOL1        -0.1274
       9    H6      19.241522   18.549024   20.597960 H          1 MOL1         0.1041
      10    H7      20.112896   19.901607   19.910898 H          1 MOL1         0.1041
      11    C4      21.153810   18.997225   21.560209 C.3        1 MOL1         0.0313
      12    H8      21.636798   19.879451   21.987840 H          1 MOL1         0.1015
      13    H9      21.833228   18.573175   20.816571 H          1 MOL1         0.1015
      14    N1      21.006328   17.963773   22.665982 N.4        1 MOL1        -0.4809
      15    H10     20.312660   18.282319   23.356774 H          1 MOL1         0.3726
      16    H11     21.893436   17.887298   23.187853 H          1 MOL1         0.3726
      17    C5      20.619674   16.601215   22.101487 C.3        1 MOL1        -0.0677
      18    H12     19.649847   16.675208   21.605927 H          1 MOL1         0.1026
      19    H13     21.378526   16.281022   21.384369 H          1 MOL1         0.1026
      20    H14     20.558817   15.879569   22.919065 H          1 MOL1         0.1026
@<TRIPOS>BOND
    1     1     2    1
    2     1     3    1
    3     1     4    1
    4     1     5    1
    5     5     6    1
    6     5     7    1
    7     5     8    1
    8     8     9    1
    9     8    10    1
   10     8    11    1
   11    11    12    1
   12    11    13    1
   13    11    14    1
   14    14    15    1
   15    14    16    1
   16    14    17    1
   17    17    18    1
   18    17    19    1
   19    17    20    1
@<TRIPOS>SUBSTRUCTURE
       1 MOL1            1 RESIDUE      1      MOL     
@<SCITEGIC>MOL_PROPERTY
VConf Rank
SciTegic.value.IntegerValue
492

@<SCITEGIC>MOL_PROPERTY
Conf_Id
SciTegic.value.IntegerValue
76

@<SCITEGIC>MOL_PROPERTY
Delta U+W
SciTegic.value.DoubleValue
2.799

@<SCITEGIC>MOL_PROPERTY
U+W
SciTegic.value.DoubleValue
18.137

@<SCITEGIC>MOL_PROPERTY
Grad RMS
SciTegic.value.DoubleValue
0.000000

@<SCITEGIC>MOL_PROPERTY
U
SciTegic.value.DoubleValue
72.490

@<SCITEGIC>MOL_PROPERTY
W
SciTegic.value.DoubleValue
-54.353

@<SCITEGIC>MOL_PROPERTY
W(PB)
SciTegic.value.DoubleValue
-56.201

@<SCITEGIC>MOL_PROPERTY
W(SA)
SciTegic.value.DoubleValue
1.848

@<SCITEGIC>MOL_PROPERTY
Valence
SciTegic.value.DoubleValue
2.738

@<SCITEGIC>MOL_PROPERTY
Coulomb
SciTegic.value.DoubleValue
69.795

@<SCITEGIC>MOL_PROPERTY
VdW
SciTegic.value.DoubleValue
-0.043

@<SCITEGIC>MOL_PROPERTY
VdW6
SciTegic.value.DoubleValue
-5.334

@<SCITEGIC>MOL_PROPERTY
VdW12
SciTegic.value.DoubleValue
5.290

@<SCITEGIC>MOL_PROPERTY
Bond
SciTegic.value.DoubleValue
0.182

@<SCITEGIC>MOL_PROPERTY
Angle
SciTegic.value.DoubleValue
1.135

@<SCITEGIC>MOL_PROPERTY
Pdih
SciTegic.value.DoubleValue
1.421

@<SCITEGIC>MOL_PROPERTY
Idih
SciTegic.value.DoubleValue
0.000

@<SCITEGIC>MOL_PROPERTY
Tether
SciTegic.value.DoubleValue
0.000

@<TRIPOS>MOLECULE
guest-s9_confgen4.mol2 : confsearch ligand conformer 493
          20          19           1
SMALL
USER_CHARGES
 
@<TRIPOS>ATOM
       1    C1      22.086400   19.254222   21.468248 C.3        1 MOL1        -0.2224
       2    H1      21.591392   18.562348   20.775913 H          1 MOL1         0.1052
       3    H2      22.215510   20.215884   20.954938 H          1 MOL1         0.1052
       4    H3      23.085306   18.852107   21.681172 H          1 MOL1         0.1052
       5    C2      21.281202   19.427738   22.776724 C.3        1 MOL1        -0.1209
       6    H4      21.852603   20.070037   23.461404 H          1 MOL1         0.1041
       7    H5      21.180326   18.462294   23.289074 H          1 MOL1         0.1041
       8    C3      19.886321   20.061196   22.552034 C.3        1 MOL1        -0.1274
       9    H6      19.387925   20.195601   23.521025 H          1 MOL1         0.1041
      10    H7      20.021478   21.070425   22.141140 H          1 MOL1         0.1041
      11    C4      18.947423   19.276834   21.605499 C.3        1 MOL1         0.0313
      12    H8      19.423645   19.120705   20.634725 H          1 MOL1         0.1015
      13    H9      18.055112   19.886112   21.440490 H          1 MOL1         0.1015
      14    N1      18.461864   17.932334   22.126552 N.4        1 MOL1        -0.4809
      15    H10     17.518333   17.744667   21.753281 H          1 MOL1         0.3726
      16    H11     18.337473   17.967305   23.149268 H          1 MOL1         0.3726
      17    C5      19.395654   16.798014   21.718385 C.3        1 MOL1        -0.0677
      18    H12     18.991575   15.852884   22.087677 H          1 MOL1         0.1026
      19    H13     19.464980   16.765982   20.629001 H          1 MOL1         0.1026
      20    H14     20.385450   16.963401   22.144967 H          1 MOL1         0.1026
@<TRIPOS>BOND
    1     1     2    1
    2     1     3    1
    3     1     4    1
    4     1     5    1
    5     5     6    1
    6     5     7    1
    7     5     8    1
    8     8     9    1
    9     8    10    1
   10     8    11    1
   11    11    12    1
   12    11    13    1
   13    11    14    1
   14    14    15    1
   15    14    16    1
   16    14    17    1
   17    17    18    1
   18    17    19    1
   19    17    20    1
@<TRIPOS>SUBSTRUCTURE
       1 MOL1            1 RESIDUE      1      MOL     
@<SCITEGIC>MOL_PROPERTY
VConf Rank
SciTegic.value.IntegerValue
493

@<SCITEGIC>MOL_PROPERTY
Conf_Id
SciTegic.value.IntegerValue
60

@<SCITEGIC>MOL_PROPERTY
Delta U+W
SciTegic.value.DoubleValue
1.788

@<SCITEGIC>MOL_PROPERTY
U+W
SciTegic.value.DoubleValue
17.127

@<SCITEGIC>MOL_PROPERTY
Grad RMS
SciTegic.value.DoubleValue
0.000000

@<SCITEGIC>MOL_PROPERTY
U
SciTegic.value.DoubleValue
72.122

@<SCITEGIC>MOL_PROPERTY
W
SciTegic.value.DoubleValue
-54.995

@<SCITEGIC>MOL_PROPERTY
W(PB)
SciTegic.value.DoubleValue
-56.810

@<SCITEGIC>MOL_PROPERTY
W(SA)
SciTegic.value.DoubleValue
1.815

@<SCITEGIC>MOL_PROPERTY
Valence
SciTegic.value.DoubleValue
3.197

@<SCITEGIC>MOL_PROPERTY
Coulomb
SciTegic.value.DoubleValue
69.115

@<SCITEGIC>MOL_PROPERTY
VdW
SciTegic.value.DoubleValue
-0.190

@<SCITEGIC>MOL_PROPERTY
VdW6
SciTegic.value.DoubleValue
-5.585

@<SCITEGIC>MOL_PROPERTY
VdW12
SciTegic.value.DoubleValue
5.395

@<SCITEGIC>MOL_PROPERTY
Bond
SciTegic.value.DoubleValue
0.177

@<SCITEGIC>MOL_PROPERTY
Angle
SciTegic.value.DoubleValue
1.207

@<SCITEGIC>MOL_PROPERTY
Pdih
SciTegic.value.DoubleValue
1.813

@<SCITEGIC>MOL_PROPERTY
Idih
SciTegic.value.DoubleValue
0.000

@<SCITEGIC>MOL_PROPERTY
Tether
SciTegic.value.DoubleValue
0.000

@<TRIPOS>MOLECULE
guest-s9_confgen4.mol2 : confsearch ligand conformer 494
          20          19           1
SMALL
USER_CHARGES
 
@<TRIPOS>ATOM
       1    C1      18.133256   18.599002   22.711866 C.3        1 MOL1        -0.2224
       2    H1      17.146233   18.468506   22.249698 H          1 MOL1         0.1052
       3    H2      18.012014   18.485611   23.796944 H          1 MOL1         0.1052
       4    H3      18.459801   19.626692   22.511185 H          1 MOL1         0.1052
       5    C2      19.134817   17.561413   22.154329 C.3        1 MOL1        -0.1209
       6    H4      19.227822   17.672860   21.066353 H          1 MOL1         0.1041
       7    H5      18.727618   16.553631   22.316799 H          1 MOL1         0.1041
       8    C3      20.529935   17.644953   22.820748 C.3        1 MOL1        -0.1274
       9    H6      20.421868   17.420294   23.890092 H          1 MOL1         0.1041
      10    H7      21.175695   16.856744   22.411935 H          1 MOL1         0.1041
      11    C4      21.248444   19.007985   22.684496 C.3        1 MOL1         0.0313
      12    H8      22.155125   18.969565   23.293692 H          1 MOL1         0.1015
      13    H9      20.622421   19.813088   23.076249 H          1 MOL1         0.1015
      14    N1      21.689524   19.381101   21.276954 N.4        1 MOL1        -0.4809
      15    H10     21.966236   18.538123   20.752105 H          1 MOL1         0.3726
      16    H11     22.548091   19.951009   21.330501 H          1 MOL1         0.3726
      17    C5      20.612571   20.167867   20.537756 C.3        1 MOL1        -0.0677
      18    H12     20.380513   21.073751   21.101772 H          1 MOL1         0.1026
      19    H13     20.984895   20.438353   19.547231 H          1 MOL1         0.1026
      20    H14     19.714402   19.557958   20.436147 H          1 MOL1         0.1026
@<TRIPOS>BOND
    1     1     2    1
    2     1     3    1
    3     1     4    1
    4     1     5    1
    5     5     6    1
    6     5     7    1
    7     5     8    1
    8     8     9    1
    9     8    10    1
   10     8    11    1
   11    11    12    1
   12    11    13    1
   13    11    14    1
   14    14    15    1
   15    14    16    1
   16    14    17    1
   17    17    18    1
   18    17    19    1
   19    17    20    1
@<TRIPOS>SUBSTRUCTURE
       1 MOL1            1 RESIDUE      1      MOL     
@<SCITEGIC>MOL_PROPERTY
VConf Rank
SciTegic.value.IntegerValue
494

@<SCITEGIC>MOL_PROPERTY
Conf_Id
SciTegic.value.IntegerValue
54

@<SCITEGIC>MOL_PROPERTY
Delta U+W
SciTegic.value.DoubleValue
1.880

@<SCITEGIC>MOL_PROPERTY
U+W
SciTegic.value.DoubleValue
17.218

@<SCITEGIC>MOL_PROPERTY
Grad RMS
SciTegic.value.DoubleValue
0.000000

@<SCITEGIC>MOL_PROPERTY
U
SciTegic.value.DoubleValue
72.122

@<SCITEGIC>MOL_PROPERTY
W
SciTegic.value.DoubleValue
-54.903

@<SCITEGIC>MOL_PROPERTY
W(PB)
SciTegic.value.DoubleValue
-56.724

@<SCITEGIC>MOL_PROPERTY
W(SA)
SciTegic.value.DoubleValue
1.821

@<SCITEGIC>MOL_PROPERTY
Valence
SciTegic.value.DoubleValue
3.197

@<SCITEGIC>MOL_PROPERTY
Coulomb
SciTegic.value.DoubleValue
69.115

@<SCITEGIC>MOL_PROPERTY
VdW
SciTegic.value.DoubleValue
-0.190

@<SCITEGIC>MOL_PROPERTY
VdW6
SciTegic.value.DoubleValue
-5.585

@<SCITEGIC>MOL_PROPERTY
VdW12
SciTegic.value.DoubleValue
5.395

@<SCITEGIC>MOL_PROPERTY
Bond
SciTegic.value.DoubleValue
0.177

@<SCITEGIC>MOL_PROPERTY
Angle
SciTegic.value.DoubleValue
1.207

@<SCITEGIC>MOL_PROPERTY
Pdih
SciTegic.value.DoubleValue
1.813

@<SCITEGIC>MOL_PROPERTY
Idih
SciTegic.value.DoubleValue
0.000

@<SCITEGIC>MOL_PROPERTY
Tether
SciTegic.value.DoubleValue
0.000

@<TRIPOS>MOLECULE
guest-s9_confgen4.mol2 : confsearch ligand conformer 495
          20          19           1
SMALL
USER_CHARGES
 
@<TRIPOS>ATOM
       1    C1      18.488194   20.790564   24.004235 C.3        1 MOL1        -0.2224
       2    H1      18.234304   21.561578   23.265145 H          1 MOL1         0.1052
       3    H2      17.647919   20.707900   24.705754 H          1 MOL1         0.1052
       4    H3      19.364751   21.134165   24.568826 H          1 MOL1         0.1052
       5    C2      18.763664   19.433760   23.320544 C.3        1 MOL1        -0.1209
       6    H4      17.858552   19.100057   22.793509 H          1 MOL1         0.1041
       7    H5      18.980192   18.676039   24.086916 H          1 MOL1         0.1041
       8    C3      19.942672   19.520211   22.326448 C.3        1 MOL1        -0.1274
       9    H6      19.724066   20.274866   21.559197 H          1 MOL1         0.1041
      10    H7      20.847234   19.850413   22.854367 H          1 MOL1         0.1041
      11    C4      20.211117   18.163507   21.649048 C.3        1 MOL1         0.0313
      12    H8      19.317566   17.839241   21.109690 H          1 MOL1         0.1015
      13    H9      20.444489   17.413494   22.408986 H          1 MOL1         0.1015
      14    N1      21.362074   18.200239   20.662816 N.4        1 MOL1        -0.4809
      15    H10     22.225704   18.510562   21.133985 H          1 MOL1         0.3726
      16    H11     21.182295   18.904701   19.930991 H          1 MOL1         0.3726
      17    C5      21.558263   16.823707   20.041652 C.3        1 MOL1        -0.0677
      18    H12     20.644665   16.530806   19.519774 H          1 MOL1         0.1026
      19    H13     22.389355   16.864510   19.334100 H          1 MOL1         0.1026
      20    H14     21.781237   16.101531   20.830039 H          1 MOL1         0.1026
@<TRIPOS>BOND
    1     1     2    1
    2     1     3    1
    3     1     4    1
    4     1     5    1
    5     5     6    1
    6     5     7    1
    7     5     8    1
    8     8     9    1
    9     8    10    1
   10     8    11    1
   11    11    12    1
   12    11    13    1
   13    11    14    1
   14    14    15    1
   15    14    16    1
   16    14    17    1
   17    17    18    1
   18    17    19    1
   19    17    20    1
@<TRIPOS>SUBSTRUCTURE
       1 MOL1            1 RESIDUE      1      MOL     
@<SCITEGIC>MOL_PROPERTY
VConf Rank
SciTegic.value.IntegerValue
495

@<SCITEGIC>MOL_PROPERTY
Conf_Id
SciTegic.value.IntegerValue
67

@<SCITEGIC>MOL_PROPERTY
Delta U+W
SciTegic.value.DoubleValue
0.000

@<SCITEGIC>MOL_PROPERTY
U+W
SciTegic.value.DoubleValue
15.338

@<SCITEGIC>MOL_PROPERTY
Grad RMS
SciTegic.value.DoubleValue
0.000000

@<SCITEGIC>MOL_PROPERTY
U
SciTegic.value.DoubleValue
69.277

@<SCITEGIC>MOL_PROPERTY
W
SciTegic.value.DoubleValue
-53.939

@<SCITEGIC>MOL_PROPERTY
W(PB)
SciTegic.value.DoubleValue
-55.889

@<SCITEGIC>MOL_PROPERTY
W(SA)
SciTegic.value.DoubleValue
1.950

@<SCITEGIC>MOL_PROPERTY
Valence
SciTegic.value.DoubleValue
0.846

@<SCITEGIC>MOL_PROPERTY
Coulomb
SciTegic.value.DoubleValue
68.557

@<SCITEGIC>MOL_PROPERTY
VdW
SciTegic.value.DoubleValue
-0.127

@<SCITEGIC>MOL_PROPERTY
VdW6
SciTegic.value.DoubleValue
-3.008

@<SCITEGIC>MOL_PROPERTY
VdW12
SciTegic.value.DoubleValue
2.882

@<SCITEGIC>MOL_PROPERTY
Bond
SciTegic.value.DoubleValue
0.088

@<SCITEGIC>MOL_PROPERTY
Angle
SciTegic.value.DoubleValue
0.332

@<SCITEGIC>MOL_PROPERTY
Pdih
SciTegic.value.DoubleValue
0.426

@<SCITEGIC>MOL_PROPERTY
Idih
SciTegic.value.DoubleValue
0.000

@<SCITEGIC>MOL_PROPERTY
Tether
SciTegic.value.DoubleValue
0.000

@<TRIPOS>MOLECULE
guest-s9_confgen4.mol2 : confsearch ligand conformer 496
          20          19           1
SMALL
USER_CHARGES
 
@<TRIPOS>ATOM
       1    C1      19.919422   16.918348   19.717431 C.3        1 MOL1        -0.2224
       2    H1      20.421211   16.158161   20.330206 H          1 MOL1         0.1052
       3    H2      19.196471   16.404827   19.070393 H          1 MOL1         0.1052
       4    H3      20.672839   17.388867   19.072339 H          1 MOL1         0.1052
       5    C2      19.211153   17.967271   20.601957 C.3        1 MOL1        -0.1209
       6    H4      18.440781   17.472006   21.209875 H          1 MOL1         0.1041
       7    H5      18.689883   18.692783   19.961474 H          1 MOL1         0.1041
       8    C3      20.205316   18.706902   21.524062 C.3        1 MOL1        -0.1274
       9    H6      20.723295   17.978747   22.161434 H          1 MOL1         0.1041
      10    H7      20.972006   19.204947   20.915984 H          1 MOL1         0.1041
      11    C4      19.488734   19.753351   22.402372 C.3        1 MOL1         0.0313
      12    H8      18.757062   19.259024   23.046328 H          1 MOL1         0.1015
      13    H9      18.952061   20.451777   21.755176 H          1 MOL1         0.1015
      14    N1      20.411473   20.575718   23.287260 N.4        1 MOL1        -0.4809
      15    H10     19.880579   21.352369   23.711819 H          1 MOL1         0.3726
      16    H11     21.138657   21.033922   22.717148 H          1 MOL1         0.3726
      17    C5      21.039237   19.719252   24.381744 C.3        1 MOL1        -0.0677
      18    H12     21.653032   18.940151   23.925518 H          1 MOL1         0.1026
      19    H13     21.663258   20.351719   25.017003 H          1 MOL1         0.1026
      20    H14     20.247465   19.264006   24.980540 H          1 MOL1         0.1026
@<TRIPOS>BOND
    1     1     2    1
    2     1     3    1
    3     1     4    1
    4     1     5    1
    5     5     6    1
    6     5     7    1
    7     5     8    1
    8     8     9    1
    9     8    10    1
   10     8    11    1
   11    11    12    1
   12    11    13    1
   13    11    14    1
   14    14    15    1
   15    14    16    1
   16    14    17    1
   17    17    18    1
   18    17    19    1
   19    17    20    1
@<TRIPOS>SUBSTRUCTURE
       1 MOL1            1 RESIDUE      1      MOL     
@<SCITEGIC>MOL_PROPERTY
VConf Rank
SciTegic.value.IntegerValue
496

@<SCITEGIC>MOL_PROPERTY
Conf_Id
SciTegic.value.IntegerValue
37

@<SCITEGIC>MOL_PROPERTY
Delta U+W
SciTegic.value.DoubleValue
-0.021

@<SCITEGIC>MOL_PROPERTY
U+W
SciTegic.value.DoubleValue
15.318

@<SCITEGIC>MOL_PROPERTY
Grad RMS
SciTegic.value.DoubleValue
0.000000

@<SCITEGIC>MOL_PROPERTY
U
SciTegic.value.DoubleValue
69.657

@<SCITEGIC>MOL_PROPERTY
W
SciTegic.value.DoubleValue
-54.340

@<SCITEGIC>MOL_PROPERTY
W(PB)
SciTegic.value.DoubleValue
-56.238

@<SCITEGIC>MOL_PROPERTY
W(SA)
SciTegic.value.DoubleValue
1.899

@<SCITEGIC>MOL_PROPERTY
Valence
SciTegic.value.DoubleValue
1.137

@<SCITEGIC>MOL_PROPERTY
Coulomb
SciTegic.value.DoubleValue
68.383

@<SCITEGIC>MOL_PROPERTY
VdW
SciTegic.value.DoubleValue
0.138

@<SCITEGIC>MOL_PROPERTY
VdW6
SciTegic.value.DoubleValue
-3.703

@<SCITEGIC>MOL_PROPERTY
VdW12
SciTegic.value.DoubleValue
3.841

@<SCITEGIC>MOL_PROPERTY
Bond
SciTegic.value.DoubleValue
0.125

@<SCITEGIC>MOL_PROPERTY
Angle
SciTegic.value.DoubleValue
0.468

@<SCITEGIC>MOL_PROPERTY
Pdih
SciTegic.value.DoubleValue
0.543

@<SCITEGIC>MOL_PROPERTY
Idih
SciTegic.value.DoubleValue
0.000

@<SCITEGIC>MOL_PROPERTY
Tether
SciTegic.value.DoubleValue
0.000

@<TRIPOS>MOLECULE
guest-s9_confgen4.mol2 : confsearch ligand conformer 497
          20          19           1
SMALL
USER_CHARGES
 
@<TRIPOS>ATOM
       1    C1      22.946428   19.201673   22.329241 C.3        1 MOL1        -0.2224
       2    H1      23.882267   19.261992   21.758639 H          1 MOL1         0.1052
       3    H2      22.761256   20.187117   22.776208 H          1 MOL1         0.1052
       4    H3      23.094949   18.479999   23.143058 H          1 MOL1         0.1052
       5    C2      21.776636   18.776577   21.415377 C.3        1 MOL1        -0.1209
       6    H4      22.006688   17.804725   20.956152 H          1 MOL1         0.1041
       7    H5      21.675031   19.498455   20.592640 H          1 MOL1         0.1041
       8    C3      20.445078   18.682964   22.192472 C.3        1 MOL1        -0.1274
       9    H6      20.545979   17.958575   23.011435 H          1 MOL1         0.1041
      10    H7      20.219576   19.655266   22.649125 H          1 MOL1         0.1041
      11    C4      19.283187   18.256293   21.271640 C.3        1 MOL1         0.0313
      12    H8      19.535988   17.303081   20.800306 H          1 MOL1         0.1015
      13    H9      19.144601   18.997959   20.481004 H          1 MOL1         0.1015
      14    N1      17.950375   18.070946   21.978758 N.4        1 MOL1        -0.4809
      15    H10     18.048189   17.399450   22.755482 H          1 MOL1         0.3726
      16    H11     17.275506   17.631421   21.333270 H          1 MOL1         0.3726
      17    C5      17.397331   19.401562   22.477878 C.3        1 MOL1        -0.0677
      18    H12     17.285586   20.084148   21.632718 H          1 MOL1         0.1026
      19    H13     16.424571   19.231970   22.944727 H          1 MOL1         0.1026
      20    H14     18.085170   19.828493   23.210336 H          1 MOL1         0.1026
@<TRIPOS>BOND
    1     1     2    1
    2     1     3    1
    3     1     4    1
    4     1     5    1
    5     5     6    1
    6     5     7    1
    7     5     8    1
    8     8     9    1
    9     8    10    1
   10     8    11    1
   11    11    12    1
   12    11    13    1
   13    11    14    1
   14    14    15    1
   15    14    16    1
   16    14    17    1
   17    17    18    1
   18    17    19    1
   19    17    20    1
@<TRIPOS>SUBSTRUCTURE
       1 MOL1            1 RESIDUE      1      MOL     
@<SCITEGIC>MOL_PROPERTY
VConf Rank
SciTegic.value.IntegerValue
497

@<SCITEGIC>MOL_PROPERTY
Conf_Id
SciTegic.value.IntegerValue
2

@<SCITEGIC>MOL_PROPERTY
Delta U+W
SciTegic.value.DoubleValue
0.069

@<SCITEGIC>MOL_PROPERTY
U+W
SciTegic.value.DoubleValue
15.407

@<SCITEGIC>MOL_PROPERTY
Grad RMS
SciTegic.value.DoubleValue
0.000000

@<SCITEGIC>MOL_PROPERTY
U
SciTegic.value.DoubleValue
69.657

@<SCITEGIC>MOL_PROPERTY
W
SciTegic.value.DoubleValue
-54.250

@<SCITEGIC>MOL_PROPERTY
W(PB)
SciTegic.value.DoubleValue
-56.176

@<SCITEGIC>MOL_PROPERTY
W(SA)
SciTegic.value.DoubleValue
1.926

@<SCITEGIC>MOL_PROPERTY
Valence
SciTegic.value.DoubleValue
1.137

@<SCITEGIC>MOL_PROPERTY
Coulomb
SciTegic.value.DoubleValue
68.383

@<SCITEGIC>MOL_PROPERTY
VdW
SciTegic.value.DoubleValue
0.138

@<SCITEGIC>MOL_PROPERTY
VdW6
SciTegic.value.DoubleValue
-3.703

@<SCITEGIC>MOL_PROPERTY
VdW12
SciTegic.value.DoubleValue
3.841

@<SCITEGIC>MOL_PROPERTY
Bond
SciTegic.value.DoubleValue
0.125

@<SCITEGIC>MOL_PROPERTY
Angle
SciTegic.value.DoubleValue
0.468

@<SCITEGIC>MOL_PROPERTY
Pdih
SciTegic.value.DoubleValue
0.543

@<SCITEGIC>MOL_PROPERTY
Idih
SciTegic.value.DoubleValue
0.000

@<SCITEGIC>MOL_PROPERTY
Tether
SciTegic.value.DoubleValue
0.000

@<TRIPOS>MOLECULE
guest-s9_confgen4.mol2 : confsearch ligand conformer 498
          20          19           1
SMALL
USER_CHARGES
 
@<TRIPOS>ATOM
       1    C1      20.756140   18.046088   19.556494 C.3        1 MOL1        -0.2224
       2    H1      20.670211   19.135963   19.650568 H          1 MOL1         0.1052
       3    H2      21.782810   17.759086   19.818560 H          1 MOL1         0.1052
       4    H3      20.597036   17.791955   18.500514 H          1 MOL1         0.1052
       5    C2      19.728318   17.315194   20.450733 C.3        1 MOL1        -0.1209
       6    H4      19.786863   16.235245   20.255039 H          1 MOL1         0.1041
       7    H5      18.710962   17.624489   20.172292 H          1 MOL1         0.1041
       8    C3      19.954275   17.565163   21.960249 C.3        1 MOL1        -0.1274
       9    H6      19.241547   16.957590   22.533601 H          1 MOL1         0.1041
      10    H7      20.958622   17.223311   22.243602 H          1 MOL1         0.1041
      11    C4      19.782816   19.046619   22.349009 C.3        1 MOL1         0.0313
      12    H8      18.782383   19.385982   22.069117 H          1 MOL1         0.1015
      13    H9      20.514793   19.655254   21.812781 H          1 MOL1         0.1015
      14    N1      19.964225   19.304597   23.831914 N.4        1 MOL1        -0.4809
      15    H10     20.897062   18.987507   24.137462 H          1 MOL1         0.3726
      16    H11     19.292760   18.741967   24.376602 H          1 MOL1         0.3726
      17    C5      19.781341   20.787273   24.127408 C.3        1 MOL1        -0.0677
      18    H12     18.776441   21.092677   23.827894 H          1 MOL1         0.1026
      19    H13     19.914445   20.958832   25.197854 H          1 MOL1         0.1026
      20    H14     20.523929   21.360104   23.567741 H          1 MOL1         0.1026
@<TRIPOS>BOND
    1     1     2    1
    2     1     3    1
    3     1     4    1
    4     1     5    1
    5     5     6    1
    6     5     7    1
    7     5     8    1
    8     8     9    1
    9     8    10    1
   10     8    11    1
   11    11    12    1
   12    11    13    1
   13    11    14    1
   14    14    15    1
   15    14    16    1
   16    14    17    1
   17    17    18    1
   18    17    19    1
   19    17    20    1
@<TRIPOS>SUBSTRUCTURE
       1 MOL1            1 RESIDUE      1      MOL     
@<SCITEGIC>MOL_PROPERTY
VConf Rank
SciTegic.value.IntegerValue
498

@<SCITEGIC>MOL_PROPERTY
Conf_Id
SciTegic.value.IntegerValue
34

@<SCITEGIC>MOL_PROPERTY
Delta U+W
SciTegic.value.DoubleValue
0.276

@<SCITEGIC>MOL_PROPERTY
U+W
SciTegic.value.DoubleValue
15.615

@<SCITEGIC>MOL_PROPERTY
Grad RMS
SciTegic.value.DoubleValue
0.000000

@<SCITEGIC>MOL_PROPERTY
U
SciTegic.value.DoubleValue
69.798

@<SCITEGIC>MOL_PROPERTY
W
SciTegic.value.DoubleValue
-54.184

@<SCITEGIC>MOL_PROPERTY
W(PB)
SciTegic.value.DoubleValue
-56.116

@<SCITEGIC>MOL_PROPERTY
W(SA)
SciTegic.value.DoubleValue
1.933

@<SCITEGIC>MOL_PROPERTY
Valence
SciTegic.value.DoubleValue
1.134

@<SCITEGIC>MOL_PROPERTY
Coulomb
SciTegic.value.DoubleValue
68.735

@<SCITEGIC>MOL_PROPERTY
VdW
SciTegic.value.DoubleValue
-0.070

@<SCITEGIC>MOL_PROPERTY
VdW6
SciTegic.value.DoubleValue
-3.565

@<SCITEGIC>MOL_PROPERTY
VdW12
SciTegic.value.DoubleValue
3.494

@<SCITEGIC>MOL_PROPERTY
Bond
SciTegic.value.DoubleValue
0.108

@<SCITEGIC>MOL_PROPERTY
Angle
SciTegic.value.DoubleValue
0.456

@<SCITEGIC>MOL_PROPERTY
Pdih
SciTegic.value.DoubleValue
0.569

@<SCITEGIC>MOL_PROPERTY
Idih
SciTegic.value.DoubleValue
0.000

@<SCITEGIC>MOL_PROPERTY
Tether
SciTegic.value.DoubleValue
0.000

@<TRIPOS>MOLECULE
guest-s9_confgen4.mol2 : confsearch ligand conformer 499
          20          19           1
SMALL
USER_CHARGES
 
@<TRIPOS>ATOM
       1    C1      22.245283   19.999015   23.697364 C.3        1 MOL1        -0.2224
       2    H1      22.861361   20.652635   23.066176 H          1 MOL1         0.1052
       3    H2      22.098475   20.503959   24.660954 H          1 MOL1         0.1052
       4    H3      22.808312   19.075304   23.884278 H          1 MOL1         0.1052
       5    C2      20.887498   19.696688   23.027258 C.3        1 MOL1        -0.1209
       6    H4      20.335547   20.636257   22.882745 H          1 MOL1         0.1041
       7    H5      20.284443   19.075526   23.703261 H          1 MOL1         0.1041
       8    C3      21.067096   18.983735   21.666146 C.3        1 MOL1        -0.1274
       9    H6      21.703743   19.598422   21.015974 H          1 MOL1         0.1041
      10    H7      21.593286   18.030196   21.806663 H          1 MOL1         0.1041
      11    C4      19.729552   18.732648   20.941253 C.3        1 MOL1         0.0313
      12    H8      19.928135   18.310936   19.952646 H          1 MOL1         0.1015
      13    H9      19.201111   19.679812   20.806846 H          1 MOL1         0.1015
      14    N1      18.801745   17.777078   21.667852 N.4        1 MOL1        -0.4809
      15    H10     18.585557   18.138074   22.608808 H          1 MOL1         0.3726
      16    H11     19.272834   16.872427   21.821894 H          1 MOL1         0.3726
      17    C5      17.522612   17.583273   20.864674 C.3        1 MOL1        -0.0677
      18    H12     17.024676   18.547612   20.742608 H          1 MOL1         0.1026
      19    H13     17.772022   17.169607   19.885153 H          1 MOL1         0.1026
      20    H14     16.864560   16.894091   21.398515 H          1 MOL1         0.1026
@<TRIPOS>BOND
    1     1     2    1
    2     1     3    1
    3     1     4    1
    4     1     5    1
    5     5     6    1
    6     5     7    1
    7     5     8    1
    8     8     9    1
    9     8    10    1
   10     8    11    1
   11    11    12    1
   12    11    13    1
   13    11    14    1
   14    14    15    1
   15    14    16    1
   16    14    17    1
   17    17    18    1
   18    17    19    1
   19    17    20    1
@<TRIPOS>SUBSTRUCTURE
       1 MOL1            1 RESIDUE      1      MOL     
@<SCITEGIC>MOL_PROPERTY
VConf Rank
SciTegic.value.IntegerValue
499

@<SCITEGIC>MOL_PROPERTY
Conf_Id
SciTegic.value.IntegerValue
50

@<SCITEGIC>MOL_PROPERTY
Delta U+W
SciTegic.value.DoubleValue
0.319

@<SCITEGIC>MOL_PROPERTY
U+W
SciTegic.value.DoubleValue
15.657

@<SCITEGIC>MOL_PROPERTY
Grad RMS
SciTegic.value.DoubleValue
0.000000

@<SCITEGIC>MOL_PROPERTY
U
SciTegic.value.DoubleValue
69.962

@<SCITEGIC>MOL_PROPERTY
W
SciTegic.value.DoubleValue
-54.305

@<SCITEGIC>MOL_PROPERTY
W(PB)
SciTegic.value.DoubleValue
-56.223

@<SCITEGIC>MOL_PROPERTY
W(SA)
SciTegic.value.DoubleValue
1.918

@<SCITEGIC>MOL_PROPERTY
Valence
SciTegic.value.DoubleValue
0.982

@<SCITEGIC>MOL_PROPERTY
Coulomb
SciTegic.value.DoubleValue
69.058

@<SCITEGIC>MOL_PROPERTY
VdW
SciTegic.value.DoubleValue
-0.078

@<SCITEGIC>MOL_PROPERTY
VdW6
SciTegic.value.DoubleValue
-3.548

@<SCITEGIC>MOL_PROPERTY
VdW12
SciTegic.value.DoubleValue
3.471

@<SCITEGIC>MOL_PROPERTY
Bond
SciTegic.value.DoubleValue
0.105

@<SCITEGIC>MOL_PROPERTY
Angle
SciTegic.value.DoubleValue
0.408

@<SCITEGIC>MOL_PROPERTY
Pdih
SciTegic.value.DoubleValue
0.469

@<SCITEGIC>MOL_PROPERTY
Idih
SciTegic.value.DoubleValue
0.000

@<SCITEGIC>MOL_PROPERTY
Tether
SciTegic.value.DoubleValue
0.000

@<TRIPOS>MOLECULE
guest-s9_confgen4.mol2 : confsearch ligand conformer 500
          20          19           1
SMALL
USER_CHARGES
 
@<TRIPOS>ATOM
       1    C1      21.955410   20.908537   23.182194 C.3        1 MOL1        -0.2224
       2    H1      23.050716   20.870184   23.120059 H          1 MOL1         0.1052
       3    H2      21.635419   21.907187   22.857426 H          1 MOL1         0.1052
       4    H3      21.674035   20.785776   24.236205 H          1 MOL1         0.1052
       5    C2      21.320217   19.807845   22.305250 C.3        1 MOL1        -0.1209
       6    H4      21.693705   18.828248   22.632956 H          1 MOL1         0.1041
       7    H5      21.645701   19.939175   21.263551 H          1 MOL1         0.1041
       8    C3      19.775179   19.840184   22.375965 C.3        1 MOL1        -0.1274
       9    H6      19.441802   19.681326   23.410122 H          1 MOL1         0.1041
      10    H7      19.419518   20.837035   22.083261 H          1 MOL1         0.1041
      11    C4      19.112174   18.796776   21.454408 C.3        1 MOL1         0.0313
      12    H8      19.448288   18.948963   20.425669 H          1 MOL1         0.1015
      13    H9      18.027535   18.929005   21.480710 H          1 MOL1         0.1015
      14    N1      19.406652   17.358159   21.835924 N.4        1 MOL1        -0.4809
      15    H10     19.110906   17.180543   22.808053 H          1 MOL1         0.3726
      16    H11     20.423135   17.187768   21.822426 H          1 MOL1         0.3726
      17    C5      18.694880   16.410800   20.879508 C.3        1 MOL1        -0.0677
      18    H12     18.915323   15.379882   21.165168 H          1 MOL1         0.1026
      19    H13     17.618245   16.585741   20.934625 H          1 MOL1         0.1026
      20    H14     19.047443   16.594357   19.862258 H          1 MOL1         0.1026
@<TRIPOS>BOND
    1     1     2    1
    2     1     3    1
    3     1     4    1
    4     1     5    1
    5     5     6    1
    6     5     7    1
    7     5     8    1
    8     8     9    1
    9     8    10    1
   10     8    11    1
   11    11    12    1
   12    11    13    1
   13    11    14    1
   14    14    15    1
   15    14    16    1
   16    14    17    1
   17    17    18    1
   18    17    19    1
   19    17    20    1
@<TRIPOS>SUBSTRUCTURE
       1 MOL1            1 RESIDUE      1      MOL     
@<SCITEGIC>MOL_PROPERTY
VConf Rank
SciTegic.value.IntegerValue
500

@<SCITEGIC>MOL_PROPERTY
Conf_Id
SciTegic.value.IntegerValue
35

@<SCITEGIC>MOL_PROPERTY
Delta U+W
SciTegic.value.DoubleValue
0.360

@<SCITEGIC>MOL_PROPERTY
U+W
SciTegic.value.DoubleValue
15.698

@<SCITEGIC>MOL_PROPERTY
Grad RMS
SciTegic.value.DoubleValue
0.000000

@<SCITEGIC>MOL_PROPERTY
U
SciTegic.value.DoubleValue
69.962

@<SCITEGIC>MOL_PROPERTY
W
SciTegic.value.DoubleValue
-54.264

@<SCITEGIC>MOL_PROPERTY
W(PB)
SciTegic.value.DoubleValue
-56.166

@<SCITEGIC>MOL_PROPERTY
W(SA)
SciTegic.value.DoubleValue
1.902

@<SCITEGIC>MOL_PROPERTY
Valence
SciTegic.value.DoubleValue
0.982

@<SCITEGIC>MOL_PROPERTY
Coulomb
SciTegic.value.DoubleValue
69.058

@<SCITEGIC>MOL_PROPERTY
VdW
SciTegic.value.DoubleValue
-0.078

@<SCITEGIC>MOL_PROPERTY
VdW6
SciTegic.value.DoubleValue
-3.548

@<SCITEGIC>MOL_PROPERTY
VdW12
SciTegic.value.DoubleValue
3.471

@<SCITEGIC>MOL_PROPERTY
Bond
SciTegic.value.DoubleValue
0.105

@<SCITEGIC>MOL_PROPERTY
Angle
SciTegic.value.DoubleValue
0.408

@<SCITEGIC>MOL_PROPERTY
Pdih
SciTegic.value.DoubleValue
0.469

@<SCITEGIC>MOL_PROPERTY
Idih
SciTegic.value.DoubleValue
0.000

@<SCITEGIC>MOL_PROPERTY
Tether
SciTegic.value.DoubleValue
0.000

@<TRIPOS>MOLECULE
guest-s9_confgen4.mol2 : confsearch ligand conformer 501
          20          19           1
SMALL
USER_CHARGES
 
@<TRIPOS>ATOM
       1    C1      21.907675   18.528837   20.238771 C.3        1 MOL1        -0.2224
       2    H1      21.073216   17.953596   19.818241 H          1 MOL1         0.1052
       3    H2      22.590147   18.772485   19.414246 H          1 MOL1         0.1052
       4    H3      22.449458   17.882832   20.941795 H          1 MOL1         0.1052
       5    C2      21.415443   19.818780   20.934446 C.3        1 MOL1        -0.1209
       6    H4      20.872968   20.444221   20.211457 H          1 MOL1         0.1041
       7    H5      22.286098   20.406129   21.258434 H          1 MOL1         0.1041
       8    C3      20.514683   19.537639   22.159789 C.3        1 MOL1        -0.1274
       9    H6      21.074361   18.944581   22.894468 H          1 MOL1         0.1041
      10    H7      20.266744   20.489715   22.647225 H          1 MOL1         0.1041
      11    C4      19.207594   18.809283   21.779679 C.3        1 MOL1         0.0313
      12    H8      19.437839   17.829679   21.354098 H          1 MOL1         0.1015
      13    H9      18.684146   19.394293   21.019195 H          1 MOL1         0.1015
      14    N1      18.241518   18.600064   22.934373 N.4        1 MOL1        -0.4809
      15    H10     17.336914   18.261349   22.570820 H          1 MOL1         0.3726
      16    H11     18.023667   19.501343   23.385989 H          1 MOL1         0.3726
      17    C5      18.797078   17.605253   23.947818 C.3        1 MOL1        -0.0677
      18    H12     19.719947   18.001096   24.376199 H          1 MOL1         0.1026
      19    H13     18.061132   17.453567   24.740496 H          1 MOL1         0.1026
      20    H14     18.998634   16.656137   23.446569 H          1 MOL1         0.1026
@<TRIPOS>BOND
    1     1     2    1
    2     1     3    1
    3     1     4    1
    4     1     5    1
    5     5     6    1
    6     5     7    1
    7     5     8    1
    8     8     9    1
    9     8    10    1
   10     8    11    1
   11    11    12    1
   12    11    13    1
   13    11    14    1
   14    14    15    1
   15    14    16    1
   16    14    17    1
   17    17    18    1
   18    17    19    1
   19    17    20    1
@<TRIPOS>SUBSTRUCTURE
       1 MOL1            1 RESIDUE      1      MOL     
@<SCITEGIC>MOL_PROPERTY
VConf Rank
SciTegic.value.IntegerValue
501

@<SCITEGIC>MOL_PROPERTY
Conf_Id
SciTegic.value.IntegerValue
33

@<SCITEGIC>MOL_PROPERTY
Delta U+W
SciTegic.value.DoubleValue
0.372

@<SCITEGIC>MOL_PROPERTY
U+W
SciTegic.value.DoubleValue
15.711

@<SCITEGIC>MOL_PROPERTY
Grad RMS
SciTegic.value.DoubleValue
0.000000

@<SCITEGIC>MOL_PROPERTY
U
SciTegic.value.DoubleValue
70.163

@<SCITEGIC>MOL_PROPERTY
W
SciTegic.value.DoubleValue
-54.452

@<SCITEGIC>MOL_PROPERTY
W(PB)
SciTegic.value.DoubleValue
-56.363

@<SCITEGIC>MOL_PROPERTY
W(SA)
SciTegic.value.DoubleValue
1.911

@<SCITEGIC>MOL_PROPERTY
Valence
SciTegic.value.DoubleValue
1.420

@<SCITEGIC>MOL_PROPERTY
Coulomb
SciTegic.value.DoubleValue
68.566

@<SCITEGIC>MOL_PROPERTY
VdW
SciTegic.value.DoubleValue
0.177

@<SCITEGIC>MOL_PROPERTY
VdW6
SciTegic.value.DoubleValue
-4.267

@<SCITEGIC>MOL_PROPERTY
VdW12
SciTegic.value.DoubleValue
4.445

@<SCITEGIC>MOL_PROPERTY
Bond
SciTegic.value.DoubleValue
0.146

@<SCITEGIC>MOL_PROPERTY
Angle
SciTegic.value.DoubleValue
0.581

@<SCITEGIC>MOL_PROPERTY
Pdih
SciTegic.value.DoubleValue
0.693

@<SCITEGIC>MOL_PROPERTY
Idih
SciTegic.value.DoubleValue
0.000

@<SCITEGIC>MOL_PROPERTY
Tether
SciTegic.value.DoubleValue
0.000

@<TRIPOS>MOLECULE
guest-s9_confgen4.mol2 : confsearch ligand conformer 502
          20          19           1
SMALL
USER_CHARGES
 
@<TRIPOS>ATOM
       1    C1      18.496149   18.212325   23.904487 C.3        1 MOL1        -0.2224
       2    H1      17.581948   18.152764   24.509188 H          1 MOL1         0.1052
       3    H2      18.551931   17.299087   23.298719 H          1 MOL1         0.1052
       4    H3      19.352048   18.220530   24.591847 H          1 MOL1         0.1052
       5    C2      18.480006   19.480710   23.020660 C.3        1 MOL1        -0.1209
       6    H4      18.331600   20.361877   23.660586 H          1 MOL1         0.1041
       7    H5      17.618006   19.445208   22.339585 H          1 MOL1         0.1041
       8    C3      19.781339   19.664978   22.205516 C.3        1 MOL1        -0.1274
       9    H6      19.731980   20.618831   21.663996 H          1 MOL1         0.1041
      10    H7      20.634087   19.737269   22.892760 H          1 MOL1         0.1041
      11    C4      20.014171   18.521622   21.194581 C.3        1 MOL1         0.0313
      12    H8      19.139042   18.439186   20.545026 H          1 MOL1         0.1015
      13    H9      20.132158   17.573976   21.725429 H          1 MOL1         0.1015
      14    N1      21.227504   18.707509   20.298104 N.4        1 MOL1        -0.4809
      15    H10     21.170527   19.609905   19.801965 H          1 MOL1         0.3726
      16    H11     21.217946   17.994709   19.551759 H          1 MOL1         0.3726
      17    C5      22.524489   18.606294   21.093688 C.3        1 MOL1        -0.0677
      18    H12     23.371383   18.707524   20.411423 H          1 MOL1         0.1026
      19    H13     22.556707   19.404436   21.837879 H          1 MOL1         0.1026
      20    H14     22.566562   17.634651   21.590516 H          1 MOL1         0.1026
@<TRIPOS>BOND
    1     1     2    1
    2     1     3    1
    3     1     4    1
    4     1     5    1
    5     5     6    1
    6     5     7    1
    7     5     8    1
    8     8     9    1
    9     8    10    1
   10     8    11    1
   11    11    12    1
   12    11    13    1
   13    11    14    1
   14    14    15    1
   15    14    16    1
   16    14    17    1
   17    17    18    1
   18    17    19    1
   19    17    20    1
@<TRIPOS>SUBSTRUCTURE
       1 MOL1            1 RESIDUE      1      MOL     
@<SCITEGIC>MOL_PROPERTY
VConf Rank
SciTegic.value.IntegerValue
502

@<SCITEGIC>MOL_PROPERTY
Conf_Id
SciTegic.value.IntegerValue
53

@<SCITEGIC>MOL_PROPERTY
Delta U+W
SciTegic.value.DoubleValue
0.379

@<SCITEGIC>MOL_PROPERTY
U+W
SciTegic.value.DoubleValue
15.717

@<SCITEGIC>MOL_PROPERTY
Grad RMS
SciTegic.value.DoubleValue
0.000000

@<SCITEGIC>MOL_PROPERTY
U
SciTegic.value.DoubleValue
70.163

@<SCITEGIC>MOL_PROPERTY
W
SciTegic.value.DoubleValue
-54.446

@<SCITEGIC>MOL_PROPERTY
W(PB)
SciTegic.value.DoubleValue
-56.322

@<SCITEGIC>MOL_PROPERTY
W(SA)
SciTegic.value.DoubleValue
1.876

@<SCITEGIC>MOL_PROPERTY
Valence
SciTegic.value.DoubleValue
1.420

@<SCITEGIC>MOL_PROPERTY
Coulomb
SciTegic.value.DoubleValue
68.566

@<SCITEGIC>MOL_PROPERTY
VdW
SciTegic.value.DoubleValue
0.177

@<SCITEGIC>MOL_PROPERTY
VdW6
SciTegic.value.DoubleValue
-4.267

@<SCITEGIC>MOL_PROPERTY
VdW12
SciTegic.value.DoubleValue
4.445

@<SCITEGIC>MOL_PROPERTY
Bond
SciTegic.value.DoubleValue
0.146

@<SCITEGIC>MOL_PROPERTY
Angle
SciTegic.value.DoubleValue
0.581

@<SCITEGIC>MOL_PROPERTY
Pdih
SciTegic.value.DoubleValue
0.693

@<SCITEGIC>MOL_PROPERTY
Idih
SciTegic.value.DoubleValue
0.000

@<SCITEGIC>MOL_PROPERTY
Tether
SciTegic.value.DoubleValue
0.000

@<TRIPOS>MOLECULE
guest-s9_confgen4.mol2 : confsearch ligand conformer 503
          20          19           1
SMALL
USER_CHARGES
 
@<TRIPOS>ATOM
       1    C1      22.051874   20.812595   22.432490 C.3        1 MOL1        -0.2224
       2    H1      22.195342   21.424556   23.332447 H          1 MOL1         0.1052
       3    H2      23.042391   20.498162   22.078717 H          1 MOL1         0.1052
       4    H3      21.600133   21.449865   21.661140 H          1 MOL1         0.1052
       5    C2      21.157138   19.592256   22.739380 C.3        1 MOL1        -0.1209
       6    H4      20.191225   19.944243   23.126386 H          1 MOL1         0.1041
       7    H5      21.619555   18.992263   23.535846 H          1 MOL1         0.1041
       8    C3      20.937454   18.713540   21.485458 C.3        1 MOL1        -0.1274
       9    H6      20.450938   19.300623   20.695915 H          1 MOL1         0.1041
      10    H7      21.911569   18.405063   21.083476 H          1 MOL1         0.1041
      11    C4      20.109893   17.442704   21.780040 C.3        1 MOL1         0.0313
      12    H8      20.636470   16.841505   22.525630 H          1 MOL1         0.1015
      13    H9      20.023217   16.845125   20.869062 H          1 MOL1         0.1015
      14    N1      18.703051   17.687732   22.304812 N.4        1 MOL1        -0.4809
      15    H10     18.737886   18.253079   23.165742 H          1 MOL1         0.3726
      16    H11     18.281434   16.790882   22.593125 H          1 MOL1         0.3726
      17    C5      17.827089   18.357457   21.251677 C.3        1 MOL1        -0.0677
      18    H12     17.792731   17.728218   20.359748 H          1 MOL1         0.1026
      19    H13     16.818801   18.483326   21.652232 H          1 MOL1         0.1026
      20    H14     18.245859   19.333908   21.000305 H          1 MOL1         0.1026
@<TRIPOS>BOND
    1     1     2    1
    2     1     3    1
    3     1     4    1
    4     1     5    1
    5     5     6    1
    6     5     7    1
    7     5     8    1
    8     8     9    1
    9     8    10    1
   10     8    11    1
   11    11    12    1
   12    11    13    1
   13    11    14    1
   14    14    15    1
   15    14    16    1
   16    14    17    1
   17    17    18    1
   18    17    19    1
   19    17    20    1
@<TRIPOS>SUBSTRUCTURE
       1 MOL1            1 RESIDUE      1      MOL     
@<SCITEGIC>MOL_PROPERTY
VConf Rank
SciTegic.value.IntegerValue
503

@<SCITEGIC>MOL_PROPERTY
Conf_Id
SciTegic.value.IntegerValue
49

@<SCITEGIC>MOL_PROPERTY
Delta U+W
SciTegic.value.DoubleValue
0.268

@<SCITEGIC>MOL_PROPERTY
U+W
SciTegic.value.DoubleValue
15.607

@<SCITEGIC>MOL_PROPERTY
Grad RMS
SciTegic.value.DoubleValue
0.000000

@<SCITEGIC>MOL_PROPERTY
U
SciTegic.value.DoubleValue
70.298

@<SCITEGIC>MOL_PROPERTY
W
SciTegic.value.DoubleValue
-54.692

@<SCITEGIC>MOL_PROPERTY
W(PB)
SciTegic.value.DoubleValue
-56.576

@<SCITEGIC>MOL_PROPERTY
W(SA)
SciTegic.value.DoubleValue
1.885

@<SCITEGIC>MOL_PROPERTY
Valence
SciTegic.value.DoubleValue
1.245

@<SCITEGIC>MOL_PROPERTY
Coulomb
SciTegic.value.DoubleValue
68.933

@<SCITEGIC>MOL_PROPERTY
VdW
SciTegic.value.DoubleValue
0.120

@<SCITEGIC>MOL_PROPERTY
VdW6
SciTegic.value.DoubleValue
-4.430

@<SCITEGIC>MOL_PROPERTY
VdW12
SciTegic.value.DoubleValue
4.550

@<SCITEGIC>MOL_PROPERTY
Bond
SciTegic.value.DoubleValue
0.148

@<SCITEGIC>MOL_PROPERTY
Angle
SciTegic.value.DoubleValue
0.587

@<SCITEGIC>MOL_PROPERTY
Pdih
SciTegic.value.DoubleValue
0.509

@<SCITEGIC>MOL_PROPERTY
Idih
SciTegic.value.DoubleValue
0.000

@<SCITEGIC>MOL_PROPERTY
Tether
SciTegic.value.DoubleValue
0.000

@<TRIPOS>MOLECULE
guest-s9_confgen4.mol2 : confsearch ligand conformer 504
          20          19           1
SMALL
USER_CHARGES
 
@<TRIPOS>ATOM
       1    C1      21.146709   19.189663   19.459919 C.3        1 MOL1        -0.2224
       2    H1      20.567084   18.491941   18.841542 H          1 MOL1         0.1052
       3    H2      20.930399   20.210087   19.117742 H          1 MOL1         0.1052
       4    H3      22.211647   18.993864   19.279450 H          1 MOL1         0.1052
       5    C2      20.806881   19.020173   20.956621 C.3        1 MOL1        -0.1209
       6    H4      21.421570   19.710522   21.551235 H          1 MOL1         0.1041
       7    H5      21.074202   18.001540   21.267226 H          1 MOL1         0.1041
       8    C3      19.308323   19.280043   21.236650 C.3        1 MOL1        -0.1274
       9    H6      19.029133   20.255211   20.816108 H          1 MOL1         0.1041
      10    H7      18.697600   18.532922   20.712834 H          1 MOL1         0.1041
      11    C4      18.937362   19.285664   22.737045 C.3        1 MOL1         0.0313
      12    H8      17.877922   19.541183   22.820960 H          1 MOL1         0.1015
      13    H9      19.505967   20.054360   23.266283 H          1 MOL1         0.1015
      14    N1      19.127593   17.964717   23.466547 N.4        1 MOL1        -0.4809
      15    H10     18.952736   17.173350   22.829362 H          1 MOL1         0.3726
      16    H11     18.408655   17.875298   24.201489 H          1 MOL1         0.3726
      17    C5      20.510324   17.873906   24.104083 C.3        1 MOL1        -0.0677
      18    H12     20.596697   16.923445   24.635234 H          1 MOL1         0.1026
      19    H13     21.277987   17.931983   23.331664 H          1 MOL1         0.1026
      20    H14     20.634446   18.699354   24.808297 H          1 MOL1         0.1026
@<TRIPOS>BOND
    1     1     2    1
    2     1     3    1
    3     1     4    1
    4     1     5    1
    5     5     6    1
    6     5     7    1
    7     5     8    1
    8     8     9    1
    9     8    10    1
   10     8    11    1
   11    11    12    1
   12    11    13    1
   13    11    14    1
   14    14    15    1
   15    14    16    1
   16    14    17    1
   17    17    18    1
   18    17    19    1
   19    17    20    1
@<TRIPOS>SUBSTRUCTURE
       1 MOL1            1 RESIDUE      1      MOL     
@<SCITEGIC>MOL_PROPERTY
VConf Rank
SciTegic.value.IntegerValue
504

@<SCITEGIC>MOL_PROPERTY
Conf_Id
SciTegic.value.IntegerValue
65

@<SCITEGIC>MOL_PROPERTY
Delta U+W
SciTegic.value.DoubleValue
1.775

@<SCITEGIC>MOL_PROPERTY
U+W
SciTegic.value.DoubleValue
17.114

@<SCITEGIC>MOL_PROPERTY
Grad RMS
SciTegic.value.DoubleValue
0.000000

@<SCITEGIC>MOL_PROPERTY
U
SciTegic.value.DoubleValue
71.726

@<SCITEGIC>MOL_PROPERTY
W
SciTegic.value.DoubleValue
-54.613

@<SCITEGIC>MOL_PROPERTY
W(PB)
SciTegic.value.DoubleValue
-56.495

@<SCITEGIC>MOL_PROPERTY
W(SA)
SciTegic.value.DoubleValue
1.883

@<SCITEGIC>MOL_PROPERTY
Valence
SciTegic.value.DoubleValue
2.885

@<SCITEGIC>MOL_PROPERTY
Coulomb
SciTegic.value.DoubleValue
68.822

@<SCITEGIC>MOL_PROPERTY
VdW
SciTegic.value.DoubleValue
0.019

@<SCITEGIC>MOL_PROPERTY
VdW6
SciTegic.value.DoubleValue
-4.600

@<SCITEGIC>MOL_PROPERTY
VdW12
SciTegic.value.DoubleValue
4.619

@<SCITEGIC>MOL_PROPERTY
Bond
SciTegic.value.DoubleValue
0.152

@<SCITEGIC>MOL_PROPERTY
Angle
SciTegic.value.DoubleValue
0.862

@<SCITEGIC>MOL_PROPERTY
Pdih
SciTegic.value.DoubleValue
1.871

@<SCITEGIC>MOL_PROPERTY
Idih
SciTegic.value.DoubleValue
0.000

@<SCITEGIC>MOL_PROPERTY
Tether
SciTegic.value.DoubleValue
0.000

@<TRIPOS>MOLECULE
guest-s9_confgen4.mol2 : confsearch ligand conformer 505
          20          19           1
SMALL
USER_CHARGES
 
@<TRIPOS>ATOM
       1    C1      18.462242   19.473440   23.603217 C.3        1 MOL1        -0.2224
       2    H1      19.506593   19.450076   23.939056 H          1 MOL1         0.1052
       3    H2      18.006688   20.388532   24.003288 H          1 MOL1         0.1052
       4    H3      17.939703   18.617288   24.049342 H          1 MOL1         0.1052
       5    C2      18.358633   19.445704   22.060924 C.3        1 MOL1        -0.1209
       6    H4      18.887489   20.311175   21.639163 H          1 MOL1         0.1041
       7    H5      17.304993   19.564877   21.771709 H          1 MOL1         0.1041
       8    C3      18.900700   18.134285   21.439361 C.3        1 MOL1        -0.1274
       9    H6      18.293949   17.289913   21.792427 H          1 MOL1         0.1041
      10    H7      18.773018   18.167263   20.349244 H          1 MOL1         0.1041
      11    C4      20.380934   17.848592   21.768374 C.3        1 MOL1         0.0313
      12    H8      20.673982   16.895401   21.321060 H          1 MOL1         0.1015
      13    H9      20.508447   17.768087   22.850514 H          1 MOL1         0.1015
      14    N1      21.340432   18.908501   21.261857 N.4        1 MOL1        -0.4809
      15    H10     21.091377   19.827235   21.657318 H          1 MOL1         0.3726
      16    H11     21.247031   19.013551   20.240026 H          1 MOL1         0.3726
      17    C5      22.769545   18.536787   21.633317 C.3        1 MOL1        -0.0677
      18    H12     23.021275   17.576443   21.178197 H          1 MOL1         0.1026
      19    H13     23.448628   19.308393   21.263939 H          1 MOL1         0.1026
      20    H14     22.851562   18.463573   22.719905 H          1 MOL1         0.1026
@<TRIPOS>BOND
    1     1     2    1
    2     1     3    1
    3     1     4    1
    4     1     5    1
    5     5     6    1
    6     5     7    1
    7     5     8    1
    8     8     9    1
    9     8    10    1
   10     8    11    1
   11    11    12    1
   12    11    13    1
   13    11    14    1
   14    14    15    1
   15    14    16    1
   16    14    17    1
   17    17    18    1
   18    17    19    1
   19    17    20    1
@<TRIPOS>SUBSTRUCTURE
       1 MOL1            1 RESIDUE      1      MOL     
@<SCITEGIC>MOL_PROPERTY
VConf Rank
SciTegic.value.IntegerValue
505

@<SCITEGIC>MOL_PROPERTY
Conf_Id
SciTegic.value.IntegerValue
23

@<SCITEGIC>MOL_PROPERTY
Delta U+W
SciTegic.value.DoubleValue
0.896

@<SCITEGIC>MOL_PROPERTY
U+W
SciTegic.value.DoubleValue
16.234

@<SCITEGIC>MOL_PROPERTY
Grad RMS
SciTegic.value.DoubleValue
0.000000

@<SCITEGIC>MOL_PROPERTY
U
SciTegic.value.DoubleValue
70.374

@<SCITEGIC>MOL_PROPERTY
W
SciTegic.value.DoubleValue
-54.140

@<SCITEGIC>MOL_PROPERTY
W(PB)
SciTegic.value.DoubleValue
-56.046

@<SCITEGIC>MOL_PROPERTY
W(SA)
SciTegic.value.DoubleValue
1.907

@<SCITEGIC>MOL_PROPERTY
Valence
SciTegic.value.DoubleValue
1.257

@<SCITEGIC>MOL_PROPERTY
Coulomb
SciTegic.value.DoubleValue
69.240

@<SCITEGIC>MOL_PROPERTY
VdW
SciTegic.value.DoubleValue
-0.123

@<SCITEGIC>MOL_PROPERTY
VdW6
SciTegic.value.DoubleValue
-4.336

@<SCITEGIC>MOL_PROPERTY
VdW12
SciTegic.value.DoubleValue
4.213

@<SCITEGIC>MOL_PROPERTY
Bond
SciTegic.value.DoubleValue
0.128

@<SCITEGIC>MOL_PROPERTY
Angle
SciTegic.value.DoubleValue
0.603

@<SCITEGIC>MOL_PROPERTY
Pdih
SciTegic.value.DoubleValue
0.526

@<SCITEGIC>MOL_PROPERTY
Idih
SciTegic.value.DoubleValue
0.000

@<SCITEGIC>MOL_PROPERTY
Tether
SciTegic.value.DoubleValue
0.000

@<TRIPOS>MOLECULE
guest-s9_confgen4.mol2 : confsearch ligand conformer 506
          20          19           1
SMALL
USER_CHARGES
 
@<TRIPOS>ATOM
       1    C1      18.995097   17.467624   20.393135 C.3        1 MOL1        -0.2224
       2    H1      19.040914   17.947222   19.406749 H          1 MOL1         0.1052
       3    H2      18.486787   16.502243   20.272134 H          1 MOL1         0.1052
       4    H3      18.371666   18.089639   21.047683 H          1 MOL1         0.1052
       5    C2      20.411389   17.265011   20.978996 C.3        1 MOL1        -0.1209
       6    H4      20.965162   16.563200   20.339620 H          1 MOL1         0.1041
       7    H5      20.338836   16.783801   21.963772 H          1 MOL1         0.1041
       8    C3      21.218047   18.583180   21.087308 C.3        1 MOL1        -0.1274
       9    H6      22.219351   18.366660   21.482595 H          1 MOL1         0.1041
      10    H7      21.369747   18.997033   20.081585 H          1 MOL1         0.1041
      11    C4      20.547259   19.659237   21.966577 C.3        1 MOL1         0.0313
      12    H8      19.568525   19.914404   21.553375 H          1 MOL1         0.1015
      13    H9      21.161668   20.563138   21.964774 H          1 MOL1         0.1015
      14    N1      20.350392   19.239959   23.410896 N.4        1 MOL1        -0.4809
      15    H10     21.256607   18.989541   23.835116 H          1 MOL1         0.3726
      16    H11     19.779465   18.382845   23.454331 H          1 MOL1         0.3726
      17    C5      19.685760   20.364632   24.193136 C.3        1 MOL1        -0.0677
      18    H12     18.715117   20.589428   23.745836 H          1 MOL1         0.1026
      19    H13     19.549229   20.048829   25.229765 H          1 MOL1         0.1026
      20    H14     20.322453   21.251337   24.159377 H          1 MOL1         0.1026
@<TRIPOS>BOND
    1     1     2    1
    2     1     3    1
    3     1     4    1
    4     1     5    1
    5     5     6    1
    6     5     7    1
    7     5     8    1
    8     8     9    1
    9     8    10    1
   10     8    11    1
   11    11    12    1
   12    11    13    1
   13    11    14    1
   14    14    15    1
   15    14    16    1
   16    14    17    1
   17    17    18    1
   18    17    19    1
   19    17    20    1
@<TRIPOS>SUBSTRUCTURE
       1 MOL1            1 RESIDUE      1      MOL     
@<SCITEGIC>MOL_PROPERTY
VConf Rank
SciTegic.value.IntegerValue
506

@<SCITEGIC>MOL_PROPERTY
Conf_Id
SciTegic.value.IntegerValue
24

@<SCITEGIC>MOL_PROPERTY
Delta U+W
SciTegic.value.DoubleValue
0.792

@<SCITEGIC>MOL_PROPERTY
U+W
SciTegic.value.DoubleValue
16.130

@<SCITEGIC>MOL_PROPERTY
Grad RMS
SciTegic.value.DoubleValue
0.000000

@<SCITEGIC>MOL_PROPERTY
U
SciTegic.value.DoubleValue
70.374

@<SCITEGIC>MOL_PROPERTY
W
SciTegic.value.DoubleValue
-54.243

@<SCITEGIC>MOL_PROPERTY
W(PB)
SciTegic.value.DoubleValue
-56.130

@<SCITEGIC>MOL_PROPERTY
W(SA)
SciTegic.value.DoubleValue
1.887

@<SCITEGIC>MOL_PROPERTY
Valence
SciTegic.value.DoubleValue
1.257

@<SCITEGIC>MOL_PROPERTY
Coulomb
SciTegic.value.DoubleValue
69.240

@<SCITEGIC>MOL_PROPERTY
VdW
SciTegic.value.DoubleValue
-0.123

@<SCITEGIC>MOL_PROPERTY
VdW6
SciTegic.value.DoubleValue
-4.336

@<SCITEGIC>MOL_PROPERTY
VdW12
SciTegic.value.DoubleValue
4.213

@<SCITEGIC>MOL_PROPERTY
Bond
SciTegic.value.DoubleValue
0.128

@<SCITEGIC>MOL_PROPERTY
Angle
SciTegic.value.DoubleValue
0.603

@<SCITEGIC>MOL_PROPERTY
Pdih
SciTegic.value.DoubleValue
0.526

@<SCITEGIC>MOL_PROPERTY
Idih
SciTegic.value.DoubleValue
0.000

@<SCITEGIC>MOL_PROPERTY
Tether
SciTegic.value.DoubleValue
0.000

@<TRIPOS>MOLECULE
guest-s9_confgen4.mol2 : confsearch ligand conformer 507
          20          19           1
SMALL
USER_CHARGES
 
@<TRIPOS>ATOM
       1    C1      20.773294   19.514875   23.930523 C.3        1 MOL1        -0.2224
       2    H1      21.455460   19.913409   24.692783 H          1 MOL1         0.1052
       3    H2      20.747770   20.242656   23.110931 H          1 MOL1         0.1052
       4    H3      19.774077   19.450184   24.380571 H          1 MOL1         0.1052
       5    C2      21.262465   18.130828   23.446181 C.3        1 MOL1        -0.1209
       6    H4      21.474385   17.506498   24.325595 H          1 MOL1         0.1041
       7    H5      22.219503   18.245688   22.917984 H          1 MOL1         0.1041
       8    C3      20.256095   17.374623   22.541631 C.3        1 MOL1        -0.1274
       9    H6      20.678526   16.385716   22.319294 H          1 MOL1         0.1041
      10    H7      19.320326   17.186980   23.084614 H          1 MOL1         0.1041
      11    C4      19.956426   18.072190   21.197799 C.3        1 MOL1         0.0313
      12    H8      19.563876   17.335247   20.492559 H          1 MOL1         0.1015
      13    H9      20.879538   18.482242   20.780659 H          1 MOL1         0.1015
      14    N1      18.932258   19.187618   21.286668 N.4        1 MOL1        -0.4809
      15    H10     19.231275   19.886019   21.981969 H          1 MOL1         0.3726
      16    H11     18.035257   18.818124   21.637199 H          1 MOL1         0.3726
      17    C5      18.746808   19.834916   19.921008 C.3        1 MOL1        -0.0677
      18    H12     19.700940   20.246990   19.585458 H          1 MOL1         0.1026
      19    H13     18.399251   19.081933   19.210383 H          1 MOL1         0.1026
      20    H14     18.007561   20.635036   20.000333 H          1 MOL1         0.1026
@<TRIPOS>BOND
    1     1     2    1
    2     1     3    1
    3     1     4    1
    4     1     5    1
    5     5     6    1
    6     5     7    1
    7     5     8    1
    8     8     9    1
    9     8    10    1
   10     8    11    1
   11    11    12    1
   12    11    13    1
   13    11    14    1
   14    14    15    1
   15    14    16    1
   16    14    17    1
   17    17    18    1
   18    17    19    1
   19    17    20    1
@<TRIPOS>SUBSTRUCTURE
       1 MOL1            1 RESIDUE      1      MOL     
@<SCITEGIC>MOL_PROPERTY
VConf Rank
SciTegic.value.IntegerValue
507

@<SCITEGIC>MOL_PROPERTY
Conf_Id
SciTegic.value.IntegerValue
26

@<SCITEGIC>MOL_PROPERTY
Delta U+W
SciTegic.value.DoubleValue
2.888

@<SCITEGIC>MOL_PROPERTY
U+W
SciTegic.value.DoubleValue
18.226

@<SCITEGIC>MOL_PROPERTY
Grad RMS
SciTegic.value.DoubleValue
0.000000

@<SCITEGIC>MOL_PROPERTY
U
SciTegic.value.DoubleValue
72.042

@<SCITEGIC>MOL_PROPERTY
W
SciTegic.value.DoubleValue
-53.816

@<SCITEGIC>MOL_PROPERTY
W(PB)
SciTegic.value.DoubleValue
-55.689

@<SCITEGIC>MOL_PROPERTY
W(SA)
SciTegic.value.DoubleValue
1.873

@<SCITEGIC>MOL_PROPERTY
Valence
SciTegic.value.DoubleValue
2.428

@<SCITEGIC>MOL_PROPERTY
Coulomb
SciTegic.value.DoubleValue
69.829

@<SCITEGIC>MOL_PROPERTY
VdW
SciTegic.value.DoubleValue
-0.215

@<SCITEGIC>MOL_PROPERTY
VdW6
SciTegic.value.DoubleValue
-4.563

@<SCITEGIC>MOL_PROPERTY
VdW12
SciTegic.value.DoubleValue
4.348

@<SCITEGIC>MOL_PROPERTY
Bond
SciTegic.value.DoubleValue
0.137

@<SCITEGIC>MOL_PROPERTY
Angle
SciTegic.value.DoubleValue
0.936

@<SCITEGIC>MOL_PROPERTY
Pdih
SciTegic.value.DoubleValue
1.356

@<SCITEGIC>MOL_PROPERTY
Idih
SciTegic.value.DoubleValue
0.000

@<SCITEGIC>MOL_PROPERTY
Tether
SciTegic.value.DoubleValue
0.000

@<TRIPOS>MOLECULE
guest-s9_confgen4.mol2 : confsearch ligand conformer 508
          20          19           1
SMALL
USER_CHARGES
 
@<TRIPOS>ATOM
       1    C1      18.131976   18.648634   22.972408 C.3        1 MOL1        -0.2224
       2    H1      17.046991   18.567949   23.119093 H          1 MOL1         0.1052
       3    H2      18.604528   18.610036   23.962544 H          1 MOL1         0.1052
       4    H3      18.322968   19.631286   22.525231 H          1 MOL1         0.1052
       5    C2      18.635429   17.503653   22.064105 C.3        1 MOL1        -0.1209
       6    H4      18.217146   17.626670   21.055139 H          1 MOL1         0.1041
       7    H5      18.235700   16.553023   22.444351 H          1 MOL1         0.1041
       8    C3      20.178492   17.384467   21.976997 C.3        1 MOL1        -0.1274
       9    H6      20.603182   17.186058   22.969962 H          1 MOL1         0.1041
      10    H7      20.415408   16.502855   21.366711 H          1 MOL1         0.1041
      11    C4      20.877794   18.602545   21.337040 C.3        1 MOL1         0.0313
      12    H8      20.297975   18.952801   20.479476 H          1 MOL1         0.1015
      13    H9      21.864739   18.299907   20.978025 H          1 MOL1         0.1015
      14    N1      21.090504   19.769725   22.282263 N.4        1 MOL1        -0.4809
      15    H10     21.673551   19.477072   23.081273 H          1 MOL1         0.3726
      16    H11     20.191161   20.060335   22.691344 H          1 MOL1         0.3726
      17    C5      21.742546   20.928764   21.540725 C.3        1 MOL1        -0.0677
      18    H12     21.093026   21.242311   20.720616 H          1 MOL1         0.1026
      19    H13     21.889378   21.760730   22.233001 H          1 MOL1         0.1026
      20    H14     22.707449   20.604932   21.144670 H          1 MOL1         0.1026
@<TRIPOS>BOND
    1     1     2    1
    2     1     3    1
    3     1     4    1
    4     1     5    1
    5     5     6    1
    6     5     7    1
    7     5     8    1
    8     8     9    1
    9     8    10    1
   10     8    11    1
   11    11    12    1
   12    11    13    1
   13    11    14    1
   14    14    15    1
   15    14    16    1
   16    14    17    1
   17    17    18    1
   18    17    19    1
   19    17    20    1
@<TRIPOS>SUBSTRUCTURE
       1 MOL1            1 RESIDUE      1      MOL     
@<SCITEGIC>MOL_PROPERTY
VConf Rank
SciTegic.value.IntegerValue
508

@<SCITEGIC>MOL_PROPERTY
Conf_Id
SciTegic.value.IntegerValue
5

@<SCITEGIC>MOL_PROPERTY
Delta U+W
SciTegic.value.DoubleValue
2.950

@<SCITEGIC>MOL_PROPERTY
U+W
SciTegic.value.DoubleValue
18.289

@<SCITEGIC>MOL_PROPERTY
Grad RMS
SciTegic.value.DoubleValue
0.000000

@<SCITEGIC>MOL_PROPERTY
U
SciTegic.value.DoubleValue
72.042

@<SCITEGIC>MOL_PROPERTY
W
SciTegic.value.DoubleValue
-53.753

@<SCITEGIC>MOL_PROPERTY
W(PB)
SciTegic.value.DoubleValue
-55.644

@<SCITEGIC>MOL_PROPERTY
W(SA)
SciTegic.value.DoubleValue
1.891

@<SCITEGIC>MOL_PROPERTY
Valence
SciTegic.value.DoubleValue
2.428

@<SCITEGIC>MOL_PROPERTY
Coulomb
SciTegic.value.DoubleValue
69.829

@<SCITEGIC>MOL_PROPERTY
VdW
SciTegic.value.DoubleValue
-0.215

@<SCITEGIC>MOL_PROPERTY
VdW6
SciTegic.value.DoubleValue
-4.563

@<SCITEGIC>MOL_PROPERTY
VdW12
SciTegic.value.DoubleValue
4.348

@<SCITEGIC>MOL_PROPERTY
Bond
SciTegic.value.DoubleValue
0.137

@<SCITEGIC>MOL_PROPERTY
Angle
SciTegic.value.DoubleValue
0.936

@<SCITEGIC>MOL_PROPERTY
Pdih
SciTegic.value.DoubleValue
1.356

@<SCITEGIC>MOL_PROPERTY
Idih
SciTegic.value.DoubleValue
0.000

@<SCITEGIC>MOL_PROPERTY
Tether
SciTegic.value.DoubleValue
0.000

@<TRIPOS>MOLECULE
guest-s9_confgen4.mol2 : confsearch ligand conformer 509
          20          19           1
SMALL
USER_CHARGES
 
@<TRIPOS>ATOM
       1    C1      19.159559   19.776164   24.080565 C.3        1 MOL1        -0.2224
       2    H1      18.109556   19.501850   24.245806 H          1 MOL1         0.1052
       3    H2      19.784854   18.918026   24.356937 H          1 MOL1         0.1052
       4    H3      19.402480   20.597392   24.767253 H          1 MOL1         0.1052
       5    C2      19.397133   20.206682   22.614838 C.3        1 MOL1        -0.1209
       6    H4      20.451953   20.479619   22.474758 H          1 MOL1         0.1041
       7    H5      18.818952   21.119191   22.412533 H          1 MOL1         0.1041
       8    C3      18.988939   19.120150   21.589107 C.3        1 MOL1        -0.1274
       9    H6      17.911695   18.927089   21.677466 H          1 MOL1         0.1041
      10    H7      19.143994   19.502777   20.572099 H          1 MOL1         0.1041
      11    C4      19.743581   17.781566   21.757155 C.3        1 MOL1         0.0313
      12    H8      19.402771   17.072300   20.998729 H          1 MOL1         0.1015
      13    H9      19.507264   17.360807   22.737561 H          1 MOL1         0.1015
      14    N1      21.258253   17.874874   21.655237 N.4        1 MOL1        -0.4809
      15    H10     21.679078   16.969664   21.917070 H          1 MOL1         0.3726
      16    H11     21.617565   18.547346   22.348620 H          1 MOL1         0.3726
      17    C5      21.695434   18.262677   20.247010 C.3        1 MOL1        -0.0677
      18    H12     21.296097   19.249060   20.002944 H          1 MOL1         0.1026
      19    H13     22.786537   18.288289   20.205233 H          1 MOL1         0.1026
      20    H14     21.317290   17.523911   19.537175 H          1 MOL1         0.1026
@<TRIPOS>BOND
    1     1     2    1
    2     1     3    1
    3     1     4    1
    4     1     5    1
    5     5     6    1
    6     5     7    1
    7     5     8    1
    8     8     9    1
    9     8    10    1
   10     8    11    1
   11    11    12    1
   12    11    13    1
   13    11    14    1
   14    14    15    1
   15    14    16    1
   16    14    17    1
   17    17    18    1
   18    17    19    1
   19    17    20    1
@<TRIPOS>SUBSTRUCTURE
       1 MOL1            1 RESIDUE      1      MOL     
@<SCITEGIC>MOL_PROPERTY
VConf Rank
SciTegic.value.IntegerValue
509

@<SCITEGIC>MOL_PROPERTY
Conf_Id
SciTegic.value.IntegerValue
52

@<SCITEGIC>MOL_PROPERTY
Delta U+W
SciTegic.value.DoubleValue
0.784

@<SCITEGIC>MOL_PROPERTY
U+W
SciTegic.value.DoubleValue
16.122

@<SCITEGIC>MOL_PROPERTY
Grad RMS
SciTegic.value.DoubleValue
0.000000

@<SCITEGIC>MOL_PROPERTY
U
SciTegic.value.DoubleValue
70.777

@<SCITEGIC>MOL_PROPERTY
W
SciTegic.value.DoubleValue
-54.655

@<SCITEGIC>MOL_PROPERTY
W(PB)
SciTegic.value.DoubleValue
-56.491

@<SCITEGIC>MOL_PROPERTY
W(SA)
SciTegic.value.DoubleValue
1.836

@<SCITEGIC>MOL_PROPERTY
Valence
SciTegic.value.DoubleValue
1.529

@<SCITEGIC>MOL_PROPERTY
Coulomb
SciTegic.value.DoubleValue
69.166

@<SCITEGIC>MOL_PROPERTY
VdW
SciTegic.value.DoubleValue
0.082

@<SCITEGIC>MOL_PROPERTY
VdW6
SciTegic.value.DoubleValue
-5.166

@<SCITEGIC>MOL_PROPERTY
VdW12
SciTegic.value.DoubleValue
5.248

@<SCITEGIC>MOL_PROPERTY
Bond
SciTegic.value.DoubleValue
0.171

@<SCITEGIC>MOL_PROPERTY
Angle
SciTegic.value.DoubleValue
0.752

@<SCITEGIC>MOL_PROPERTY
Pdih
SciTegic.value.DoubleValue
0.605

@<SCITEGIC>MOL_PROPERTY
Idih
SciTegic.value.DoubleValue
0.000

@<SCITEGIC>MOL_PROPERTY
Tether
SciTegic.value.DoubleValue
0.000

@<TRIPOS>MOLECULE
guest-s9_confgen4.mol2 : confsearch ligand conformer 510
          20          19           1
SMALL
USER_CHARGES
 
@<TRIPOS>ATOM
       1    C1      18.099625   18.510795   21.322121 C.3        1 MOL1        -0.2224
       2    H1      17.164307   18.162363   20.865017 H          1 MOL1         0.1052
       3    H2      18.119657   18.121779   22.346532 H          1 MOL1         0.1052
       4    H3      18.063396   19.607432   21.359298 H          1 MOL1         0.1052
       5    C2      19.312825   18.016144   20.501858 C.3        1 MOL1        -0.1209
       6    H4      19.127860   18.233136   19.440384 H          1 MOL1         0.1041
       7    H5      19.387292   16.922305   20.579245 H          1 MOL1         0.1041
       8    C3      20.664033   18.662165   20.901506 C.3        1 MOL1        -0.1274
       9    H6      21.427279   18.308759   20.195711 H          1 MOL1         0.1041
      10    H7      20.618543   19.750391   20.768849 H          1 MOL1         0.1041
      11    C4      21.148468   18.310289   22.327359 C.3        1 MOL1         0.0313
      12    H8      22.219629   18.513349   22.403534 H          1 MOL1         0.1015
      13    H9      20.998895   17.241692   22.501135 H          1 MOL1         0.1015
      14    N1      20.472464   19.066525   23.460336 N.4        1 MOL1        -0.4809
      15    H10     20.721318   18.631724   24.362655 H          1 MOL1         0.3726
      16    H11     19.449936   18.971937   23.387322 H          1 MOL1         0.3726
      17    C5      20.879775   20.535811   23.464876 C.3        1 MOL1        -0.0677
      18    H12     21.965495   20.607290   23.558378 H          1 MOL1         0.1026
      19    H13     20.556701   21.005239   22.533814 H          1 MOL1         0.1026
      20    H14     20.404219   21.036165   24.311284 H          1 MOL1         0.1026
@<TRIPOS>BOND
    1     1     2    1
    2     1     3    1
    3     1     4    1
    4     1     5    1
    5     5     6    1
    6     5     7    1
    7     5     8    1
    8     8     9    1
    9     8    10    1
   10     8    11    1
   11    11    12    1
   12    11    13    1
   13    11    14    1
   14    14    15    1
   15    14    16    1
   16    14    17    1
   17    17    18    1
   18    17    19    1
   19    17    20    1
@<TRIPOS>SUBSTRUCTURE
       1 MOL1            1 RESIDUE      1      MOL     
@<SCITEGIC>MOL_PROPERTY
VConf Rank
SciTegic.value.IntegerValue
510

@<SCITEGIC>MOL_PROPERTY
Conf_Id
SciTegic.value.IntegerValue
55

@<SCITEGIC>MOL_PROPERTY
Delta U+W
SciTegic.value.DoubleValue
2.745

@<SCITEGIC>MOL_PROPERTY
U+W
SciTegic.value.DoubleValue
18.083

@<SCITEGIC>MOL_PROPERTY
Grad RMS
SciTegic.value.DoubleValue
0.000000

@<SCITEGIC>MOL_PROPERTY
U
SciTegic.value.DoubleValue
72.490

@<SCITEGIC>MOL_PROPERTY
W
SciTegic.value.DoubleValue
-54.407

@<SCITEGIC>MOL_PROPERTY
W(PB)
SciTegic.value.DoubleValue
-56.269

@<SCITEGIC>MOL_PROPERTY
W(SA)
SciTegic.value.DoubleValue
1.861

@<SCITEGIC>MOL_PROPERTY
Valence
SciTegic.value.DoubleValue
2.738

@<SCITEGIC>MOL_PROPERTY
Coulomb
SciTegic.value.DoubleValue
69.795

@<SCITEGIC>MOL_PROPERTY
VdW
SciTegic.value.DoubleValue
-0.043

@<SCITEGIC>MOL_PROPERTY
VdW6
SciTegic.value.DoubleValue
-5.333

@<SCITEGIC>MOL_PROPERTY
VdW12
SciTegic.value.DoubleValue
5.290

@<SCITEGIC>MOL_PROPERTY
Bond
SciTegic.value.DoubleValue
0.182

@<SCITEGIC>MOL_PROPERTY
Angle
SciTegic.value.DoubleValue
1.135

@<SCITEGIC>MOL_PROPERTY
Pdih
SciTegic.value.DoubleValue
1.422

@<SCITEGIC>MOL_PROPERTY
Idih
SciTegic.value.DoubleValue
0.000

@<SCITEGIC>MOL_PROPERTY
Tether
SciTegic.value.DoubleValue
0.000

@<TRIPOS>MOLECULE
guest-s9_confgen4.mol2 : confsearch ligand conformer 511
          20          19           1
SMALL
USER_CHARGES
 
@<TRIPOS>ATOM
       1    C1      18.400100   20.111926   21.430844 C.3        1 MOL1        -0.2224
       2    H1      17.655484   20.761300   20.952274 H          1 MOL1         0.1052
       3    H2      17.896487   19.569734   22.241836 H          1 MOL1         0.1052
       4    H3      19.164985   20.766746   21.863641 H          1 MOL1         0.1052
       5    C2      19.005310   19.137605   20.394605 C.3        1 MOL1        -0.1209
       6    H4      19.598462   19.702533   19.661771 H          1 MOL1         0.1041
       7    H5      18.183863   18.676076   19.828707 H          1 MOL1         0.1041
       8    C3      19.869731   18.005705   21.006498 C.3        1 MOL1        -0.1274
       9    H6      19.268272   17.398284   21.694385 H          1 MOL1         0.1041
      10    H7      20.163178   17.329613   20.192634 H          1 MOL1         0.1041
      11    C4      21.164123   18.488860   21.701240 C.3        1 MOL1         0.0313
      12    H8      21.644915   19.243785   21.074029 H          1 MOL1         0.1015
      13    H9      21.855179   17.647842   21.798990 H          1 MOL1         0.1015
      14    N1      20.986893   19.080548   23.090846 N.4        1 MOL1        -0.4809
      15    H10     20.281874   19.830392   23.068060 H          1 MOL1         0.3726
      16    H11     21.862770   19.540629   23.384655 H          1 MOL1         0.3726
      17    C5      20.601624   18.007896   24.103617 C.3        1 MOL1        -0.0677
      18    H12     19.642501   17.569606   23.821475 H          1 MOL1         0.1026
      19    H13     21.372329   17.234308   24.118247 H          1 MOL1         0.1026
      20    H14     20.519074   18.463264   25.092928 H          1 MOL1         0.1026
@<TRIPOS>BOND
    1     1     2    1
    2     1     3    1
    3     1     4    1
    4     1     5    1
    5     5     6    1
    6     5     7    1
    7     5     8    1
    8     8     9    1
    9     8    10    1
   10     8    11    1
   11    11    12    1
   12    11    13    1
   13    11    14    1
   14    14    15    1
   15    14    16    1
   16    14    17    1
   17    17    18    1
   18    17    19    1
   19    17    20    1
@<TRIPOS>SUBSTRUCTURE
       1 MOL1            1 RESIDUE      1      MOL     
@<SCITEGIC>MOL_PROPERTY
VConf Rank
SciTegic.value.IntegerValue
511

@<SCITEGIC>MOL_PROPERTY
Conf_Id
SciTegic.value.IntegerValue
76

@<SCITEGIC>MOL_PROPERTY
Delta U+W
SciTegic.value.DoubleValue
2.799

@<SCITEGIC>MOL_PROPERTY
U+W
SciTegic.value.DoubleValue
18.137

@<SCITEGIC>MOL_PROPERTY
Grad RMS
SciTegic.value.DoubleValue
0.000000

@<SCITEGIC>MOL_PROPERTY
U
SciTegic.value.DoubleValue
72.490

@<SCITEGIC>MOL_PROPERTY
W
SciTegic.value.DoubleValue
-54.353

@<SCITEGIC>MOL_PROPERTY
W(PB)
SciTegic.value.DoubleValue
-56.201

@<SCITEGIC>MOL_PROPERTY
W(SA)
SciTegic.value.DoubleValue
1.848

@<SCITEGIC>MOL_PROPERTY
Valence
SciTegic.value.DoubleValue
2.738

@<SCITEGIC>MOL_PROPERTY
Coulomb
SciTegic.value.DoubleValue
69.795

@<SCITEGIC>MOL_PROPERTY
VdW
SciTegic.value.DoubleValue
-0.043

@<SCITEGIC>MOL_PROPERTY
VdW6
SciTegic.value.DoubleValue
-5.334

@<SCITEGIC>MOL_PROPERTY
VdW12
SciTegic.value.DoubleValue
5.290

@<SCITEGIC>MOL_PROPERTY
Bond
SciTegic.value.DoubleValue
0.182

@<SCITEGIC>MOL_PROPERTY
Angle
SciTegic.value.DoubleValue
1.135

@<SCITEGIC>MOL_PROPERTY
Pdih
SciTegic.value.DoubleValue
1.421

@<SCITEGIC>MOL_PROPERTY
Idih
SciTegic.value.DoubleValue
0.000

@<SCITEGIC>MOL_PROPERTY
Tether
SciTegic.value.DoubleValue
0.000

@<TRIPOS>MOLECULE
guest-s9_confgen4.mol2 : confsearch ligand conformer 512
          20          19           1
SMALL
USER_CHARGES
 
@<TRIPOS>ATOM
       1    C1      21.385537   19.965362   23.153832 C.3        1 MOL1        -0.2224
       2    H1      21.410580   20.146057   22.072271 H          1 MOL1         0.1052
       3    H2      20.925726   20.838438   23.634731 H          1 MOL1         0.1052
       4    H3      22.424048   19.899524   23.503124 H          1 MOL1         0.1052
       5    C2      20.613722   18.671076   23.499791 C.3        1 MOL1        -0.1209
       6    H4      20.679689   18.498506   24.583166 H          1 MOL1         0.1041
       7    H5      21.098490   17.805283   23.030575 H          1 MOL1         0.1041
       8    C3      19.119554   18.729104   23.097872 C.3        1 MOL1        -0.1274
       9    H6      18.623149   17.800704   23.409420 H          1 MOL1         0.1041
      10    H7      18.634630   19.534207   23.665589 H          1 MOL1         0.1041
      11    C4      18.847022   18.967611   21.594036 C.3        1 MOL1         0.0313
      12    H8      19.338555   19.882469   21.254925 H          1 MOL1         0.1015
      13    H9      17.770175   19.106079   21.467970 H          1 MOL1         0.1015
      14    N1      19.247938   17.831547   20.664751 N.4        1 MOL1        -0.4809
      15    H10     18.607365   17.812888   19.855975 H          1 MOL1         0.3726
      16    H11     19.110387   16.921847   21.129690 H          1 MOL1         0.3726
      17    C5      20.679821   17.989684   20.164801 C.3        1 MOL1        -0.0677
      18    H12     20.911167   17.170714   19.480189 H          1 MOL1         0.1026
      19    H13     20.772462   18.942941   19.640100 H          1 MOL1         0.1026
      20    H14     21.369955   17.966052   21.008707 H          1 MOL1         0.1026
@<TRIPOS>BOND
    1     1     2    1
    2     1     3    1
    3     1     4    1
    4     1     5    1
    5     5     6    1
    6     5     7    1
    7     5     8    1
    8     8     9    1
    9     8    10    1
   10     8    11    1
   11    11    12    1
   12    11    13    1
   13    11    14    1
   14    14    15    1
   15    14    16    1
   16    14    17    1
   17    17    18    1
   18    17    19    1
   19    17    20    1
@<TRIPOS>SUBSTRUCTURE
       1 MOL1            1 RESIDUE      1      MOL     
@<SCITEGIC>MOL_PROPERTY
VConf Rank
SciTegic.value.IntegerValue
512

@<SCITEGIC>MOL_PROPERTY
Conf_Id
SciTegic.value.IntegerValue
60

@<SCITEGIC>MOL_PROPERTY
Delta U+W
SciTegic.value.DoubleValue
1.788

@<SCITEGIC>MOL_PROPERTY
U+W
SciTegic.value.DoubleValue
17.127

@<SCITEGIC>MOL_PROPERTY
Grad RMS
SciTegic.value.DoubleValue
0.000000

@<SCITEGIC>MOL_PROPERTY
U
SciTegic.value.DoubleValue
72.122

@<SCITEGIC>MOL_PROPERTY
W
SciTegic.value.DoubleValue
-54.995

@<SCITEGIC>MOL_PROPERTY
W(PB)
SciTegic.value.DoubleValue
-56.810

@<SCITEGIC>MOL_PROPERTY
W(SA)
SciTegic.value.DoubleValue
1.815

@<SCITEGIC>MOL_PROPERTY
Valence
SciTegic.value.DoubleValue
3.197

@<SCITEGIC>MOL_PROPERTY
Coulomb
SciTegic.value.DoubleValue
69.115

@<SCITEGIC>MOL_PROPERTY
VdW
SciTegic.value.DoubleValue
-0.190

@<SCITEGIC>MOL_PROPERTY
VdW6
SciTegic.value.DoubleValue
-5.585

@<SCITEGIC>MOL_PROPERTY
VdW12
SciTegic.value.DoubleValue
5.395

@<SCITEGIC>MOL_PROPERTY
Bond
SciTegic.value.DoubleValue
0.177

@<SCITEGIC>MOL_PROPERTY
Angle
SciTegic.value.DoubleValue
1.207

@<SCITEGIC>MOL_PROPERTY
Pdih
SciTegic.value.DoubleValue
1.813

@<SCITEGIC>MOL_PROPERTY
Idih
SciTegic.value.DoubleValue
0.000

@<SCITEGIC>MOL_PROPERTY
Tether
SciTegic.value.DoubleValue
0.000

@<TRIPOS>MOLECULE
guest-s9_confgen4.mol2 : confsearch ligand conformer 513
          20          19           1
SMALL
USER_CHARGES
 
@<TRIPOS>ATOM
       1    C1      20.164424   16.672677   21.667107 C.3        1 MOL1        -0.2224
       2    H1      20.635658   15.996776   20.941890 H          1 MOL1         0.1052
       3    H2      19.699114   16.055211   22.446320 H          1 MOL1         0.1052
       4    H3      19.369032   17.217446   21.144011 H          1 MOL1         0.1052
       5    C2      21.212704   17.633882   22.273535 C.3        1 MOL1        -0.1209
       6    H4      21.684523   18.227615   21.480042 H          1 MOL1         0.1041
       7    H5      22.021165   17.039070   22.721222 H          1 MOL1         0.1041
       8    C3      20.624408   18.566804   23.360278 C.3        1 MOL1        -0.1274
       9    H6      20.259321   17.949876   24.191997 H          1 MOL1         0.1041
      10    H7      21.426554   19.189507   23.777663 H          1 MOL1         0.1041
      11    C4      19.466877   19.480320   22.893066 C.3        1 MOL1         0.0313
      12    H8      19.069112   19.991530   23.773472 H          1 MOL1         0.1015
      13    H9      18.657246   18.885408   22.463946 H          1 MOL1         0.1015
      14    N1      19.847066   20.566730   21.898022 N.4        1 MOL1        -0.4809
      15    H10     20.800349   20.909957   22.088006 H          1 MOL1         0.3726
      16    H11     19.238491   21.387362   22.042941 H          1 MOL1         0.3726
      17    C5      19.705373   20.087482   20.457367 C.3        1 MOL1        -0.0677
      18    H12     18.673225   19.775839   20.283757 H          1 MOL1         0.1026
      19    H13     19.958948   20.907547   19.782000 H          1 MOL1         0.1026
      20    H14     20.377690   19.247467   20.280208 H          1 MOL1         0.1026
@<TRIPOS>BOND
    1     1     2    1
    2     1     3    1
    3     1     4    1
    4     1     5    1
    5     5     6    1
    6     5     7    1
    7     5     8    1
    8     8     9    1
    9     8    10    1
   10     8    11    1
   11    11    12    1
   12    11    13    1
   13    11    14    1
   14    14    15    1
   15    14    16    1
   16    14    17    1
   17    17    18    1
   18    17    19    1
   19    17    20    1
@<TRIPOS>SUBSTRUCTURE
       1 MOL1            1 RESIDUE      1      MOL     
@<SCITEGIC>MOL_PROPERTY
VConf Rank
SciTegic.value.IntegerValue
513

@<SCITEGIC>MOL_PROPERTY
Conf_Id
SciTegic.value.IntegerValue
54

@<SCITEGIC>MOL_PROPERTY
Delta U+W
SciTegic.value.DoubleValue
1.880

@<SCITEGIC>MOL_PROPERTY
U+W
SciTegic.value.DoubleValue
17.218

@<SCITEGIC>MOL_PROPERTY
Grad RMS
SciTegic.value.DoubleValue
0.000000

@<SCITEGIC>MOL_PROPERTY
U
SciTegic.value.DoubleValue
72.122

@<SCITEGIC>MOL_PROPERTY
W
SciTegic.value.DoubleValue
-54.903

@<SCITEGIC>MOL_PROPERTY
W(PB)
SciTegic.value.DoubleValue
-56.724

@<SCITEGIC>MOL_PROPERTY
W(SA)
SciTegic.value.DoubleValue
1.821

@<SCITEGIC>MOL_PROPERTY
Valence
SciTegic.value.DoubleValue
3.197

@<SCITEGIC>MOL_PROPERTY
Coulomb
SciTegic.value.DoubleValue
69.115

@<SCITEGIC>MOL_PROPERTY
VdW
SciTegic.value.DoubleValue
-0.190

@<SCITEGIC>MOL_PROPERTY
VdW6
SciTegic.value.DoubleValue
-5.585

@<SCITEGIC>MOL_PROPERTY
VdW12
SciTegic.value.DoubleValue
5.395

@<SCITEGIC>MOL_PROPERTY
Bond
SciTegic.value.DoubleValue
0.177

@<SCITEGIC>MOL_PROPERTY
Angle
SciTegic.value.DoubleValue
1.207

@<SCITEGIC>MOL_PROPERTY
Pdih
SciTegic.value.DoubleValue
1.813

@<SCITEGIC>MOL_PROPERTY
Idih
SciTegic.value.DoubleValue
0.000

@<SCITEGIC>MOL_PROPERTY
Tether
SciTegic.value.DoubleValue
0.000

@<TRIPOS>MOLECULE
guest-s9_confgen4.mol2 : confsearch ligand conformer 514
          20          19           1
SMALL
USER_CHARGES
 
@<TRIPOS>ATOM
       1    C1      21.238329   16.795069   19.815285 C.3        1 MOL1        -0.2224
       2    H1      21.656545   16.063536   20.518941 H          1 MOL1         0.1052
       3    H2      20.849652   16.243965   18.949121 H          1 MOL1         0.1052
       4    H3      22.056175   17.438181   19.464984 H          1 MOL1         0.1052
       5    C2      20.120211   17.628438   20.478263 C.3        1 MOL1        -0.1209
       6    H4      19.302016   16.962100   20.786324 H          1 MOL1         0.1041
       7    H5      19.698571   18.325982   19.740696 H          1 MOL1         0.1041
       8    C3      20.638974   18.415619   21.701780 C.3        1 MOL1        -0.1274
       9    H6      21.056827   17.717801   22.439624 H          1 MOL1         0.1041
      10    H7      21.454043   19.083467   21.392577 H          1 MOL1         0.1041
      11    C4      19.518343   19.244035   22.357137 C.3        1 MOL1         0.0313
      12    H8      18.712163   18.580520   22.680106 H          1 MOL1         0.1015
      13    H9      19.110782   19.950655   21.629764 H          1 MOL1         0.1015
      14    N1      19.981843   20.034940   23.564755 N.4        1 MOL1        -0.4809
      15    H10     20.750927   20.670009   23.301400 H          1 MOL1         0.3726
      16    H11     20.381801   19.401444   24.273888 H          1 MOL1         0.3726
      17    C5      18.816353   20.821978   24.149033 C.3        1 MOL1        -0.0677
      18    H12     18.029385   20.127999   24.452153 H          1 MOL1         0.1026
      19    H13     19.163880   21.386333   25.017214 H          1 MOL1         0.1026
      20    H14     18.431495   21.509779   23.392976 H          1 MOL1         0.1026
@<TRIPOS>BOND
    1     1     2    1
    2     1     3    1
    3     1     4    1
    4     1     5    1
    5     5     6    1
    6     5     7    1
    7     5     8    1
    8     8     9    1
    9     8    10    1
   10     8    11    1
   11    11    12    1
   12    11    13    1
   13    11    14    1
   14    14    15    1
   15    14    16    1
   16    14    17    1
   17    17    18    1
   18    17    19    1
   19    17    20    1
@<TRIPOS>SUBSTRUCTURE
       1 MOL1            1 RESIDUE      1      MOL     
@<SCITEGIC>MOL_PROPERTY
VConf Rank
SciTegic.value.IntegerValue
514

@<SCITEGIC>MOL_PROPERTY
Conf_Id
SciTegic.value.IntegerValue
67

@<SCITEGIC>MOL_PROPERTY
Delta U+W
SciTegic.value.DoubleValue
0.000

@<SCITEGIC>MOL_PROPERTY
U+W
SciTegic.value.DoubleValue
15.338

@<SCITEGIC>MOL_PROPERTY
Grad RMS
SciTegic.value.DoubleValue
0.000000

@<SCITEGIC>MOL_PROPERTY
U
SciTegic.value.DoubleValue
69.277

@<SCITEGIC>MOL_PROPERTY
W
SciTegic.value.DoubleValue
-53.939

@<SCITEGIC>MOL_PROPERTY
W(PB)
SciTegic.value.DoubleValue
-55.889

@<SCITEGIC>MOL_PROPERTY
W(SA)
SciTegic.value.DoubleValue
1.950

@<SCITEGIC>MOL_PROPERTY
Valence
SciTegic.value.DoubleValue
0.846

@<SCITEGIC>MOL_PROPERTY
Coulomb
SciTegic.value.DoubleValue
68.557

@<SCITEGIC>MOL_PROPERTY
VdW
SciTegic.value.DoubleValue
-0.127

@<SCITEGIC>MOL_PROPERTY
VdW6
SciTegic.value.DoubleValue
-3.008

@<SCITEGIC>MOL_PROPERTY
VdW12
SciTegic.value.DoubleValue
2.882

@<SCITEGIC>MOL_PROPERTY
Bond
SciTegic.value.DoubleValue
0.088

@<SCITEGIC>MOL_PROPERTY
Angle
SciTegic.value.DoubleValue
0.332

@<SCITEGIC>MOL_PROPERTY
Pdih
SciTegic.value.DoubleValue
0.426

@<SCITEGIC>MOL_PROPERTY
Idih
SciTegic.value.DoubleValue
0.000

@<SCITEGIC>MOL_PROPERTY
Tether
SciTegic.value.DoubleValue
0.000

@<TRIPOS>MOLECULE
guest-s9_confgen4.mol2 : confsearch ligand conformer 515
          20          19           1
SMALL
USER_CHARGES
 
@<TRIPOS>ATOM
       1    C1      18.343297   16.508418   21.370913 C.3        1 MOL1        -0.2224
       2    H1      18.944855   16.292878   20.478254 H          1 MOL1         0.1052
       3    H2      18.007809   15.550617   21.789343 H          1 MOL1         0.1052
       4    H3      17.452827   17.067806   21.055769 H          1 MOL1         0.1052
       5    C2      19.159484   17.303197   22.413237 C.3        1 MOL1        -0.1209
       6    H4      20.023631   16.704367   22.734141 H          1 MOL1         0.1041
       7    H5      18.543117   17.472610   23.307495 H          1 MOL1         0.1041
       8    C3      19.645130   18.657564   21.851519 C.3        1 MOL1        -0.1274
       9    H6      20.259871   18.483489   20.959025 H          1 MOL1         0.1041
      10    H7      18.781220   19.256915   21.535195 H          1 MOL1         0.1041
      11    C4      20.457965   19.444538   22.900302 C.3        1 MOL1         0.0313
      12    H8      21.346474   18.875321   23.184779 H          1 MOL1         0.1015
      13    H9      19.844249   19.582189   23.794216 H          1 MOL1         0.1015
      14    N1      20.910319   20.823010   22.446483 N.4        1 MOL1        -0.4809
      15    H10     21.297584   21.341192   23.250721 H          1 MOL1         0.3726
      16    H11     20.099929   21.381629   22.138278 H          1 MOL1         0.3726
      17    C5      21.956064   20.727644   21.340663 C.3        1 MOL1        -0.0677
      18    H12     21.518496   20.237419   20.468826 H          1 MOL1         0.1026
      19    H13     22.282361   21.734054   21.069294 H          1 MOL1         0.1026
      20    H14     22.809252   20.149289   21.701610 H          1 MOL1         0.1026
@<TRIPOS>BOND
    1     1     2    1
    2     1     3    1
    3     1     4    1
    4     1     5    1
    5     5     6    1
    6     5     7    1
    7     5     8    1
    8     8     9    1
    9     8    10    1
   10     8    11    1
   11    11    12    1
   12    11    13    1
   13    11    14    1
   14    14    15    1
   15    14    16    1
   16    14    17    1
   17    17    18    1
   18    17    19    1
   19    17    20    1
@<TRIPOS>SUBSTRUCTURE
       1 MOL1            1 RESIDUE      1      MOL     
@<SCITEGIC>MOL_PROPERTY
VConf Rank
SciTegic.value.IntegerValue
515

@<SCITEGIC>MOL_PROPERTY
Conf_Id
SciTegic.value.IntegerValue
37

@<SCITEGIC>MOL_PROPERTY
Delta U+W
SciTegic.value.DoubleValue
-0.021

@<SCITEGIC>MOL_PROPERTY
U+W
SciTegic.value.DoubleValue
15.318

@<SCITEGIC>MOL_PROPERTY
Grad RMS
SciTegic.value.DoubleValue
0.000000

@<SCITEGIC>MOL_PROPERTY
U
SciTegic.value.DoubleValue
69.657

@<SCITEGIC>MOL_PROPERTY
W
SciTegic.value.DoubleValue
-54.340

@<SCITEGIC>MOL_PROPERTY
W(PB)
SciTegic.value.DoubleValue
-56.238

@<SCITEGIC>MOL_PROPERTY
W(SA)
SciTegic.value.DoubleValue
1.899

@<SCITEGIC>MOL_PROPERTY
Valence
SciTegic.value.DoubleValue
1.137

@<SCITEGIC>MOL_PROPERTY
Coulomb
SciTegic.value.DoubleValue
68.383

@<SCITEGIC>MOL_PROPERTY
VdW
SciTegic.value.DoubleValue
0.138

@<SCITEGIC>MOL_PROPERTY
VdW6
SciTegic.value.DoubleValue
-3.703

@<SCITEGIC>MOL_PROPERTY
VdW12
SciTegic.value.DoubleValue
3.841

@<SCITEGIC>MOL_PROPERTY
Bond
SciTegic.value.DoubleValue
0.125

@<SCITEGIC>MOL_PROPERTY
Angle
SciTegic.value.DoubleValue
0.468

@<SCITEGIC>MOL_PROPERTY
Pdih
SciTegic.value.DoubleValue
0.543

@<SCITEGIC>MOL_PROPERTY
Idih
SciTegic.value.DoubleValue
0.000

@<SCITEGIC>MOL_PROPERTY
Tether
SciTegic.value.DoubleValue
0.000

@<TRIPOS>MOLECULE
guest-s9_confgen4.mol2 : confsearch ligand conformer 516
          20          19           1
SMALL
USER_CHARGES
 
@<TRIPOS>ATOM
       1    C1      21.651665   17.901477   24.328782 C.3        1 MOL1        -0.2224
       2    H1      22.097010   18.272669   25.260932 H          1 MOL1         0.1052
       3    H2      20.891287   17.155205   24.593492 H          1 MOL1         0.1052
       4    H3      22.441120   17.396636   23.756886 H          1 MOL1         0.1052
       5    C2      21.033895   19.062174   23.519206 C.3        1 MOL1        -0.1209
       6    H4      21.810683   19.808433   23.300102 H          1 MOL1         0.1041
       7    H5      20.272722   19.568552   24.129552 H          1 MOL1         0.1041
       8    C3      20.399161   18.568874   22.200323 C.3        1 MOL1        -0.1274
       9    H6      21.160998   18.066985   21.589312 H          1 MOL1         0.1041
      10    H7      19.624462   17.824176   22.423980 H          1 MOL1         0.1041
      11    C4      19.786272   19.735446   21.398173 C.3        1 MOL1         0.0313
      12    H8      20.561525   20.482813   21.210817 H          1 MOL1         0.1015
      13    H9      18.992972   20.210243   21.980947 H          1 MOL1         0.1015
      14    N1      19.204845   19.340305   20.050373 N.4        1 MOL1        -0.4809
      15    H10     19.917261   18.858312   19.481231 H          1 MOL1         0.3726
      16    H11     18.968941   20.189913   19.513902 H          1 MOL1         0.3726
      17    C5      17.962649   18.471239   20.215260 C.3        1 MOL1        -0.0677
      18    H12     17.219613   19.014066   20.803429 H          1 MOL1         0.1026
      19    H13     17.554001   18.240713   19.228935 H          1 MOL1         0.1026
      20    H14     18.233310   17.544436   20.724834 H          1 MOL1         0.1026
@<TRIPOS>BOND
    1     1     2    1
    2     1     3    1
    3     1     4    1
    4     1     5    1
    5     5     6    1
    6     5     7    1
    7     5     8    1
    8     8     9    1
    9     8    10    1
   10     8    11    1
   11    11    12    1
   12    11    13    1
   13    11    14    1
   14    14    15    1
   15    14    16    1
   16    14    17    1
   17    17    18    1
   18    17    19    1
   19    17    20    1
@<TRIPOS>SUBSTRUCTURE
       1 MOL1            1 RESIDUE      1      MOL     
@<SCITEGIC>MOL_PROPERTY
VConf Rank
SciTegic.value.IntegerValue
516

@<SCITEGIC>MOL_PROPERTY
Conf_Id
SciTegic.value.IntegerValue
2

@<SCITEGIC>MOL_PROPERTY
Delta U+W
SciTegic.value.DoubleValue
0.069

@<SCITEGIC>MOL_PROPERTY
U+W
SciTegic.value.DoubleValue
15.407

@<SCITEGIC>MOL_PROPERTY
Grad RMS
SciTegic.value.DoubleValue
0.000000

@<SCITEGIC>MOL_PROPERTY
U
SciTegic.value.DoubleValue
69.657

@<SCITEGIC>MOL_PROPERTY
W
SciTegic.value.DoubleValue
-54.250

@<SCITEGIC>MOL_PROPERTY
W(PB)
SciTegic.value.DoubleValue
-56.176

@<SCITEGIC>MOL_PROPERTY
W(SA)
SciTegic.value.DoubleValue
1.926

@<SCITEGIC>MOL_PROPERTY
Valence
SciTegic.value.DoubleValue
1.137

@<SCITEGIC>MOL_PROPERTY
Coulomb
SciTegic.value.DoubleValue
68.383

@<SCITEGIC>MOL_PROPERTY
VdW
SciTegic.value.DoubleValue
0.138

@<SCITEGIC>MOL_PROPERTY
VdW6
SciTegic.value.DoubleValue
-3.703

@<SCITEGIC>MOL_PROPERTY
VdW12
SciTegic.value.DoubleValue
3.841

@<SCITEGIC>MOL_PROPERTY
Bond
SciTegic.value.DoubleValue
0.125

@<SCITEGIC>MOL_PROPERTY
Angle
SciTegic.value.DoubleValue
0.468

@<SCITEGIC>MOL_PROPERTY
Pdih
SciTegic.value.DoubleValue
0.543

@<SCITEGIC>MOL_PROPERTY
Idih
SciTegic.value.DoubleValue
0.000

@<SCITEGIC>MOL_PROPERTY
Tether
SciTegic.value.DoubleValue
0.000

@<TRIPOS>MOLECULE
guest-s9_confgen4.mol2 : confsearch ligand conformer 517
          20          19           1
SMALL
USER_CHARGES
 
@<TRIPOS>ATOM
       1    C1      22.387388   19.343045   20.945280 C.3        1 MOL1        -0.2224
       2    H1      21.839771   18.619896   20.327839 H          1 MOL1         0.1052
       3    H2      22.114124   20.353319   20.613960 H          1 MOL1         0.1052
       4    H3      23.457889   19.203882   20.746156 H          1 MOL1         0.1052
       5    C2      22.086228   19.149954   22.449377 C.3        1 MOL1        -0.1209
       6    H4      22.723738   19.829204   23.032655 H          1 MOL1         0.1041
       7    H5      22.362647   18.130402   22.753205 H          1 MOL1         0.1041
       8    C3      20.605948   19.417662   22.808939 C.3        1 MOL1        -0.1274
       9    H6      20.482646   19.338247   23.897216 H          1 MOL1         0.1041
      10    H7      20.341610   20.448098   22.536558 H          1 MOL1         0.1041
      11    C4      19.640026   18.435500   22.117854 C.3        1 MOL1         0.0313
      12    H8      19.901760   17.410181   22.390963 H          1 MOL1         0.1015
      13    H9      19.726919   18.535174   21.033289 H          1 MOL1         0.1015
      14    N1      18.187018   18.659609   22.488008 N.4        1 MOL1        -0.4809
      15    H10     17.903884   19.623379   22.253335 H          1 MOL1         0.3726
      16    H11     18.062564   18.579509   23.508890 H          1 MOL1         0.3726
      17    C5      17.304825   17.652575   21.762261 C.3        1 MOL1        -0.0677
      18    H12     17.599535   16.641548   22.051696 H          1 MOL1         0.1026
      19    H13     16.262048   17.825056   22.037707 H          1 MOL1         0.1026
      20    H14     17.426412   17.778656   20.684244 H          1 MOL1         0.1026
@<TRIPOS>BOND
    1     1     2    1
    2     1     3    1
    3     1     4    1
    4     1     5    1
    5     5     6    1
    6     5     7    1
    7     5     8    1
    8     8     9    1
    9     8    10    1
   10     8    11    1
   11    11    12    1
   12    11    13    1
   13    11    14    1
   14    14    15    1
   15    14    16    1
   16    14    17    1
   17    17    18    1
   18    17    19    1
   19    17    20    1
@<TRIPOS>SUBSTRUCTURE
       1 MOL1            1 RESIDUE      1      MOL     
@<SCITEGIC>MOL_PROPERTY
VConf Rank
SciTegic.value.IntegerValue
517

@<SCITEGIC>MOL_PROPERTY
Conf_Id
SciTegic.value.IntegerValue
34

@<SCITEGIC>MOL_PROPERTY
Delta U+W
SciTegic.value.DoubleValue
0.276

@<SCITEGIC>MOL_PROPERTY
U+W
SciTegic.value.DoubleValue
15.615

@<SCITEGIC>MOL_PROPERTY
Grad RMS
SciTegic.value.DoubleValue
0.000000

@<SCITEGIC>MOL_PROPERTY
U
SciTegic.value.DoubleValue
69.798

@<SCITEGIC>MOL_PROPERTY
W
SciTegic.value.DoubleValue
-54.184

@<SCITEGIC>MOL_PROPERTY
W(PB)
SciTegic.value.DoubleValue
-56.116

@<SCITEGIC>MOL_PROPERTY
W(SA)
SciTegic.value.DoubleValue
1.933

@<SCITEGIC>MOL_PROPERTY
Valence
SciTegic.value.DoubleValue
1.134

@<SCITEGIC>MOL_PROPERTY
Coulomb
SciTegic.value.DoubleValue
68.735

@<SCITEGIC>MOL_PROPERTY
VdW
SciTegic.value.DoubleValue
-0.070

@<SCITEGIC>MOL_PROPERTY
VdW6
SciTegic.value.DoubleValue
-3.565

@<SCITEGIC>MOL_PROPERTY
VdW12
SciTegic.value.DoubleValue
3.494

@<SCITEGIC>MOL_PROPERTY
Bond
SciTegic.value.DoubleValue
0.108

@<SCITEGIC>MOL_PROPERTY
Angle
SciTegic.value.DoubleValue
0.456

@<SCITEGIC>MOL_PROPERTY
Pdih
SciTegic.value.DoubleValue
0.569

@<SCITEGIC>MOL_PROPERTY
Idih
SciTegic.value.DoubleValue
0.000

@<SCITEGIC>MOL_PROPERTY
Tether
SciTegic.value.DoubleValue
0.000

@<TRIPOS>MOLECULE
guest-s9_confgen4.mol2 : confsearch ligand conformer 518
          20          19           1
SMALL
USER_CHARGES
 
@<TRIPOS>ATOM
       1    C1      22.707048   20.167466   21.591283 C.3        1 MOL1        -0.2224
       2    H1      22.970622   20.717922   22.503804 H          1 MOL1         0.1052
       3    H2      23.615906   19.674952   21.221917 H          1 MOL1         0.1052
       4    H3      22.387545   20.895070   20.833859 H          1 MOL1         0.1052
       5    C2      21.597945   19.129519   21.868020 C.3        1 MOL1        -0.1209
       6    H4      21.959199   18.398347   22.605046 H          1 MOL1         0.1041
       7    H5      21.389756   18.572390   20.944570 H          1 MOL1         0.1041
       8    C3      20.304635   19.799118   22.389719 C.3        1 MOL1        -0.1274
       9    H6      20.536551   20.383469   23.290071 H          1 MOL1         0.1041
      10    H7      19.922220   20.510757   21.645954 H          1 MOL1         0.1041
      11    C4      19.203007   18.779264   22.741648 C.3        1 MOL1         0.0313
      12    H8      18.353593   19.304128   23.186206 H          1 MOL1         0.1015
      13    H9      19.584138   18.065788   23.476581 H          1 MOL1         0.1015
      14    N1      18.683403   17.994310   21.551797 N.4        1 MOL1        -0.4809
      15    H10     19.454590   17.479921   21.101100 H          1 MOL1         0.3726
      16    H11     18.323943   18.638341   20.830646 H          1 MOL1         0.3726
      17    C5      17.591810   17.032129   22.000653 C.3        1 MOL1        -0.0677
      18    H12     18.003273   16.339863   22.738390 H          1 MOL1         0.1026
      19    H13     16.771488   17.600395   22.444421 H          1 MOL1         0.1026
      20    H14     17.227176   16.474147   21.135385 H          1 MOL1         0.1026
@<TRIPOS>BOND
    1     1     2    1
    2     1     3    1
    3     1     4    1
    4     1     5    1
    5     5     6    1
    6     5     7    1
    7     5     8    1
    8     8     9    1
    9     8    10    1
   10     8    11    1
   11    11    12    1
   12    11    13    1
   13    11    14    1
   14    14    15    1
   15    14    16    1
   16    14    17    1
   17    17    18    1
   18    17    19    1
   19    17    20    1
@<TRIPOS>SUBSTRUCTURE
       1 MOL1            1 RESIDUE      1      MOL     
@<SCITEGIC>MOL_PROPERTY
VConf Rank
SciTegic.value.IntegerValue
518

@<SCITEGIC>MOL_PROPERTY
Conf_Id
SciTegic.value.IntegerValue
50

@<SCITEGIC>MOL_PROPERTY
Delta U+W
SciTegic.value.DoubleValue
0.319

@<SCITEGIC>MOL_PROPERTY
U+W
SciTegic.value.DoubleValue
15.657

@<SCITEGIC>MOL_PROPERTY
Grad RMS
SciTegic.value.DoubleValue
0.000000

@<SCITEGIC>MOL_PROPERTY
U
SciTegic.value.DoubleValue
69.962

@<SCITEGIC>MOL_PROPERTY
W
SciTegic.value.DoubleValue
-54.305

@<SCITEGIC>MOL_PROPERTY
W(PB)
SciTegic.value.DoubleValue
-56.223

@<SCITEGIC>MOL_PROPERTY
W(SA)
SciTegic.value.DoubleValue
1.918

@<SCITEGIC>MOL_PROPERTY
Valence
SciTegic.value.DoubleValue
0.982

@<SCITEGIC>MOL_PROPERTY
Coulomb
SciTegic.value.DoubleValue
69.058

@<SCITEGIC>MOL_PROPERTY
VdW
SciTegic.value.DoubleValue
-0.078

@<SCITEGIC>MOL_PROPERTY
VdW6
SciTegic.value.DoubleValue
-3.548

@<SCITEGIC>MOL_PROPERTY
VdW12
SciTegic.value.DoubleValue
3.471

@<SCITEGIC>MOL_PROPERTY
Bond
SciTegic.value.DoubleValue
0.105

@<SCITEGIC>MOL_PROPERTY
Angle
SciTegic.value.DoubleValue
0.408

@<SCITEGIC>MOL_PROPERTY
Pdih
SciTegic.value.DoubleValue
0.469

@<SCITEGIC>MOL_PROPERTY
Idih
SciTegic.value.DoubleValue
0.000

@<SCITEGIC>MOL_PROPERTY
Tether
SciTegic.value.DoubleValue
0.000

@<TRIPOS>MOLECULE
guest-s9_confgen4.mol2 : confsearch ligand conformer 519
          20          19           1
SMALL
USER_CHARGES
 
@<TRIPOS>ATOM
       1    C1      21.920113   16.433637   21.898559 C.3        1 MOL1        -0.2224
       2    H1      21.603757   15.405373   21.680343 H          1 MOL1         0.1052
       3    H2      22.772178   16.668179   21.247295 H          1 MOL1         0.1052
       4    H3      22.267279   16.464740   22.939564 H          1 MOL1         0.1052
       5    C2      20.756457   17.422573   21.670668 C.3        1 MOL1        -0.1209
       6    H4      19.909950   17.133185   22.307986 H          1 MOL1         0.1041
       7    H5      20.411129   17.344918   20.629975 H          1 MOL1         0.1041
       8    C3      21.176885   18.880465   21.972298 C.3        1 MOL1        -0.1274
       9    H6      21.496559   18.971687   23.018885 H          1 MOL1         0.1041
      10    H7      22.047657   19.141630   21.356318 H          1 MOL1         0.1041
      11    C4      20.054703   19.898249   21.685305 C.3        1 MOL1         0.0313
      12    H8      19.730402   19.804095   20.645883 H          1 MOL1         0.1015
      13    H9      20.439559   20.910822   21.830913 H          1 MOL1         0.1015
      14    N1      18.834580   19.740914   22.573243 N.4        1 MOL1        -0.4809
      15    H10     19.105507   19.814053   23.565865 H          1 MOL1         0.3726
      16    H11     18.436307   18.796285   22.465966 H          1 MOL1         0.3726
      17    C5      17.797257   20.799374   22.223296 C.3        1 MOL1        -0.0677
      18    H12     16.925234   20.674613   22.869052 H          1 MOL1         0.1026
      19    H13     18.229268   21.790787   22.375786 H          1 MOL1         0.1026
      20    H14     17.501502   20.681911   21.178536 H          1 MOL1         0.1026
@<TRIPOS>BOND
    1     1     2    1
    2     1     3    1
    3     1     4    1
    4     1     5    1
    5     5     6    1
    6     5     7    1
    7     5     8    1
    8     8     9    1
    9     8    10    1
   10     8    11    1
   11    11    12    1
   12    11    13    1
   13    11    14    1
   14    14    15    1
   15    14    16    1
   16    14    17    1
   17    17    18    1
   18    17    19    1
   19    17    20    1
@<TRIPOS>SUBSTRUCTURE
       1 MOL1            1 RESIDUE      1      MOL     
@<SCITEGIC>MOL_PROPERTY
VConf Rank
SciTegic.value.IntegerValue
519

@<SCITEGIC>MOL_PROPERTY
Conf_Id
SciTegic.value.IntegerValue
35

@<SCITEGIC>MOL_PROPERTY
Delta U+W
SciTegic.value.DoubleValue
0.360

@<SCITEGIC>MOL_PROPERTY
U+W
SciTegic.value.DoubleValue
15.698

@<SCITEGIC>MOL_PROPERTY
Grad RMS
SciTegic.value.DoubleValue
0.000000

@<SCITEGIC>MOL_PROPERTY
U
SciTegic.value.DoubleValue
69.962

@<SCITEGIC>MOL_PROPERTY
W
SciTegic.value.DoubleValue
-54.264

@<SCITEGIC>MOL_PROPERTY
W(PB)
SciTegic.value.DoubleValue
-56.166

@<SCITEGIC>MOL_PROPERTY
W(SA)
SciTegic.value.DoubleValue
1.902

@<SCITEGIC>MOL_PROPERTY
Valence
SciTegic.value.DoubleValue
0.982

@<SCITEGIC>MOL_PROPERTY
Coulomb
SciTegic.value.DoubleValue
69.058

@<SCITEGIC>MOL_PROPERTY
VdW
SciTegic.value.DoubleValue
-0.078

@<SCITEGIC>MOL_PROPERTY
VdW6
SciTegic.value.DoubleValue
-3.548

@<SCITEGIC>MOL_PROPERTY
VdW12
SciTegic.value.DoubleValue
3.471

@<SCITEGIC>MOL_PROPERTY
Bond
SciTegic.value.DoubleValue
0.105

@<SCITEGIC>MOL_PROPERTY
Angle
SciTegic.value.DoubleValue
0.408

@<SCITEGIC>MOL_PROPERTY
Pdih
SciTegic.value.DoubleValue
0.469

@<SCITEGIC>MOL_PROPERTY
Idih
SciTegic.value.DoubleValue
0.000

@<SCITEGIC>MOL_PROPERTY
Tether
SciTegic.value.DoubleValue
0.000

@<TRIPOS>MOLECULE
guest-s9_confgen4.mol2 : confsearch ligand conformer 520
          20          19           1
SMALL
USER_CHARGES
 
@<TRIPOS>ATOM
       1    C1      18.655506   17.570547   20.186332 C.3        1 MOL1        -0.2224
       2    H1      17.943657   17.729850   21.006065 H          1 MOL1         0.1052
       3    H2      18.073529   17.401893   19.271001 H          1 MOL1         0.1052
       4    H3      19.221177   16.653612   20.396905 H          1 MOL1         0.1052
       5    C2      19.601870   18.780590   20.011972 C.3        1 MOL1        -0.1209
       6    H4      19.011268   19.684797   19.807600 H          1 MOL1         0.1041
       7    H5      20.233015   18.617690   19.127040 H          1 MOL1         0.1041
       8    C3      20.510656   19.018064   21.240625 C.3        1 MOL1        -0.1274
       9    H6      21.124815   18.125632   21.416932 H          1 MOL1         0.1041
      10    H7      21.205088   19.838963   21.018357 H          1 MOL1         0.1041
      11    C4      19.708145   19.365747   22.512851 C.3        1 MOL1         0.0313
      12    H8      19.060568   18.528736   22.784537 H          1 MOL1         0.1015
      13    H9      19.073782   20.231454   22.306199 H          1 MOL1         0.1015
      14    N1      20.560228   19.707700   23.724221 N.4        1 MOL1        -0.4809
      15    H10     19.959170   20.083745   24.474240 H          1 MOL1         0.3726
      16    H11     21.211372   20.474929   23.498186 H          1 MOL1         0.3726
      17    C5      21.317109   18.485036   24.231753 C.3        1 MOL1        -0.0677
      18    H12     21.999106   18.132650   23.455484 H          1 MOL1         0.1026
      19    H13     21.886819   18.761117   25.121794 H          1 MOL1         0.1026
      20    H14     20.602380   17.698126   24.482016 H          1 MOL1         0.1026
@<TRIPOS>BOND
    1     1     2    1
    2     1     3    1
    3     1     4    1
    4     1     5    1
    5     5     6    1
    6     5     7    1
    7     5     8    1
    8     8     9    1
    9     8    10    1
   10     8    11    1
   11    11    12    1
   12    11    13    1
   13    11    14    1
   14    14    15    1
   15    14    16    1
   16    14    17    1
   17    17    18    1
   18    17    19    1
   19    17    20    1
@<TRIPOS>SUBSTRUCTURE
       1 MOL1            1 RESIDUE      1      MOL     
@<SCITEGIC>MOL_PROPERTY
VConf Rank
SciTegic.value.IntegerValue
520

@<SCITEGIC>MOL_PROPERTY
Conf_Id
SciTegic.value.IntegerValue
33

@<SCITEGIC>MOL_PROPERTY
Delta U+W
SciTegic.value.DoubleValue
0.372

@<SCITEGIC>MOL_PROPERTY
U+W
SciTegic.value.DoubleValue
15.711

@<SCITEGIC>MOL_PROPERTY
Grad RMS
SciTegic.value.DoubleValue
0.000000

@<SCITEGIC>MOL_PROPERTY
U
SciTegic.value.DoubleValue
70.163

@<SCITEGIC>MOL_PROPERTY
W
SciTegic.value.DoubleValue
-54.452

@<SCITEGIC>MOL_PROPERTY
W(PB)
SciTegic.value.DoubleValue
-56.363

@<SCITEGIC>MOL_PROPERTY
W(SA)
SciTegic.value.DoubleValue
1.911

@<SCITEGIC>MOL_PROPERTY
Valence
SciTegic.value.DoubleValue
1.420

@<SCITEGIC>MOL_PROPERTY
Coulomb
SciTegic.value.DoubleValue
68.566

@<SCITEGIC>MOL_PROPERTY
VdW
SciTegic.value.DoubleValue
0.177

@<SCITEGIC>MOL_PROPERTY
VdW6
SciTegic.value.DoubleValue
-4.267

@<SCITEGIC>MOL_PROPERTY
VdW12
SciTegic.value.DoubleValue
4.445

@<SCITEGIC>MOL_PROPERTY
Bond
SciTegic.value.DoubleValue
0.146

@<SCITEGIC>MOL_PROPERTY
Angle
SciTegic.value.DoubleValue
0.581

@<SCITEGIC>MOL_PROPERTY
Pdih
SciTegic.value.DoubleValue
0.693

@<SCITEGIC>MOL_PROPERTY
Idih
SciTegic.value.DoubleValue
0.000

@<SCITEGIC>MOL_PROPERTY
Tether
SciTegic.value.DoubleValue
0.000

@<TRIPOS>MOLECULE
guest-s9_confgen4.mol2 : confsearch ligand conformer 521
          20          19           1
SMALL
USER_CHARGES
 
@<TRIPOS>ATOM
       1    C1      20.039147   17.438152   19.838060 C.3        1 MOL1        -0.2224
       2    H1      19.907848   16.593599   19.149248 H          1 MOL1         0.1052
       3    H2      19.117390   18.032897   19.811411 H          1 MOL1         0.1052
       4    H3      20.858904   18.059002   19.453821 H          1 MOL1         0.1052
       5    C2      20.347293   16.930766   21.265582 C.3        1 MOL1        -0.1209
       6    H4      21.222984   16.267569   21.229248 H          1 MOL1         0.1041
       7    H5      19.510381   16.317294   21.628070 H          1 MOL1         0.1041
       8    C3      20.625730   18.076501   22.266404 C.3        1 MOL1        -0.1274
       9    H6      20.910913   17.644142   23.234521 H          1 MOL1         0.1041
      10    H7      21.485787   18.662845   21.918249 H          1 MOL1         0.1041
      11    C4      19.404138   18.999296   22.465461 C.3        1 MOL1         0.0313
      12    H8      18.548476   18.393060   22.773501 H          1 MOL1         0.1015
      13    H9      19.150110   19.488835   21.522288 H          1 MOL1         0.1015
      14    N1      19.593710   20.081622   23.515717 N.4        1 MOL1        -0.4809
      15    H10     19.867909   19.661311   24.416757 H          1 MOL1         0.3726
      16    H11     18.689657   20.542700   23.703605 H          1 MOL1         0.3726
      17    C5      20.618768   21.116842   23.065227 C.3        1 MOL1        -0.0677
      18    H12     20.699614   21.895185   23.827204 H          1 MOL1         0.1026
      19    H13     21.588356   20.633061   22.932028 H          1 MOL1         0.1026
      20    H14     20.292467   21.558713   22.121312 H          1 MOL1         0.1026
@<TRIPOS>BOND
    1     1     2    1
    2     1     3    1
    3     1     4    1
    4     1     5    1
    5     5     6    1
    6     5     7    1
    7     5     8    1
    8     8     9    1
    9     8    10    1
   10     8    11    1
   11    11    12    1
   12    11    13    1
   13    11    14    1
   14    14    15    1
   15    14    16    1
   16    14    17    1
   17    17    18    1
   18    17    19    1
   19    17    20    1
@<TRIPOS>SUBSTRUCTURE
       1 MOL1            1 RESIDUE      1      MOL     
@<SCITEGIC>MOL_PROPERTY
VConf Rank
SciTegic.value.IntegerValue
521

@<SCITEGIC>MOL_PROPERTY
Conf_Id
SciTegic.value.IntegerValue
53

@<SCITEGIC>MOL_PROPERTY
Delta U+W
SciTegic.value.DoubleValue
0.379

@<SCITEGIC>MOL_PROPERTY
U+W
SciTegic.value.DoubleValue
15.717

@<SCITEGIC>MOL_PROPERTY
Grad RMS
SciTegic.value.DoubleValue
0.000000

@<SCITEGIC>MOL_PROPERTY
U
SciTegic.value.DoubleValue
70.163

@<SCITEGIC>MOL_PROPERTY
W
SciTegic.value.DoubleValue
-54.446

@<SCITEGIC>MOL_PROPERTY
W(PB)
SciTegic.value.DoubleValue
-56.322

@<SCITEGIC>MOL_PROPERTY
W(SA)
SciTegic.value.DoubleValue
1.876

@<SCITEGIC>MOL_PROPERTY
Valence
SciTegic.value.DoubleValue
1.420

@<SCITEGIC>MOL_PROPERTY
Coulomb
SciTegic.value.DoubleValue
68.566

@<SCITEGIC>MOL_PROPERTY
VdW
SciTegic.value.DoubleValue
0.177

@<SCITEGIC>MOL_PROPERTY
VdW6
SciTegic.value.DoubleValue
-4.267

@<SCITEGIC>MOL_PROPERTY
VdW12
SciTegic.value.DoubleValue
4.445

@<SCITEGIC>MOL_PROPERTY
Bond
SciTegic.value.DoubleValue
0.146

@<SCITEGIC>MOL_PROPERTY
Angle
SciTegic.value.DoubleValue
0.581

@<SCITEGIC>MOL_PROPERTY
Pdih
SciTegic.value.DoubleValue
0.693

@<SCITEGIC>MOL_PROPERTY
Idih
SciTegic.value.DoubleValue
0.000

@<SCITEGIC>MOL_PROPERTY
Tether
SciTegic.value.DoubleValue
0.000

@<TRIPOS>MOLECULE
guest-s9_confgen4.mol2 : confsearch ligand conformer 522
          20          19           1
SMALL
USER_CHARGES
 
@<TRIPOS>ATOM
       1    C1      19.100957   18.436968   19.410705 C.3        1 MOL1        -0.2224
       2    H1      18.155866   18.806742   18.992288 H          1 MOL1         0.1052
       3    H2      19.876853   18.554279   18.643001 H          1 MOL1         0.1052
       4    H3      18.981637   17.364909   19.614703 H          1 MOL1         0.1052
       5    C2      19.468134   19.209859   20.695922 C.3        1 MOL1        -0.1209
       6    H4      18.653295   19.101408   21.424573 H          1 MOL1         0.1041
       7    H5      19.549090   20.281703   20.466185 H          1 MOL1         0.1041
       8    C3      20.796649   18.705906   21.307316 C.3        1 MOL1        -0.1274
       9    H6      20.712356   17.642044   21.563897 H          1 MOL1         0.1041
      10    H7      21.592940   18.778700   20.554808 H          1 MOL1         0.1041
      11    C4      21.229706   19.513093   22.551330 C.3        1 MOL1         0.0313
      12    H8      21.364881   20.559426   22.265774 H          1 MOL1         0.1015
      13    H9      22.190658   19.138116   22.912521 H          1 MOL1         0.1015
      14    N1      20.255803   19.482934   23.719762 N.4        1 MOL1        -0.4809
      15    H10     19.331379   19.827106   23.421406 H          1 MOL1         0.3726
      16    H11     20.565843   20.149223   24.444440 H          1 MOL1         0.3726
      17    C5      20.146853   18.083369   24.314979 C.3        1 MOL1        -0.0677
      18    H12     21.135825   17.752886   24.639594 H          1 MOL1         0.1026
      19    H13     19.468637   18.110192   25.170686 H          1 MOL1         0.1026
      20    H14     19.756687   17.398243   23.559739 H          1 MOL1         0.1026
@<TRIPOS>BOND
    1     1     2    1
    2     1     3    1
    3     1     4    1
    4     1     5    1
    5     5     6    1
    6     5     7    1
    7     5     8    1
    8     8     9    1
    9     8    10    1
   10     8    11    1
   11    11    12    1
   12    11    13    1
   13    11    14    1
   14    14    15    1
   15    14    16    1
   16    14    17    1
   17    17    18    1
   18    17    19    1
   19    17    20    1
@<TRIPOS>SUBSTRUCTURE
       1 MOL1            1 RESIDUE      1      MOL     
@<SCITEGIC>MOL_PROPERTY
VConf Rank
SciTegic.value.IntegerValue
522

@<SCITEGIC>MOL_PROPERTY
Conf_Id
SciTegic.value.IntegerValue
49

@<SCITEGIC>MOL_PROPERTY
Delta U+W
SciTegic.value.DoubleValue
0.268

@<SCITEGIC>MOL_PROPERTY
U+W
SciTegic.value.DoubleValue
15.607

@<SCITEGIC>MOL_PROPERTY
Grad RMS
SciTegic.value.DoubleValue
0.000000

@<SCITEGIC>MOL_PROPERTY
U
SciTegic.value.DoubleValue
70.298

@<SCITEGIC>MOL_PROPERTY
W
SciTegic.value.DoubleValue
-54.692

@<SCITEGIC>MOL_PROPERTY
W(PB)
SciTegic.value.DoubleValue
-56.576

@<SCITEGIC>MOL_PROPERTY
W(SA)
SciTegic.value.DoubleValue
1.885

@<SCITEGIC>MOL_PROPERTY
Valence
SciTegic.value.DoubleValue
1.245

@<SCITEGIC>MOL_PROPERTY
Coulomb
SciTegic.value.DoubleValue
68.933

@<SCITEGIC>MOL_PROPERTY
VdW
SciTegic.value.DoubleValue
0.120

@<SCITEGIC>MOL_PROPERTY
VdW6
SciTegic.value.DoubleValue
-4.430

@<SCITEGIC>MOL_PROPERTY
VdW12
SciTegic.value.DoubleValue
4.550

@<SCITEGIC>MOL_PROPERTY
Bond
SciTegic.value.DoubleValue
0.148

@<SCITEGIC>MOL_PROPERTY
Angle
SciTegic.value.DoubleValue
0.587

@<SCITEGIC>MOL_PROPERTY
Pdih
SciTegic.value.DoubleValue
0.509

@<SCITEGIC>MOL_PROPERTY
Idih
SciTegic.value.DoubleValue
0.000

@<SCITEGIC>MOL_PROPERTY
Tether
SciTegic.value.DoubleValue
0.000

@<TRIPOS>MOLECULE
guest-s9_confgen4.mol2 : confsearch ligand conformer 523
          20          19           1
SMALL
USER_CHARGES
 
@<TRIPOS>ATOM
       1    C1      21.720418   16.713151   21.096403 C.3        1 MOL1        -0.2224
       2    H1      21.568459   16.755192   20.009981 H          1 MOL1         0.1052
       3    H2      22.770107   16.958298   21.304237 H          1 MOL1         0.1052
       4    H3      21.546888   15.678767   21.420343 H          1 MOL1         0.1052
       5    C2      20.766571   17.681524   21.829040 C.3        1 MOL1        -0.1209
       6    H4      20.922221   17.596682   22.913736 H          1 MOL1         0.1041
       7    H5      19.730735   17.378310   21.627416 H          1 MOL1         0.1041
       8    C3      20.983147   19.146123   21.382199 C.3        1 MOL1        -0.1274
       9    H6      22.047564   19.397148   21.480984 H          1 MOL1         0.1041
      10    H7      20.740478   19.248981   20.316324 H          1 MOL1         0.1041
      11    C4      20.173199   20.181383   22.195249 C.3        1 MOL1         0.0313
      12    H8      20.449790   21.178022   21.841762 H          1 MOL1         0.1015
      13    H9      20.434970   20.121667   23.254592 H          1 MOL1         0.1015
      14    N1      18.660887   20.077605   22.071137 N.4        1 MOL1        -0.4809
      15    H10     18.398939   19.746100   21.130750 H          1 MOL1         0.3726
      16    H11     18.248106   21.020738   22.142696 H          1 MOL1         0.3726
      17    C5      18.071649   19.188365   23.161411 C.3        1 MOL1        -0.0677
      18    H12     16.985478   19.159594   23.050222 H          1 MOL1         0.1026
      19    H13     18.474921   18.178964   23.073153 H          1 MOL1         0.1026
      20    H14     18.328711   19.602612   24.138655 H          1 MOL1         0.1026
@<TRIPOS>BOND
    1     1     2    1
    2     1     3    1
    3     1     4    1
    4     1     5    1
    5     5     6    1
    6     5     7    1
    7     5     8    1
    8     8     9    1
    9     8    10    1
   10     8    11    1
   11    11    12    1
   12    11    13    1
   13    11    14    1
   14    14    15    1
   15    14    16    1
   16    14    17    1
   17    17    18    1
   18    17    19    1
   19    17    20    1
@<TRIPOS>SUBSTRUCTURE
       1 MOL1            1 RESIDUE      1      MOL     
@<SCITEGIC>MOL_PROPERTY
VConf Rank
SciTegic.value.IntegerValue
523

@<SCITEGIC>MOL_PROPERTY
Conf_Id
SciTegic.value.IntegerValue
65

@<SCITEGIC>MOL_PROPERTY
Delta U+W
SciTegic.value.DoubleValue
1.775

@<SCITEGIC>MOL_PROPERTY
U+W
SciTegic.value.DoubleValue
17.114

@<SCITEGIC>MOL_PROPERTY
Grad RMS
SciTegic.value.DoubleValue
0.000000

@<SCITEGIC>MOL_PROPERTY
U
SciTegic.value.DoubleValue
71.726

@<SCITEGIC>MOL_PROPERTY
W
SciTegic.value.DoubleValue
-54.613

@<SCITEGIC>MOL_PROPERTY
W(PB)
SciTegic.value.DoubleValue
-56.495

@<SCITEGIC>MOL_PROPERTY
W(SA)
SciTegic.value.DoubleValue
1.883

@<SCITEGIC>MOL_PROPERTY
Valence
SciTegic.value.DoubleValue
2.885

@<SCITEGIC>MOL_PROPERTY
Coulomb
SciTegic.value.DoubleValue
68.822

@<SCITEGIC>MOL_PROPERTY
VdW
SciTegic.value.DoubleValue
0.019

@<SCITEGIC>MOL_PROPERTY
VdW6
SciTegic.value.DoubleValue
-4.600

@<SCITEGIC>MOL_PROPERTY
VdW12
SciTegic.value.DoubleValue
4.619

@<SCITEGIC>MOL_PROPERTY
Bond
SciTegic.value.DoubleValue
0.152

@<SCITEGIC>MOL_PROPERTY
Angle
SciTegic.value.DoubleValue
0.862

@<SCITEGIC>MOL_PROPERTY
Pdih
SciTegic.value.DoubleValue
1.871

@<SCITEGIC>MOL_PROPERTY
Idih
SciTegic.value.DoubleValue
0.000

@<SCITEGIC>MOL_PROPERTY
Tether
SciTegic.value.DoubleValue
0.000

@<TRIPOS>MOLECULE
guest-s9_confgen4.mol2 : confsearch ligand conformer 524
          20          19           1
SMALL
USER_CHARGES
 
@<TRIPOS>ATOM
       1    C1      20.329042   19.047107   19.680625 C.3        1 MOL1        -0.2224
       2    H1      19.700835   18.212170   20.015645 H          1 MOL1         0.1052
       3    H2      19.829035   19.513164   18.821694 H          1 MOL1         0.1052
       4    H3      21.284754   18.637147   19.329030 H          1 MOL1         0.1052
       5    C2      20.549279   20.082647   20.807268 C.3        1 MOL1        -0.1209
       6    H4      19.580202   20.477964   21.140772 H          1 MOL1         0.1041
       7    H5      21.102020   20.940987   20.400162 H          1 MOL1         0.1041
       8    C3      21.335587   19.510152   22.013073 C.3        1 MOL1        -0.1274
       9    H6      22.339869   19.214777   21.681508 H          1 MOL1         0.1041
      10    H7      21.481268   20.300067   22.761775 H          1 MOL1         0.1041
      11    C4      20.660740   18.294737   22.682637 C.3        1 MOL1         0.0313
      12    H8      21.291518   17.934521   23.499279 H          1 MOL1         0.1015
      13    H9      20.553974   17.486277   21.955479 H          1 MOL1         0.1015
      14    N1      19.288787   18.590951   23.257620 N.4        1 MOL1        -0.4809
      15    H10     18.664238   18.941590   22.516351 H          1 MOL1         0.3726
      16    H11     19.350367   19.353151   23.949833 H          1 MOL1         0.3726
      17    C5      18.709360   17.335069   23.894440 C.3        1 MOL1        -0.0677
      18    H12     19.370983   17.000331   24.696294 H          1 MOL1         0.1026
      19    H13     17.722124   17.562425   24.302660 H          1 MOL1         0.1026
      20    H14     18.623239   16.553881   23.136093 H          1 MOL1         0.1026
@<TRIPOS>BOND
    1     1     2    1
    2     1     3    1
    3     1     4    1
    4     1     5    1
    5     5     6    1
    6     5     7    1
    7     5     8    1
    8     8     9    1
    9     8    10    1
   10     8    11    1
   11    11    12    1
   12    11    13    1
   13    11    14    1
   14    14    15    1
   15    14    16    1
   16    14    17    1
   17    17    18    1
   18    17    19    1
   19    17    20    1
@<TRIPOS>SUBSTRUCTURE
       1 MOL1            1 RESIDUE      1      MOL     
@<SCITEGIC>MOL_PROPERTY
VConf Rank
SciTegic.value.IntegerValue
524

@<SCITEGIC>MOL_PROPERTY
Conf_Id
SciTegic.value.IntegerValue
23

@<SCITEGIC>MOL_PROPERTY
Delta U+W
SciTegic.value.DoubleValue
0.896

@<SCITEGIC>MOL_PROPERTY
U+W
SciTegic.value.DoubleValue
16.234

@<SCITEGIC>MOL_PROPERTY
Grad RMS
SciTegic.value.DoubleValue
0.000000

@<SCITEGIC>MOL_PROPERTY
U
SciTegic.value.DoubleValue
70.374

@<SCITEGIC>MOL_PROPERTY
W
SciTegic.value.DoubleValue
-54.140

@<SCITEGIC>MOL_PROPERTY
W(PB)
SciTegic.value.DoubleValue
-56.046

@<SCITEGIC>MOL_PROPERTY
W(SA)
SciTegic.value.DoubleValue
1.907

@<SCITEGIC>MOL_PROPERTY
Valence
SciTegic.value.DoubleValue
1.257

@<SCITEGIC>MOL_PROPERTY
Coulomb
SciTegic.value.DoubleValue
69.240

@<SCITEGIC>MOL_PROPERTY
VdW
SciTegic.value.DoubleValue
-0.123

@<SCITEGIC>MOL_PROPERTY
VdW6
SciTegic.value.DoubleValue
-4.336

@<SCITEGIC>MOL_PROPERTY
VdW12
SciTegic.value.DoubleValue
4.213

@<SCITEGIC>MOL_PROPERTY
Bond
SciTegic.value.DoubleValue
0.128

@<SCITEGIC>MOL_PROPERTY
Angle
SciTegic.value.DoubleValue
0.603

@<SCITEGIC>MOL_PROPERTY
Pdih
SciTegic.value.DoubleValue
0.526

@<SCITEGIC>MOL_PROPERTY
Idih
SciTegic.value.DoubleValue
0.000

@<SCITEGIC>MOL_PROPERTY
Tether
SciTegic.value.DoubleValue
0.000

@<TRIPOS>MOLECULE
guest-s9_confgen4.mol2 : confsearch ligand conformer 525
          20          19           1
SMALL
USER_CHARGES
 
@<TRIPOS>ATOM
       1    C1      18.451182   20.235902   21.161757 C.3        1 MOL1        -0.2224
       2    H1      18.471947   21.205499   21.676074 H          1 MOL1         0.1052
       3    H2      17.692138   20.293257   20.370845 H          1 MOL1         0.1052
       4    H3      18.123012   19.474189   21.880159 H          1 MOL1         0.1052
       5    C2      19.834717   19.895203   20.561820 C.3        1 MOL1        -0.1209
       6    H4      20.077673   20.632292   19.783568 H          1 MOL1         0.1041
       7    H5      19.787828   18.922839   20.052977 H          1 MOL1         0.1041
       8    C3      20.969637   19.891496   21.616305 C.3        1 MOL1        -0.1274
       9    H6      21.925411   19.670906   21.122766 H          1 MOL1         0.1041
      10    H7      21.070753   20.899012   22.041103 H          1 MOL1         0.1041
      11    C4      20.751417   18.890285   22.769963 C.3        1 MOL1         0.0313
      12    H8      19.824676   19.131388   23.296066 H          1 MOL1         0.1015
      13    H9      21.576375   18.972826   23.482123 H          1 MOL1         0.1015
      14    N1      20.672744   17.442941   22.323184 N.4        1 MOL1        -0.4809
      15    H10     21.533402   17.178959   21.819717 H          1 MOL1         0.3726
      16    H11     19.907967   17.325441   21.642155 H          1 MOL1         0.3726
      17    C5      20.458519   16.537346   23.528392 C.3        1 MOL1        -0.0677
      18    H12     19.526201   16.814080   24.025344 H          1 MOL1         0.1026
      19    H13     20.402633   15.499660   23.192157 H          1 MOL1         0.1026
      20    H14     21.295241   16.655443   24.220284 H          1 MOL1         0.1026
@<TRIPOS>BOND
    1     1     2    1
    2     1     3    1
    3     1     4    1
    4     1     5    1
    5     5     6    1
    6     5     7    1
    7     5     8    1
    8     8     9    1
    9     8    10    1
   10     8    11    1
   11    11    12    1
   12    11    13    1
   13    11    14    1
   14    14    15    1
   15    14    16    1
   16    14    17    1
   17    17    18    1
   18    17    19    1
   19    17    20    1
@<TRIPOS>SUBSTRUCTURE
       1 MOL1            1 RESIDUE      1      MOL     
@<SCITEGIC>MOL_PROPERTY
VConf Rank
SciTegic.value.IntegerValue
525

@<SCITEGIC>MOL_PROPERTY
Conf_Id
SciTegic.value.IntegerValue
24

@<SCITEGIC>MOL_PROPERTY
Delta U+W
SciTegic.value.DoubleValue
0.792

@<SCITEGIC>MOL_PROPERTY
U+W
SciTegic.value.DoubleValue
16.130

@<SCITEGIC>MOL_PROPERTY
Grad RMS
SciTegic.value.DoubleValue
0.000000

@<SCITEGIC>MOL_PROPERTY
U
SciTegic.value.DoubleValue
70.374

@<SCITEGIC>MOL_PROPERTY
W
SciTegic.value.DoubleValue
-54.243

@<SCITEGIC>MOL_PROPERTY
W(PB)
SciTegic.value.DoubleValue
-56.130

@<SCITEGIC>MOL_PROPERTY
W(SA)
SciTegic.value.DoubleValue
1.887

@<SCITEGIC>MOL_PROPERTY
Valence
SciTegic.value.DoubleValue
1.257

@<SCITEGIC>MOL_PROPERTY
Coulomb
SciTegic.value.DoubleValue
69.240

@<SCITEGIC>MOL_PROPERTY
VdW
SciTegic.value.DoubleValue
-0.123

@<SCITEGIC>MOL_PROPERTY
VdW6
SciTegic.value.DoubleValue
-4.336

@<SCITEGIC>MOL_PROPERTY
VdW12
SciTegic.value.DoubleValue
4.213

@<SCITEGIC>MOL_PROPERTY
Bond
SciTegic.value.DoubleValue
0.128

@<SCITEGIC>MOL_PROPERTY
Angle
SciTegic.value.DoubleValue
0.603

@<SCITEGIC>MOL_PROPERTY
Pdih
SciTegic.value.DoubleValue
0.526

@<SCITEGIC>MOL_PROPERTY
Idih
SciTegic.value.DoubleValue
0.000

@<SCITEGIC>MOL_PROPERTY
Tether
SciTegic.value.DoubleValue
0.000

@<TRIPOS>MOLECULE
guest-s9_confgen4.mol2 : confsearch ligand conformer 526
          20          19           1
SMALL
USER_CHARGES
 
@<TRIPOS>ATOM
       1    C1      20.625758   18.505461   24.104326 C.3        1 MOL1        -0.2224
       2    H1      21.214194   18.219993   24.986069 H          1 MOL1         0.1052
       3    H2      21.265333   19.145790   23.485479 H          1 MOL1         0.1052
       4    H3      19.766575   19.092291   24.454468 H          1 MOL1         0.1052
       5    C2      20.169534   17.244829   23.334827 C.3        1 MOL1        -0.1209
       6    H4      19.719348   16.541635   24.049611 H          1 MOL1         0.1041
       7    H5      21.048420   16.732844   22.918251 H          1 MOL1         0.1041
       8    C3      19.142711   17.518097   22.206201 C.3        1 MOL1        -0.1274
       9    H6      18.842365   16.551142   21.781219 H          1 MOL1         0.1041
      10    H7      18.227897   17.961714   22.620958 H          1 MOL1         0.1041
      11    C4      19.678805   18.393494   21.053565 C.3        1 MOL1         0.0313
      12    H8      19.063087   18.230785   20.165331 H          1 MOL1         0.1015
      13    H9      20.703968   18.100734   20.813530 H          1 MOL1         0.1015
      14    N1      19.658650   19.883357   21.337995 N.4        1 MOL1        -0.4809
      15    H10     20.183800   20.084552   22.200756 H          1 MOL1         0.3726
      16    H11     18.693479   20.195456   21.525206 H          1 MOL1         0.3726
      17    C5      20.248486   20.646860   20.160043 C.3        1 MOL1        -0.0677
      18    H12     21.279607   20.323655   20.001622 H          1 MOL1         0.1026
      19    H13     19.655724   20.442338   19.265857 H          1 MOL1         0.1026
      20    H14     20.227349   21.716746   20.378826 H          1 MOL1         0.1026
@<TRIPOS>BOND
    1     1     2    1
    2     1     3    1
    3     1     4    1
    4     1     5    1
    5     5     6    1
    6     5     7    1
    7     5     8    1
    8     8     9    1
    9     8    10    1
   10     8    11    1
   11    11    12    1
   12    11    13    1
   13    11    14    1
   14    14    15    1
   15    14    16    1
   16    14    17    1
   17    17    18    1
   18    17    19    1
   19    17    20    1
@<TRIPOS>SUBSTRUCTURE
       1 MOL1            1 RESIDUE      1      MOL     
@<SCITEGIC>MOL_PROPERTY
VConf Rank
SciTegic.value.IntegerValue
526

@<SCITEGIC>MOL_PROPERTY
Conf_Id
SciTegic.value.IntegerValue
26

@<SCITEGIC>MOL_PROPERTY
Delta U+W
SciTegic.value.DoubleValue
2.888

@<SCITEGIC>MOL_PROPERTY
U+W
SciTegic.value.DoubleValue
18.226

@<SCITEGIC>MOL_PROPERTY
Grad RMS
SciTegic.value.DoubleValue
0.000000

@<SCITEGIC>MOL_PROPERTY
U
SciTegic.value.DoubleValue
72.042

@<SCITEGIC>MOL_PROPERTY
W
SciTegic.value.DoubleValue
-53.816

@<SCITEGIC>MOL_PROPERTY
W(PB)
SciTegic.value.DoubleValue
-55.689

@<SCITEGIC>MOL_PROPERTY
W(SA)
SciTegic.value.DoubleValue
1.873

@<SCITEGIC>MOL_PROPERTY
Valence
SciTegic.value.DoubleValue
2.428

@<SCITEGIC>MOL_PROPERTY
Coulomb
SciTegic.value.DoubleValue
69.829

@<SCITEGIC>MOL_PROPERTY
VdW
SciTegic.value.DoubleValue
-0.215

@<SCITEGIC>MOL_PROPERTY
VdW6
SciTegic.value.DoubleValue
-4.563

@<SCITEGIC>MOL_PROPERTY
VdW12
SciTegic.value.DoubleValue
4.348

@<SCITEGIC>MOL_PROPERTY
Bond
SciTegic.value.DoubleValue
0.137

@<SCITEGIC>MOL_PROPERTY
Angle
SciTegic.value.DoubleValue
0.936

@<SCITEGIC>MOL_PROPERTY
Pdih
SciTegic.value.DoubleValue
1.356

@<SCITEGIC>MOL_PROPERTY
Idih
SciTegic.value.DoubleValue
0.000

@<SCITEGIC>MOL_PROPERTY
Tether
SciTegic.value.DoubleValue
0.000

@<TRIPOS>MOLECULE
guest-s9_confgen4.mol2 : confsearch ligand conformer 527
          20          19           1
SMALL
USER_CHARGES
 
@<TRIPOS>ATOM
       1    C1      19.040655   20.678065   22.736182 C.3        1 MOL1        -0.2224
       2    H1      18.337582   21.518771   22.800378 H          1 MOL1         0.1052
       3    H2      19.751104   20.775335   23.567426 H          1 MOL1         0.1052
       4    H3      19.583652   20.785614   21.789801 H          1 MOL1         0.1052
       5    C2      18.276864   19.335846   22.803492 C.3        1 MOL1        -0.1209
       6    H4      17.646401   19.228830   21.909529 H          1 MOL1         0.1041
       7    H5      17.587406   19.367398   23.658898 H          1 MOL1         0.1041
       8    C3      19.183921   18.087789   22.953280 C.3        1 MOL1        -0.1274
       9    H6      19.765146   18.147072   23.882995 H          1 MOL1         0.1041
      10    H7      18.534401   17.208833   23.059944 H          1 MOL1         0.1041
      11    C4      20.125605   17.835626   21.756647 C.3        1 MOL1         0.0313
      12    H8      19.593759   18.027315   20.821404 H          1 MOL1         0.1015
      13    H9      20.436263   16.787764   21.761230 H          1 MOL1         0.1015
      14    N1      21.391339   18.671537   21.769661 N.4        1 MOL1        -0.4809
      15    H10     21.935956   18.476815   22.623757 H          1 MOL1         0.3726
      16    H11     21.152399   19.672068   21.819315 H          1 MOL1         0.3726
      17    C5      22.221971   18.378910   20.527553 C.3        1 MOL1        -0.0677
      18    H12     21.637420   18.623053   19.637912 H          1 MOL1         0.1026
      19    H13     23.128931   18.987071   20.550671 H          1 MOL1         0.1026
      20    H14     22.489169   17.320038   20.514902 H          1 MOL1         0.1026
@<TRIPOS>BOND
    1     1     2    1
    2     1     3    1
    3     1     4    1
    4     1     5    1
    5     5     6    1
    6     5     7    1
    7     5     8    1
    8     8     9    1
    9     8    10    1
   10     8    11    1
   11    11    12    1
   12    11    13    1
   13    11    14    1
   14    14    15    1
   15    14    16    1
   16    14    17    1
   17    17    18    1
   18    17    19    1
   19    17    20    1
@<TRIPOS>SUBSTRUCTURE
       1 MOL1            1 RESIDUE      1      MOL     
@<SCITEGIC>MOL_PROPERTY
VConf Rank
SciTegic.value.IntegerValue
527

@<SCITEGIC>MOL_PROPERTY
Conf_Id
SciTegic.value.IntegerValue
5

@<SCITEGIC>MOL_PROPERTY
Delta U+W
SciTegic.value.DoubleValue
2.950

@<SCITEGIC>MOL_PROPERTY
U+W
SciTegic.value.DoubleValue
18.289

@<SCITEGIC>MOL_PROPERTY
Grad RMS
SciTegic.value.DoubleValue
0.000000

@<SCITEGIC>MOL_PROPERTY
U
SciTegic.value.DoubleValue
72.042

@<SCITEGIC>MOL_PROPERTY
W
SciTegic.value.DoubleValue
-53.753

@<SCITEGIC>MOL_PROPERTY
W(PB)
SciTegic.value.DoubleValue
-55.644

@<SCITEGIC>MOL_PROPERTY
W(SA)
SciTegic.value.DoubleValue
1.891

@<SCITEGIC>MOL_PROPERTY
Valence
SciTegic.value.DoubleValue
2.428

@<SCITEGIC>MOL_PROPERTY
Coulomb
SciTegic.value.DoubleValue
69.829

@<SCITEGIC>MOL_PROPERTY
VdW
SciTegic.value.DoubleValue
-0.215

@<SCITEGIC>MOL_PROPERTY
VdW6
SciTegic.value.DoubleValue
-4.563

@<SCITEGIC>MOL_PROPERTY
VdW12
SciTegic.value.DoubleValue
4.348

@<SCITEGIC>MOL_PROPERTY
Bond
SciTegic.value.DoubleValue
0.137

@<SCITEGIC>MOL_PROPERTY
Angle
SciTegic.value.DoubleValue
0.936

@<SCITEGIC>MOL_PROPERTY
Pdih
SciTegic.value.DoubleValue
1.356

@<SCITEGIC>MOL_PROPERTY
Idih
SciTegic.value.DoubleValue
0.000

@<SCITEGIC>MOL_PROPERTY
Tether
SciTegic.value.DoubleValue
0.000

@<TRIPOS>MOLECULE
guest-s9_confgen4.mol2 : confsearch ligand conformer 528
          20          19           1
SMALL
USER_CHARGES
 
@<TRIPOS>ATOM
       1    C1      20.973728   18.420075   24.240426 C.3        1 MOL1        -0.2224
       2    H1      21.015850   17.350913   24.485735 H          1 MOL1         0.1052
       3    H2      21.824280   18.655201   23.588464 H          1 MOL1         0.1052
       4    H3      21.106715   18.982570   25.173635 H          1 MOL1         0.1052
       5    C2      19.626795   18.784598   23.574817 C.3        1 MOL1        -0.1209
       6    H4      19.606452   19.858058   23.342371 H          1 MOL1         0.1041
       7    H5      18.814857   18.615648   24.296001 H          1 MOL1         0.1041
       8    C3      19.338085   17.958812   22.296529 C.3        1 MOL1        -0.1274
       9    H6      19.267039   16.895814   22.562089 H          1 MOL1         0.1041
      10    H7      18.353621   18.236285   21.898296 H          1 MOL1         0.1041
      11    C4      20.405720   18.118729   21.190131 C.3        1 MOL1         0.0313
      12    H8      20.129786   17.509996   20.325421 H          1 MOL1         0.1015
      13    H9      21.364017   17.750911   21.564906 H          1 MOL1         0.1015
      14    N1      20.624325   19.542595   20.702135 N.4        1 MOL1        -0.4809
      15    H10     21.442573   19.571252   20.073880 H          1 MOL1         0.3726
      16    H11     20.874053   20.152472   21.494467 H          1 MOL1         0.3726
      17    C5      19.393445   20.074005   19.976078 C.3        1 MOL1        -0.0677
      18    H12     18.548172   20.097773   20.666685 H          1 MOL1         0.1026
      19    H13     19.599517   21.083622   19.613980 H          1 MOL1         0.1026
      20    H14     19.163956   19.420104   19.132050 H          1 MOL1         0.1026
@<TRIPOS>BOND
    1     1     2    1
    2     1     3    1
    3     1     4    1
    4     1     5    1
    5     5     6    1
    6     5     7    1
    7     5     8    1
    8     8     9    1
    9     8    10    1
   10     8    11    1
   11    11    12    1
   12    11    13    1
   13    11    14    1
   14    14    15    1
   15    14    16    1
   16    14    17    1
   17    17    18    1
   18    17    19    1
   19    17    20    1
@<TRIPOS>SUBSTRUCTURE
       1 MOL1            1 RESIDUE      1      MOL     
@<SCITEGIC>MOL_PROPERTY
VConf Rank
SciTegic.value.IntegerValue
528

@<SCITEGIC>MOL_PROPERTY
Conf_Id
SciTegic.value.IntegerValue
52

@<SCITEGIC>MOL_PROPERTY
Delta U+W
SciTegic.value.DoubleValue
0.784

@<SCITEGIC>MOL_PROPERTY
U+W
SciTegic.value.DoubleValue
16.122

@<SCITEGIC>MOL_PROPERTY
Grad RMS
SciTegic.value.DoubleValue
0.000000

@<SCITEGIC>MOL_PROPERTY
U
SciTegic.value.DoubleValue
70.777

@<SCITEGIC>MOL_PROPERTY
W
SciTegic.value.DoubleValue
-54.655

@<SCITEGIC>MOL_PROPERTY
W(PB)
SciTegic.value.DoubleValue
-56.491

@<SCITEGIC>MOL_PROPERTY
W(SA)
SciTegic.value.DoubleValue
1.836

@<SCITEGIC>MOL_PROPERTY
Valence
SciTegic.value.DoubleValue
1.529

@<SCITEGIC>MOL_PROPERTY
Coulomb
SciTegic.value.DoubleValue
69.166

@<SCITEGIC>MOL_PROPERTY
VdW
SciTegic.value.DoubleValue
0.082

@<SCITEGIC>MOL_PROPERTY
VdW6
SciTegic.value.DoubleValue
-5.166

@<SCITEGIC>MOL_PROPERTY
VdW12
SciTegic.value.DoubleValue
5.248

@<SCITEGIC>MOL_PROPERTY
Bond
SciTegic.value.DoubleValue
0.171

@<SCITEGIC>MOL_PROPERTY
Angle
SciTegic.value.DoubleValue
0.752

@<SCITEGIC>MOL_PROPERTY
Pdih
SciTegic.value.DoubleValue
0.605

@<SCITEGIC>MOL_PROPERTY
Idih
SciTegic.value.DoubleValue
0.000

@<SCITEGIC>MOL_PROPERTY
Tether
SciTegic.value.DoubleValue
0.000

@<TRIPOS>MOLECULE
guest-s9_confgen4.mol2 : confsearch ligand conformer 529
          20          19           1
SMALL
USER_CHARGES
 
@<TRIPOS>ATOM
       1    C1      19.094126   17.737321   20.561901 C.3        1 MOL1        -0.2224
       2    H1      18.557487   17.284111   19.718225 H          1 MOL1         0.1052
       3    H2      20.162659   17.694010   20.322077 H          1 MOL1         0.1052
       4    H3      18.903721   17.118326   21.448409 H          1 MOL1         0.1052
       5    C2      18.618347   19.191856   20.779451 C.3        1 MOL1        -0.1209
       6    H4      17.519300   19.202467   20.782276 H          1 MOL1         0.1041
       7    H5      18.925360   19.810607   19.924520 H          1 MOL1         0.1041
       8    C3      19.113821   19.838636   22.098164 C.3        1 MOL1        -0.1274
       9    H6      18.640136   20.825177   22.187305 H          1 MOL1         0.1041
      10    H7      18.759825   19.260586   22.960977 H          1 MOL1         0.1041
      11    C4      20.644146   20.047038   22.177079 C.3        1 MOL1         0.0313
      12    H8      20.867018   20.785573   22.951233 H          1 MOL1         0.1015
      13    H9      20.999193   20.446415   21.223712 H          1 MOL1         0.1015
      14    N1      21.464168   18.807295   22.498191 N.4        1 MOL1        -0.4809
      15    H10     22.464868   19.004745   22.340799 H          1 MOL1         0.3726
      16    H11     21.231235   18.049866   21.841012 H          1 MOL1         0.3726
      17    C5      21.246378   18.358083   23.938850 C.3        1 MOL1        -0.0677
      18    H12     21.514900   19.173501   24.613854 H          1 MOL1         0.1026
      19    H13     20.197866   18.089777   24.081163 H          1 MOL1         0.1026
      20    H14     21.877167   17.489899   24.142014 H          1 MOL1         0.1026
@<TRIPOS>BOND
    1     1     2    1
    2     1     3    1
    3     1     4    1
    4     1     5    1
    5     5     6    1
    6     5     7    1
    7     5     8    1
    8     8     9    1
    9     8    10    1
   10     8    11    1
   11    11    12    1
   12    11    13    1
   13    11    14    1
   14    14    15    1
   15    14    16    1
   16    14    17    1
   17    17    18    1
   18    17    19    1
   19    17    20    1
@<TRIPOS>SUBSTRUCTURE
       1 MOL1            1 RESIDUE      1      MOL     
@<SCITEGIC>MOL_PROPERTY
VConf Rank
SciTegic.value.IntegerValue
529

@<SCITEGIC>MOL_PROPERTY
Conf_Id
SciTegic.value.IntegerValue
55

@<SCITEGIC>MOL_PROPERTY
Delta U+W
SciTegic.value.DoubleValue
2.745

@<SCITEGIC>MOL_PROPERTY
U+W
SciTegic.value.DoubleValue
18.083

@<SCITEGIC>MOL_PROPERTY
Grad RMS
SciTegic.value.DoubleValue
0.000000

@<SCITEGIC>MOL_PROPERTY
U
SciTegic.value.DoubleValue
72.490

@<SCITEGIC>MOL_PROPERTY
W
SciTegic.value.DoubleValue
-54.407

@<SCITEGIC>MOL_PROPERTY
W(PB)
SciTegic.value.DoubleValue
-56.269

@<SCITEGIC>MOL_PROPERTY
W(SA)
SciTegic.value.DoubleValue
1.861

@<SCITEGIC>MOL_PROPERTY
Valence
SciTegic.value.DoubleValue
2.738

@<SCITEGIC>MOL_PROPERTY
Coulomb
SciTegic.value.DoubleValue
69.795

@<SCITEGIC>MOL_PROPERTY
VdW
SciTegic.value.DoubleValue
-0.043

@<SCITEGIC>MOL_PROPERTY
VdW6
SciTegic.value.DoubleValue
-5.333

@<SCITEGIC>MOL_PROPERTY
VdW12
SciTegic.value.DoubleValue
5.290

@<SCITEGIC>MOL_PROPERTY
Bond
SciTegic.value.DoubleValue
0.182

@<SCITEGIC>MOL_PROPERTY
Angle
SciTegic.value.DoubleValue
1.135

@<SCITEGIC>MOL_PROPERTY
Pdih
SciTegic.value.DoubleValue
1.422

@<SCITEGIC>MOL_PROPERTY
Idih
SciTegic.value.DoubleValue
0.000

@<SCITEGIC>MOL_PROPERTY
Tether
SciTegic.value.DoubleValue
0.000

@<TRIPOS>MOLECULE
guest-s9_confgen4.mol2 : confsearch ligand conformer 530
          20          19           1
SMALL
USER_CHARGES
 
@<TRIPOS>ATOM
       1    C1      19.342110   20.349905   23.342231 C.3        1 MOL1        -0.2224
       2    H1      19.163119   21.237462   23.963016 H          1 MOL1         0.1052
       3    H2      18.364160   19.934702   23.065595 H          1 MOL1         0.1052
       4    H3      19.871720   19.622820   23.968339 H          1 MOL1         0.1052
       5    C2      20.165778   20.729634   22.090532 C.3        1 MOL1        -0.1209
       6    H4      21.177815   21.031987   22.394475 H          1 MOL1         0.1041
       7    H5      19.709926   21.616987   21.629198 H          1 MOL1         0.1041
       8    C3      20.252953   19.614663   21.017186 C.3        1 MOL1        -0.1274
       9    H6      19.248915   19.348936   20.663350 H          1 MOL1         0.1041
      10    H7      20.775358   20.028368   20.144531 H          1 MOL1         0.1041
      11    C4      21.021745   18.349656   21.464703 C.3        1 MOL1         0.0313
      12    H8      21.930754   18.652309   21.990603 H          1 MOL1         0.1015
      13    H9      21.321914   17.780083   20.581579 H          1 MOL1         0.1015
      14    N1      20.255652   17.395771   22.367872 N.4        1 MOL1        -0.4809
      15    H10     19.881446   17.903670   23.181412 H          1 MOL1         0.3726
      16    H11     20.904428   16.695554   22.760233 H          1 MOL1         0.3726
      17    C5      19.135692   16.693911   21.607740 C.3        1 MOL1        -0.0677
      18    H12     18.419009   17.435605   21.250148 H          1 MOL1         0.1026
      19    H13     19.561351   16.151755   20.760674 H          1 MOL1         0.1026
      20    H14     18.633306   15.992875   22.277865 H          1 MOL1         0.1026
@<TRIPOS>BOND
    1     1     2    1
    2     1     3    1
    3     1     4    1
    4     1     5    1
    5     5     6    1
    6     5     7    1
    7     5     8    1
    8     8     9    1
    9     8    10    1
   10     8    11    1
   11    11    12    1
   12    11    13    1
   13    11    14    1
   14    14    15    1
   15    14    16    1
   16    14    17    1
   17    17    18    1
   18    17    19    1
   19    17    20    1
@<TRIPOS>SUBSTRUCTURE
       1 MOL1            1 RESIDUE      1      MOL     
@<SCITEGIC>MOL_PROPERTY
VConf Rank
SciTegic.value.IntegerValue
530

@<SCITEGIC>MOL_PROPERTY
Conf_Id
SciTegic.value.IntegerValue
76

@<SCITEGIC>MOL_PROPERTY
Delta U+W
SciTegic.value.DoubleValue
2.799

@<SCITEGIC>MOL_PROPERTY
U+W
SciTegic.value.DoubleValue
18.137

@<SCITEGIC>MOL_PROPERTY
Grad RMS
SciTegic.value.DoubleValue
0.000000

@<SCITEGIC>MOL_PROPERTY
U
SciTegic.value.DoubleValue
72.490

@<SCITEGIC>MOL_PROPERTY
W
SciTegic.value.DoubleValue
-54.353

@<SCITEGIC>MOL_PROPERTY
W(PB)
SciTegic.value.DoubleValue
-56.201

@<SCITEGIC>MOL_PROPERTY
W(SA)
SciTegic.value.DoubleValue
1.848

@<SCITEGIC>MOL_PROPERTY
Valence
SciTegic.value.DoubleValue
2.738

@<SCITEGIC>MOL_PROPERTY
Coulomb
SciTegic.value.DoubleValue
69.795

@<SCITEGIC>MOL_PROPERTY
VdW
SciTegic.value.DoubleValue
-0.043

@<SCITEGIC>MOL_PROPERTY
VdW6
SciTegic.value.DoubleValue
-5.334

@<SCITEGIC>MOL_PROPERTY
VdW12
SciTegic.value.DoubleValue
5.290

@<SCITEGIC>MOL_PROPERTY
Bond
SciTegic.value.DoubleValue
0.182

@<SCITEGIC>MOL_PROPERTY
Angle
SciTegic.value.DoubleValue
1.135

@<SCITEGIC>MOL_PROPERTY
Pdih
SciTegic.value.DoubleValue
1.421

@<SCITEGIC>MOL_PROPERTY
Idih
SciTegic.value.DoubleValue
0.000

@<SCITEGIC>MOL_PROPERTY
Tether
SciTegic.value.DoubleValue
0.000

@<TRIPOS>MOLECULE
guest-s9_confgen4.mol2 : confsearch ligand conformer 531
          20          19           1
SMALL
USER_CHARGES
 
@<TRIPOS>ATOM
       1    C1      19.452719   20.303396   20.689897 C.3        1 MOL1        -0.2224
       2    H1      19.560305   19.321469   20.213143 H          1 MOL1         0.1052
       3    H2      18.384840   20.556604   20.711617 H          1 MOL1         0.1052
       4    H3      19.957909   21.039281   20.051069 H          1 MOL1         0.1052
       5    C2      20.054943   20.316921   22.113873 C.3        1 MOL1        -0.1209
       6    H4      19.986615   21.336890   22.517391 H          1 MOL1         0.1041
       7    H5      21.126861   20.084375   22.072939 H          1 MOL1         0.1041
       8    C3      19.335775   19.350530   23.086669 C.3        1 MOL1        -0.1274
       9    H6      19.782591   19.441220   24.085438 H          1 MOL1         0.1041
      10    H7      18.291851   19.673533   23.194082 H          1 MOL1         0.1041
      11    C4      19.339199   17.862309   22.664926 C.3        1 MOL1         0.0313
      12    H8      18.907375   17.744465   21.668328 H          1 MOL1         0.1015
      13    H9      18.703663   17.315370   23.366081 H          1 MOL1         0.1015
      14    N1      20.696770   17.175677   22.686827 N.4        1 MOL1        -0.4809
      15    H10     20.568624   16.178249   22.918160 H          1 MOL1         0.3726
      16    H11     21.276355   17.550444   23.452514 H          1 MOL1         0.3726
      17    C5      21.408887   17.289736   21.343277 C.3        1 MOL1        -0.0677
      18    H12     22.361459   16.758206   21.398127 H          1 MOL1         0.1026
      19    H13     20.783778   16.842055   20.567769 H          1 MOL1         0.1026
      20    H14     21.589454   18.339362   21.109390 H          1 MOL1         0.1026
@<TRIPOS>BOND
    1     1     2    1
    2     1     3    1
    3     1     4    1
    4     1     5    1
    5     5     6    1
    6     5     7    1
    7     5     8    1
    8     8     9    1
    9     8    10    1
   10     8    11    1
   11    11    12    1
   12    11    13    1
   13    11    14    1
   14    14    15    1
   15    14    16    1
   16    14    17    1
   17    17    18    1
   18    17    19    1
   19    17    20    1
@<TRIPOS>SUBSTRUCTURE
       1 MOL1            1 RESIDUE      1      MOL     
@<SCITEGIC>MOL_PROPERTY
VConf Rank
SciTegic.value.IntegerValue
531

@<SCITEGIC>MOL_PROPERTY
Conf_Id
SciTegic.value.IntegerValue
60

@<SCITEGIC>MOL_PROPERTY
Delta U+W
SciTegic.value.DoubleValue
1.788

@<SCITEGIC>MOL_PROPERTY
U+W
SciTegic.value.DoubleValue
17.127

@<SCITEGIC>MOL_PROPERTY
Grad RMS
SciTegic.value.DoubleValue
0.000000

@<SCITEGIC>MOL_PROPERTY
U
SciTegic.value.DoubleValue
72.122

@<SCITEGIC>MOL_PROPERTY
W
SciTegic.value.DoubleValue
-54.995

@<SCITEGIC>MOL_PROPERTY
W(PB)
SciTegic.value.DoubleValue
-56.810

@<SCITEGIC>MOL_PROPERTY
W(SA)
SciTegic.value.DoubleValue
1.815

@<SCITEGIC>MOL_PROPERTY
Valence
SciTegic.value.DoubleValue
3.197

@<SCITEGIC>MOL_PROPERTY
Coulomb
SciTegic.value.DoubleValue
69.115

@<SCITEGIC>MOL_PROPERTY
VdW
SciTegic.value.DoubleValue
-0.190

@<SCITEGIC>MOL_PROPERTY
VdW6
SciTegic.value.DoubleValue
-5.585

@<SCITEGIC>MOL_PROPERTY
VdW12
SciTegic.value.DoubleValue
5.395

@<SCITEGIC>MOL_PROPERTY
Bond
SciTegic.value.DoubleValue
0.177

@<SCITEGIC>MOL_PROPERTY
Angle
SciTegic.value.DoubleValue
1.207

@<SCITEGIC>MOL_PROPERTY
Pdih
SciTegic.value.DoubleValue
1.813

@<SCITEGIC>MOL_PROPERTY
Idih
SciTegic.value.DoubleValue
0.000

@<SCITEGIC>MOL_PROPERTY
Tether
SciTegic.value.DoubleValue
0.000

@<TRIPOS>MOLECULE
guest-s9_confgen4.mol2 : confsearch ligand conformer 532
          20          19           1
SMALL
USER_CHARGES
 
@<TRIPOS>ATOM
       1    C1      22.265487   19.087614   22.057548 C.3        1 MOL1        -0.2224
       2    H1      22.973765   19.779042   21.583087 H          1 MOL1         0.1052
       3    H2      22.815575   18.511661   22.812950 H          1 MOL1         0.1052
       4    H3      21.915538   18.390798   21.286163 H          1 MOL1         0.1052
       5    C2      21.093869   19.866541   22.698754 C.3        1 MOL1        -0.1209
       6    H4      20.568308   20.454418   21.935243 H          1 MOL1         0.1041
       7    H5      21.502403   20.598592   23.409412 H          1 MOL1         0.1041
       8    C3      20.095180   18.951955   23.449488 C.3        1 MOL1        -0.1274
       9    H6      20.623587   18.460426   24.277033 H          1 MOL1         0.1041
      10    H7      19.316173   19.569729   23.915225 H          1 MOL1         0.1041
      11    C4      19.423612   17.856810   22.587903 C.3        1 MOL1         0.0313
      12    H8      18.843723   17.215272   23.256353 H          1 MOL1         0.1015
      13    H9      20.178139   17.231946   22.104376 H          1 MOL1         0.1015
      14    N1      18.457652   18.357142   21.524169 N.4        1 MOL1        -0.4809
      15    H10     17.966460   19.201384   21.853764 H          1 MOL1         0.3726
      16    H11     17.712644   17.656631   21.386155 H          1 MOL1         0.3726
      17    C5      19.161646   18.606716   20.194752 C.3        1 MOL1        -0.0677
      18    H12     19.629904   17.679348   19.858131 H          1 MOL1         0.1026
      19    H13     18.425599   18.934150   19.457225 H          1 MOL1         0.1026
      20    H14     19.922015   19.378333   20.319118 H          1 MOL1         0.1026
@<TRIPOS>BOND
    1     1     2    1
    2     1     3    1
    3     1     4    1
    4     1     5    1
    5     5     6    1
    6     5     7    1
    7     5     8    1
    8     8     9    1
    9     8    10    1
   10     8    11    1
   11    11    12    1
   12    11    13    1
   13    11    14    1
   14    14    15    1
   15    14    16    1
   16    14    17    1
   17    17    18    1
   18    17    19    1
   19    17    20    1
@<TRIPOS>SUBSTRUCTURE
       1 MOL1            1 RESIDUE      1      MOL     
@<SCITEGIC>MOL_PROPERTY
VConf Rank
SciTegic.value.IntegerValue
532

@<SCITEGIC>MOL_PROPERTY
Conf_Id
SciTegic.value.IntegerValue
54

@<SCITEGIC>MOL_PROPERTY
Delta U+W
SciTegic.value.DoubleValue
1.880

@<SCITEGIC>MOL_PROPERTY
U+W
SciTegic.value.DoubleValue
17.218

@<SCITEGIC>MOL_PROPERTY
Grad RMS
SciTegic.value.DoubleValue
0.000000

@<SCITEGIC>MOL_PROPERTY
U
SciTegic.value.DoubleValue
72.122

@<SCITEGIC>MOL_PROPERTY
W
SciTegic.value.DoubleValue
-54.903

@<SCITEGIC>MOL_PROPERTY
W(PB)
SciTegic.value.DoubleValue
-56.724

@<SCITEGIC>MOL_PROPERTY
W(SA)
SciTegic.value.DoubleValue
1.821

@<SCITEGIC>MOL_PROPERTY
Valence
SciTegic.value.DoubleValue
3.197

@<SCITEGIC>MOL_PROPERTY
Coulomb
SciTegic.value.DoubleValue
69.115

@<SCITEGIC>MOL_PROPERTY
VdW
SciTegic.value.DoubleValue
-0.190

@<SCITEGIC>MOL_PROPERTY
VdW6
SciTegic.value.DoubleValue
-5.585

@<SCITEGIC>MOL_PROPERTY
VdW12
SciTegic.value.DoubleValue
5.395

@<SCITEGIC>MOL_PROPERTY
Bond
SciTegic.value.DoubleValue
0.177

@<SCITEGIC>MOL_PROPERTY
Angle
SciTegic.value.DoubleValue
1.207

@<SCITEGIC>MOL_PROPERTY
Pdih
SciTegic.value.DoubleValue
1.813

@<SCITEGIC>MOL_PROPERTY
Idih
SciTegic.value.DoubleValue
0.000

@<SCITEGIC>MOL_PROPERTY
Tether
SciTegic.value.DoubleValue
0.000

@<TRIPOS>MOLECULE
guest-s9_confgen4.mol2 : confsearch ligand conformer 533
          20          19           1
SMALL
USER_CHARGES
 
@<TRIPOS>ATOM
       1    C1      21.488888   16.972635   19.808776 C.3        1 MOL1        -0.2224
       2    H1      20.871884   17.273192   18.951951 H          1 MOL1         0.1052
       3    H2      22.514387   16.821062   19.447663 H          1 MOL1         0.1052
       4    H3      21.116013   16.007748   20.176382 H          1 MOL1         0.1052
       5    C2      21.454817   18.042683   20.921461 C.3        1 MOL1        -0.1209
       6    H4      21.865702   18.985696   20.533840 H          1 MOL1         0.1041
       7    H5      22.107828   17.730170   21.748664 H          1 MOL1         0.1041
       8    C3      20.022306   18.277208   21.449353 C.3        1 MOL1        -0.1274
       9    H6      19.371414   18.592746   20.623071 H          1 MOL1         0.1041
      10    H7      19.613810   17.335439   21.839442 H          1 MOL1         0.1041
      11    C4      19.996739   19.345278   22.558477 C.3        1 MOL1         0.0313
      12    H8      20.388352   20.288408   22.169077 H          1 MOL1         0.1015
      13    H9      20.631380   19.026995   23.389389 H          1 MOL1         0.1015
      14    N1      18.608614   19.609489   23.108029 N.4        1 MOL1        -0.4809
      15    H10     18.200269   18.738033   23.479481 H          1 MOL1         0.3726
      16    H11     17.975285   19.905982   22.349649 H          1 MOL1         0.3726
      17    C5      18.674060   20.673840   24.195251 C.3        1 MOL1        -0.0677
      18    H12     19.076532   21.596617   23.771806 H          1 MOL1         0.1026
      19    H13     17.668540   20.854162   24.581804 H          1 MOL1         0.1026
      20    H14     19.321493   20.324467   25.002455 H          1 MOL1         0.1026
@<TRIPOS>BOND
    1     1     2    1
    2     1     3    1
    3     1     4    1
    4     1     5    1
    5     5     6    1
    6     5     7    1
    7     5     8    1
    8     8     9    1
    9     8    10    1
   10     8    11    1
   11    11    12    1
   12    11    13    1
   13    11    14    1
   14    14    15    1
   15    14    16    1
   16    14    17    1
   17    17    18    1
   18    17    19    1
   19    17    20    1
@<TRIPOS>SUBSTRUCTURE
       1 MOL1            1 RESIDUE      1      MOL     
@<SCITEGIC>MOL_PROPERTY
VConf Rank
SciTegic.value.IntegerValue
533

@<SCITEGIC>MOL_PROPERTY
Conf_Id
SciTegic.value.IntegerValue
67

@<SCITEGIC>MOL_PROPERTY
Delta U+W
SciTegic.value.DoubleValue
0.000

@<SCITEGIC>MOL_PROPERTY
U+W
SciTegic.value.DoubleValue
15.338

@<SCITEGIC>MOL_PROPERTY
Grad RMS
SciTegic.value.DoubleValue
0.000000

@<SCITEGIC>MOL_PROPERTY
U
SciTegic.value.DoubleValue
69.277

@<SCITEGIC>MOL_PROPERTY
W
SciTegic.value.DoubleValue
-53.939

@<SCITEGIC>MOL_PROPERTY
W(PB)
SciTegic.value.DoubleValue
-55.889

@<SCITEGIC>MOL_PROPERTY
W(SA)
SciTegic.value.DoubleValue
1.950

@<SCITEGIC>MOL_PROPERTY
Valence
SciTegic.value.DoubleValue
0.846

@<SCITEGIC>MOL_PROPERTY
Coulomb
SciTegic.value.DoubleValue
68.557

@<SCITEGIC>MOL_PROPERTY
VdW
SciTegic.value.DoubleValue
-0.127

@<SCITEGIC>MOL_PROPERTY
VdW6
SciTegic.value.DoubleValue
-3.008

@<SCITEGIC>MOL_PROPERTY
VdW12
SciTegic.value.DoubleValue
2.882

@<SCITEGIC>MOL_PROPERTY
Bond
SciTegic.value.DoubleValue
0.088

@<SCITEGIC>MOL_PROPERTY
Angle
SciTegic.value.DoubleValue
0.332

@<SCITEGIC>MOL_PROPERTY
Pdih
SciTegic.value.DoubleValue
0.426

@<SCITEGIC>MOL_PROPERTY
Idih
SciTegic.value.DoubleValue
0.000

@<SCITEGIC>MOL_PROPERTY
Tether
SciTegic.value.DoubleValue
0.000

@<TRIPOS>MOLECULE
guest-s9_confgen4.mol2 : confsearch ligand conformer 534
          20          19           1
SMALL
USER_CHARGES
 
@<TRIPOS>ATOM
       1    C1      18.244782   18.429689   19.654887 C.3        1 MOL1        -0.2224
       2    H1      17.402251   18.828112   20.235033 H          1 MOL1         0.1052
       3    H2      18.095150   18.715308   18.605577 H          1 MOL1         0.1052
       4    H3      18.211572   17.333926   19.712929 H          1 MOL1         0.1052
       5    C2      19.590134   18.974149   20.182015 C.3        1 MOL1        -0.1209
       6    H4      19.606656   20.068448   20.079239 H          1 MOL1         0.1041
       7    H5      20.409625   18.586208   19.560531 H          1 MOL1         0.1041
       8    C3      19.828029   18.586834   21.658187 C.3        1 MOL1        -0.1274
       9    H6      19.007577   18.976107   22.274693 H          1 MOL1         0.1041
      10    H7      19.815714   17.493567   21.759369 H          1 MOL1         0.1041
      11    C4      21.174742   19.133827   22.175040 C.3        1 MOL1         0.0313
      12    H8      21.176520   20.225464   22.122986 H          1 MOL1         0.1015
      13    H9      21.977837   18.763547   21.532693 H          1 MOL1         0.1015
      14    N1      21.515655   18.732402   23.601013 N.4        1 MOL1        -0.4809
      15    H10     22.491708   18.995343   23.809504 H          1 MOL1         0.3726
      16    H11     21.492419   17.705899   23.698619 H          1 MOL1         0.3726
      17    C5      20.576308   19.394441   24.603433 C.3        1 MOL1        -0.0677
      18    H12     19.553815   19.059557   24.418371 H          1 MOL1         0.1026
      19    H13     20.876403   19.112275   25.615014 H          1 MOL1         0.1026
      20    H14     20.637036   20.479044   24.490930 H          1 MOL1         0.1026
@<TRIPOS>BOND
    1     1     2    1
    2     1     3    1
    3     1     4    1
    4     1     5    1
    5     5     6    1
    6     5     7    1
    7     5     8    1
    8     8     9    1
    9     8    10    1
   10     8    11    1
   11    11    12    1
   12    11    13    1
   13    11    14    1
   14    14    15    1
   15    14    16    1
   16    14    17    1
   17    17    18    1
   18    17    19    1
   19    17    20    1
@<TRIPOS>SUBSTRUCTURE
       1 MOL1            1 RESIDUE      1      MOL     
@<SCITEGIC>MOL_PROPERTY
VConf Rank
SciTegic.value.IntegerValue
534

@<SCITEGIC>MOL_PROPERTY
Conf_Id
SciTegic.value.IntegerValue
37

@<SCITEGIC>MOL_PROPERTY
Delta U+W
SciTegic.value.DoubleValue
-0.021

@<SCITEGIC>MOL_PROPERTY
U+W
SciTegic.value.DoubleValue
15.318

@<SCITEGIC>MOL_PROPERTY
Grad RMS
SciTegic.value.DoubleValue
0.000000

@<SCITEGIC>MOL_PROPERTY
U
SciTegic.value.DoubleValue
69.657

@<SCITEGIC>MOL_PROPERTY
W
SciTegic.value.DoubleValue
-54.340

@<SCITEGIC>MOL_PROPERTY
W(PB)
SciTegic.value.DoubleValue
-56.238

@<SCITEGIC>MOL_PROPERTY
W(SA)
SciTegic.value.DoubleValue
1.899

@<SCITEGIC>MOL_PROPERTY
Valence
SciTegic.value.DoubleValue
1.137

@<SCITEGIC>MOL_PROPERTY
Coulomb
SciTegic.value.DoubleValue
68.383

@<SCITEGIC>MOL_PROPERTY
VdW
SciTegic.value.DoubleValue
0.138

@<SCITEGIC>MOL_PROPERTY
VdW6
SciTegic.value.DoubleValue
-3.703

@<SCITEGIC>MOL_PROPERTY
VdW12
SciTegic.value.DoubleValue
3.841

@<SCITEGIC>MOL_PROPERTY
Bond
SciTegic.value.DoubleValue
0.125

@<SCITEGIC>MOL_PROPERTY
Angle
SciTegic.value.DoubleValue
0.468

@<SCITEGIC>MOL_PROPERTY
Pdih
SciTegic.value.DoubleValue
0.543

@<SCITEGIC>MOL_PROPERTY
Idih
SciTegic.value.DoubleValue
0.000

@<SCITEGIC>MOL_PROPERTY
Tether
SciTegic.value.DoubleValue
0.000

@<TRIPOS>MOLECULE
guest-s9_confgen4.mol2 : confsearch ligand conformer 535
          20          19           1
SMALL
USER_CHARGES
 
@<TRIPOS>ATOM
       1    C1      22.096476   16.885704   20.992523 C.3        1 MOL1        -0.2224
       2    H1      22.330866   16.217452   20.153760 H          1 MOL1         0.1052
       3    H2      22.835718   17.697301   20.992296 H          1 MOL1         0.1052
       4    H3      22.217440   16.313828   21.921767 H          1 MOL1         0.1052
       5    C2      20.661231   17.440417   20.863561 C.3        1 MOL1        -0.1209
       6    H4      19.948271   16.604384   20.831210 H          1 MOL1         0.1041
       7    H5      20.561639   17.977450   19.909621 H          1 MOL1         0.1041
       8    C3      20.303124   18.385029   22.031958 C.3        1 MOL1        -0.1274
       9    H6      20.398658   17.846724   22.984178 H          1 MOL1         0.1041
      10    H7      21.017432   19.217924   22.060328 H          1 MOL1         0.1041
      11    C4      18.867382   18.932639   21.895075 C.3        1 MOL1         0.0313
      12    H8      18.171356   18.091948   21.836207 H          1 MOL1         0.1015
      13    H9      18.777213   19.511243   20.972324 H          1 MOL1         0.1015
      14    N1      18.413780   19.814593   23.047099 N.4        1 MOL1        -0.4809
      15    H10     18.514825   19.312918   23.942580 H          1 MOL1         0.3726
      16    H11     17.402198   20.000785   22.961541 H          1 MOL1         0.3726
      17    C5      19.181701   21.131839   23.073135 C.3        1 MOL1        -0.0677
      18    H12     19.040144   21.649355   22.121902 H          1 MOL1         0.1026
      19    H13     18.801937   21.751104   23.888772 H          1 MOL1         0.1026
      20    H14     20.243000   20.930028   23.230630 H          1 MOL1         0.1026
@<TRIPOS>BOND
    1     1     2    1
    2     1     3    1
    3     1     4    1
    4     1     5    1
    5     5     6    1
    6     5     7    1
    7     5     8    1
    8     8     9    1
    9     8    10    1
   10     8    11    1
   11    11    12    1
   12    11    13    1
   13    11    14    1
   14    14    15    1
   15    14    16    1
   16    14    17    1
   17    17    18    1
   18    17    19    1
   19    17    20    1
@<TRIPOS>SUBSTRUCTURE
       1 MOL1            1 RESIDUE      1      MOL     
@<SCITEGIC>MOL_PROPERTY
VConf Rank
SciTegic.value.IntegerValue
535

@<SCITEGIC>MOL_PROPERTY
Conf_Id
SciTegic.value.IntegerValue
2

@<SCITEGIC>MOL_PROPERTY
Delta U+W
SciTegic.value.DoubleValue
0.069

@<SCITEGIC>MOL_PROPERTY
U+W
SciTegic.value.DoubleValue
15.407

@<SCITEGIC>MOL_PROPERTY
Grad RMS
SciTegic.value.DoubleValue
0.000000

@<SCITEGIC>MOL_PROPERTY
U
SciTegic.value.DoubleValue
69.657

@<SCITEGIC>MOL_PROPERTY
W
SciTegic.value.DoubleValue
-54.250

@<SCITEGIC>MOL_PROPERTY
W(PB)
SciTegic.value.DoubleValue
-56.176

@<SCITEGIC>MOL_PROPERTY
W(SA)
SciTegic.value.DoubleValue
1.926

@<SCITEGIC>MOL_PROPERTY
Valence
SciTegic.value.DoubleValue
1.137

@<SCITEGIC>MOL_PROPERTY
Coulomb
SciTegic.value.DoubleValue
68.383

@<SCITEGIC>MOL_PROPERTY
VdW
SciTegic.value.DoubleValue
0.138

@<SCITEGIC>MOL_PROPERTY
VdW6
SciTegic.value.DoubleValue
-3.703

@<SCITEGIC>MOL_PROPERTY
VdW12
SciTegic.value.DoubleValue
3.841

@<SCITEGIC>MOL_PROPERTY
Bond
SciTegic.value.DoubleValue
0.125

@<SCITEGIC>MOL_PROPERTY
Angle
SciTegic.value.DoubleValue
0.468

@<SCITEGIC>MOL_PROPERTY
Pdih
SciTegic.value.DoubleValue
0.543

@<SCITEGIC>MOL_PROPERTY
Idih
SciTegic.value.DoubleValue
0.000

@<SCITEGIC>MOL_PROPERTY
Tether
SciTegic.value.DoubleValue
0.000

@<TRIPOS>MOLECULE
guest-s9_confgen4.mol2 : confsearch ligand conformer 536
          20          19           1
SMALL
USER_CHARGES
 
@<TRIPOS>ATOM
       1    C1      19.777047   17.029915   19.997336 C.3        1 MOL1        -0.2224
       2    H1      20.718766   16.875547   20.538999 H          1 MOL1         0.1052
       3    H2      19.005226   16.406052   20.466577 H          1 MOL1         0.1052
       4    H3      19.922463   16.667007   18.971597 H          1 MOL1         0.1052
       5    C2      19.361659   18.519113   19.991658 C.3        1 MOL1        -0.1209
       6    H4      18.468608   18.639730   19.362433 H          1 MOL1         0.1041
       7    H5      20.152895   19.121192   19.522989 H          1 MOL1         0.1041
       8    C3      19.057789   19.067548   21.405540 C.3        1 MOL1        -0.1274
       9    H6      18.696724   20.100899   21.317924 H          1 MOL1         0.1041
      10    H7      18.243185   18.486797   21.858324 H          1 MOL1         0.1041
      11    C4      20.289983   19.039464   22.330826 C.3        1 MOL1         0.0313
      12    H8      21.099775   19.619483   21.881172 H          1 MOL1         0.1015
      13    H9      20.633175   18.009757   22.456086 H          1 MOL1         0.1015
      14    N1      20.020023   19.608062   23.710060 N.4        1 MOL1        -0.4809
      15    H10     19.252073   19.090862   24.164865 H          1 MOL1         0.3726
      16    H11     19.686940   20.581520   23.635628 H          1 MOL1         0.3726
      17    C5      21.284084   19.539849   24.556575 C.3        1 MOL1        -0.0677
      18    H12     22.072307   20.121694   24.073912 H          1 MOL1         0.1026
      19    H13     21.075748   19.952229   25.546294 H          1 MOL1         0.1026
      20    H14     21.598511   18.498174   24.650638 H          1 MOL1         0.1026
@<TRIPOS>BOND
    1     1     2    1
    2     1     3    1
    3     1     4    1
    4     1     5    1
    5     5     6    1
    6     5     7    1
    7     5     8    1
    8     8     9    1
    9     8    10    1
   10     8    11    1
   11    11    12    1
   12    11    13    1
   13    11    14    1
   14    14    15    1
   15    14    16    1
   16    14    17    1
   17    17    18    1
   18    17    19    1
   19    17    20    1
@<TRIPOS>SUBSTRUCTURE
       1 MOL1            1 RESIDUE      1      MOL     
@<SCITEGIC>MOL_PROPERTY
VConf Rank
SciTegic.value.IntegerValue
536

@<SCITEGIC>MOL_PROPERTY
Conf_Id
SciTegic.value.IntegerValue
34

@<SCITEGIC>MOL_PROPERTY
Delta U+W
SciTegic.value.DoubleValue
0.276

@<SCITEGIC>MOL_PROPERTY
U+W
SciTegic.value.DoubleValue
15.615

@<SCITEGIC>MOL_PROPERTY
Grad RMS
SciTegic.value.DoubleValue
0.000000

@<SCITEGIC>MOL_PROPERTY
U
SciTegic.value.DoubleValue
69.798

@<SCITEGIC>MOL_PROPERTY
W
SciTegic.value.DoubleValue
-54.184

@<SCITEGIC>MOL_PROPERTY
W(PB)
SciTegic.value.DoubleValue
-56.116

@<SCITEGIC>MOL_PROPERTY
W(SA)
SciTegic.value.DoubleValue
1.933

@<SCITEGIC>MOL_PROPERTY
Valence
SciTegic.value.DoubleValue
1.134

@<SCITEGIC>MOL_PROPERTY
Coulomb
SciTegic.value.DoubleValue
68.735

@<SCITEGIC>MOL_PROPERTY
VdW
SciTegic.value.DoubleValue
-0.070

@<SCITEGIC>MOL_PROPERTY
VdW6
SciTegic.value.DoubleValue
-3.565

@<SCITEGIC>MOL_PROPERTY
VdW12
SciTegic.value.DoubleValue
3.494

@<SCITEGIC>MOL_PROPERTY
Bond
SciTegic.value.DoubleValue
0.108

@<SCITEGIC>MOL_PROPERTY
Angle
SciTegic.value.DoubleValue
0.456

@<SCITEGIC>MOL_PROPERTY
Pdih
SciTegic.value.DoubleValue
0.569

@<SCITEGIC>MOL_PROPERTY
Idih
SciTegic.value.DoubleValue
0.000

@<SCITEGIC>MOL_PROPERTY
Tether
SciTegic.value.DoubleValue
0.000

@<TRIPOS>MOLECULE
guest-s9_confgen4.mol2 : confsearch ligand conformer 537
          20          19           1
SMALL
USER_CHARGES
 
@<TRIPOS>ATOM
       1    C1      21.559016   17.734257   24.402102 C.3        1 MOL1        -0.2224
       2    H1      22.635349   17.803851   24.197570 H          1 MOL1         0.1052
       3    H2      21.394188   18.043904   25.442283 H          1 MOL1         0.1052
       4    H3      21.262064   16.681066   24.313848 H          1 MOL1         0.1052
       5    C2      20.749632   18.623278   23.433306 C.3        1 MOL1        -0.1209
       6    H4      21.046746   19.672990   23.568034 H          1 MOL1         0.1041
       7    H5      19.684349   18.559473   23.693298 H          1 MOL1         0.1041
       8    C3      20.964480   18.206482   21.959092 C.3        1 MOL1        -0.1274
       9    H6      22.037129   18.237735   21.726002 H          1 MOL1         0.1041
      10    H7      20.643217   17.166955   21.810658 H          1 MOL1         0.1041
      11    C4      20.223271   19.122294   20.964387 C.3        1 MOL1         0.0313
      12    H8      20.485242   18.833414   19.943339 H          1 MOL1         0.1015
      13    H9      20.536514   20.158389   21.115456 H          1 MOL1         0.1015
      14    N1      18.711570   19.067685   21.081273 N.4        1 MOL1        -0.4809
      15    H10     18.418669   19.335754   22.032484 H          1 MOL1         0.3726
      16    H11     18.379967   18.099228   20.954082 H          1 MOL1         0.3726
      17    C5      18.076901   19.989539   20.048695 C.3        1 MOL1        -0.0677
      18    H12     18.416055   21.012937   20.223113 H          1 MOL1         0.1026
      19    H13     18.373575   19.667426   19.048188 H          1 MOL1         0.1026
      20    H14     16.989913   19.940638   20.143860 H          1 MOL1         0.1026
@<TRIPOS>BOND
    1     1     2    1
    2     1     3    1
    3     1     4    1
    4     1     5    1
    5     5     6    1
    6     5     7    1
    7     5     8    1
    8     8     9    1
    9     8    10    1
   10     8    11    1
   11    11    12    1
   12    11    13    1
   13    11    14    1
   14    14    15    1
   15    14    16    1
   16    14    17    1
   17    17    18    1
   18    17    19    1
   19    17    20    1
@<TRIPOS>SUBSTRUCTURE
       1 MOL1            1 RESIDUE      1      MOL     
@<SCITEGIC>MOL_PROPERTY
VConf Rank
SciTegic.value.IntegerValue
537

@<SCITEGIC>MOL_PROPERTY
Conf_Id
SciTegic.value.IntegerValue
50

@<SCITEGIC>MOL_PROPERTY
Delta U+W
SciTegic.value.DoubleValue
0.319

@<SCITEGIC>MOL_PROPERTY
U+W
SciTegic.value.DoubleValue
15.657

@<SCITEGIC>MOL_PROPERTY
Grad RMS
SciTegic.value.DoubleValue
0.000000

@<SCITEGIC>MOL_PROPERTY
U
SciTegic.value.DoubleValue
69.962

@<SCITEGIC>MOL_PROPERTY
W
SciTegic.value.DoubleValue
-54.305

@<SCITEGIC>MOL_PROPERTY
W(PB)
SciTegic.value.DoubleValue
-56.223

@<SCITEGIC>MOL_PROPERTY
W(SA)
SciTegic.value.DoubleValue
1.918

@<SCITEGIC>MOL_PROPERTY
Valence
SciTegic.value.DoubleValue
0.982

@<SCITEGIC>MOL_PROPERTY
Coulomb
SciTegic.value.DoubleValue
69.058

@<SCITEGIC>MOL_PROPERTY
VdW
SciTegic.value.DoubleValue
-0.078

@<SCITEGIC>MOL_PROPERTY
VdW6
SciTegic.value.DoubleValue
-3.548

@<SCITEGIC>MOL_PROPERTY
VdW12
SciTegic.value.DoubleValue
3.471

@<SCITEGIC>MOL_PROPERTY
Bond
SciTegic.value.DoubleValue
0.105

@<SCITEGIC>MOL_PROPERTY
Angle
SciTegic.value.DoubleValue
0.408

@<SCITEGIC>MOL_PROPERTY
Pdih
SciTegic.value.DoubleValue
0.469

@<SCITEGIC>MOL_PROPERTY
Idih
SciTegic.value.DoubleValue
0.000

@<SCITEGIC>MOL_PROPERTY
Tether
SciTegic.value.DoubleValue
0.000

@<TRIPOS>MOLECULE
guest-s9_confgen4.mol2 : confsearch ligand conformer 538
          20          19           1
SMALL
USER_CHARGES
 
@<TRIPOS>ATOM
       1    C1      22.350890   20.772256   22.536008 C.3        1 MOL1        -0.2224
       2    H1      22.230334   21.830176   22.803027 H          1 MOL1         0.1052
       3    H2      23.041131   20.319777   23.259886 H          1 MOL1         0.1052
       4    H3      22.818721   20.727203   21.543896 H          1 MOL1         0.1052
       5    C2      20.986560   20.049343   22.540798 C.3        1 MOL1        -0.1209
       6    H4      20.311317   20.553222   21.836067 H          1 MOL1         0.1041
       7    H5      20.530279   20.139363   23.536804 H          1 MOL1         0.1041
       8    C3      21.129224   18.555081   22.166609 C.3        1 MOL1        -0.1274
       9    H6      21.558594   18.457785   21.160611 H          1 MOL1         0.1041
      10    H7      21.836702   18.074653   22.855481 H          1 MOL1         0.1041
      11    C4      19.791216   17.791557   22.232253 C.3        1 MOL1         0.0313
      12    H8      19.358924   17.893138   23.230873 H          1 MOL1         0.1015
      13    H9      19.971798   16.729729   22.046426 H          1 MOL1         0.1015
      14    N1      18.759595   18.262967   21.224573 N.4        1 MOL1        -0.4809
      15    H10     19.138362   18.190760   20.267823 H          1 MOL1         0.3726
      16    H11     18.556895   19.263778   21.365086 H          1 MOL1         0.3726
      17    C5      17.486964   17.437621   21.358940 C.3        1 MOL1        -0.0677
      18    H12     16.753714   17.787187   20.628776 H          1 MOL1         0.1026
      19    H13     17.718567   16.386525   21.173627 H          1 MOL1         0.1026
      20    H14     17.086494   17.555370   22.368172 H          1 MOL1         0.1026
@<TRIPOS>BOND
    1     1     2    1
    2     1     3    1
    3     1     4    1
    4     1     5    1
    5     5     6    1
    6     5     7    1
    7     5     8    1
    8     8     9    1
    9     8    10    1
   10     8    11    1
   11    11    12    1
   12    11    13    1
   13    11    14    1
   14    14    15    1
   15    14    16    1
   16    14    17    1
   17    17    18    1
   18    17    19    1
   19    17    20    1
@<TRIPOS>SUBSTRUCTURE
       1 MOL1            1 RESIDUE      1      MOL     
@<SCITEGIC>MOL_PROPERTY
VConf Rank
SciTegic.value.IntegerValue
538

@<SCITEGIC>MOL_PROPERTY
Conf_Id
SciTegic.value.IntegerValue
35

@<SCITEGIC>MOL_PROPERTY
Delta U+W
SciTegic.value.DoubleValue
0.360

@<SCITEGIC>MOL_PROPERTY
U+W
SciTegic.value.DoubleValue
15.698

@<SCITEGIC>MOL_PROPERTY
Grad RMS
SciTegic.value.DoubleValue
0.000000

@<SCITEGIC>MOL_PROPERTY
U
SciTegic.value.DoubleValue
69.962

@<SCITEGIC>MOL_PROPERTY
W
SciTegic.value.DoubleValue
-54.264

@<SCITEGIC>MOL_PROPERTY
W(PB)
SciTegic.value.DoubleValue
-56.166

@<SCITEGIC>MOL_PROPERTY
W(SA)
SciTegic.value.DoubleValue
1.902

@<SCITEGIC>MOL_PROPERTY
Valence
SciTegic.value.DoubleValue
0.982

@<SCITEGIC>MOL_PROPERTY
Coulomb
SciTegic.value.DoubleValue
69.058

@<SCITEGIC>MOL_PROPERTY
VdW
SciTegic.value.DoubleValue
-0.078

@<SCITEGIC>MOL_PROPERTY
VdW6
SciTegic.value.DoubleValue
-3.548

@<SCITEGIC>MOL_PROPERTY
VdW12
SciTegic.value.DoubleValue
3.471

@<SCITEGIC>MOL_PROPERTY
Bond
SciTegic.value.DoubleValue
0.105

@<SCITEGIC>MOL_PROPERTY
Angle
SciTegic.value.DoubleValue
0.408

@<SCITEGIC>MOL_PROPERTY
Pdih
SciTegic.value.DoubleValue
0.469

@<SCITEGIC>MOL_PROPERTY
Idih
SciTegic.value.DoubleValue
0.000

@<SCITEGIC>MOL_PROPERTY
Tether
SciTegic.value.DoubleValue
0.000

@<TRIPOS>MOLECULE
guest-s9_confgen4.mol2 : confsearch ligand conformer 539
          20          19           1
SMALL
USER_CHARGES
 
@<TRIPOS>ATOM
       1    C1      19.157652   20.683533   20.565750 C.3        1 MOL1        -0.2224
       2    H1      18.657598   19.796742   20.156340 H          1 MOL1         0.1052
       3    H2      18.581655   21.563167   20.250399 H          1 MOL1         0.1052
       4    H3      20.154263   20.755582   20.111140 H          1 MOL1         0.1052
       5    C2      19.252467   20.621692   22.107631 C.3        1 MOL1        -0.1209
       6    H4      18.243473   20.544903   22.536820 H          1 MOL1         0.1041
       7    H5      19.674804   21.565937   22.479140 H          1 MOL1         0.1041
       8    C3      20.124382   19.448199   22.612161 C.3        1 MOL1        -0.1274
       9    H6      21.140637   19.550950   22.210440 H          1 MOL1         0.1041
      10    H7      20.210279   19.510671   23.704972 H          1 MOL1         0.1041
      11    C4      19.542674   18.070394   22.229102 C.3        1 MOL1         0.0313
      12    H8      19.513989   17.967990   21.141698 H          1 MOL1         0.1015
      13    H9      18.517853   18.002051   22.602788 H          1 MOL1         0.1015
      14    N1      20.308773   16.882827   22.788721 N.4        1 MOL1        -0.4809
      15    H10     19.769606   16.017464   22.628555 H          1 MOL1         0.3726
      16    H11     20.387019   16.959032   23.814289 H          1 MOL1         0.3726
      17    C5      21.686527   16.760374   22.146720 C.3        1 MOL1        -0.0677
      18    H12     22.274060   17.651471   22.376157 H          1 MOL1         0.1026
      19    H13     22.189936   15.877144   22.546028 H          1 MOL1         0.1026
      20    H14     21.571613   16.660751   21.065255 H          1 MOL1         0.1026
@<TRIPOS>BOND
    1     1     2    1
    2     1     3    1
    3     1     4    1
    4     1     5    1
    5     5     6    1
    6     5     7    1
    7     5     8    1
    8     8     9    1
    9     8    10    1
   10     8    11    1
   11    11    12    1
   12    11    13    1
   13    11    14    1
   14    14    15    1
   15    14    16    1
   16    14    17    1
   17    17    18    1
   18    17    19    1
   19    17    20    1
@<TRIPOS>SUBSTRUCTURE
       1 MOL1            1 RESIDUE      1      MOL     
@<SCITEGIC>MOL_PROPERTY
VConf Rank
SciTegic.value.IntegerValue
539

@<SCITEGIC>MOL_PROPERTY
Conf_Id
SciTegic.value.IntegerValue
33

@<SCITEGIC>MOL_PROPERTY
Delta U+W
SciTegic.value.DoubleValue
0.372

@<SCITEGIC>MOL_PROPERTY
U+W
SciTegic.value.DoubleValue
15.711

@<SCITEGIC>MOL_PROPERTY
Grad RMS
SciTegic.value.DoubleValue
0.000000

@<SCITEGIC>MOL_PROPERTY
U
SciTegic.value.DoubleValue
70.163

@<SCITEGIC>MOL_PROPERTY
W
SciTegic.value.DoubleValue
-54.452

@<SCITEGIC>MOL_PROPERTY
W(PB)
SciTegic.value.DoubleValue
-56.363

@<SCITEGIC>MOL_PROPERTY
W(SA)
SciTegic.value.DoubleValue
1.911

@<SCITEGIC>MOL_PROPERTY
Valence
SciTegic.value.DoubleValue
1.420

@<SCITEGIC>MOL_PROPERTY
Coulomb
SciTegic.value.DoubleValue
68.566

@<SCITEGIC>MOL_PROPERTY
VdW
SciTegic.value.DoubleValue
0.177

@<SCITEGIC>MOL_PROPERTY
VdW6
SciTegic.value.DoubleValue
-4.267

@<SCITEGIC>MOL_PROPERTY
VdW12
SciTegic.value.DoubleValue
4.445

@<SCITEGIC>MOL_PROPERTY
Bond
SciTegic.value.DoubleValue
0.146

@<SCITEGIC>MOL_PROPERTY
Angle
SciTegic.value.DoubleValue
0.581

@<SCITEGIC>MOL_PROPERTY
Pdih
SciTegic.value.DoubleValue
0.693

@<SCITEGIC>MOL_PROPERTY
Idih
SciTegic.value.DoubleValue
0.000

@<SCITEGIC>MOL_PROPERTY
Tether
SciTegic.value.DoubleValue
0.000

@<TRIPOS>MOLECULE
guest-s9_confgen4.mol2 : confsearch ligand conformer 540
          20          19           1
SMALL
USER_CHARGES
 
@<TRIPOS>ATOM
       1    C1      21.926930   20.240198   20.844535 C.3        1 MOL1        -0.2224
       2    H1      22.486644   20.772398   20.064500 H          1 MOL1         0.1052
       3    H2      21.300277   20.976938   21.362791 H          1 MOL1         0.1052
       4    H3      22.653336   19.841150   21.564389 H          1 MOL1         0.1052
       5    C2      21.077444   19.106830   20.224808 C.3        1 MOL1        -0.1209
       6    H4      21.733042   18.445347   19.641183 H          1 MOL1         0.1041
       7    H5      20.356303   19.532871   19.513042 H          1 MOL1         0.1041
       8    C3      20.328924   18.265052   21.284528 C.3        1 MOL1        -0.1274
       9    H6      19.811321   17.436852   20.782844 H          1 MOL1         0.1041
      10    H7      21.056777   17.811956   21.969834 H          1 MOL1         0.1041
      11    C4      19.299788   19.095073   22.081652 C.3        1 MOL1         0.0313
      12    H8      18.608258   19.569793   21.380942 H          1 MOL1         0.1015
      13    H9      19.810092   19.883420   22.640090 H          1 MOL1         0.1015
      14    N1      18.466000   18.291694   23.066428 N.4        1 MOL1        -0.4809
      15    H10     17.991987   17.514010   22.582449 H          1 MOL1         0.3726
      16    H11     17.701278   18.880374   23.432300 H          1 MOL1         0.3726
      17    C5      19.318076   17.774231   24.220363 C.3        1 MOL1        -0.0677
      18    H12     18.678890   17.235610   24.923421 H          1 MOL1         0.1026
      19    H13     20.083978   17.100188   23.831841 H          1 MOL1         0.1026
      20    H14     19.790238   18.619406   24.725774 H          1 MOL1         0.1026
@<TRIPOS>BOND
    1     1     2    1
    2     1     3    1
    3     1     4    1
    4     1     5    1
    5     5     6    1
    6     5     7    1
    7     5     8    1
    8     8     9    1
    9     8    10    1
   10     8    11    1
   11    11    12    1
   12    11    13    1
   13    11    14    1
   14    14    15    1
   15    14    16    1
   16    14    17    1
   17    17    18    1
   18    17    19    1
   19    17    20    1
@<TRIPOS>SUBSTRUCTURE
       1 MOL1            1 RESIDUE      1      MOL     
@<SCITEGIC>MOL_PROPERTY
VConf Rank
SciTegic.value.IntegerValue
540

@<SCITEGIC>MOL_PROPERTY
Conf_Id
SciTegic.value.IntegerValue
53

@<SCITEGIC>MOL_PROPERTY
Delta U+W
SciTegic.value.DoubleValue
0.379

@<SCITEGIC>MOL_PROPERTY
U+W
SciTegic.value.DoubleValue
15.717

@<SCITEGIC>MOL_PROPERTY
Grad RMS
SciTegic.value.DoubleValue
0.000000

@<SCITEGIC>MOL_PROPERTY
U
SciTegic.value.DoubleValue
70.163

@<SCITEGIC>MOL_PROPERTY
W
SciTegic.value.DoubleValue
-54.446

@<SCITEGIC>MOL_PROPERTY
W(PB)
SciTegic.value.DoubleValue
-56.322

@<SCITEGIC>MOL_PROPERTY
W(SA)
SciTegic.value.DoubleValue
1.876

@<SCITEGIC>MOL_PROPERTY
Valence
SciTegic.value.DoubleValue
1.420

@<SCITEGIC>MOL_PROPERTY
Coulomb
SciTegic.value.DoubleValue
68.566

@<SCITEGIC>MOL_PROPERTY
VdW
SciTegic.value.DoubleValue
0.177

@<SCITEGIC>MOL_PROPERTY
VdW6
SciTegic.value.DoubleValue
-4.267

@<SCITEGIC>MOL_PROPERTY
VdW12
SciTegic.value.DoubleValue
4.445

@<SCITEGIC>MOL_PROPERTY
Bond
SciTegic.value.DoubleValue
0.146

@<SCITEGIC>MOL_PROPERTY
Angle
SciTegic.value.DoubleValue
0.581

@<SCITEGIC>MOL_PROPERTY
Pdih
SciTegic.value.DoubleValue
0.693

@<SCITEGIC>MOL_PROPERTY
Idih
SciTegic.value.DoubleValue
0.000

@<SCITEGIC>MOL_PROPERTY
Tether
SciTegic.value.DoubleValue
0.000

@<TRIPOS>MOLECULE
guest-s9_confgen4.mol2 : confsearch ligand conformer 541
          20          19           1
SMALL
USER_CHARGES
 
@<TRIPOS>ATOM
       1    C1      22.830529   19.476805   22.216284 C.3        1 MOL1        -0.2224
       2    H1      23.367606   19.826318   23.107570 H          1 MOL1         0.1052
       3    H2      23.465669   18.738746   21.709319 H          1 MOL1         0.1052
       4    H3      22.700711   20.334905   21.543994 H          1 MOL1         0.1052
       5    C2      21.467631   18.864521   22.605614 C.3        1 MOL1        -0.1209
       6    H4      20.876475   19.618298   23.143213 H          1 MOL1         0.1041
       7    H5      21.628655   18.029937   23.302552 H          1 MOL1         0.1041
       8    C3      20.688939   18.365522   21.365710 C.3        1 MOL1        -0.1274
       9    H6      20.501516   19.200746   20.678676 H          1 MOL1         0.1041
      10    H7      21.308227   17.646187   20.813726 H          1 MOL1         0.1041
      11    C4      19.355075   17.677088   21.731121 C.3        1 MOL1         0.0313
      12    H8      19.564312   16.814038   22.368297 H          1 MOL1         0.1015
      13    H9      18.872368   17.311837   20.821132 H          1 MOL1         0.1015
      14    N1      18.349782   18.551393   22.465701 N.4        1 MOL1        -0.4809
      15    H10     18.766487   18.921272   23.332637 H          1 MOL1         0.3726
      16    H11     17.554252   17.973403   22.779202 H          1 MOL1         0.3726
      17    C5      17.848523   19.685601   21.578432 C.3        1 MOL1        -0.0677
      18    H12     17.395479   19.264462   20.678403 H          1 MOL1         0.1026
      19    H13     17.104566   20.267230   22.127219 H          1 MOL1         0.1026
      20    H14     18.687247   20.328794   21.304830 H          1 MOL1         0.1026
@<TRIPOS>BOND
    1     1     2    1
    2     1     3    1
    3     1     4    1
    4     1     5    1
    5     5     6    1
    6     5     7    1
    7     5     8    1
    8     8     9    1
    9     8    10    1
   10     8    11    1
   11    11    12    1
   12    11    13    1
   13    11    14    1
   14    14    15    1
   15    14    16    1
   16    14    17    1
   17    17    18    1
   18    17    19    1
   19    17    20    1
@<TRIPOS>SUBSTRUCTURE
       1 MOL1            1 RESIDUE      1      MOL     
@<SCITEGIC>MOL_PROPERTY
VConf Rank
SciTegic.value.IntegerValue
541

@<SCITEGIC>MOL_PROPERTY
Conf_Id
SciTegic.value.IntegerValue
49

@<SCITEGIC>MOL_PROPERTY
Delta U+W
SciTegic.value.DoubleValue
0.268

@<SCITEGIC>MOL_PROPERTY
U+W
SciTegic.value.DoubleValue
15.607

@<SCITEGIC>MOL_PROPERTY
Grad RMS
SciTegic.value.DoubleValue
0.000000

@<SCITEGIC>MOL_PROPERTY
U
SciTegic.value.DoubleValue
70.298

@<SCITEGIC>MOL_PROPERTY
W
SciTegic.value.DoubleValue
-54.692

@<SCITEGIC>MOL_PROPERTY
W(PB)
SciTegic.value.DoubleValue
-56.576

@<SCITEGIC>MOL_PROPERTY
W(SA)
SciTegic.value.DoubleValue
1.885

@<SCITEGIC>MOL_PROPERTY
Valence
SciTegic.value.DoubleValue
1.245

@<SCITEGIC>MOL_PROPERTY
Coulomb
SciTegic.value.DoubleValue
68.933

@<SCITEGIC>MOL_PROPERTY
VdW
SciTegic.value.DoubleValue
0.120

@<SCITEGIC>MOL_PROPERTY
VdW6
SciTegic.value.DoubleValue
-4.430

@<SCITEGIC>MOL_PROPERTY
VdW12
SciTegic.value.DoubleValue
4.550

@<SCITEGIC>MOL_PROPERTY
Bond
SciTegic.value.DoubleValue
0.148

@<SCITEGIC>MOL_PROPERTY
Angle
SciTegic.value.DoubleValue
0.587

@<SCITEGIC>MOL_PROPERTY
Pdih
SciTegic.value.DoubleValue
0.509

@<SCITEGIC>MOL_PROPERTY
Idih
SciTegic.value.DoubleValue
0.000

@<SCITEGIC>MOL_PROPERTY
Tether
SciTegic.value.DoubleValue
0.000

@<TRIPOS>MOLECULE
guest-s9_confgen4.mol2 : confsearch ligand conformer 542
          20          19           1
SMALL
USER_CHARGES
 
@<TRIPOS>ATOM
       1    C1      19.313185   19.761476   19.494720 C.3        1 MOL1        -0.2224
       2    H1      18.261697   19.451767   19.434526 H          1 MOL1         0.1052
       3    H2      19.346300   20.858750   19.500431 H          1 MOL1         0.1052
       4    H3      19.818306   19.415230   18.583695 H          1 MOL1         0.1052
       5    C2      19.993793   19.177031   20.751512 C.3        1 MOL1        -0.1209
       6    H4      21.050013   19.480459   20.769438 H          1 MOL1         0.1041
       7    H5      19.974367   18.081103   20.687381 H          1 MOL1         0.1041
       8    C3      19.293802   19.641159   22.050058 C.3        1 MOL1        -0.1274
       9    H6      19.217368   20.736548   22.043999 H          1 MOL1         0.1041
      10    H7      18.263970   19.261067   22.073088 H          1 MOL1         0.1041
      11    C4      20.024434   19.222833   23.346211 C.3        1 MOL1         0.0313
      12    H8      19.483597   19.655060   24.192035 H          1 MOL1         0.1015
      13    H9      21.038552   19.629888   23.359165 H          1 MOL1         0.1015
      14    N1      20.108275   17.725560   23.599994 N.4        1 MOL1        -0.4809
      15    H10     19.273547   17.249928   23.226039 H          1 MOL1         0.3726
      16    H11     20.078196   17.550562   24.616595 H          1 MOL1         0.3726
      17    C5      21.392218   17.133948   23.027167 C.3        1 MOL1        -0.0677
      18    H12     21.423489   16.065286   23.250641 H          1 MOL1         0.1026
      19    H13     21.417790   17.282348   21.947059 H          1 MOL1         0.1026
      20    H14     22.250339   17.629223   23.486535 H          1 MOL1         0.1026
@<TRIPOS>BOND
    1     1     2    1
    2     1     3    1
    3     1     4    1
    4     1     5    1
    5     5     6    1
    6     5     7    1
    7     5     8    1
    8     8     9    1
    9     8    10    1
   10     8    11    1
   11    11    12    1
   12    11    13    1
   13    11    14    1
   14    14    15    1
   15    14    16    1
   16    14    17    1
   17    17    18    1
   18    17    19    1
   19    17    20    1
@<TRIPOS>SUBSTRUCTURE
       1 MOL1            1 RESIDUE      1      MOL     
@<SCITEGIC>MOL_PROPERTY
VConf Rank
SciTegic.value.IntegerValue
542

@<SCITEGIC>MOL_PROPERTY
Conf_Id
SciTegic.value.IntegerValue
65

@<SCITEGIC>MOL_PROPERTY
Delta U+W
SciTegic.value.DoubleValue
1.775

@<SCITEGIC>MOL_PROPERTY
U+W
SciTegic.value.DoubleValue
17.114

@<SCITEGIC>MOL_PROPERTY
Grad RMS
SciTegic.value.DoubleValue
0.000000

@<SCITEGIC>MOL_PROPERTY
U
SciTegic.value.DoubleValue
71.726

@<SCITEGIC>MOL_PROPERTY
W
SciTegic.value.DoubleValue
-54.613

@<SCITEGIC>MOL_PROPERTY
W(PB)
SciTegic.value.DoubleValue
-56.495

@<SCITEGIC>MOL_PROPERTY
W(SA)
SciTegic.value.DoubleValue
1.883

@<SCITEGIC>MOL_PROPERTY
Valence
SciTegic.value.DoubleValue
2.885

@<SCITEGIC>MOL_PROPERTY
Coulomb
SciTegic.value.DoubleValue
68.822

@<SCITEGIC>MOL_PROPERTY
VdW
SciTegic.value.DoubleValue
0.019

@<SCITEGIC>MOL_PROPERTY
VdW6
SciTegic.value.DoubleValue
-4.600

@<SCITEGIC>MOL_PROPERTY
VdW12
SciTegic.value.DoubleValue
4.619

@<SCITEGIC>MOL_PROPERTY
Bond
SciTegic.value.DoubleValue
0.152

@<SCITEGIC>MOL_PROPERTY
Angle
SciTegic.value.DoubleValue
0.862

@<SCITEGIC>MOL_PROPERTY
Pdih
SciTegic.value.DoubleValue
1.871

@<SCITEGIC>MOL_PROPERTY
Idih
SciTegic.value.DoubleValue
0.000

@<SCITEGIC>MOL_PROPERTY
Tether
SciTegic.value.DoubleValue
0.000

@<TRIPOS>MOLECULE
guest-s9_confgen4.mol2 : confsearch ligand conformer 543
          20          19           1
SMALL
USER_CHARGES
 
@<TRIPOS>ATOM
       1    C1      21.713205   17.034772   21.758291 C.3        1 MOL1        -0.2224
       2    H1      20.951507   16.883041   22.533402 H          1 MOL1         0.1052
       3    H2      21.866011   16.072791   21.252107 H          1 MOL1         0.1052
       4    H3      22.655308   17.305947   22.252232 H          1 MOL1         0.1052
       5    C2      21.285433   18.119641   20.743283 C.3        1 MOL1        -0.1209
       6    H4      20.342525   17.825255   20.262794 H          1 MOL1         0.1041
       7    H5      22.032169   18.169747   19.938373 H          1 MOL1         0.1041
       8    C3      21.143952   19.524878   21.379906 C.3        1 MOL1        -0.1274
       9    H6      22.120930   19.847031   21.763959 H          1 MOL1         0.1041
      10    H7      20.866505   20.250619   20.603975 H          1 MOL1         0.1041
      11    C4      20.116331   19.592939   22.528962 C.3        1 MOL1         0.0313
      12    H8      20.100651   20.604954   22.941419 H          1 MOL1         0.1015
      13    H9      20.410428   18.906788   23.326753 H          1 MOL1         0.1015
      14    N1      18.700490   19.244829   22.110852 N.4        1 MOL1        -0.4809
      15    H10     18.675082   18.296260   21.708283 H          1 MOL1         0.3726
      16    H11     18.388128   19.873612   21.355233 H          1 MOL1         0.3726
      17    C5      17.765544   19.341872   23.308756 C.3        1 MOL1        -0.0677
      18    H12     17.785140   20.361871   23.698606 H          1 MOL1         0.1026
      19    H13     16.751081   19.087688   22.993756 H          1 MOL1         0.1026
      20    H14     18.096802   18.644581   24.081294 H          1 MOL1         0.1026
@<TRIPOS>BOND
    1     1     2    1
    2     1     3    1
    3     1     4    1
    4     1     5    1
    5     5     6    1
    6     5     7    1
    7     5     8    1
    8     8     9    1
    9     8    10    1
   10     8    11    1
   11    11    12    1
   12    11    13    1
   13    11    14    1
   14    14    15    1
   15    14    16    1
   16    14    17    1
   17    17    18    1
   18    17    19    1
   19    17    20    1
@<TRIPOS>SUBSTRUCTURE
       1 MOL1            1 RESIDUE      1      MOL     
@<SCITEGIC>MOL_PROPERTY
VConf Rank
SciTegic.value.IntegerValue
543

@<SCITEGIC>MOL_PROPERTY
Conf_Id
SciTegic.value.IntegerValue
23

@<SCITEGIC>MOL_PROPERTY
Delta U+W
SciTegic.value.DoubleValue
0.896

@<SCITEGIC>MOL_PROPERTY
U+W
SciTegic.value.DoubleValue
16.234

@<SCITEGIC>MOL_PROPERTY
Grad RMS
SciTegic.value.DoubleValue
0.000000

@<SCITEGIC>MOL_PROPERTY
U
SciTegic.value.DoubleValue
70.374

@<SCITEGIC>MOL_PROPERTY
W
SciTegic.value.DoubleValue
-54.140

@<SCITEGIC>MOL_PROPERTY
W(PB)
SciTegic.value.DoubleValue
-56.046

@<SCITEGIC>MOL_PROPERTY
W(SA)
SciTegic.value.DoubleValue
1.907

@<SCITEGIC>MOL_PROPERTY
Valence
SciTegic.value.DoubleValue
1.257

@<SCITEGIC>MOL_PROPERTY
Coulomb
SciTegic.value.DoubleValue
69.240

@<SCITEGIC>MOL_PROPERTY
VdW
SciTegic.value.DoubleValue
-0.123

@<SCITEGIC>MOL_PROPERTY
VdW6
SciTegic.value.DoubleValue
-4.336

@<SCITEGIC>MOL_PROPERTY
VdW12
SciTegic.value.DoubleValue
4.213

@<SCITEGIC>MOL_PROPERTY
Bond
SciTegic.value.DoubleValue
0.128

@<SCITEGIC>MOL_PROPERTY
Angle
SciTegic.value.DoubleValue
0.603

@<SCITEGIC>MOL_PROPERTY
Pdih
SciTegic.value.DoubleValue
0.526

@<SCITEGIC>MOL_PROPERTY
Idih
SciTegic.value.DoubleValue
0.000

@<SCITEGIC>MOL_PROPERTY
Tether
SciTegic.value.DoubleValue
0.000

@<TRIPOS>MOLECULE
guest-s9_confgen4.mol2 : confsearch ligand conformer 544
          20          19           1
SMALL
USER_CHARGES
 
@<TRIPOS>ATOM
       1    C1      22.277426   18.947415   23.007749 C.3        1 MOL1        -0.2224
       2    H1      22.255166   18.642106   24.061960 H          1 MOL1         0.1052
       3    H2      23.319230   19.175497   22.747741 H          1 MOL1         0.1052
       4    H3      21.701034   19.875748   22.907877 H          1 MOL1         0.1052
       5    C2      21.722488   17.830734   22.093837 C.3        1 MOL1        -0.1209
       6    H4      22.384343   16.955568   22.157385 H          1 MOL1         0.1041
       7    H5      21.755999   18.159484   21.046263 H          1 MOL1         0.1041
       8    C3      20.284134   17.396118   22.470991 C.3        1 MOL1        -0.1274
       9    H6      19.961488   16.585285   21.804513 H          1 MOL1         0.1041
      10    H7      20.288794   16.974388   23.484840 H          1 MOL1         0.1041
      11    C4      19.248702   18.538929   22.417781 C.3        1 MOL1         0.0313
      12    H8      19.538093   19.330340   23.113258 H          1 MOL1         0.1015
      13    H9      18.272046   18.157484   22.726294 H          1 MOL1         0.1015
      14    N1      19.086568   19.160057   21.043547 N.4        1 MOL1        -0.4809
      15    H10     18.813740   18.439615   20.357672 H          1 MOL1         0.3726
      16    H11     19.991737   19.526283   20.713337 H          1 MOL1         0.3726
      17    C5      18.047159   20.271619   21.094372 C.3        1 MOL1        -0.0677
      18    H12     18.373279   21.037274   21.801605 H          1 MOL1         0.1026
      19    H13     17.941738   20.710141   20.099609 H          1 MOL1         0.1026
      20    H14     17.090308   19.854877   21.416127 H          1 MOL1         0.1026
@<TRIPOS>BOND
    1     1     2    1
    2     1     3    1
    3     1     4    1
    4     1     5    1
    5     5     6    1
    6     5     7    1
    7     5     8    1
    8     8     9    1
    9     8    10    1
   10     8    11    1
   11    11    12    1
   12    11    13    1
   13    11    14    1
   14    14    15    1
   15    14    16    1
   16    14    17    1
   17    17    18    1
   18    17    19    1
   19    17    20    1
@<TRIPOS>SUBSTRUCTURE
       1 MOL1            1 RESIDUE      1      MOL     
@<SCITEGIC>MOL_PROPERTY
VConf Rank
SciTegic.value.IntegerValue
544

@<SCITEGIC>MOL_PROPERTY
Conf_Id
SciTegic.value.IntegerValue
24

@<SCITEGIC>MOL_PROPERTY
Delta U+W
SciTegic.value.DoubleValue
0.792

@<SCITEGIC>MOL_PROPERTY
U+W
SciTegic.value.DoubleValue
16.130

@<SCITEGIC>MOL_PROPERTY
Grad RMS
SciTegic.value.DoubleValue
0.000000

@<SCITEGIC>MOL_PROPERTY
U
SciTegic.value.DoubleValue
70.374

@<SCITEGIC>MOL_PROPERTY
W
SciTegic.value.DoubleValue
-54.243

@<SCITEGIC>MOL_PROPERTY
W(PB)
SciTegic.value.DoubleValue
-56.130

@<SCITEGIC>MOL_PROPERTY
W(SA)
SciTegic.value.DoubleValue
1.887

@<SCITEGIC>MOL_PROPERTY
Valence
SciTegic.value.DoubleValue
1.257

@<SCITEGIC>MOL_PROPERTY
Coulomb
SciTegic.value.DoubleValue
69.240

@<SCITEGIC>MOL_PROPERTY
VdW
SciTegic.value.DoubleValue
-0.123

@<SCITEGIC>MOL_PROPERTY
VdW6
SciTegic.value.DoubleValue
-4.336

@<SCITEGIC>MOL_PROPERTY
VdW12
SciTegic.value.DoubleValue
4.213

@<SCITEGIC>MOL_PROPERTY
Bond
SciTegic.value.DoubleValue
0.128

@<SCITEGIC>MOL_PROPERTY
Angle
SciTegic.value.DoubleValue
0.603

@<SCITEGIC>MOL_PROPERTY
Pdih
SciTegic.value.DoubleValue
0.526

@<SCITEGIC>MOL_PROPERTY
Idih
SciTegic.value.DoubleValue
0.000

@<SCITEGIC>MOL_PROPERTY
Tether
SciTegic.value.DoubleValue
0.000

@<TRIPOS>MOLECULE
guest-s9_confgen4.mol2 : confsearch ligand conformer 545
          20          19           1
SMALL
USER_CHARGES
 
@<TRIPOS>ATOM
       1    C1      18.541147   17.628122   23.222088 C.3        1 MOL1        -0.2224
       2    H1      18.103528   16.965050   23.979746 H          1 MOL1         0.1052
       3    H2      19.061973   18.429403   23.759431 H          1 MOL1         0.1052
       4    H3      17.714904   18.064399   22.645765 H          1 MOL1         0.1052
       5    C2      19.505489   16.835393   22.310448 C.3        1 MOL1        -0.1209
       6    H4      18.993837   15.925675   21.965931 H          1 MOL1         0.1041
       7    H5      20.367816   16.493584   22.900077 H          1 MOL1         0.1041
       8    C3      20.001807   17.616956   21.067200 C.3        1 MOL1        -0.1274
       9    H6      20.617804   16.936724   20.464165 H          1 MOL1         0.1041
      10    H7      19.153597   17.899720   20.429793 H          1 MOL1         0.1041
      11    C4      20.855021   18.860985   21.393856 C.3        1 MOL1         0.0313
      12    H8      21.455210   19.122314   20.518628 H          1 MOL1         0.1015
      13    H9      21.537076   18.635146   22.217313 H          1 MOL1         0.1015
      14    N1      20.049815   20.092996   21.760993 N.4        1 MOL1        -0.4809
      15    H10     19.424634   19.882608   22.551882 H          1 MOL1         0.3726
      16    H11     19.427298   20.354908   20.981324 H          1 MOL1         0.3726
      17    C5      20.985616   21.243039   22.107534 C.3        1 MOL1        -0.0677
      18    H12     21.611268   20.955074   22.955121 H          1 MOL1         0.1026
      19    H13     21.614693   21.467607   21.243476 H          1 MOL1         0.1026
      20    H14     20.392560   22.122071   22.369370 H          1 MOL1         0.1026
@<TRIPOS>BOND
    1     1     2    1
    2     1     3    1
    3     1     4    1
    4     1     5    1
    5     5     6    1
    6     5     7    1
    7     5     8    1
    8     8     9    1
    9     8    10    1
   10     8    11    1
   11    11    12    1
   12    11    13    1
   13    11    14    1
   14    14    15    1
   15    14    16    1
   16    14    17    1
   17    17    18    1
   18    17    19    1
   19    17    20    1
@<TRIPOS>SUBSTRUCTURE
       1 MOL1            1 RESIDUE      1      MOL     
@<SCITEGIC>MOL_PROPERTY
VConf Rank
SciTegic.value.IntegerValue
545

@<SCITEGIC>MOL_PROPERTY
Conf_Id
SciTegic.value.IntegerValue
26

@<SCITEGIC>MOL_PROPERTY
Delta U+W
SciTegic.value.DoubleValue
2.888

@<SCITEGIC>MOL_PROPERTY
U+W
SciTegic.value.DoubleValue
18.226

@<SCITEGIC>MOL_PROPERTY
Grad RMS
SciTegic.value.DoubleValue
0.000000

@<SCITEGIC>MOL_PROPERTY
U
SciTegic.value.DoubleValue
72.042

@<SCITEGIC>MOL_PROPERTY
W
SciTegic.value.DoubleValue
-53.816

@<SCITEGIC>MOL_PROPERTY
W(PB)
SciTegic.value.DoubleValue
-55.689

@<SCITEGIC>MOL_PROPERTY
W(SA)
SciTegic.value.DoubleValue
1.873

@<SCITEGIC>MOL_PROPERTY
Valence
SciTegic.value.DoubleValue
2.428

@<SCITEGIC>MOL_PROPERTY
Coulomb
SciTegic.value.DoubleValue
69.829

@<SCITEGIC>MOL_PROPERTY
VdW
SciTegic.value.DoubleValue
-0.215

@<SCITEGIC>MOL_PROPERTY
VdW6
SciTegic.value.DoubleValue
-4.563

@<SCITEGIC>MOL_PROPERTY
VdW12
SciTegic.value.DoubleValue
4.348

@<SCITEGIC>MOL_PROPERTY
Bond
SciTegic.value.DoubleValue
0.137

@<SCITEGIC>MOL_PROPERTY
Angle
SciTegic.value.DoubleValue
0.936

@<SCITEGIC>MOL_PROPERTY
Pdih
SciTegic.value.DoubleValue
1.356

@<SCITEGIC>MOL_PROPERTY
Idih
SciTegic.value.DoubleValue
0.000

@<SCITEGIC>MOL_PROPERTY
Tether
SciTegic.value.DoubleValue
0.000

@<TRIPOS>MOLECULE
guest-s9_confgen4.mol2 : confsearch ligand conformer 546
          20          19           1
SMALL
USER_CHARGES
 
@<TRIPOS>ATOM
       1    C1      21.504384   17.847258   23.334825 C.3        1 MOL1        -0.2224
       2    H1      21.942465   17.298260   24.178569 H          1 MOL1         0.1052
       3    H2      22.314692   18.073791   22.629666 H          1 MOL1         0.1052
       4    H3      21.108078   18.787809   23.735268 H          1 MOL1         0.1052
       5    C2      20.395961   17.003130   22.665266 C.3        1 MOL1        -0.1209
       6    H4      19.559691   16.875291   23.366990 H          1 MOL1         0.1041
       7    H5      20.789702   15.994624   22.475659 H          1 MOL1         0.1041
       8    C3      19.868881   17.581058   21.326976 C.3        1 MOL1        -0.1274
       9    H6      20.681552   17.643592   20.591203 H          1 MOL1         0.1041
      10    H7      19.142921   16.868316   20.913697 H          1 MOL1         0.1041
      11    C4      19.165807   18.949098   21.455178 C.3        1 MOL1         0.0313
      12    H8      18.539242   18.959824   22.350492 H          1 MOL1         0.1015
      13    H9      18.519246   19.101131   20.587198 H          1 MOL1         0.1015
      14    N1      20.110222   20.134617   21.515392 N.4        1 MOL1        -0.4809
      15    H10     20.684882   20.173834   20.659685 H          1 MOL1         0.3726
      16    H11     20.778987   20.013475   22.289148 H          1 MOL1         0.3726
      17    C5      19.318238   21.423678   21.687126 C.3        1 MOL1        -0.0677
      18    H12     18.743890   21.372387   22.614629 H          1 MOL1         0.1026
      19    H13     20.010466   22.267514   21.728753 H          1 MOL1         0.1026
      20    H14     18.640638   21.545063   20.839253 H          1 MOL1         0.1026
@<TRIPOS>BOND
    1     1     2    1
    2     1     3    1
    3     1     4    1
    4     1     5    1
    5     5     6    1
    6     5     7    1
    7     5     8    1
    8     8     9    1
    9     8    10    1
   10     8    11    1
   11    11    12    1
   12    11    13    1
   13    11    14    1
   14    14    15    1
   15    14    16    1
   16    14    17    1
   17    17    18    1
   18    17    19    1
   19    17    20    1
@<TRIPOS>SUBSTRUCTURE
       1 MOL1            1 RESIDUE      1      MOL     
@<SCITEGIC>MOL_PROPERTY
VConf Rank
SciTegic.value.IntegerValue
546

@<SCITEGIC>MOL_PROPERTY
Conf_Id
SciTegic.value.IntegerValue
5

@<SCITEGIC>MOL_PROPERTY
Delta U+W
SciTegic.value.DoubleValue
2.950

@<SCITEGIC>MOL_PROPERTY
U+W
SciTegic.value.DoubleValue
18.289

@<SCITEGIC>MOL_PROPERTY
Grad RMS
SciTegic.value.DoubleValue
0.000000

@<SCITEGIC>MOL_PROPERTY
U
SciTegic.value.DoubleValue
72.042

@<SCITEGIC>MOL_PROPERTY
W
SciTegic.value.DoubleValue
-53.753

@<SCITEGIC>MOL_PROPERTY
W(PB)
SciTegic.value.DoubleValue
-55.644

@<SCITEGIC>MOL_PROPERTY
W(SA)
SciTegic.value.DoubleValue
1.891

@<SCITEGIC>MOL_PROPERTY
Valence
SciTegic.value.DoubleValue
2.428

@<SCITEGIC>MOL_PROPERTY
Coulomb
SciTegic.value.DoubleValue
69.829

@<SCITEGIC>MOL_PROPERTY
VdW
SciTegic.value.DoubleValue
-0.215

@<SCITEGIC>MOL_PROPERTY
VdW6
SciTegic.value.DoubleValue
-4.563

@<SCITEGIC>MOL_PROPERTY
VdW12
SciTegic.value.DoubleValue
4.348

@<SCITEGIC>MOL_PROPERTY
Bond
SciTegic.value.DoubleValue
0.137

@<SCITEGIC>MOL_PROPERTY
Angle
SciTegic.value.DoubleValue
0.936

@<SCITEGIC>MOL_PROPERTY
Pdih
SciTegic.value.DoubleValue
1.356

@<SCITEGIC>MOL_PROPERTY
Idih
SciTegic.value.DoubleValue
0.000

@<SCITEGIC>MOL_PROPERTY
Tether
SciTegic.value.DoubleValue
0.000

@<TRIPOS>MOLECULE
guest-s9_confgen4.mol2 : confsearch ligand conformer 547
          20          19           1
SMALL
USER_CHARGES
 
@<TRIPOS>ATOM
       1    C1      18.700560   16.867366   22.386279 C.3        1 MOL1        -0.2224
       2    H1      18.443050   16.717490   23.442822 H          1 MOL1         0.1052
       3    H2      18.040879   17.644411   21.980325 H          1 MOL1         0.1052
       4    H3      18.479593   15.933828   21.852757 H          1 MOL1         0.1052
       5    C2      20.191460   17.243724   22.225927 C.3        1 MOL1        -0.1209
       6    H4      20.426069   17.384668   21.162039 H          1 MOL1         0.1041
       7    H5      20.810785   16.400826   22.563348 H          1 MOL1         0.1041
       8    C3      20.588544   18.507152   23.029276 C.3        1 MOL1        -0.1274
       9    H6      20.437639   18.316147   24.099920 H          1 MOL1         0.1041
      10    H7      21.662845   18.694892   22.905250 H          1 MOL1         0.1041
      11    C4      19.795032   19.775234   22.639611 C.3        1 MOL1         0.0313
      12    H8      20.133779   20.618946   23.246092 H          1 MOL1         0.1015
      13    H9      18.736330   19.612661   22.855943 H          1 MOL1         0.1015
      14    N1      19.903343   20.183403   21.178451 N.4        1 MOL1        -0.4809
      15    H10     19.237677   20.947259   20.982319 H          1 MOL1         0.3726
      16    H11     19.604199   19.405707   20.571980 H          1 MOL1         0.3726
      17    C5      21.320020   20.627415   20.831316 C.3        1 MOL1        -0.0677
      18    H12     22.008035   19.793433   20.983295 H          1 MOL1         0.1026
      19    H13     21.350501   20.941976   19.785836 H          1 MOL1         0.1026
      20    H14     21.602642   21.462896   21.475312 H          1 MOL1         0.1026
@<TRIPOS>BOND
    1     1     2    1
    2     1     3    1
    3     1     4    1
    4     1     5    1
    5     5     6    1
    6     5     7    1
    7     5     8    1
    8     8     9    1
    9     8    10    1
   10     8    11    1
   11    11    12    1
   12    11    13    1
   13    11    14    1
   14    14    15    1
   15    14    16    1
   16    14    17    1
   17    17    18    1
   18    17    19    1
   19    17    20    1
@<TRIPOS>SUBSTRUCTURE
       1 MOL1            1 RESIDUE      1      MOL     
@<SCITEGIC>MOL_PROPERTY
VConf Rank
SciTegic.value.IntegerValue
547

@<SCITEGIC>MOL_PROPERTY
Conf_Id
SciTegic.value.IntegerValue
52

@<SCITEGIC>MOL_PROPERTY
Delta U+W
SciTegic.value.DoubleValue
0.784

@<SCITEGIC>MOL_PROPERTY
U+W
SciTegic.value.DoubleValue
16.122

@<SCITEGIC>MOL_PROPERTY
Grad RMS
SciTegic.value.DoubleValue
0.000000

@<SCITEGIC>MOL_PROPERTY
U
SciTegic.value.DoubleValue
70.777

@<SCITEGIC>MOL_PROPERTY
W
SciTegic.value.DoubleValue
-54.655

@<SCITEGIC>MOL_PROPERTY
W(PB)
SciTegic.value.DoubleValue
-56.491

@<SCITEGIC>MOL_PROPERTY
W(SA)
SciTegic.value.DoubleValue
1.836

@<SCITEGIC>MOL_PROPERTY
Valence
SciTegic.value.DoubleValue
1.529

@<SCITEGIC>MOL_PROPERTY
Coulomb
SciTegic.value.DoubleValue
69.166

@<SCITEGIC>MOL_PROPERTY
VdW
SciTegic.value.DoubleValue
0.082

@<SCITEGIC>MOL_PROPERTY
VdW6
SciTegic.value.DoubleValue
-5.166

@<SCITEGIC>MOL_PROPERTY
VdW12
SciTegic.value.DoubleValue
5.248

@<SCITEGIC>MOL_PROPERTY
Bond
SciTegic.value.DoubleValue
0.171

@<SCITEGIC>MOL_PROPERTY
Angle
SciTegic.value.DoubleValue
0.752

@<SCITEGIC>MOL_PROPERTY
Pdih
SciTegic.value.DoubleValue
0.605

@<SCITEGIC>MOL_PROPERTY
Idih
SciTegic.value.DoubleValue
0.000

@<SCITEGIC>MOL_PROPERTY
Tether
SciTegic.value.DoubleValue
0.000

@<TRIPOS>MOLECULE
guest-s9_confgen4.mol2 : confsearch ligand conformer 548
          20          19           1
SMALL
USER_CHARGES
 
@<TRIPOS>ATOM
       1    C1      20.530612   18.241930   23.962920 C.3        1 MOL1        -0.2224
       2    H1      20.888672   17.768407   24.886358 H          1 MOL1         0.1052
       3    H2      21.147023   19.133446   23.800470 H          1 MOL1         0.1052
       4    H3      19.491543   18.554280   24.130494 H          1 MOL1         0.1052
       5    C2      20.636317   17.253685   22.779044 C.3        1 MOL1        -0.1209
       6    H4      20.199684   16.293091   23.086673 H          1 MOL1         0.1041
       7    H5      21.694733   17.050486   22.563445 H          1 MOL1         0.1041
       8    C3      19.919521   17.721491   21.486688 C.3        1 MOL1        -0.1274
       9    H6      19.981053   16.905833   20.754225 H          1 MOL1         0.1041
      10    H7      18.849118   17.868157   21.678072 H          1 MOL1         0.1041
      11    C4      20.530467   18.982759   20.832853 C.3        1 MOL1         0.0313
      12    H8      20.201330   19.043749   19.792482 H          1 MOL1         0.1015
      13    H9      21.619633   18.892287   20.832820 H          1 MOL1         0.1015
      14    N1      20.172117   20.306835   21.489297 N.4        1 MOL1        -0.4809
      15    H10     20.770661   21.055363   21.106398 H          1 MOL1         0.3726
      16    H11     20.390923   20.273150   22.494697 H          1 MOL1         0.3726
      17    C5      18.704249   20.654590   21.267593 C.3        1 MOL1        -0.0677
      18    H12     18.503558   20.698553   20.195011 H          1 MOL1         0.1026
      19    H13     18.076118   19.891340   21.730751 H          1 MOL1         0.1026
      20    H14     18.494388   21.625859   21.720922 H          1 MOL1         0.1026
@<TRIPOS>BOND
    1     1     2    1
    2     1     3    1
    3     1     4    1
    4     1     5    1
    5     5     6    1
    6     5     7    1
    7     5     8    1
    8     8     9    1
    9     8    10    1
   10     8    11    1
   11    11    12    1
   12    11    13    1
   13    11    14    1
   14    14    15    1
   15    14    16    1
   16    14    17    1
   17    17    18    1
   18    17    19    1
   19    17    20    1
@<TRIPOS>SUBSTRUCTURE
       1 MOL1            1 RESIDUE      1      MOL     
@<SCITEGIC>MOL_PROPERTY
VConf Rank
SciTegic.value.IntegerValue
548

@<SCITEGIC>MOL_PROPERTY
Conf_Id
SciTegic.value.IntegerValue
55

@<SCITEGIC>MOL_PROPERTY
Delta U+W
SciTegic.value.DoubleValue
2.745

@<SCITEGIC>MOL_PROPERTY
U+W
SciTegic.value.DoubleValue
18.083

@<SCITEGIC>MOL_PROPERTY
Grad RMS
SciTegic.value.DoubleValue
0.000000

@<SCITEGIC>MOL_PROPERTY
U
SciTegic.value.DoubleValue
72.490

@<SCITEGIC>MOL_PROPERTY
W
SciTegic.value.DoubleValue
-54.407

@<SCITEGIC>MOL_PROPERTY
W(PB)
SciTegic.value.DoubleValue
-56.269

@<SCITEGIC>MOL_PROPERTY
W(SA)
SciTegic.value.DoubleValue
1.861

@<SCITEGIC>MOL_PROPERTY
Valence
SciTegic.value.DoubleValue
2.738

@<SCITEGIC>MOL_PROPERTY
Coulomb
SciTegic.value.DoubleValue
69.795

@<SCITEGIC>MOL_PROPERTY
VdW
SciTegic.value.DoubleValue
-0.043

@<SCITEGIC>MOL_PROPERTY
VdW6
SciTegic.value.DoubleValue
-5.333

@<SCITEGIC>MOL_PROPERTY
VdW12
SciTegic.value.DoubleValue
5.290

@<SCITEGIC>MOL_PROPERTY
Bond
SciTegic.value.DoubleValue
0.182

@<SCITEGIC>MOL_PROPERTY
Angle
SciTegic.value.DoubleValue
1.135

@<SCITEGIC>MOL_PROPERTY
Pdih
SciTegic.value.DoubleValue
1.422

@<SCITEGIC>MOL_PROPERTY
Idih
SciTegic.value.DoubleValue
0.000

@<SCITEGIC>MOL_PROPERTY
Tether
SciTegic.value.DoubleValue
0.000

@<TRIPOS>MOLECULE
guest-s9_confgen4.mol2 : confsearch ligand conformer 549
          20          19           1
SMALL
USER_CHARGES
 
@<TRIPOS>ATOM
       1    C1      17.869679   18.565685   22.016270 C.3        1 MOL1        -0.2224
       2    H1      16.799828   18.402750   21.831777 H          1 MOL1         0.1052
       3    H2      18.109507   18.126077   22.993274 H          1 MOL1         0.1052
       4    H3      18.024274   19.649483   22.067572 H          1 MOL1         0.1052
       5    C2      18.710846   17.923679   20.889488 C.3        1 MOL1        -0.1209
       6    H4      18.533668   18.460850   19.947112 H          1 MOL1         0.1041
       7    H5      18.350413   16.898247   20.726381 H          1 MOL1         0.1041
       8    C3      20.232414   17.863445   21.179374 C.3        1 MOL1        -0.1274
       9    H6      20.423135   17.276520   22.086594 H          1 MOL1         0.1041
      10    H7      20.708735   17.307855   20.360824 H          1 MOL1         0.1041
      11    C4      20.924793   19.243179   21.271580 C.3        1 MOL1         0.0313
      12    H8      20.564182   19.878079   20.458358 H          1 MOL1         0.1015
      13    H9      22.002153   19.114304   21.140779 H          1 MOL1         0.1015
      14    N1      20.723977   19.997375   22.576712 N.4        1 MOL1        -0.4809
      15    H10     19.719464   20.077068   22.787523 H          1 MOL1         0.3726
      16    H11     21.056407   20.968498   22.469146 H          1 MOL1         0.3726
      17    C5      21.464734   19.321785   23.725441 C.3        1 MOL1        -0.0677
      18    H12     21.064118   18.317461   23.875307 H          1 MOL1         0.1026
      19    H13     22.527910   19.263994   23.482634 H          1 MOL1         0.1026
      20    H14     21.326917   19.910318   24.635136 H          1 MOL1         0.1026
@<TRIPOS>BOND
    1     1     2    1
    2     1     3    1
    3     1     4    1
    4     1     5    1
    5     5     6    1
    6     5     7    1
    7     5     8    1
    8     8     9    1
    9     8    10    1
   10     8    11    1
   11    11    12    1
   12    11    13    1
   13    11    14    1
   14    14    15    1
   15    14    16    1
   16    14    17    1
   17    17    18    1
   18    17    19    1
   19    17    20    1
@<TRIPOS>SUBSTRUCTURE
       1 MOL1            1 RESIDUE      1      MOL     
@<SCITEGIC>MOL_PROPERTY
VConf Rank
SciTegic.value.IntegerValue
549

@<SCITEGIC>MOL_PROPERTY
Conf_Id
SciTegic.value.IntegerValue
76

@<SCITEGIC>MOL_PROPERTY
Delta U+W
SciTegic.value.DoubleValue
2.799

@<SCITEGIC>MOL_PROPERTY
U+W
SciTegic.value.DoubleValue
18.137

@<SCITEGIC>MOL_PROPERTY
Grad RMS
SciTegic.value.DoubleValue
0.000000

@<SCITEGIC>MOL_PROPERTY
U
SciTegic.value.DoubleValue
72.490

@<SCITEGIC>MOL_PROPERTY
W
SciTegic.value.DoubleValue
-54.353

@<SCITEGIC>MOL_PROPERTY
W(PB)
SciTegic.value.DoubleValue
-56.201

@<SCITEGIC>MOL_PROPERTY
W(SA)
SciTegic.value.DoubleValue
1.848

@<SCITEGIC>MOL_PROPERTY
Valence
SciTegic.value.DoubleValue
2.738

@<SCITEGIC>MOL_PROPERTY
Coulomb
SciTegic.value.DoubleValue
69.795

@<SCITEGIC>MOL_PROPERTY
VdW
SciTegic.value.DoubleValue
-0.043

@<SCITEGIC>MOL_PROPERTY
VdW6
SciTegic.value.DoubleValue
-5.334

@<SCITEGIC>MOL_PROPERTY
VdW12
SciTegic.value.DoubleValue
5.290

@<SCITEGIC>MOL_PROPERTY
Bond
SciTegic.value.DoubleValue
0.182

@<SCITEGIC>MOL_PROPERTY
Angle
SciTegic.value.DoubleValue
1.135

@<SCITEGIC>MOL_PROPERTY
Pdih
SciTegic.value.DoubleValue
1.421

@<SCITEGIC>MOL_PROPERTY
Idih
SciTegic.value.DoubleValue
0.000

@<SCITEGIC>MOL_PROPERTY
Tether
SciTegic.value.DoubleValue
0.000

@<TRIPOS>MOLECULE
guest-s9_confgen4.mol2 : confsearch ligand conformer 550
          20          19           1
SMALL
USER_CHARGES
 
@<TRIPOS>ATOM
       1    C1      20.505108   18.092960   19.992912 C.3        1 MOL1        -0.2224
       2    H1      20.342351   19.170666   20.115833 H          1 MOL1         0.1052
       3    H2      21.563531   17.933667   19.749358 H          1 MOL1         0.1052
       4    H3      19.910479   17.764029   19.130900 H          1 MOL1         0.1052
       5    C2      20.103328   17.305464   21.261370 C.3        1 MOL1        -0.1209
       6    H4      20.216825   16.230748   21.061531 H          1 MOL1         0.1041
       7    H5      19.038085   17.456829   21.478411 H          1 MOL1         0.1041
       8    C3      20.957743   17.671630   22.499653 C.3        1 MOL1        -0.1274
       9    H6      20.650999   17.048464   23.349935 H          1 MOL1         0.1041
      10    H7      22.003521   17.406887   22.294943 H          1 MOL1         0.1041
      11    C4      20.910363   19.159336   22.920563 C.3        1 MOL1         0.0313
      12    H8      21.202803   19.803586   22.088105 H          1 MOL1         0.1015
      13    H9      21.640892   19.303103   23.720766 H          1 MOL1         0.1015
      14    N1      19.574953   19.647312   23.462324 N.4        1 MOL1        -0.4809
      15    H10     19.742747   20.386439   24.162564 H          1 MOL1         0.3726
      16    H11     19.102177   18.894122   23.983698 H          1 MOL1         0.3726
      17    C5      18.684645   20.200692   22.354908 C.3        1 MOL1        -0.0677
      18    H12     17.753486   20.565067   22.794340 H          1 MOL1         0.1026
      19    H13     19.201843   21.024063   21.857759 H          1 MOL1         0.1026
      20    H14     18.464094   19.415028   21.631643 H          1 MOL1         0.1026
@<TRIPOS>BOND
    1     1     2    1
    2     1     3    1
    3     1     4    1
    4     1     5    1
    5     5     6    1
    6     5     7    1
    7     5     8    1
    8     8     9    1
    9     8    10    1
   10     8    11    1
   11    11    12    1
   12    11    13    1
   13    11    14    1
   14    14    15    1
   15    14    16    1
   16    14    17    1
   17    17    18    1
   18    17    19    1
   19    17    20    1
@<TRIPOS>SUBSTRUCTURE
       1 MOL1            1 RESIDUE      1      MOL     
@<SCITEGIC>MOL_PROPERTY
VConf Rank
SciTegic.value.IntegerValue
550

@<SCITEGIC>MOL_PROPERTY
Conf_Id
SciTegic.value.IntegerValue
60

@<SCITEGIC>MOL_PROPERTY
Delta U+W
SciTegic.value.DoubleValue
1.788

@<SCITEGIC>MOL_PROPERTY
U+W
SciTegic.value.DoubleValue
17.127

@<SCITEGIC>MOL_PROPERTY
Grad RMS
SciTegic.value.DoubleValue
0.000000

@<SCITEGIC>MOL_PROPERTY
U
SciTegic.value.DoubleValue
72.122

@<SCITEGIC>MOL_PROPERTY
W
SciTegic.value.DoubleValue
-54.995

@<SCITEGIC>MOL_PROPERTY
W(PB)
SciTegic.value.DoubleValue
-56.810

@<SCITEGIC>MOL_PROPERTY
W(SA)
SciTegic.value.DoubleValue
1.815

@<SCITEGIC>MOL_PROPERTY
Valence
SciTegic.value.DoubleValue
3.197

@<SCITEGIC>MOL_PROPERTY
Coulomb
SciTegic.value.DoubleValue
69.115

@<SCITEGIC>MOL_PROPERTY
VdW
SciTegic.value.DoubleValue
-0.190

@<SCITEGIC>MOL_PROPERTY
VdW6
SciTegic.value.DoubleValue
-5.585

@<SCITEGIC>MOL_PROPERTY
VdW12
SciTegic.value.DoubleValue
5.395

@<SCITEGIC>MOL_PROPERTY
Bond
SciTegic.value.DoubleValue
0.177

@<SCITEGIC>MOL_PROPERTY
Angle
SciTegic.value.DoubleValue
1.207

@<SCITEGIC>MOL_PROPERTY
Pdih
SciTegic.value.DoubleValue
1.813

@<SCITEGIC>MOL_PROPERTY
Idih
SciTegic.value.DoubleValue
0.000

@<SCITEGIC>MOL_PROPERTY
Tether
SciTegic.value.DoubleValue
0.000

@<TRIPOS>MOLECULE
guest-s9_confgen4.mol2 : confsearch ligand conformer 551
          20          19           1
SMALL
USER_CHARGES
 
@<TRIPOS>ATOM
       1    C1      21.787298   20.037003   22.577747 C.3        1 MOL1        -0.2224
       2    H1      22.821180   19.869868   22.906378 H          1 MOL1         0.1052
       3    H2      21.656731   21.115462   22.420173 H          1 MOL1         0.1052
       4    H3      21.125558   19.729881   23.396786 H          1 MOL1         0.1052
       5    C2      21.496080   19.247745   21.280510 C.3        1 MOL1        -0.1209
       6    H4      21.652778   18.174378   21.448118 H          1 MOL1         0.1041
       7    H5      22.229624   19.540074   20.516122 H          1 MOL1         0.1041
       8    C3      20.073527   19.498964   20.723122 C.3        1 MOL1        -0.1274
       9    H6      19.982182   20.561233   20.460661 H          1 MOL1         0.1041
      10    H7      19.948552   18.945458   19.783218 H          1 MOL1         0.1041
      11    C4      18.913663   19.137246   21.680490 C.3        1 MOL1         0.0313
      12    H8      17.981952   19.471795   21.217179 H          1 MOL1         0.1015
      13    H9      19.018857   19.668500   22.629315 H          1 MOL1         0.1015
      14    N1      18.741572   17.654341   21.974289 N.4        1 MOL1        -0.4809
      15    H10     18.990835   17.093008   21.146388 H          1 MOL1         0.3726
      16    H11     17.742261   17.454449   22.136220 H          1 MOL1         0.3726
      17    C5      19.542130   17.224818   23.198977 C.3        1 MOL1        -0.0677
      18    H12     19.217464   17.809928   24.062011 H          1 MOL1         0.1026
      19    H13     19.363849   16.163900   23.387647 H          1 MOL1         0.1026
      20    H14     20.605185   17.390457   23.021500 H          1 MOL1         0.1026
@<TRIPOS>BOND
    1     1     2    1
    2     1     3    1
    3     1     4    1
    4     1     5    1
    5     5     6    1
    6     5     7    1
    7     5     8    1
    8     8     9    1
    9     8    10    1
   10     8    11    1
   11    11    12    1
   12    11    13    1
   13    11    14    1
   14    14    15    1
   15    14    16    1
   16    14    17    1
   17    17    18    1
   18    17    19    1
   19    17    20    1
@<TRIPOS>SUBSTRUCTURE
       1 MOL1            1 RESIDUE      1      MOL     
@<SCITEGIC>MOL_PROPERTY
VConf Rank
SciTegic.value.IntegerValue
551

@<SCITEGIC>MOL_PROPERTY
Conf_Id
SciTegic.value.IntegerValue
54

@<SCITEGIC>MOL_PROPERTY
Delta U+W
SciTegic.value.DoubleValue
1.880

@<SCITEGIC>MOL_PROPERTY
U+W
SciTegic.value.DoubleValue
17.218

@<SCITEGIC>MOL_PROPERTY
Grad RMS
SciTegic.value.DoubleValue
0.000000

@<SCITEGIC>MOL_PROPERTY
U
SciTegic.value.DoubleValue
72.122

@<SCITEGIC>MOL_PROPERTY
W
SciTegic.value.DoubleValue
-54.903

@<SCITEGIC>MOL_PROPERTY
W(PB)
SciTegic.value.DoubleValue
-56.724

@<SCITEGIC>MOL_PROPERTY
W(SA)
SciTegic.value.DoubleValue
1.821

@<SCITEGIC>MOL_PROPERTY
Valence
SciTegic.value.DoubleValue
3.197

@<SCITEGIC>MOL_PROPERTY
Coulomb
SciTegic.value.DoubleValue
69.115

@<SCITEGIC>MOL_PROPERTY
VdW
SciTegic.value.DoubleValue
-0.190

@<SCITEGIC>MOL_PROPERTY
VdW6
SciTegic.value.DoubleValue
-5.585

@<SCITEGIC>MOL_PROPERTY
VdW12
SciTegic.value.DoubleValue
5.395

@<SCITEGIC>MOL_PROPERTY
Bond
SciTegic.value.DoubleValue
0.177

@<SCITEGIC>MOL_PROPERTY
Angle
SciTegic.value.DoubleValue
1.207

@<SCITEGIC>MOL_PROPERTY
Pdih
SciTegic.value.DoubleValue
1.813

@<SCITEGIC>MOL_PROPERTY
Idih
SciTegic.value.DoubleValue
0.000

@<SCITEGIC>MOL_PROPERTY
Tether
SciTegic.value.DoubleValue
0.000

@<TRIPOS>MOLECULE
guest-s9_confgen4.mol2 : confsearch ligand conformer 552
          20          19           1
SMALL
USER_CHARGES
 
@<TRIPOS>ATOM
       1    C1      22.446162   19.649017   23.974179 C.3        1 MOL1        -0.2224
       2    H1      22.419328   20.728259   23.774941 H          1 MOL1         0.1052
       3    H2      22.686074   19.509248   25.036221 H          1 MOL1         0.1052
       4    H3      23.263424   19.213160   23.384869 H          1 MOL1         0.1052
       5    C2      21.095479   18.985634   23.628044 C.3        1 MOL1        -0.1209
       6    H4      20.304596   19.417630   24.257516 H          1 MOL1         0.1041
       7    H5      21.142081   17.914451   23.870424 H          1 MOL1         0.1041
       8    C3      20.731638   19.166668   22.137874 C.3        1 MOL1        -0.1274
       9    H6      20.681850   20.237025   21.897407 H          1 MOL1         0.1041
      10    H7      21.520575   18.731898   21.509767 H          1 MOL1         0.1041
      11    C4      19.383802   18.502422   21.800687 C.3        1 MOL1         0.0313
      12    H8      18.593552   18.943771   22.413227 H          1 MOL1         0.1015
      13    H9      19.435027   17.433819   22.024186 H          1 MOL1         0.1015
      14    N1      18.984698   18.654820   20.345972 N.4        1 MOL1        -0.4809
      15    H10     19.711977   18.255586   19.732917 H          1 MOL1         0.3726
      16    H11     18.932831   19.653590   20.093141 H          1 MOL1         0.3726
      17    C5      17.645857   17.971988   20.100166 C.3        1 MOL1        -0.0677
      18    H12     16.884989   18.433083   20.733632 H          1 MOL1         0.1026
      19    H13     17.370734   18.089402   19.049675 H          1 MOL1         0.1026
      20    H14     17.733644   16.910378   20.341176 H          1 MOL1         0.1026
@<TRIPOS>BOND
    1     1     2    1
    2     1     3    1
    3     1     4    1
    4     1     5    1
    5     5     6    1
    6     5     7    1
    7     5     8    1
    8     8     9    1
    9     8    10    1
   10     8    11    1
   11    11    12    1
   12    11    13    1
   13    11    14    1
   14    14    15    1
   15    14    16    1
   16    14    17    1
   17    17    18    1
   18    17    19    1
   19    17    20    1
@<TRIPOS>SUBSTRUCTURE
       1 MOL1            1 RESIDUE      1      MOL     
@<SCITEGIC>MOL_PROPERTY
VConf Rank
SciTegic.value.IntegerValue
552

@<SCITEGIC>MOL_PROPERTY
Conf_Id
SciTegic.value.IntegerValue
67

@<SCITEGIC>MOL_PROPERTY
Delta U+W
SciTegic.value.DoubleValue
0.000

@<SCITEGIC>MOL_PROPERTY
U+W
SciTegic.value.DoubleValue
15.338

@<SCITEGIC>MOL_PROPERTY
Grad RMS
SciTegic.value.DoubleValue
0.000000

@<SCITEGIC>MOL_PROPERTY
U
SciTegic.value.DoubleValue
69.277

@<SCITEGIC>MOL_PROPERTY
W
SciTegic.value.DoubleValue
-53.939

@<SCITEGIC>MOL_PROPERTY
W(PB)
SciTegic.value.DoubleValue
-55.889

@<SCITEGIC>MOL_PROPERTY
W(SA)
SciTegic.value.DoubleValue
1.950

@<SCITEGIC>MOL_PROPERTY
Valence
SciTegic.value.DoubleValue
0.846

@<SCITEGIC>MOL_PROPERTY
Coulomb
SciTegic.value.DoubleValue
68.557

@<SCITEGIC>MOL_PROPERTY
VdW
SciTegic.value.DoubleValue
-0.127

@<SCITEGIC>MOL_PROPERTY
VdW6
SciTegic.value.DoubleValue
-3.008

@<SCITEGIC>MOL_PROPERTY
VdW12
SciTegic.value.DoubleValue
2.882

@<SCITEGIC>MOL_PROPERTY
Bond
SciTegic.value.DoubleValue
0.088

@<SCITEGIC>MOL_PROPERTY
Angle
SciTegic.value.DoubleValue
0.332

@<SCITEGIC>MOL_PROPERTY
Pdih
SciTegic.value.DoubleValue
0.426

@<SCITEGIC>MOL_PROPERTY
Idih
SciTegic.value.DoubleValue
0.000

@<SCITEGIC>MOL_PROPERTY
Tether
SciTegic.value.DoubleValue
0.000

@<TRIPOS>MOLECULE
guest-s9_confgen4.mol2 : confsearch ligand conformer 553
          20          19           1
SMALL
USER_CHARGES
 
@<TRIPOS>ATOM
       1    C1      17.185761   18.267900   22.500539 C.3        1 MOL1        -0.2224
       2    H1      17.441508   17.226534   22.735744 H          1 MOL1         0.1052
       3    H2      16.341025   18.558741   23.138388 H          1 MOL1         0.1052
       4    H3      16.848508   18.309329   21.456646 H          1 MOL1         0.1052
       5    C2      18.392222   19.203173   22.732888 C.3        1 MOL1        -0.1209
       6    H4      18.684385   19.166074   23.791940 H          1 MOL1         0.1041
       7    H5      18.095526   20.240653   22.523327 H          1 MOL1         0.1041
       8    C3      19.597350   18.817367   21.847162 C.3        1 MOL1        -0.1274
       9    H6      19.889922   17.781045   22.059746 H          1 MOL1         0.1041
      10    H7      19.306023   18.858843   20.789320 H          1 MOL1         0.1041
      11    C4      20.796671   19.758054   22.085307 C.3        1 MOL1         0.0313
      12    H8      21.123946   19.686161   23.125549 H          1 MOL1         0.1015
      13    H9      20.481441   20.788199   21.900619 H          1 MOL1         0.1015
      14    N1      21.999586   19.487638   21.196132 N.4        1 MOL1        -0.4809
      15    H10     22.684754   20.252438   21.300592 H          1 MOL1         0.3726
      16    H11     21.723182   19.514970   20.202840 H          1 MOL1         0.3726
      17    C5      22.655728   18.154838   21.540570 C.3        1 MOL1        -0.0677
      18    H12     21.945686   17.344551   21.364042 H          1 MOL1         0.1026
      19    H13     23.535130   18.015140   20.908029 H          1 MOL1         0.1026
      20    H14     22.955580   18.162501   22.590683 H          1 MOL1         0.1026
@<TRIPOS>BOND
    1     1     2    1
    2     1     3    1
    3     1     4    1
    4     1     5    1
    5     5     6    1
    6     5     7    1
    7     5     8    1
    8     8     9    1
    9     8    10    1
   10     8    11    1
   11    11    12    1
   12    11    13    1
   13    11    14    1
   14    14    15    1
   15    14    16    1
   16    14    17    1
   17    17    18    1
   18    17    19    1
   19    17    20    1
@<TRIPOS>SUBSTRUCTURE
       1 MOL1            1 RESIDUE      1      MOL     
@<SCITEGIC>MOL_PROPERTY
VConf Rank
SciTegic.value.IntegerValue
553

@<SCITEGIC>MOL_PROPERTY
Conf_Id
SciTegic.value.IntegerValue
37

@<SCITEGIC>MOL_PROPERTY
Delta U+W
SciTegic.value.DoubleValue
-0.021

@<SCITEGIC>MOL_PROPERTY
U+W
SciTegic.value.DoubleValue
15.318

@<SCITEGIC>MOL_PROPERTY
Grad RMS
SciTegic.value.DoubleValue
0.000000

@<SCITEGIC>MOL_PROPERTY
U
SciTegic.value.DoubleValue
69.657

@<SCITEGIC>MOL_PROPERTY
W
SciTegic.value.DoubleValue
-54.340

@<SCITEGIC>MOL_PROPERTY
W(PB)
SciTegic.value.DoubleValue
-56.238

@<SCITEGIC>MOL_PROPERTY
W(SA)
SciTegic.value.DoubleValue
1.899

@<SCITEGIC>MOL_PROPERTY
Valence
SciTegic.value.DoubleValue
1.137

@<SCITEGIC>MOL_PROPERTY
Coulomb
SciTegic.value.DoubleValue
68.383

@<SCITEGIC>MOL_PROPERTY
VdW
SciTegic.value.DoubleValue
0.138

@<SCITEGIC>MOL_PROPERTY
VdW6
SciTegic.value.DoubleValue
-3.703

@<SCITEGIC>MOL_PROPERTY
VdW12
SciTegic.value.DoubleValue
3.841

@<SCITEGIC>MOL_PROPERTY
Bond
SciTegic.value.DoubleValue
0.125

@<SCITEGIC>MOL_PROPERTY
Angle
SciTegic.value.DoubleValue
0.468

@<SCITEGIC>MOL_PROPERTY
Pdih
SciTegic.value.DoubleValue
0.543

@<SCITEGIC>MOL_PROPERTY
Idih
SciTegic.value.DoubleValue
0.000

@<SCITEGIC>MOL_PROPERTY
Tether
SciTegic.value.DoubleValue
0.000

@<TRIPOS>MOLECULE
guest-s9_confgen4.mol2 : confsearch ligand conformer 554
          20          19           1
SMALL
USER_CHARGES
 
@<TRIPOS>ATOM
       1    C1      17.056318   19.431098   22.118851 C.3        1 MOL1        -0.2224
       2    H1      16.251870   19.915780   21.550548 H          1 MOL1         0.1052
       3    H2      16.818857   18.361794   22.192128 H          1 MOL1         0.1052
       4    H3      17.052303   19.852089   23.132715 H          1 MOL1         0.1052
       5    C2      18.420540   19.652126   21.430149 C.3        1 MOL1        -0.1209
       6    H4      18.613492   20.730527   21.339979 H          1 MOL1         0.1041
       7    H5      18.382348   19.251551   20.407208 H          1 MOL1         0.1041
       8    C3      19.572925   18.980446   22.208956 C.3        1 MOL1        -0.1274
       9    H6      19.613195   19.384150   23.229262 H          1 MOL1         0.1041
      10    H7      19.375978   17.904201   22.296497 H          1 MOL1         0.1041
      11    C4      20.931396   19.208068   21.514179 C.3        1 MOL1         0.0313
      12    H8      21.098543   20.282773   21.405786 H          1 MOL1         0.1015
      13    H9      20.915865   18.766017   20.514814 H          1 MOL1         0.1015
      14    N1      22.127130   18.638065   22.259882 N.4        1 MOL1        -0.4809
      15    H10     22.157943   19.008261   23.222057 H          1 MOL1         0.3726
      16    H11     22.999167   18.972297   21.820419 H          1 MOL1         0.3726
      17    C5      22.102200   17.113314   22.265395 C.3        1 MOL1        -0.0677
      18    H12     22.090367   16.750233   21.235474 H          1 MOL1         0.1026
      19    H13     22.994050   16.742925   22.775677 H          1 MOL1         0.1026
      20    H14     21.209904   16.766950   22.790490 H          1 MOL1         0.1026
@<TRIPOS>BOND
    1     1     2    1
    2     1     3    1
    3     1     4    1
    4     1     5    1
    5     5     6    1
    6     5     7    1
    7     5     8    1
    8     8     9    1
    9     8    10    1
   10     8    11    1
   11    11    12    1
   12    11    13    1
   13    11    14    1
   14    14    15    1
   15    14    16    1
   16    14    17    1
   17    17    18    1
   18    17    19    1
   19    17    20    1
@<TRIPOS>SUBSTRUCTURE
       1 MOL1            1 RESIDUE      1      MOL     
@<SCITEGIC>MOL_PROPERTY
VConf Rank
SciTegic.value.IntegerValue
554

@<SCITEGIC>MOL_PROPERTY
Conf_Id
SciTegic.value.IntegerValue
2

@<SCITEGIC>MOL_PROPERTY
Delta U+W
SciTegic.value.DoubleValue
0.069

@<SCITEGIC>MOL_PROPERTY
U+W
SciTegic.value.DoubleValue
15.407

@<SCITEGIC>MOL_PROPERTY
Grad RMS
SciTegic.value.DoubleValue
0.000000

@<SCITEGIC>MOL_PROPERTY
U
SciTegic.value.DoubleValue
69.657

@<SCITEGIC>MOL_PROPERTY
W
SciTegic.value.DoubleValue
-54.250

@<SCITEGIC>MOL_PROPERTY
W(PB)
SciTegic.value.DoubleValue
-56.176

@<SCITEGIC>MOL_PROPERTY
W(SA)
SciTegic.value.DoubleValue
1.926

@<SCITEGIC>MOL_PROPERTY
Valence
SciTegic.value.DoubleValue
1.137

@<SCITEGIC>MOL_PROPERTY
Coulomb
SciTegic.value.DoubleValue
68.383

@<SCITEGIC>MOL_PROPERTY
VdW
SciTegic.value.DoubleValue
0.138

@<SCITEGIC>MOL_PROPERTY
VdW6
SciTegic.value.DoubleValue
-3.703

@<SCITEGIC>MOL_PROPERTY
VdW12
SciTegic.value.DoubleValue
3.841

@<SCITEGIC>MOL_PROPERTY
Bond
SciTegic.value.DoubleValue
0.125

@<SCITEGIC>MOL_PROPERTY
Angle
SciTegic.value.DoubleValue
0.468

@<SCITEGIC>MOL_PROPERTY
Pdih
SciTegic.value.DoubleValue
0.543

@<SCITEGIC>MOL_PROPERTY
Idih
SciTegic.value.DoubleValue
0.000

@<SCITEGIC>MOL_PROPERTY
Tether
SciTegic.value.DoubleValue
0.000

@<TRIPOS>MOLECULE
guest-s9_confgen4.mol2 : confsearch ligand conformer 555
          20          19           1
SMALL
USER_CHARGES
 
@<TRIPOS>ATOM
       1    C1      21.297355   21.055884   21.621215 C.3        1 MOL1        -0.2224
       2    H1      21.948036   20.321314   22.112218 H          1 MOL1         0.1052
       3    H2      21.408181   20.940475   20.535169 H          1 MOL1         0.1052
       4    H3      21.664395   22.054739   21.890586 H          1 MOL1         0.1052
       5    C2      19.822068   20.886279   22.051390 C.3        1 MOL1        -0.1209
       6    H4      19.224773   21.696909   21.610785 H          1 MOL1         0.1041
       7    H5      19.740089   21.000124   23.141584 H          1 MOL1         0.1041
       8    C3      19.219422   19.527973   21.622437 C.3        1 MOL1        -0.1274
       9    H6      18.154745   19.508828   21.890676 H          1 MOL1         0.1041
      10    H7      19.270538   19.431295   20.529777 H          1 MOL1         0.1041
      11    C4      19.928424   18.328981   22.281967 C.3        1 MOL1         0.0313
      12    H8      19.875354   18.424137   23.369396 H          1 MOL1         0.1015
      13    H9      20.980925   18.316698   21.988950 H          1 MOL1         0.1015
      14    N1      19.326763   16.990381   21.901671 N.4        1 MOL1        -0.4809
      15    H10     19.349993   16.867029   20.877788 H          1 MOL1         0.3726
      16    H11     18.327764   16.962801   22.157295 H          1 MOL1         0.3726
      17    C5      20.085500   15.864892   22.592094 C.3        1 MOL1        -0.0677
      18    H12     20.018629   15.996649   23.674209 H          1 MOL1         0.1026
      19    H13     19.642143   14.907421   22.309805 H          1 MOL1         0.1026
      20    H14     21.131884   15.892087   22.280421 H          1 MOL1         0.1026
@<TRIPOS>BOND
    1     1     2    1
    2     1     3    1
    3     1     4    1
    4     1     5    1
    5     5     6    1
    6     5     7    1
    7     5     8    1
    8     8     9    1
    9     8    10    1
   10     8    11    1
   11    11    12    1
   12    11    13    1
   13    11    14    1
   14    14    15    1
   15    14    16    1
   16    14    17    1
   17    17    18    1
   18    17    19    1
   19    17    20    1
@<TRIPOS>SUBSTRUCTURE
       1 MOL1            1 RESIDUE      1      MOL     
@<SCITEGIC>MOL_PROPERTY
VConf Rank
SciTegic.value.IntegerValue
555

@<SCITEGIC>MOL_PROPERTY
Conf_Id
SciTegic.value.IntegerValue
34

@<SCITEGIC>MOL_PROPERTY
Delta U+W
SciTegic.value.DoubleValue
0.276

@<SCITEGIC>MOL_PROPERTY
U+W
SciTegic.value.DoubleValue
15.615

@<SCITEGIC>MOL_PROPERTY
Grad RMS
SciTegic.value.DoubleValue
0.000000

@<SCITEGIC>MOL_PROPERTY
U
SciTegic.value.DoubleValue
69.798

@<SCITEGIC>MOL_PROPERTY
W
SciTegic.value.DoubleValue
-54.184

@<SCITEGIC>MOL_PROPERTY
W(PB)
SciTegic.value.DoubleValue
-56.116

@<SCITEGIC>MOL_PROPERTY
W(SA)
SciTegic.value.DoubleValue
1.933

@<SCITEGIC>MOL_PROPERTY
Valence
SciTegic.value.DoubleValue
1.134

@<SCITEGIC>MOL_PROPERTY
Coulomb
SciTegic.value.DoubleValue
68.735

@<SCITEGIC>MOL_PROPERTY
VdW
SciTegic.value.DoubleValue
-0.070

@<SCITEGIC>MOL_PROPERTY
VdW6
SciTegic.value.DoubleValue
-3.565

@<SCITEGIC>MOL_PROPERTY
VdW12
SciTegic.value.DoubleValue
3.494

@<SCITEGIC>MOL_PROPERTY
Bond
SciTegic.value.DoubleValue
0.108

@<SCITEGIC>MOL_PROPERTY
Angle
SciTegic.value.DoubleValue
0.456

@<SCITEGIC>MOL_PROPERTY
Pdih
SciTegic.value.DoubleValue
0.569

@<SCITEGIC>MOL_PROPERTY
Idih
SciTegic.value.DoubleValue
0.000

@<SCITEGIC>MOL_PROPERTY
Tether
SciTegic.value.DoubleValue
0.000

@<TRIPOS>MOLECULE
guest-s9_confgen4.mol2 : confsearch ligand conformer 556
          20          19           1
SMALL
USER_CHARGES
 
@<TRIPOS>ATOM
       1    C1      21.222380   21.172702   20.537478 C.3        1 MOL1        -0.2224
       2    H1      21.108467   22.070018   21.159585 H          1 MOL1         0.1052
       3    H2      22.225089   21.198431   20.091454 H          1 MOL1         0.1052
       4    H3      20.490031   21.227687   19.721498 H          1 MOL1         0.1052
       5    C2      21.029294   19.888287   21.372356 C.3        1 MOL1        -0.1209
       6    H4      21.795543   19.846980   22.159427 H          1 MOL1         0.1041
       7    H5      21.189936   19.013846   20.727342 H          1 MOL1         0.1041
       8    C3      19.622064   19.827559   22.012044 C.3        1 MOL1        -0.1274
       9    H6      19.461814   20.726577   22.621938 H          1 MOL1         0.1041
      10    H7      18.851565   19.839984   21.229719 H          1 MOL1         0.1041
      11    C4      19.425805   18.589145   22.909458 C.3        1 MOL1         0.0313
      12    H8      18.451135   18.649639   23.400353 H          1 MOL1         0.1015
      13    H9      20.196181   18.571290   23.684466 H          1 MOL1         0.1015
      14    N1      19.480657   17.269246   22.163305 N.4        1 MOL1        -0.4809
      15    H10     20.387951   17.168998   21.684533 H          1 MOL1         0.3726
      16    H11     18.771418   17.254522   21.414432 H          1 MOL1         0.3726
      17    C5      19.258899   16.115234   23.131767 C.3        1 MOL1        -0.0677
      18    H12     20.039434   16.131256   23.895506 H          1 MOL1         0.1026
      19    H13     18.279279   16.223594   23.602286 H          1 MOL1         0.1026
      20    H14     19.300905   15.172303   22.582125 H          1 MOL1         0.1026
@<TRIPOS>BOND
    1     1     2    1
    2     1     3    1
    3     1     4    1
    4     1     5    1
    5     5     6    1
    6     5     7    1
    7     5     8    1
    8     8     9    1
    9     8    10    1
   10     8    11    1
   11    11    12    1
   12    11    13    1
   13    11    14    1
   14    14    15    1
   15    14    16    1
   16    14    17    1
   17    17    18    1
   18    17    19    1
   19    17    20    1
@<TRIPOS>SUBSTRUCTURE
       1 MOL1            1 RESIDUE      1      MOL     
@<SCITEGIC>MOL_PROPERTY
VConf Rank
SciTegic.value.IntegerValue
556

@<SCITEGIC>MOL_PROPERTY
Conf_Id
SciTegic.value.IntegerValue
50

@<SCITEGIC>MOL_PROPERTY
Delta U+W
SciTegic.value.DoubleValue
0.319

@<SCITEGIC>MOL_PROPERTY
U+W
SciTegic.value.DoubleValue
15.657

@<SCITEGIC>MOL_PROPERTY
Grad RMS
SciTegic.value.DoubleValue
0.000000

@<SCITEGIC>MOL_PROPERTY
U
SciTegic.value.DoubleValue
69.962

@<SCITEGIC>MOL_PROPERTY
W
SciTegic.value.DoubleValue
-54.305

@<SCITEGIC>MOL_PROPERTY
W(PB)
SciTegic.value.DoubleValue
-56.223

@<SCITEGIC>MOL_PROPERTY
W(SA)
SciTegic.value.DoubleValue
1.918

@<SCITEGIC>MOL_PROPERTY
Valence
SciTegic.value.DoubleValue
0.982

@<SCITEGIC>MOL_PROPERTY
Coulomb
SciTegic.value.DoubleValue
69.058

@<SCITEGIC>MOL_PROPERTY
VdW
SciTegic.value.DoubleValue
-0.078

@<SCITEGIC>MOL_PROPERTY
VdW6
SciTegic.value.DoubleValue
-3.548

@<SCITEGIC>MOL_PROPERTY
VdW12
SciTegic.value.DoubleValue
3.471

@<SCITEGIC>MOL_PROPERTY
Bond
SciTegic.value.DoubleValue
0.105

@<SCITEGIC>MOL_PROPERTY
Angle
SciTegic.value.DoubleValue
0.408

@<SCITEGIC>MOL_PROPERTY
Pdih
SciTegic.value.DoubleValue
0.469

@<SCITEGIC>MOL_PROPERTY
Idih
SciTegic.value.DoubleValue
0.000

@<SCITEGIC>MOL_PROPERTY
Tether
SciTegic.value.DoubleValue
0.000

@<TRIPOS>MOLECULE
guest-s9_confgen4.mol2 : confsearch ligand conformer 557
          20          19           1
SMALL
USER_CHARGES
 
@<TRIPOS>ATOM
       1    C1      17.873333   17.215564   20.682881 C.3        1 MOL1        -0.2224
       2    H1      17.627464   17.242920   19.613383 H          1 MOL1         0.1052
       3    H2      17.982002   16.163111   20.975636 H          1 MOL1         0.1052
       4    H3      17.022811   17.637283   21.234194 H          1 MOL1         0.1052
       5    C2      19.167617   18.008567   20.965722 C.3        1 MOL1        -0.1209
       6    H4      19.035591   19.044071   20.623970 H          1 MOL1         0.1041
       7    H5      19.991827   17.582581   20.376199 H          1 MOL1         0.1041
       8    C3      19.536061   17.985875   22.468028 C.3        1 MOL1        -0.1274
       9    H6      18.728750   18.435942   23.060941 H          1 MOL1         0.1041
      10    H7      19.626075   16.944183   22.803676 H          1 MOL1         0.1041
      11    C4      20.863089   18.710876   22.769546 C.3        1 MOL1         0.0313
      12    H8      21.666526   18.268789   22.175002 H          1 MOL1         0.1015
      13    H9      21.112366   18.583368   23.826061 H          1 MOL1         0.1015
      14    N1      20.833292   20.200565   22.483493 N.4        1 MOL1        -0.4809
      15    H10     20.077297   20.650842   23.021797 H          1 MOL1         0.3726
      16    H11     20.602514   20.367765   21.492917 H          1 MOL1         0.3726
      17    C5      22.179241   20.823146   22.829406 C.3        1 MOL1        -0.0677
      18    H12     22.143956   21.894305   22.618780 H          1 MOL1         0.1026
      19    H13     22.387835   20.663218   23.889451 H          1 MOL1         0.1026
      20    H14     22.958635   20.354518   22.224655 H          1 MOL1         0.1026
@<TRIPOS>BOND
    1     1     2    1
    2     1     3    1
    3     1     4    1
    4     1     5    1
    5     5     6    1
    6     5     7    1
    7     5     8    1
    8     8     9    1
    9     8    10    1
   10     8    11    1
   11    11    12    1
   12    11    13    1
   13    11    14    1
   14    14    15    1
   15    14    16    1
   16    14    17    1
   17    17    18    1
   18    17    19    1
   19    17    20    1
@<TRIPOS>SUBSTRUCTURE
       1 MOL1            1 RESIDUE      1      MOL     
@<SCITEGIC>MOL_PROPERTY
VConf Rank
SciTegic.value.IntegerValue
557

@<SCITEGIC>MOL_PROPERTY
Conf_Id
SciTegic.value.IntegerValue
35

@<SCITEGIC>MOL_PROPERTY
Delta U+W
SciTegic.value.DoubleValue
0.360

@<SCITEGIC>MOL_PROPERTY
U+W
SciTegic.value.DoubleValue
15.698

@<SCITEGIC>MOL_PROPERTY
Grad RMS
SciTegic.value.DoubleValue
0.000000

@<SCITEGIC>MOL_PROPERTY
U
SciTegic.value.DoubleValue
69.962

@<SCITEGIC>MOL_PROPERTY
W
SciTegic.value.DoubleValue
-54.264

@<SCITEGIC>MOL_PROPERTY
W(PB)
SciTegic.value.DoubleValue
-56.166

@<SCITEGIC>MOL_PROPERTY
W(SA)
SciTegic.value.DoubleValue
1.902

@<SCITEGIC>MOL_PROPERTY
Valence
SciTegic.value.DoubleValue
0.982

@<SCITEGIC>MOL_PROPERTY
Coulomb
SciTegic.value.DoubleValue
69.058

@<SCITEGIC>MOL_PROPERTY
VdW
SciTegic.value.DoubleValue
-0.078

@<SCITEGIC>MOL_PROPERTY
VdW6
SciTegic.value.DoubleValue
-3.548

@<SCITEGIC>MOL_PROPERTY
VdW12
SciTegic.value.DoubleValue
3.471

@<SCITEGIC>MOL_PROPERTY
Bond
SciTegic.value.DoubleValue
0.105

@<SCITEGIC>MOL_PROPERTY
Angle
SciTegic.value.DoubleValue
0.408

@<SCITEGIC>MOL_PROPERTY
Pdih
SciTegic.value.DoubleValue
0.469

@<SCITEGIC>MOL_PROPERTY
Idih
SciTegic.value.DoubleValue
0.000

@<SCITEGIC>MOL_PROPERTY
Tether
SciTegic.value.DoubleValue
0.000

@<TRIPOS>MOLECULE
guest-s9_confgen4.mol2 : confsearch ligand conformer 558
          20          19           1
SMALL
USER_CHARGES
 
@<TRIPOS>ATOM
       1    C1      20.947701   17.568950   19.899306 C.3        1 MOL1        -0.2224
       2    H1      21.647425   17.271415   20.690462 H          1 MOL1         0.1052
       3    H2      21.053644   16.850061   19.076536 H          1 MOL1         0.1052
       4    H3      21.253343   18.554306   19.524139 H          1 MOL1         0.1052
       5    C2      19.489096   17.596251   20.411100 C.3        1 MOL1        -0.1209
       6    H4      19.210322   16.600959   20.785062 H          1 MOL1         0.1041
       7    H5      18.817008   17.808419   19.567733 H          1 MOL1         0.1041
       8    C3      19.257039   18.652483   21.516722 C.3        1 MOL1        -0.1274
       9    H6      19.501386   19.648477   21.125568 H          1 MOL1         0.1041
      10    H7      18.190429   18.669557   21.776660 H          1 MOL1         0.1041
      11    C4      20.082800   18.368745   22.789937 C.3        1 MOL1         0.0313
      12    H8      21.149775   18.415189   22.559364 H          1 MOL1         0.1015
      13    H9      19.856046   17.359103   23.141753 H          1 MOL1         0.1015
      14    N1      19.813668   19.321256   23.943491 N.4        1 MOL1        -0.4809
      15    H10     20.274275   18.968708   24.797165 H          1 MOL1         0.3726
      16    H11     18.807842   19.331557   24.171363 H          1 MOL1         0.3726
      17    C5      20.313479   20.727153   23.628832 C.3        1 MOL1        -0.0677
      18    H12     19.774389   21.118617   22.763947 H          1 MOL1         0.1026
      19    H13     20.136437   21.371395   24.492875 H          1 MOL1         0.1026
      20    H14     21.383156   20.688276   23.412093 H          1 MOL1         0.1026
@<TRIPOS>BOND
    1     1     2    1
    2     1     3    1
    3     1     4    1
    4     1     5    1
    5     5     6    1
    6     5     7    1
    7     5     8    1
    8     8     9    1
    9     8    10    1
   10     8    11    1
   11    11    12    1
   12    11    13    1
   13    11    14    1
   14    14    15    1
   15    14    16    1
   16    14    17    1
   17    17    18    1
   18    17    19    1
   19    17    20    1
@<TRIPOS>SUBSTRUCTURE
       1 MOL1            1 RESIDUE      1      MOL     
@<SCITEGIC>MOL_PROPERTY
VConf Rank
SciTegic.value.IntegerValue
558

@<SCITEGIC>MOL_PROPERTY
Conf_Id
SciTegic.value.IntegerValue
33

@<SCITEGIC>MOL_PROPERTY
Delta U+W
SciTegic.value.DoubleValue
0.372

@<SCITEGIC>MOL_PROPERTY
U+W
SciTegic.value.DoubleValue
15.711

@<SCITEGIC>MOL_PROPERTY
Grad RMS
SciTegic.value.DoubleValue
0.000000

@<SCITEGIC>MOL_PROPERTY
U
SciTegic.value.DoubleValue
70.163

@<SCITEGIC>MOL_PROPERTY
W
SciTegic.value.DoubleValue
-54.452

@<SCITEGIC>MOL_PROPERTY
W(PB)
SciTegic.value.DoubleValue
-56.363

@<SCITEGIC>MOL_PROPERTY
W(SA)
SciTegic.value.DoubleValue
1.911

@<SCITEGIC>MOL_PROPERTY
Valence
SciTegic.value.DoubleValue
1.420

@<SCITEGIC>MOL_PROPERTY
Coulomb
SciTegic.value.DoubleValue
68.566

@<SCITEGIC>MOL_PROPERTY
VdW
SciTegic.value.DoubleValue
0.177

@<SCITEGIC>MOL_PROPERTY
VdW6
SciTegic.value.DoubleValue
-4.267

@<SCITEGIC>MOL_PROPERTY
VdW12
SciTegic.value.DoubleValue
4.445

@<SCITEGIC>MOL_PROPERTY
Bond
SciTegic.value.DoubleValue
0.146

@<SCITEGIC>MOL_PROPERTY
Angle
SciTegic.value.DoubleValue
0.581

@<SCITEGIC>MOL_PROPERTY
Pdih
SciTegic.value.DoubleValue
0.693

@<SCITEGIC>MOL_PROPERTY
Idih
SciTegic.value.DoubleValue
0.000

@<SCITEGIC>MOL_PROPERTY
Tether
SciTegic.value.DoubleValue
0.000

@<TRIPOS>MOLECULE
guest-s9_confgen4.mol2 : confsearch ligand conformer 559
          20          19           1
SMALL
USER_CHARGES
 
@<TRIPOS>ATOM
       1    C1      21.539801   19.314763   19.916450 C.3        1 MOL1        -0.2224
       2    H1      22.147499   19.165491   19.014567 H          1 MOL1         0.1052
       3    H2      20.509470   19.508562   19.592520 H          1 MOL1         0.1052
       4    H3      21.913195   20.212106   20.426791 H          1 MOL1         0.1052
       5    C2      21.622688   18.075714   20.837373 C.3        1 MOL1        -0.1209
       6    H4      22.677899   17.865650   21.061851 H          1 MOL1         0.1041
       7    H5      21.238882   17.193836   20.305256 H          1 MOL1         0.1041
       8    C3      20.852954   18.258772   22.166237 C.3        1 MOL1        -0.1274
       9    H6      21.017805   17.376976   22.799305 H          1 MOL1         0.1041
      10    H7      21.265485   19.118111   22.710355 H          1 MOL1         0.1041
      11    C4      19.336154   18.449629   21.950935 C.3        1 MOL1         0.0313
      12    H8      18.950991   17.604871   21.374220 H          1 MOL1         0.1015
      13    H9      19.153626   19.361898   21.378044 H          1 MOL1         0.1015
      14    N1      18.521253   18.532823   23.231332 N.4        1 MOL1        -0.4809
      15    H10     18.691705   17.702003   23.818190 H          1 MOL1         0.3726
      16    H11     17.515347   18.493520   23.003700 H          1 MOL1         0.3726
      17    C5      18.828017   19.813187   24.000703 C.3        1 MOL1        -0.0677
      18    H12     18.198245   19.854357   24.892137 H          1 MOL1         0.1026
      19    H13     19.879345   19.816443   24.294958 H          1 MOL1         0.1026
      20    H14     18.619219   20.674680   23.362790 H          1 MOL1         0.1026
@<TRIPOS>BOND
    1     1     2    1
    2     1     3    1
    3     1     4    1
    4     1     5    1
    5     5     6    1
    6     5     7    1
    7     5     8    1
    8     8     9    1
    9     8    10    1
   10     8    11    1
   11    11    12    1
   12    11    13    1
   13    11    14    1
   14    14    15    1
   15    14    16    1
   16    14    17    1
   17    17    18    1
   18    17    19    1
   19    17    20    1
@<TRIPOS>SUBSTRUCTURE
       1 MOL1            1 RESIDUE      1      MOL     
@<SCITEGIC>MOL_PROPERTY
VConf Rank
SciTegic.value.IntegerValue
559

@<SCITEGIC>MOL_PROPERTY
Conf_Id
SciTegic.value.IntegerValue
53

@<SCITEGIC>MOL_PROPERTY
Delta U+W
SciTegic.value.DoubleValue
0.379

@<SCITEGIC>MOL_PROPERTY
U+W
SciTegic.value.DoubleValue
15.717

@<SCITEGIC>MOL_PROPERTY
Grad RMS
SciTegic.value.DoubleValue
0.000000

@<SCITEGIC>MOL_PROPERTY
U
SciTegic.value.DoubleValue
70.163

@<SCITEGIC>MOL_PROPERTY
W
SciTegic.value.DoubleValue
-54.446

@<SCITEGIC>MOL_PROPERTY
W(PB)
SciTegic.value.DoubleValue
-56.322

@<SCITEGIC>MOL_PROPERTY
W(SA)
SciTegic.value.DoubleValue
1.876

@<SCITEGIC>MOL_PROPERTY
Valence
SciTegic.value.DoubleValue
1.420

@<SCITEGIC>MOL_PROPERTY
Coulomb
SciTegic.value.DoubleValue
68.566

@<SCITEGIC>MOL_PROPERTY
VdW
SciTegic.value.DoubleValue
0.177

@<SCITEGIC>MOL_PROPERTY
VdW6
SciTegic.value.DoubleValue
-4.267

@<SCITEGIC>MOL_PROPERTY
VdW12
SciTegic.value.DoubleValue
4.445

@<SCITEGIC>MOL_PROPERTY
Bond
SciTegic.value.DoubleValue
0.146

@<SCITEGIC>MOL_PROPERTY
Angle
SciTegic.value.DoubleValue
0.581

@<SCITEGIC>MOL_PROPERTY
Pdih
SciTegic.value.DoubleValue
0.693

@<SCITEGIC>MOL_PROPERTY
Idih
SciTegic.value.DoubleValue
0.000

@<SCITEGIC>MOL_PROPERTY
Tether
SciTegic.value.DoubleValue
0.000

@<TRIPOS>MOLECULE
guest-s9_confgen4.mol2 : confsearch ligand conformer 560
          20          19           1
SMALL
USER_CHARGES
 
@<TRIPOS>ATOM
       1    C1      18.647698   18.553238   24.344890 C.3        1 MOL1        -0.2224
       2    H1      18.482599   19.299364   25.132950 H          1 MOL1         0.1052
       3    H2      17.697356   18.031684   24.171746 H          1 MOL1         0.1052
       4    H3      19.374945   17.822065   24.721266 H          1 MOL1         0.1052
       5    C2      19.155900   19.227988   23.052448 C.3        1 MOL1        -0.1209
       6    H4      20.085248   19.770545   23.272902 H          1 MOL1         0.1041
       7    H5      18.422420   19.975566   22.718808 H          1 MOL1         0.1041
       8    C3      19.398686   18.196654   21.925448 C.3        1 MOL1        -0.1274
       9    H6      20.150789   17.463095   22.243211 H          1 MOL1         0.1041
      10    H7      18.474578   17.631562   21.745606 H          1 MOL1         0.1041
      11    C4      19.833368   18.851470   20.595438 C.3        1 MOL1         0.0313
      12    H8      19.048160   19.535589   20.263686 H          1 MOL1         0.1015
      13    H9      19.949808   18.079711   19.830373 H          1 MOL1         0.1015
      14    N1      21.131638   19.642638   20.651797 N.4        1 MOL1        -0.4809
      15    H10     21.066612   20.382654   21.366065 H          1 MOL1         0.3726
      16    H11     21.268241   20.145145   19.760701 H          1 MOL1         0.3726
      17    C5      22.324657   18.732234   20.921621 C.3        1 MOL1        -0.0677
      18    H12     22.380168   17.971425   20.140119 H          1 MOL1         0.1026
      19    H13     23.238803   19.329947   20.918838 H          1 MOL1         0.1026
      20    H14     22.202376   18.254530   21.895716 H          1 MOL1         0.1026
@<TRIPOS>BOND
    1     1     2    1
    2     1     3    1
    3     1     4    1
    4     1     5    1
    5     5     6    1
    6     5     7    1
    7     5     8    1
    8     8     9    1
    9     8    10    1
   10     8    11    1
   11    11    12    1
   12    11    13    1
   13    11    14    1
   14    14    15    1
   15    14    16    1
   16    14    17    1
   17    17    18    1
   18    17    19    1
   19    17    20    1
@<TRIPOS>SUBSTRUCTURE
       1 MOL1            1 RESIDUE      1      MOL     
@<SCITEGIC>MOL_PROPERTY
VConf Rank
SciTegic.value.IntegerValue
560

@<SCITEGIC>MOL_PROPERTY
Conf_Id
SciTegic.value.IntegerValue
49

@<SCITEGIC>MOL_PROPERTY
Delta U+W
SciTegic.value.DoubleValue
0.268

@<SCITEGIC>MOL_PROPERTY
U+W
SciTegic.value.DoubleValue
15.607

@<SCITEGIC>MOL_PROPERTY
Grad RMS
SciTegic.value.DoubleValue
0.000000

@<SCITEGIC>MOL_PROPERTY
U
SciTegic.value.DoubleValue
70.298

@<SCITEGIC>MOL_PROPERTY
W
SciTegic.value.DoubleValue
-54.692

@<SCITEGIC>MOL_PROPERTY
W(PB)
SciTegic.value.DoubleValue
-56.576

@<SCITEGIC>MOL_PROPERTY
W(SA)
SciTegic.value.DoubleValue
1.885

@<SCITEGIC>MOL_PROPERTY
Valence
SciTegic.value.DoubleValue
1.245

@<SCITEGIC>MOL_PROPERTY
Coulomb
SciTegic.value.DoubleValue
68.933

@<SCITEGIC>MOL_PROPERTY
VdW
SciTegic.value.DoubleValue
0.120

@<SCITEGIC>MOL_PROPERTY
VdW6
SciTegic.value.DoubleValue
-4.430

@<SCITEGIC>MOL_PROPERTY
VdW12
SciTegic.value.DoubleValue
4.550

@<SCITEGIC>MOL_PROPERTY
Bond
SciTegic.value.DoubleValue
0.148

@<SCITEGIC>MOL_PROPERTY
Angle
SciTegic.value.DoubleValue
0.587

@<SCITEGIC>MOL_PROPERTY
Pdih
SciTegic.value.DoubleValue
0.509

@<SCITEGIC>MOL_PROPERTY
Idih
SciTegic.value.DoubleValue
0.000

@<SCITEGIC>MOL_PROPERTY
Tether
SciTegic.value.DoubleValue
0.000

@<TRIPOS>MOLECULE
guest-s9_confgen4.mol2 : confsearch ligand conformer 561
          20          19           1
SMALL
USER_CHARGES
 
@<TRIPOS>ATOM
       1    C1      19.570266   19.039748   24.690249 C.3        1 MOL1        -0.2224
       2    H1      18.472929   19.051399   24.720011 H          1 MOL1         0.1052
       3    H2      19.917512   18.155098   25.239754 H          1 MOL1         0.1052
       4    H3      19.930493   19.928941   25.223702 H          1 MOL1         0.1052
       5    C2      20.086859   19.029995   23.235132 C.3        1 MOL1        -0.1209
       6    H4      21.185813   19.046838   23.237525 H          1 MOL1         0.1041
       7    H5      19.751574   19.947736   22.734249 H          1 MOL1         0.1041
       8    C3      19.584093   17.791575   22.457207 C.3        1 MOL1        -0.1274
       9    H6      19.825602   16.886376   23.029959 H          1 MOL1         0.1041
      10    H7      18.489441   17.822245   22.377515 H          1 MOL1         0.1041
      11    C4      20.197359   17.639304   21.046693 C.3        1 MOL1         0.0313
      12    H8      19.825940   16.705355   20.617121 H          1 MOL1         0.1015
      13    H9      21.285659   17.563826   21.111531 H          1 MOL1         0.1015
      14    N1      19.853920   18.742472   20.057587 N.4        1 MOL1        -0.4809
      15    H10     18.908203   19.109267   20.241764 H          1 MOL1         0.3726
      16    H11     19.801463   18.343276   19.107377 H          1 MOL1         0.3726
      17    C5      20.898162   19.854142   20.077450 C.3        1 MOL1        -0.0677
      18    H12     20.626792   20.611932   19.339162 H          1 MOL1         0.1026
      19    H13     20.936995   20.307075   21.068739 H          1 MOL1         0.1026
      20    H14     21.874160   19.432626   19.827566 H          1 MOL1         0.1026
@<TRIPOS>BOND
    1     1     2    1
    2     1     3    1
    3     1     4    1
    4     1     5    1
    5     5     6    1
    6     5     7    1
    7     5     8    1
    8     8     9    1
    9     8    10    1
   10     8    11    1
   11    11    12    1
   12    11    13    1
   13    11    14    1
   14    14    15    1
   15    14    16    1
   16    14    17    1
   17    17    18    1
   18    17    19    1
   19    17    20    1
@<TRIPOS>SUBSTRUCTURE
       1 MOL1            1 RESIDUE      1      MOL     
@<SCITEGIC>MOL_PROPERTY
VConf Rank
SciTegic.value.IntegerValue
561

@<SCITEGIC>MOL_PROPERTY
Conf_Id
SciTegic.value.IntegerValue
65

@<SCITEGIC>MOL_PROPERTY
Delta U+W
SciTegic.value.DoubleValue
1.775

@<SCITEGIC>MOL_PROPERTY
U+W
SciTegic.value.DoubleValue
17.114

@<SCITEGIC>MOL_PROPERTY
Grad RMS
SciTegic.value.DoubleValue
0.000000

@<SCITEGIC>MOL_PROPERTY
U
SciTegic.value.DoubleValue
71.726

@<SCITEGIC>MOL_PROPERTY
W
SciTegic.value.DoubleValue
-54.613

@<SCITEGIC>MOL_PROPERTY
W(PB)
SciTegic.value.DoubleValue
-56.495

@<SCITEGIC>MOL_PROPERTY
W(SA)
SciTegic.value.DoubleValue
1.883

@<SCITEGIC>MOL_PROPERTY
Valence
SciTegic.value.DoubleValue
2.885

@<SCITEGIC>MOL_PROPERTY
Coulomb
SciTegic.value.DoubleValue
68.822

@<SCITEGIC>MOL_PROPERTY
VdW
SciTegic.value.DoubleValue
0.019

@<SCITEGIC>MOL_PROPERTY
VdW6
SciTegic.value.DoubleValue
-4.600

@<SCITEGIC>MOL_PROPERTY
VdW12
SciTegic.value.DoubleValue
4.619

@<SCITEGIC>MOL_PROPERTY
Bond
SciTegic.value.DoubleValue
0.152

@<SCITEGIC>MOL_PROPERTY
Angle
SciTegic.value.DoubleValue
0.862

@<SCITEGIC>MOL_PROPERTY
Pdih
SciTegic.value.DoubleValue
1.871

@<SCITEGIC>MOL_PROPERTY
Idih
SciTegic.value.DoubleValue
0.000

@<SCITEGIC>MOL_PROPERTY
Tether
SciTegic.value.DoubleValue
0.000

@<TRIPOS>MOLECULE
guest-s9_confgen4.mol2 : confsearch ligand conformer 562
          20          19           1
SMALL
USER_CHARGES
 
@<TRIPOS>ATOM
       1    C1      19.900458   20.986613   22.809635 C.3        1 MOL1        -0.2224
       2    H1      18.972690   20.405982   22.731422 H          1 MOL1         0.1052
       3    H2      19.850479   21.565851   23.740745 H          1 MOL1         0.1052
       4    H3      19.930592   21.698344   21.974410 H          1 MOL1         0.1052
       5    C2      21.147161   20.072343   22.806071 C.3        1 MOL1        -0.1209
       6    H4      21.093959   19.371220   23.649994 H          1 MOL1         0.1041
       7    H5      22.041362   20.687333   22.979845 H          1 MOL1         0.1041
       8    C3      21.326936   19.295787   21.477673 C.3        1 MOL1        -0.1274
       9    H6      21.481909   20.011516   20.659456 H          1 MOL1         0.1041
      10    H7      22.241018   18.689628   21.530314 H          1 MOL1         0.1041
      11    C4      20.134601   18.385419   21.116376 C.3        1 MOL1         0.0313
      12    H8      20.326814   17.900980   20.155692 H          1 MOL1         0.1015
      13    H9      19.228663   18.987950   21.016376 H          1 MOL1         0.1015
      14    N1      19.861152   17.295012   22.134630 N.4        1 MOL1        -0.4809
      15    H10     19.681672   17.713420   23.059406 H          1 MOL1         0.3726
      16    H11     20.698041   16.704584   22.256741 H          1 MOL1         0.3726
      17    C5      18.672775   16.453568   21.689378 C.3        1 MOL1        -0.0677
      18    H12     18.897833   15.995870   20.723652 H          1 MOL1         0.1026
      19    H13     18.486693   15.674187   22.431609 H          1 MOL1         0.1026
      20    H14     17.792415   17.093509   21.598813 H          1 MOL1         0.1026
@<TRIPOS>BOND
    1     1     2    1
    2     1     3    1
    3     1     4    1
    4     1     5    1
    5     5     6    1
    6     5     7    1
    7     5     8    1
    8     8     9    1
    9     8    10    1
   10     8    11    1
   11    11    12    1
   12    11    13    1
   13    11    14    1
   14    14    15    1
   15    14    16    1
   16    14    17    1
   17    17    18    1
   18    17    19    1
   19    17    20    1
@<TRIPOS>SUBSTRUCTURE
       1 MOL1            1 RESIDUE      1      MOL     
@<SCITEGIC>MOL_PROPERTY
VConf Rank
SciTegic.value.IntegerValue
562

@<SCITEGIC>MOL_PROPERTY
Conf_Id
SciTegic.value.IntegerValue
23

@<SCITEGIC>MOL_PROPERTY
Delta U+W
SciTegic.value.DoubleValue
0.896

@<SCITEGIC>MOL_PROPERTY
U+W
SciTegic.value.DoubleValue
16.234

@<SCITEGIC>MOL_PROPERTY
Grad RMS
SciTegic.value.DoubleValue
0.000000

@<SCITEGIC>MOL_PROPERTY
U
SciTegic.value.DoubleValue
70.374

@<SCITEGIC>MOL_PROPERTY
W
SciTegic.value.DoubleValue
-54.140

@<SCITEGIC>MOL_PROPERTY
W(PB)
SciTegic.value.DoubleValue
-56.046

@<SCITEGIC>MOL_PROPERTY
W(SA)
SciTegic.value.DoubleValue
1.907

@<SCITEGIC>MOL_PROPERTY
Valence
SciTegic.value.DoubleValue
1.257

@<SCITEGIC>MOL_PROPERTY
Coulomb
SciTegic.value.DoubleValue
69.240

@<SCITEGIC>MOL_PROPERTY
VdW
SciTegic.value.DoubleValue
-0.123

@<SCITEGIC>MOL_PROPERTY
VdW6
SciTegic.value.DoubleValue
-4.336

@<SCITEGIC>MOL_PROPERTY
VdW12
SciTegic.value.DoubleValue
4.213

@<SCITEGIC>MOL_PROPERTY
Bond
SciTegic.value.DoubleValue
0.128

@<SCITEGIC>MOL_PROPERTY
Angle
SciTegic.value.DoubleValue
0.603

@<SCITEGIC>MOL_PROPERTY
Pdih
SciTegic.value.DoubleValue
0.526

@<SCITEGIC>MOL_PROPERTY
Idih
SciTegic.value.DoubleValue
0.000

@<SCITEGIC>MOL_PROPERTY
Tether
SciTegic.value.DoubleValue
0.000

@<TRIPOS>MOLECULE
guest-s9_confgen4.mol2 : confsearch ligand conformer 563
          20          19           1
SMALL
USER_CHARGES
 
@<TRIPOS>ATOM
       1    C1      19.666967   20.658327   23.412262 C.3        1 MOL1        -0.2224
       2    H1      19.266610   20.342826   24.384499 H          1 MOL1         0.1052
       3    H2      19.777288   21.750256   23.434626 H          1 MOL1         0.1052
       4    H3      18.924272   20.416908   22.641468 H          1 MOL1         0.1052
       5    C2      21.027084   19.981693   23.125176 C.3        1 MOL1        -0.1209
       6    H4      21.760808   20.325894   23.867592 H          1 MOL1         0.1041
       7    H5      21.406428   20.313446   22.149139 H          1 MOL1         0.1041
       8    C3      20.957899   18.434788   23.173068 C.3        1 MOL1        -0.1274
       9    H6      21.957438   18.019069   22.989101 H          1 MOL1         0.1041
      10    H7      20.676902   18.117371   24.186011 H          1 MOL1         0.1041
      11    C4      19.960029   17.819636   22.169667 C.3        1 MOL1         0.0313
      12    H8      18.953996   18.192873   22.375478 H          1 MOL1         0.1015
      13    H9      19.949226   16.733315   22.289368 H          1 MOL1         0.1015
      14    N1      20.282201   18.119096   20.718070 N.4        1 MOL1        -0.4809
      15    H10     21.228737   17.780730   20.486822 H          1 MOL1         0.3726
      16    H11     20.309006   19.138243   20.566051 H          1 MOL1         0.3726
      17    C5      19.245475   17.470810   19.810629 C.3        1 MOL1        -0.0677
      18    H12     18.257249   17.868390   20.051666 H          1 MOL1         0.1026
      19    H13     19.488924   17.695417   18.769834 H          1 MOL1         0.1026
      20    H14     19.256931   16.389875   19.966232 H          1 MOL1         0.1026
@<TRIPOS>BOND
    1     1     2    1
    2     1     3    1
    3     1     4    1
    4     1     5    1
    5     5     6    1
    6     5     7    1
    7     5     8    1
    8     8     9    1
    9     8    10    1
   10     8    11    1
   11    11    12    1
   12    11    13    1
   13    11    14    1
   14    14    15    1
   15    14    16    1
   16    14    17    1
   17    17    18    1
   18    17    19    1
   19    17    20    1
@<TRIPOS>SUBSTRUCTURE
       1 MOL1            1 RESIDUE      1      MOL     
@<SCITEGIC>MOL_PROPERTY
VConf Rank
SciTegic.value.IntegerValue
563

@<SCITEGIC>MOL_PROPERTY
Conf_Id
SciTegic.value.IntegerValue
24

@<SCITEGIC>MOL_PROPERTY
Delta U+W
SciTegic.value.DoubleValue
0.792

@<SCITEGIC>MOL_PROPERTY
U+W
SciTegic.value.DoubleValue
16.130

@<SCITEGIC>MOL_PROPERTY
Grad RMS
SciTegic.value.DoubleValue
0.000000

@<SCITEGIC>MOL_PROPERTY
U
SciTegic.value.DoubleValue
70.374

@<SCITEGIC>MOL_PROPERTY
W
SciTegic.value.DoubleValue
-54.243

@<SCITEGIC>MOL_PROPERTY
W(PB)
SciTegic.value.DoubleValue
-56.130

@<SCITEGIC>MOL_PROPERTY
W(SA)
SciTegic.value.DoubleValue
1.887

@<SCITEGIC>MOL_PROPERTY
Valence
SciTegic.value.DoubleValue
1.257

@<SCITEGIC>MOL_PROPERTY
Coulomb
SciTegic.value.DoubleValue
69.240

@<SCITEGIC>MOL_PROPERTY
VdW
SciTegic.value.DoubleValue
-0.123

@<SCITEGIC>MOL_PROPERTY
VdW6
SciTegic.value.DoubleValue
-4.336

@<SCITEGIC>MOL_PROPERTY
VdW12
SciTegic.value.DoubleValue
4.213

@<SCITEGIC>MOL_PROPERTY
Bond
SciTegic.value.DoubleValue
0.128

@<SCITEGIC>MOL_PROPERTY
Angle
SciTegic.value.DoubleValue
0.603

@<SCITEGIC>MOL_PROPERTY
Pdih
SciTegic.value.DoubleValue
0.526

@<SCITEGIC>MOL_PROPERTY
Idih
SciTegic.value.DoubleValue
0.000

@<SCITEGIC>MOL_PROPERTY
Tether
SciTegic.value.DoubleValue
0.000

@<TRIPOS>MOLECULE
guest-s9_confgen4.mol2 : confsearch ligand conformer 564
          20          19           1
SMALL
USER_CHARGES
 
@<TRIPOS>ATOM
       1    C1      19.450308   18.283345   24.101507 C.3        1 MOL1        -0.2224
       2    H1      19.018169   17.789777   24.981773 H          1 MOL1         0.1052
       3    H2      20.044018   17.529938   23.570531 H          1 MOL1         0.1052
       4    H3      20.119636   19.075951   24.460590 H          1 MOL1         0.1052
       5    C2      18.328810   18.857426   23.205887 C.3        1 MOL1        -0.1209
       6    H4      17.639522   19.437296   23.835728 H          1 MOL1         0.1041
       7    H5      17.735945   18.031575   22.788054 H          1 MOL1         0.1041
       8    C3      18.828417   19.772153   22.058497 C.3        1 MOL1        -0.1274
       9    H6      17.948326   20.172955   21.538287 H          1 MOL1         0.1041
      10    H7      19.358834   20.642510   22.466960 H          1 MOL1         0.1041
      11    C4      19.710619   19.059202   21.011738 C.3        1 MOL1         0.0313
      12    H8      19.704460   19.638776   20.085131 H          1 MOL1         0.1015
      13    H9      19.300244   18.069745   20.795284 H          1 MOL1         0.1015
      14    N1      21.162017   18.898143   21.422225 N.4        1 MOL1        -0.4809
      15    H10     21.220586   18.401617   22.322587 H          1 MOL1         0.3726
      16    H11     21.587457   19.822628   21.590562 H          1 MOL1         0.3726
      17    C5      21.928380   18.145379   20.343129 C.3        1 MOL1        -0.0677
      18    H12     21.480673   17.158769   20.205552 H          1 MOL1         0.1026
      19    H13     21.878264   18.707435   19.408064 H          1 MOL1         0.1026
      20    H14     22.970408   18.037153   20.652056 H          1 MOL1         0.1026
@<TRIPOS>BOND
    1     1     2    1
    2     1     3    1
    3     1     4    1
    4     1     5    1
    5     5     6    1
    6     5     7    1
    7     5     8    1
    8     8     9    1
    9     8    10    1
   10     8    11    1
   11    11    12    1
   12    11    13    1
   13    11    14    1
   14    14    15    1
   15    14    16    1
   16    14    17    1
   17    17    18    1
   18    17    19    1
   19    17    20    1
@<TRIPOS>SUBSTRUCTURE
       1 MOL1            1 RESIDUE      1      MOL     
@<SCITEGIC>MOL_PROPERTY
VConf Rank
SciTegic.value.IntegerValue
564

@<SCITEGIC>MOL_PROPERTY
Conf_Id
SciTegic.value.IntegerValue
26

@<SCITEGIC>MOL_PROPERTY
Delta U+W
SciTegic.value.DoubleValue
2.888

@<SCITEGIC>MOL_PROPERTY
U+W
SciTegic.value.DoubleValue
18.226

@<SCITEGIC>MOL_PROPERTY
Grad RMS
SciTegic.value.DoubleValue
0.000000

@<SCITEGIC>MOL_PROPERTY
U
SciTegic.value.DoubleValue
72.042

@<SCITEGIC>MOL_PROPERTY
W
SciTegic.value.DoubleValue
-53.816

@<SCITEGIC>MOL_PROPERTY
W(PB)
SciTegic.value.DoubleValue
-55.689

@<SCITEGIC>MOL_PROPERTY
W(SA)
SciTegic.value.DoubleValue
1.873

@<SCITEGIC>MOL_PROPERTY
Valence
SciTegic.value.DoubleValue
2.428

@<SCITEGIC>MOL_PROPERTY
Coulomb
SciTegic.value.DoubleValue
69.829

@<SCITEGIC>MOL_PROPERTY
VdW
SciTegic.value.DoubleValue
-0.215

@<SCITEGIC>MOL_PROPERTY
VdW6
SciTegic.value.DoubleValue
-4.563

@<SCITEGIC>MOL_PROPERTY
VdW12
SciTegic.value.DoubleValue
4.348

@<SCITEGIC>MOL_PROPERTY
Bond
SciTegic.value.DoubleValue
0.137

@<SCITEGIC>MOL_PROPERTY
Angle
SciTegic.value.DoubleValue
0.936

@<SCITEGIC>MOL_PROPERTY
Pdih
SciTegic.value.DoubleValue
1.356

@<SCITEGIC>MOL_PROPERTY
Idih
SciTegic.value.DoubleValue
0.000

@<SCITEGIC>MOL_PROPERTY
Tether
SciTegic.value.DoubleValue
0.000

@<TRIPOS>MOLECULE
guest-s9_confgen4.mol2 : confsearch ligand conformer 565
          20          19           1
SMALL
USER_CHARGES
 
@<TRIPOS>ATOM
       1    C1      20.933015   18.625498   20.054080 C.3        1 MOL1        -0.2224
       2    H1      21.581635   18.310304   19.226334 H          1 MOL1         0.1052
       3    H2      20.177125   19.306943   19.642464 H          1 MOL1         0.1052
       4    H3      21.562060   19.177924   20.762019 H          1 MOL1         0.1052
       5    C2      20.277122   17.393509   20.718512 C.3        1 MOL1        -0.1209
       6    H4      21.052682   16.782450   21.201440 H          1 MOL1         0.1041
       7    H5      19.839722   16.762433   19.932071 H          1 MOL1         0.1041
       8    C3      19.167079   17.732972   21.745841 C.3        1 MOL1        -0.1274
       9    H6      18.349101   18.279544   21.258114 H          1 MOL1         0.1041
      10    H7      18.730756   16.788237   22.096436 H          1 MOL1         0.1041
      11    C4      19.659444   18.512788   22.983479 C.3        1 MOL1         0.0313
      12    H8      20.619884   18.110638   23.315314 H          1 MOL1         0.1015
      13    H9      18.939583   18.384900   23.795876 H          1 MOL1         0.1015
      14    N1      19.814331   20.005360   22.761580 N.4        1 MOL1        -0.4809
      15    H10     18.909507   20.418997   22.489175 H          1 MOL1         0.3726
      16    H11     20.445632   20.179845   21.966826 H          1 MOL1         0.3726
      17    C5      20.346225   20.667708   24.025223 C.3        1 MOL1        -0.0677
      18    H12     21.318302   20.237285   24.275364 H          1 MOL1         0.1026
      19    H13     20.452412   21.740672   23.850741 H          1 MOL1         0.1026
      20    H14     19.644327   20.495745   24.844084 H          1 MOL1         0.1026
@<TRIPOS>BOND
    1     1     2    1
    2     1     3    1
    3     1     4    1
    4     1     5    1
    5     5     6    1
    6     5     7    1
    7     5     8    1
    8     8     9    1
    9     8    10    1
   10     8    11    1
   11    11    12    1
   12    11    13    1
   13    11    14    1
   14    14    15    1
   15    14    16    1
   16    14    17    1
   17    17    18    1
   18    17    19    1
   19    17    20    1
@<TRIPOS>SUBSTRUCTURE
       1 MOL1            1 RESIDUE      1      MOL     
@<SCITEGIC>MOL_PROPERTY
VConf Rank
SciTegic.value.IntegerValue
565

@<SCITEGIC>MOL_PROPERTY
Conf_Id
SciTegic.value.IntegerValue
5

@<SCITEGIC>MOL_PROPERTY
Delta U+W
SciTegic.value.DoubleValue
2.950

@<SCITEGIC>MOL_PROPERTY
U+W
SciTegic.value.DoubleValue
18.289

@<SCITEGIC>MOL_PROPERTY
Grad RMS
SciTegic.value.DoubleValue
0.000000

@<SCITEGIC>MOL_PROPERTY
U
SciTegic.value.DoubleValue
72.042

@<SCITEGIC>MOL_PROPERTY
W
SciTegic.value.DoubleValue
-53.753

@<SCITEGIC>MOL_PROPERTY
W(PB)
SciTegic.value.DoubleValue
-55.644

@<SCITEGIC>MOL_PROPERTY
W(SA)
SciTegic.value.DoubleValue
1.891

@<SCITEGIC>MOL_PROPERTY
Valence
SciTegic.value.DoubleValue
2.428

@<SCITEGIC>MOL_PROPERTY
Coulomb
SciTegic.value.DoubleValue
69.829

@<SCITEGIC>MOL_PROPERTY
VdW
SciTegic.value.DoubleValue
-0.215

@<SCITEGIC>MOL_PROPERTY
VdW6
SciTegic.value.DoubleValue
-4.563

@<SCITEGIC>MOL_PROPERTY
VdW12
SciTegic.value.DoubleValue
4.348

@<SCITEGIC>MOL_PROPERTY
Bond
SciTegic.value.DoubleValue
0.137

@<SCITEGIC>MOL_PROPERTY
Angle
SciTegic.value.DoubleValue
0.936

@<SCITEGIC>MOL_PROPERTY
Pdih
SciTegic.value.DoubleValue
1.356

@<SCITEGIC>MOL_PROPERTY
Idih
SciTegic.value.DoubleValue
0.000

@<SCITEGIC>MOL_PROPERTY
Tether
SciTegic.value.DoubleValue
0.000

@<TRIPOS>MOLECULE
guest-s9_confgen4.mol2 : confsearch ligand conformer 566
          20          19           1
SMALL
USER_CHARGES
 
@<TRIPOS>ATOM
       1    C1      20.892447   16.561159   21.794930 C.3        1 MOL1        -0.2224
       2    H1      21.929172   16.507340   21.438050 H          1 MOL1         0.1052
       3    H2      20.910891   16.812473   22.862768 H          1 MOL1         0.1052
       4    H3      20.453290   15.559785   21.698203 H          1 MOL1         0.1052
       5    C2      20.077357   17.591730   20.980256 C.3        1 MOL1        -0.1209
       6    H4      19.044292   17.625185   21.352305 H          1 MOL1         0.1041
       7    H5      20.012531   17.251553   19.937198 H          1 MOL1         0.1041
       8    C3      20.696693   19.011290   21.004129 C.3        1 MOL1        -0.1274
       9    H6      21.692070   18.978477   20.541873 H          1 MOL1         0.1041
      10    H7      20.095175   19.681684   20.376834 H          1 MOL1         0.1041
      11    C4      20.832387   19.614392   22.420952 C.3        1 MOL1         0.0313
      12    H8      21.272625   20.612358   22.352600 H          1 MOL1         0.1015
      13    H9      21.509563   18.990640   23.009548 H          1 MOL1         0.1015
      14    N1      19.532024   19.735295   23.200543 N.4        1 MOL1        -0.4809
      15    H10     19.736348   20.012438   24.173425 H          1 MOL1         0.3726
      16    H11     19.078409   18.812903   23.274908 H          1 MOL1         0.3726
      17    C5      18.593592   20.750538   22.557699 C.3        1 MOL1        -0.0677
      18    H12     18.334291   20.416802   21.551035 H          1 MOL1         0.1026
      19    H13     17.687210   20.832663   23.161550 H          1 MOL1         0.1026
      20    H14     19.092616   21.720726   22.509291 H          1 MOL1         0.1026
@<TRIPOS>BOND
    1     1     2    1
    2     1     3    1
    3     1     4    1
    4     1     5    1
    5     5     6    1
    6     5     7    1
    7     5     8    1
    8     8     9    1
    9     8    10    1
   10     8    11    1
   11    11    12    1
   12    11    13    1
   13    11    14    1
   14    14    15    1
   15    14    16    1
   16    14    17    1
   17    17    18    1
   18    17    19    1
   19    17    20    1
@<TRIPOS>SUBSTRUCTURE
       1 MOL1            1 RESIDUE      1      MOL     
@<SCITEGIC>MOL_PROPERTY
VConf Rank
SciTegic.value.IntegerValue
566

@<SCITEGIC>MOL_PROPERTY
Conf_Id
SciTegic.value.IntegerValue
52

@<SCITEGIC>MOL_PROPERTY
Delta U+W
SciTegic.value.DoubleValue
0.784

@<SCITEGIC>MOL_PROPERTY
U+W
SciTegic.value.DoubleValue
16.122

@<SCITEGIC>MOL_PROPERTY
Grad RMS
SciTegic.value.DoubleValue
0.000000

@<SCITEGIC>MOL_PROPERTY
U
SciTegic.value.DoubleValue
70.777

@<SCITEGIC>MOL_PROPERTY
W
SciTegic.value.DoubleValue
-54.655

@<SCITEGIC>MOL_PROPERTY
W(PB)
SciTegic.value.DoubleValue
-56.491

@<SCITEGIC>MOL_PROPERTY
W(SA)
SciTegic.value.DoubleValue
1.836

@<SCITEGIC>MOL_PROPERTY
Valence
SciTegic.value.DoubleValue
1.529

@<SCITEGIC>MOL_PROPERTY
Coulomb
SciTegic.value.DoubleValue
69.166

@<SCITEGIC>MOL_PROPERTY
VdW
SciTegic.value.DoubleValue
0.082

@<SCITEGIC>MOL_PROPERTY
VdW6
SciTegic.value.DoubleValue
-5.166

@<SCITEGIC>MOL_PROPERTY
VdW12
SciTegic.value.DoubleValue
5.248

@<SCITEGIC>MOL_PROPERTY
Bond
SciTegic.value.DoubleValue
0.171

@<SCITEGIC>MOL_PROPERTY
Angle
SciTegic.value.DoubleValue
0.752

@<SCITEGIC>MOL_PROPERTY
Pdih
SciTegic.value.DoubleValue
0.605

@<SCITEGIC>MOL_PROPERTY
Idih
SciTegic.value.DoubleValue
0.000

@<SCITEGIC>MOL_PROPERTY
Tether
SciTegic.value.DoubleValue
0.000

@<TRIPOS>MOLECULE
guest-s9_confgen4.mol2 : confsearch ligand conformer 567
          20          19           1
SMALL
USER_CHARGES
 
@<TRIPOS>ATOM
       1    C1      18.093612   18.346741   21.464803 C.3        1 MOL1        -0.2224
       2    H1      17.043177   18.231339   21.167418 H          1 MOL1         0.1052
       3    H2      18.695878   18.258849   20.553374 H          1 MOL1         0.1052
       4    H3      18.342502   17.514821   22.136571 H          1 MOL1         0.1052
       5    C2      18.306605   19.711801   22.158063 C.3        1 MOL1        -0.1209
       6    H4      17.522636   19.843481   22.917060 H          1 MOL1         0.1041
       7    H5      18.161381   20.520987   21.428579 H          1 MOL1         0.1041
       8    C3      19.684451   19.872090   22.849925 C.3        1 MOL1        -0.1274
       9    H6      19.683469   20.832358   23.382344 H          1 MOL1         0.1041
      10    H7      19.812609   19.104313   23.623227 H          1 MOL1         0.1041
      11    C4      20.892534   19.875156   21.884484 C.3        1 MOL1         0.0313
      12    H8      21.755320   20.316677   22.389538 H          1 MOL1         0.1015
      13    H9      20.656503   20.500864   21.020049 H          1 MOL1         0.1015
      14    N1      21.330027   18.512974   21.369147 N.4        1 MOL1        -0.4809
      15    H10     22.004854   18.635838   20.597998 H          1 MOL1         0.3726
      16    H11     20.528865   18.019461   20.951504 H          1 MOL1         0.3726
      17    C5      21.959627   17.678059   22.478761 C.3        1 MOL1        -0.0677
      18    H12     22.814247   18.217158   22.893055 H          1 MOL1         0.1026
      19    H13     21.220630   17.497957   23.261745 H          1 MOL1         0.1026
      20    H14     22.292793   16.724367   22.063567 H          1 MOL1         0.1026
@<TRIPOS>BOND
    1     1     2    1
    2     1     3    1
    3     1     4    1
    4     1     5    1
    5     5     6    1
    6     5     7    1
    7     5     8    1
    8     8     9    1
    9     8    10    1
   10     8    11    1
   11    11    12    1
   12    11    13    1
   13    11    14    1
   14    14    15    1
   15    14    16    1
   16    14    17    1
   17    17    18    1
   18    17    19    1
   19    17    20    1
@<TRIPOS>SUBSTRUCTURE
       1 MOL1            1 RESIDUE      1      MOL     
@<SCITEGIC>MOL_PROPERTY
VConf Rank
SciTegic.value.IntegerValue
567

@<SCITEGIC>MOL_PROPERTY
Conf_Id
SciTegic.value.IntegerValue
55

@<SCITEGIC>MOL_PROPERTY
Delta U+W
SciTegic.value.DoubleValue
2.745

@<SCITEGIC>MOL_PROPERTY
U+W
SciTegic.value.DoubleValue
18.083

@<SCITEGIC>MOL_PROPERTY
Grad RMS
SciTegic.value.DoubleValue
0.000000

@<SCITEGIC>MOL_PROPERTY
U
SciTegic.value.DoubleValue
72.490

@<SCITEGIC>MOL_PROPERTY
W
SciTegic.value.DoubleValue
-54.407

@<SCITEGIC>MOL_PROPERTY
W(PB)
SciTegic.value.DoubleValue
-56.269

@<SCITEGIC>MOL_PROPERTY
W(SA)
SciTegic.value.DoubleValue
1.861

@<SCITEGIC>MOL_PROPERTY
Valence
SciTegic.value.DoubleValue
2.738

@<SCITEGIC>MOL_PROPERTY
Coulomb
SciTegic.value.DoubleValue
69.795

@<SCITEGIC>MOL_PROPERTY
VdW
SciTegic.value.DoubleValue
-0.043

@<SCITEGIC>MOL_PROPERTY
VdW6
SciTegic.value.DoubleValue
-5.333

@<SCITEGIC>MOL_PROPERTY
VdW12
SciTegic.value.DoubleValue
5.290

@<SCITEGIC>MOL_PROPERTY
Bond
SciTegic.value.DoubleValue
0.182

@<SCITEGIC>MOL_PROPERTY
Angle
SciTegic.value.DoubleValue
1.135

@<SCITEGIC>MOL_PROPERTY
Pdih
SciTegic.value.DoubleValue
1.422

@<SCITEGIC>MOL_PROPERTY
Idih
SciTegic.value.DoubleValue
0.000

@<SCITEGIC>MOL_PROPERTY
Tether
SciTegic.value.DoubleValue
0.000

@<TRIPOS>MOLECULE
guest-s9_confgen4.mol2 : confsearch ligand conformer 568
          20          19           1
SMALL
USER_CHARGES
 
@<TRIPOS>ATOM
       1    C1      19.774065   20.801588   21.320202 C.3        1 MOL1        -0.2224
       2    H1      19.683043   21.756225   20.785832 H          1 MOL1         0.1052
       3    H2      19.166333   20.871390   22.231847 H          1 MOL1         0.1052
       4    H3      20.827126   20.692477   21.603588 H          1 MOL1         0.1052
       5    C2      19.303732   19.637012   20.419137 C.3        1 MOL1        -0.1209
       6    H4      19.999420   19.520527   19.576246 H          1 MOL1         0.1041
       7    H5      18.334495   19.907661   19.977147 H          1 MOL1         0.1041
       8    C3      19.140991   18.282110   21.154385 C.3        1 MOL1        -0.1274
       9    H6      18.401809   18.373726   21.960064 H          1 MOL1         0.1041
      10    H7      18.716260   17.562253   20.442349 H          1 MOL1         0.1041
      11    C4      20.459401   17.681144   21.694930 C.3        1 MOL1         0.0313
      12    H8      21.235866   17.781240   20.932335 H          1 MOL1         0.1015
      13    H9      20.316459   16.614738   21.886681 H          1 MOL1         0.1015
      14    N1      20.987098   18.295914   22.981826 N.4        1 MOL1        -0.4809
      15    H10     21.065400   19.317260   22.879059 H          1 MOL1         0.3726
      16    H11     21.949920   17.965926   23.152827 H          1 MOL1         0.3726
      17    C5      20.099944   17.939266   24.169461 C.3        1 MOL1        -0.0677
      18    H12     19.099650   18.346587   24.010965 H          1 MOL1         0.1026
      19    H13     20.046572   16.852633   24.264426 H          1 MOL1         0.1026
      20    H14     20.529570   18.366975   25.077975 H          1 MOL1         0.1026
@<TRIPOS>BOND
    1     1     2    1
    2     1     3    1
    3     1     4    1
    4     1     5    1
    5     5     6    1
    6     5     7    1
    7     5     8    1
    8     8     9    1
    9     8    10    1
   10     8    11    1
   11    11    12    1
   12    11    13    1
   13    11    14    1
   14    14    15    1
   15    14    16    1
   16    14    17    1
   17    17    18    1
   18    17    19    1
   19    17    20    1
@<TRIPOS>SUBSTRUCTURE
       1 MOL1            1 RESIDUE      1      MOL     
@<SCITEGIC>MOL_PROPERTY
VConf Rank
SciTegic.value.IntegerValue
568

@<SCITEGIC>MOL_PROPERTY
Conf_Id
SciTegic.value.IntegerValue
76

@<SCITEGIC>MOL_PROPERTY
Delta U+W
SciTegic.value.DoubleValue
2.799

@<SCITEGIC>MOL_PROPERTY
U+W
SciTegic.value.DoubleValue
18.137

@<SCITEGIC>MOL_PROPERTY
Grad RMS
SciTegic.value.DoubleValue
0.000000

@<SCITEGIC>MOL_PROPERTY
U
SciTegic.value.DoubleValue
72.490

@<SCITEGIC>MOL_PROPERTY
W
SciTegic.value.DoubleValue
-54.353

@<SCITEGIC>MOL_PROPERTY
W(PB)
SciTegic.value.DoubleValue
-56.201

@<SCITEGIC>MOL_PROPERTY
W(SA)
SciTegic.value.DoubleValue
1.848

@<SCITEGIC>MOL_PROPERTY
Valence
SciTegic.value.DoubleValue
2.738

@<SCITEGIC>MOL_PROPERTY
Coulomb
SciTegic.value.DoubleValue
69.795

@<SCITEGIC>MOL_PROPERTY
VdW
SciTegic.value.DoubleValue
-0.043

@<SCITEGIC>MOL_PROPERTY
VdW6
SciTegic.value.DoubleValue
-5.334

@<SCITEGIC>MOL_PROPERTY
VdW12
SciTegic.value.DoubleValue
5.290

@<SCITEGIC>MOL_PROPERTY
Bond
SciTegic.value.DoubleValue
0.182

@<SCITEGIC>MOL_PROPERTY
Angle
SciTegic.value.DoubleValue
1.135

@<SCITEGIC>MOL_PROPERTY
Pdih
SciTegic.value.DoubleValue
1.421

@<SCITEGIC>MOL_PROPERTY
Idih
SciTegic.value.DoubleValue
0.000

@<SCITEGIC>MOL_PROPERTY
Tether
SciTegic.value.DoubleValue
0.000

@<TRIPOS>MOLECULE
guest-s9_confgen4.mol2 : confsearch ligand conformer 569
          20          19           1
SMALL
USER_CHARGES
 
@<TRIPOS>ATOM
       1    C1      18.204261   19.658368   21.542725 C.3        1 MOL1        -0.2224
       2    H1      18.130034   18.698997   22.069174 H          1 MOL1         0.1052
       3    H2      17.878266   20.450182   22.229536 H          1 MOL1         0.1052
       4    H3      17.497222   19.631647   20.703543 H          1 MOL1         0.1052
       5    C2      19.640312   19.922050   21.034010 C.3        1 MOL1        -0.1209
       6    H4      19.644643   20.855863   20.454520 H          1 MOL1         0.1041
       7    H5      19.942826   19.134676   20.331666 H          1 MOL1         0.1041
       8    C3      20.676909   20.044386   22.177665 C.3        1 MOL1        -0.1274
       9    H6      21.662564   20.273442   21.751725 H          1 MOL1         0.1041
      10    H7      20.410960   20.908167   22.801202 H          1 MOL1         0.1041
      11    C4      20.798944   18.805807   23.096203 C.3        1 MOL1         0.0313
      12    H8      19.828114   18.549845   23.526946 H          1 MOL1         0.1015
      13    H9      21.466852   19.066708   23.921124 H          1 MOL1         0.1015
      14    N1      21.382006   17.559849   22.446149 N.4        1 MOL1        -0.4809
      15    H10     21.899149   17.017598   23.155604 H          1 MOL1         0.3726
      16    H11     22.091863   17.819339   21.745140 H          1 MOL1         0.3726
      17    C5      20.295682   16.679368   21.837954 C.3        1 MOL1        -0.0677
      18    H12     20.757542   15.786119   21.411671 H          1 MOL1         0.1026
      19    H13     19.590537   16.389484   22.619830 H          1 MOL1         0.1026
      20    H14     19.771284   17.228196   21.055130 H          1 MOL1         0.1026
@<TRIPOS>BOND
    1     1     2    1
    2     1     3    1
    3     1     4    1
    4     1     5    1
    5     5     6    1
    6     5     7    1
    7     5     8    1
    8     8     9    1
    9     8    10    1
   10     8    11    1
   11    11    12    1
   12    11    13    1
   13    11    14    1
   14    14    15    1
   15    14    16    1
   16    14    17    1
   17    17    18    1
   18    17    19    1
   19    17    20    1
@<TRIPOS>SUBSTRUCTURE
       1 MOL1            1 RESIDUE      1      MOL     
@<SCITEGIC>MOL_PROPERTY
VConf Rank
SciTegic.value.IntegerValue
569

@<SCITEGIC>MOL_PROPERTY
Conf_Id
SciTegic.value.IntegerValue
60

@<SCITEGIC>MOL_PROPERTY
Delta U+W
SciTegic.value.DoubleValue
1.788

@<SCITEGIC>MOL_PROPERTY
U+W
SciTegic.value.DoubleValue
17.127

@<SCITEGIC>MOL_PROPERTY
Grad RMS
SciTegic.value.DoubleValue
0.000000

@<SCITEGIC>MOL_PROPERTY
U
SciTegic.value.DoubleValue
72.122

@<SCITEGIC>MOL_PROPERTY
W
SciTegic.value.DoubleValue
-54.995

@<SCITEGIC>MOL_PROPERTY
W(PB)
SciTegic.value.DoubleValue
-56.810

@<SCITEGIC>MOL_PROPERTY
W(SA)
SciTegic.value.DoubleValue
1.815

@<SCITEGIC>MOL_PROPERTY
Valence
SciTegic.value.DoubleValue
3.197

@<SCITEGIC>MOL_PROPERTY
Coulomb
SciTegic.value.DoubleValue
69.115

@<SCITEGIC>MOL_PROPERTY
VdW
SciTegic.value.DoubleValue
-0.190

@<SCITEGIC>MOL_PROPERTY
VdW6
SciTegic.value.DoubleValue
-5.585

@<SCITEGIC>MOL_PROPERTY
VdW12
SciTegic.value.DoubleValue
5.395

@<SCITEGIC>MOL_PROPERTY
Bond
SciTegic.value.DoubleValue
0.177

@<SCITEGIC>MOL_PROPERTY
Angle
SciTegic.value.DoubleValue
1.207

@<SCITEGIC>MOL_PROPERTY
Pdih
SciTegic.value.DoubleValue
1.813

@<SCITEGIC>MOL_PROPERTY
Idih
SciTegic.value.DoubleValue
0.000

@<SCITEGIC>MOL_PROPERTY
Tether
SciTegic.value.DoubleValue
0.000

@<TRIPOS>MOLECULE
guest-s9_confgen4.mol2 : confsearch ligand conformer 570
          20          19           1
SMALL
USER_CHARGES
 
@<TRIPOS>ATOM
       1    C1      21.559280   20.392077   21.854045 C.3        1 MOL1        -0.2224
       2    H1      21.500511   21.485387   21.776173 H          1 MOL1         0.1052
       3    H2      22.613417   20.123515   22.001084 H          1 MOL1         0.1052
       4    H3      21.231801   19.973503   20.894564 H          1 MOL1         0.1052
       5    C2      20.688831   19.884140   23.026597 C.3        1 MOL1        -0.1209
       6    H4      19.642557   20.179829   22.876127 H          1 MOL1         0.1041
       7    H5      21.010510   20.386400   23.949685 H          1 MOL1         0.1041
       8    C3      20.786044   18.353136   23.236419 C.3        1 MOL1        -0.1274
       9    H6      21.822804   18.099569   23.494251 H          1 MOL1         0.1041
      10    H7      20.181319   18.066537   24.106808 H          1 MOL1         0.1041
      11    C4      20.365961   17.490391   22.023210 C.3        1 MOL1         0.0313
      12    H8      20.594306   16.448055   22.259986 H          1 MOL1         0.1015
      13    H9      20.947182   17.762116   21.138951 H          1 MOL1         0.1015
      14    N1      18.888539   17.537566   21.662736 N.4        1 MOL1        -0.4809
      15    H10     18.314630   17.639943   22.512909 H          1 MOL1         0.3726
      16    H11     18.607587   16.628294   21.263875 H          1 MOL1         0.3726
      17    C5      18.588656   18.640368   20.653210 C.3        1 MOL1        -0.0677
      18    H12     19.181075   18.470942   19.751587 H          1 MOL1         0.1026
      19    H13     17.525744   18.615725   20.403139 H          1 MOL1         0.1026
      20    H14     18.840527   19.611015   21.081493 H          1 MOL1         0.1026
@<TRIPOS>BOND
    1     1     2    1
    2     1     3    1
    3     1     4    1
    4     1     5    1
    5     5     6    1
    6     5     7    1
    7     5     8    1
    8     8     9    1
    9     8    10    1
   10     8    11    1
   11    11    12    1
   12    11    13    1
   13    11    14    1
   14    14    15    1
   15    14    16    1
   16    14    17    1
   17    17    18    1
   18    17    19    1
   19    17    20    1
@<TRIPOS>SUBSTRUCTURE
       1 MOL1            1 RESIDUE      1      MOL     
@<SCITEGIC>MOL_PROPERTY
VConf Rank
SciTegic.value.IntegerValue
570

@<SCITEGIC>MOL_PROPERTY
Conf_Id
SciTegic.value.IntegerValue
54

@<SCITEGIC>MOL_PROPERTY
Delta U+W
SciTegic.value.DoubleValue
1.880

@<SCITEGIC>MOL_PROPERTY
U+W
SciTegic.value.DoubleValue
17.218

@<SCITEGIC>MOL_PROPERTY
Grad RMS
SciTegic.value.DoubleValue
0.000000

@<SCITEGIC>MOL_PROPERTY
U
SciTegic.value.DoubleValue
72.122

@<SCITEGIC>MOL_PROPERTY
W
SciTegic.value.DoubleValue
-54.903

@<SCITEGIC>MOL_PROPERTY
W(PB)
SciTegic.value.DoubleValue
-56.724

@<SCITEGIC>MOL_PROPERTY
W(SA)
SciTegic.value.DoubleValue
1.821

@<SCITEGIC>MOL_PROPERTY
Valence
SciTegic.value.DoubleValue
3.197

@<SCITEGIC>MOL_PROPERTY
Coulomb
SciTegic.value.DoubleValue
69.115

@<SCITEGIC>MOL_PROPERTY
VdW
SciTegic.value.DoubleValue
-0.190

@<SCITEGIC>MOL_PROPERTY
VdW6
SciTegic.value.DoubleValue
-5.585

@<SCITEGIC>MOL_PROPERTY
VdW12
SciTegic.value.DoubleValue
5.395

@<SCITEGIC>MOL_PROPERTY
Bond
SciTegic.value.DoubleValue
0.177

@<SCITEGIC>MOL_PROPERTY
Angle
SciTegic.value.DoubleValue
1.207

@<SCITEGIC>MOL_PROPERTY
Pdih
SciTegic.value.DoubleValue
1.813

@<SCITEGIC>MOL_PROPERTY
Idih
SciTegic.value.DoubleValue
0.000

@<SCITEGIC>MOL_PROPERTY
Tether
SciTegic.value.DoubleValue
0.000

@<TRIPOS>MOLECULE
guest-s9_confgen4.mol2 : confsearch ligand conformer 571
          20          19           1
SMALL
USER_CHARGES
 
@<TRIPOS>ATOM
       1    C1      19.701029   19.118618   18.826781 C.3        1 MOL1        -0.2224
       2    H1      20.763679   19.251471   18.585321 H          1 MOL1         0.1052
       3    H2      19.243726   18.532220   18.019294 H          1 MOL1         0.1052
       4    H3      19.226089   20.108344   18.833839 H          1 MOL1         0.1052
       5    C2      19.524025   18.406909   20.185594 C.3        1 MOL1        -0.1209
       6    H4      19.978446   17.407209   20.136072 H          1 MOL1         0.1041
       7    H5      18.452967   18.257426   20.382673 H          1 MOL1         0.1041
       8    C3      20.158781   19.210388   21.341997 C.3        1 MOL1        -0.1274
       9    H6      21.229432   19.356263   21.146057 H          1 MOL1         0.1041
      10    H7      19.701946   20.207723   21.392906 H          1 MOL1         0.1041
      11    C4      19.978000   18.494323   22.693348 C.3        1 MOL1         0.0313
      12    H8      20.445181   17.507178   22.651183 H          1 MOL1         0.1015
      13    H9      18.912821   18.361523   22.898887 H          1 MOL1         0.1015
      14    N1      20.586530   19.247525   23.860003 N.4        1 MOL1        -0.4809
      15    H10     20.175308   20.191093   23.928798 H          1 MOL1         0.3726
      16    H11     21.594066   19.400030   23.699480 H          1 MOL1         0.3726
      17    C5      20.363352   18.472739   25.151930 C.3        1 MOL1        -0.0677
      18    H12     20.836009   17.491617   25.069455 H          1 MOL1         0.1026
      19    H13     20.806210   19.025930   25.983114 H          1 MOL1         0.1026
      20    H14     19.290720   18.353321   25.319288 H          1 MOL1         0.1026
@<TRIPOS>BOND
    1     1     2    1
    2     1     3    1
    3     1     4    1
    4     1     5    1
    5     5     6    1
    6     5     7    1
    7     5     8    1
    8     8     9    1
    9     8    10    1
   10     8    11    1
   11    11    12    1
   12    11    13    1
   13    11    14    1
   14    14    15    1
   15    14    16    1
   16    14    17    1
   17    17    18    1
   18    17    19    1
   19    17    20    1
@<TRIPOS>SUBSTRUCTURE
       1 MOL1            1 RESIDUE      1      MOL     
@<SCITEGIC>MOL_PROPERTY
VConf Rank
SciTegic.value.IntegerValue
571

@<SCITEGIC>MOL_PROPERTY
Conf_Id
SciTegic.value.IntegerValue
67

@<SCITEGIC>MOL_PROPERTY
Delta U+W
SciTegic.value.DoubleValue
0.000

@<SCITEGIC>MOL_PROPERTY
U+W
SciTegic.value.DoubleValue
15.338

@<SCITEGIC>MOL_PROPERTY
Grad RMS
SciTegic.value.DoubleValue
0.000000

@<SCITEGIC>MOL_PROPERTY
U
SciTegic.value.DoubleValue
69.277

@<SCITEGIC>MOL_PROPERTY
W
SciTegic.value.DoubleValue
-53.939

@<SCITEGIC>MOL_PROPERTY
W(PB)
SciTegic.value.DoubleValue
-55.889

@<SCITEGIC>MOL_PROPERTY
W(SA)
SciTegic.value.DoubleValue
1.950

@<SCITEGIC>MOL_PROPERTY
Valence
SciTegic.value.DoubleValue
0.846

@<SCITEGIC>MOL_PROPERTY
Coulomb
SciTegic.value.DoubleValue
68.557

@<SCITEGIC>MOL_PROPERTY
VdW
SciTegic.value.DoubleValue
-0.127

@<SCITEGIC>MOL_PROPERTY
VdW6
SciTegic.value.DoubleValue
-3.008

@<SCITEGIC>MOL_PROPERTY
VdW12
SciTegic.value.DoubleValue
2.882

@<SCITEGIC>MOL_PROPERTY
Bond
SciTegic.value.DoubleValue
0.088

@<SCITEGIC>MOL_PROPERTY
Angle
SciTegic.value.DoubleValue
0.332

@<SCITEGIC>MOL_PROPERTY
Pdih
SciTegic.value.DoubleValue
0.426

@<SCITEGIC>MOL_PROPERTY
Idih
SciTegic.value.DoubleValue
0.000

@<SCITEGIC>MOL_PROPERTY
Tether
SciTegic.value.DoubleValue
0.000

@<TRIPOS>MOLECULE
guest-s9_confgen4.mol2 : confsearch ligand conformer 572
          20          19           1
SMALL
USER_CHARGES
 
@<TRIPOS>ATOM
       1    C1      21.673200   20.648878   20.150617 C.3        1 MOL1        -0.2224
       2    H1      20.942055   20.481448   19.349017 H          1 MOL1         0.1052
       3    H2      22.050813   21.674898   20.052077 H          1 MOL1         0.1052
       4    H3      22.516320   19.963833   19.992405 H          1 MOL1         0.1052
       5    C2      21.034663   20.433583   21.539930 C.3        1 MOL1        -0.1209
       6    H4      20.217755   21.155220   21.682154 H          1 MOL1         0.1041
       7    H5      21.779903   20.642362   22.320529 H          1 MOL1         0.1041
       8    C3      20.494031   18.996448   21.707413 C.3        1 MOL1        -0.1274
       9    H6      19.750580   18.792543   20.926094 H          1 MOL1         0.1041
      10    H7      21.311394   18.276362   21.569512 H          1 MOL1         0.1041
      11    C4      19.859634   18.790819   23.098539 C.3        1 MOL1         0.0313
      12    H8      19.013728   19.471145   23.224957 H          1 MOL1         0.1015
      13    H9      20.601663   19.028085   23.865205 H          1 MOL1         0.1015
      14    N1      19.368368   17.377658   23.367608 N.4        1 MOL1        -0.4809
      15    H10     19.113828   17.284614   24.363519 H          1 MOL1         0.3726
      16    H11     20.133327   16.700385   23.226489 H          1 MOL1         0.3726
      17    C5      18.168394   17.031368   22.492588 C.3        1 MOL1        -0.0677
      18    H12     18.463099   17.067161   21.441991 H          1 MOL1         0.1026
      19    H13     17.822556   16.025711   22.741628 H          1 MOL1         0.1026
      20    H14     17.368623   17.751628   22.677791 H          1 MOL1         0.1026
@<TRIPOS>BOND
    1     1     2    1
    2     1     3    1
    3     1     4    1
    4     1     5    1
    5     5     6    1
    6     5     7    1
    7     5     8    1
    8     8     9    1
    9     8    10    1
   10     8    11    1
   11    11    12    1
   12    11    13    1
   13    11    14    1
   14    14    15    1
   15    14    16    1
   16    14    17    1
   17    17    18    1
   18    17    19    1
   19    17    20    1
@<TRIPOS>SUBSTRUCTURE
       1 MOL1            1 RESIDUE      1      MOL     
@<SCITEGIC>MOL_PROPERTY
VConf Rank
SciTegic.value.IntegerValue
572

@<SCITEGIC>MOL_PROPERTY
Conf_Id
SciTegic.value.IntegerValue
37

@<SCITEGIC>MOL_PROPERTY
Delta U+W
SciTegic.value.DoubleValue
-0.021

@<SCITEGIC>MOL_PROPERTY
U+W
SciTegic.value.DoubleValue
15.318

@<SCITEGIC>MOL_PROPERTY
Grad RMS
SciTegic.value.DoubleValue
0.000000

@<SCITEGIC>MOL_PROPERTY
U
SciTegic.value.DoubleValue
69.657

@<SCITEGIC>MOL_PROPERTY
W
SciTegic.value.DoubleValue
-54.340

@<SCITEGIC>MOL_PROPERTY
W(PB)
SciTegic.value.DoubleValue
-56.238

@<SCITEGIC>MOL_PROPERTY
W(SA)
SciTegic.value.DoubleValue
1.899

@<SCITEGIC>MOL_PROPERTY
Valence
SciTegic.value.DoubleValue
1.137

@<SCITEGIC>MOL_PROPERTY
Coulomb
SciTegic.value.DoubleValue
68.383

@<SCITEGIC>MOL_PROPERTY
VdW
SciTegic.value.DoubleValue
0.138

@<SCITEGIC>MOL_PROPERTY
VdW6
SciTegic.value.DoubleValue
-3.703

@<SCITEGIC>MOL_PROPERTY
VdW12
SciTegic.value.DoubleValue
3.841

@<SCITEGIC>MOL_PROPERTY
Bond
SciTegic.value.DoubleValue
0.125

@<SCITEGIC>MOL_PROPERTY
Angle
SciTegic.value.DoubleValue
0.468

@<SCITEGIC>MOL_PROPERTY
Pdih
SciTegic.value.DoubleValue
0.543

@<SCITEGIC>MOL_PROPERTY
Idih
SciTegic.value.DoubleValue
0.000

@<SCITEGIC>MOL_PROPERTY
Tether
SciTegic.value.DoubleValue
0.000

@<TRIPOS>MOLECULE
guest-s9_confgen4.mol2 : confsearch ligand conformer 573
          20          19           1
SMALL
USER_CHARGES
 
@<TRIPOS>ATOM
       1    C1      19.640408   20.930133   24.062966 C.3        1 MOL1        -0.2224
       2    H1      19.067179   21.171358   24.967532 H          1 MOL1         0.1052
       3    H2      20.695348   20.831031   24.350106 H          1 MOL1         0.1052
       4    H3      19.552602   21.779484   23.372994 H          1 MOL1         0.1052
       5    C2      19.115746   19.630488   23.414954 C.3        1 MOL1        -0.1209
       6    H4      18.050368   19.748360   23.171263 H          1 MOL1         0.1041
       7    H5      19.184601   18.807257   24.140127 H          1 MOL1         0.1041
       8    C3      19.904597   19.266007   22.138022 C.3        1 MOL1        -0.1274
       9    H6      19.831808   20.086910   21.412460 H          1 MOL1         0.1041
      10    H7      20.967426   19.149400   22.386120 H          1 MOL1         0.1041
      11    C4      19.372251   17.967529   21.497294 C.3        1 MOL1         0.0313
      12    H8      18.306743   18.087695   21.285326 H          1 MOL1         0.1015
      13    H9      19.485972   17.135055   22.196176 H          1 MOL1         0.1015
      14    N1      20.051191   17.580499   20.193451 N.4        1 MOL1        -0.4809
      15    H10     19.993059   18.356215   19.516207 H          1 MOL1         0.3726
      16    H11     19.533009   16.804926   19.751569 H          1 MOL1         0.3726
      17    C5      21.501266   17.168586   20.423941 C.3        1 MOL1        -0.0677
      18    H12     21.530408   16.334191   21.127959 H          1 MOL1         0.1026
      19    H13     21.941622   16.862474   19.472440 H          1 MOL1         0.1026
      20    H14     22.058786   18.015068   20.829560 H          1 MOL1         0.1026
@<TRIPOS>BOND
    1     1     2    1
    2     1     3    1
    3     1     4    1
    4     1     5    1
    5     5     6    1
    6     5     7    1
    7     5     8    1
    8     8     9    1
    9     8    10    1
   10     8    11    1
   11    11    12    1
   12    11    13    1
   13    11    14    1
   14    14    15    1
   15    14    16    1
   16    14    17    1
   17    17    18    1
   18    17    19    1
   19    17    20    1
@<TRIPOS>SUBSTRUCTURE
       1 MOL1            1 RESIDUE      1      MOL     
@<SCITEGIC>MOL_PROPERTY
VConf Rank
SciTegic.value.IntegerValue
573

@<SCITEGIC>MOL_PROPERTY
Conf_Id
SciTegic.value.IntegerValue
2

@<SCITEGIC>MOL_PROPERTY
Delta U+W
SciTegic.value.DoubleValue
0.069

@<SCITEGIC>MOL_PROPERTY
U+W
SciTegic.value.DoubleValue
15.407

@<SCITEGIC>MOL_PROPERTY
Grad RMS
SciTegic.value.DoubleValue
0.000000

@<SCITEGIC>MOL_PROPERTY
U
SciTegic.value.DoubleValue
69.657

@<SCITEGIC>MOL_PROPERTY
W
SciTegic.value.DoubleValue
-54.250

@<SCITEGIC>MOL_PROPERTY
W(PB)
SciTegic.value.DoubleValue
-56.176

@<SCITEGIC>MOL_PROPERTY
W(SA)
SciTegic.value.DoubleValue
1.926

@<SCITEGIC>MOL_PROPERTY
Valence
SciTegic.value.DoubleValue
1.137

@<SCITEGIC>MOL_PROPERTY
Coulomb
SciTegic.value.DoubleValue
68.383

@<SCITEGIC>MOL_PROPERTY
VdW
SciTegic.value.DoubleValue
0.138

@<SCITEGIC>MOL_PROPERTY
VdW6
SciTegic.value.DoubleValue
-3.703

@<SCITEGIC>MOL_PROPERTY
VdW12
SciTegic.value.DoubleValue
3.841

@<SCITEGIC>MOL_PROPERTY
Bond
SciTegic.value.DoubleValue
0.125

@<SCITEGIC>MOL_PROPERTY
Angle
SciTegic.value.DoubleValue
0.468

@<SCITEGIC>MOL_PROPERTY
Pdih
SciTegic.value.DoubleValue
0.543

@<SCITEGIC>MOL_PROPERTY
Idih
SciTegic.value.DoubleValue
0.000

@<SCITEGIC>MOL_PROPERTY
Tether
SciTegic.value.DoubleValue
0.000

@<TRIPOS>MOLECULE
guest-s9_confgen4.mol2 : confsearch ligand conformer 574
          20          19           1
SMALL
USER_CHARGES
 
@<TRIPOS>ATOM
       1    C1      19.626632   16.885386   20.155036 C.3        1 MOL1        -0.2224
       2    H1      20.603523   17.370073   20.033274 H          1 MOL1         0.1052
       3    H2      19.752385   16.023166   20.822764 H          1 MOL1         0.1052
       4    H3      19.321527   16.505061   19.171545 H          1 MOL1         0.1052
       5    C2      18.569037   17.868200   20.708078 C.3        1 MOL1        -0.1209
       6    H4      17.590029   17.368936   20.725159 H          1 MOL1         0.1041
       7    H5      18.467293   18.723536   20.025250 H          1 MOL1         0.1041
       8    C3      18.899761   18.374273   22.131697 C.3        1 MOL1        -0.1274
       9    H6      18.072729   19.002296   22.488716 H          1 MOL1         0.1041
      10    H7      18.966492   17.520787   22.819429 H          1 MOL1         0.1041
      11    C4      20.209316   19.185159   22.184342 C.3        1 MOL1         0.0313
      12    H8      20.141796   20.035877   21.501632 H          1 MOL1         0.1015
      13    H9      21.044963   18.556235   21.868249 H          1 MOL1         0.1015
      14    N1      20.530332   19.720943   23.565775 N.4        1 MOL1        -0.4809
      15    H10     20.593090   18.945545   24.243202 H          1 MOL1         0.3726
      16    H11     19.760260   20.317793   23.904689 H          1 MOL1         0.3726
      17    C5      21.835835   20.504129   23.528715 C.3        1 MOL1        -0.0677
      18    H12     21.735017   21.339033   22.831885 H          1 MOL1         0.1026
      19    H13     22.054808   20.884035   24.529078 H          1 MOL1         0.1026
      20    H14     22.642155   19.844434   23.200917 H          1 MOL1         0.1026
@<TRIPOS>BOND
    1     1     2    1
    2     1     3    1
    3     1     4    1
    4     1     5    1
    5     5     6    1
    6     5     7    1
    7     5     8    1
    8     8     9    1
    9     8    10    1
   10     8    11    1
   11    11    12    1
   12    11    13    1
   13    11    14    1
   14    14    15    1
   15    14    16    1
   16    14    17    1
   17    17    18    1
   18    17    19    1
   19    17    20    1
@<TRIPOS>SUBSTRUCTURE
       1 MOL1            1 RESIDUE      1      MOL     
@<SCITEGIC>MOL_PROPERTY
VConf Rank
SciTegic.value.IntegerValue
574

@<SCITEGIC>MOL_PROPERTY
Conf_Id
SciTegic.value.IntegerValue
34

@<SCITEGIC>MOL_PROPERTY
Delta U+W
SciTegic.value.DoubleValue
0.276

@<SCITEGIC>MOL_PROPERTY
U+W
SciTegic.value.DoubleValue
15.615

@<SCITEGIC>MOL_PROPERTY
Grad RMS
SciTegic.value.DoubleValue
0.000000

@<SCITEGIC>MOL_PROPERTY
U
SciTegic.value.DoubleValue
69.798

@<SCITEGIC>MOL_PROPERTY
W
SciTegic.value.DoubleValue
-54.184

@<SCITEGIC>MOL_PROPERTY
W(PB)
SciTegic.value.DoubleValue
-56.116

@<SCITEGIC>MOL_PROPERTY
W(SA)
SciTegic.value.DoubleValue
1.933

@<SCITEGIC>MOL_PROPERTY
Valence
SciTegic.value.DoubleValue
1.134

@<SCITEGIC>MOL_PROPERTY
Coulomb
SciTegic.value.DoubleValue
68.735

@<SCITEGIC>MOL_PROPERTY
VdW
SciTegic.value.DoubleValue
-0.070

@<SCITEGIC>MOL_PROPERTY
VdW6
SciTegic.value.DoubleValue
-3.565

@<SCITEGIC>MOL_PROPERTY
VdW12
SciTegic.value.DoubleValue
3.494

@<SCITEGIC>MOL_PROPERTY
Bond
SciTegic.value.DoubleValue
0.108

@<SCITEGIC>MOL_PROPERTY
Angle
SciTegic.value.DoubleValue
0.456

@<SCITEGIC>MOL_PROPERTY
Pdih
SciTegic.value.DoubleValue
0.569

@<SCITEGIC>MOL_PROPERTY
Idih
SciTegic.value.DoubleValue
0.000

@<SCITEGIC>MOL_PROPERTY
Tether
SciTegic.value.DoubleValue
0.000

@<TRIPOS>MOLECULE
guest-s9_confgen4.mol2 : confsearch ligand conformer 575
          20          19           1
SMALL
USER_CHARGES
 
@<TRIPOS>ATOM
       1    C1      18.027988   20.595654   23.411889 C.3        1 MOL1        -0.2224
       2    H1      17.026293   20.398100   23.008469 H          1 MOL1         0.1052
       3    H2      17.936058   20.705075   24.500283 H          1 MOL1         0.1052
       4    H3      18.376651   21.554216   23.005964 H          1 MOL1         0.1052
       5    C2      19.005478   19.453763   23.058870 C.3        1 MOL1        -0.1209
       6    H4      18.646041   18.515732   23.505221 H          1 MOL1         0.1041
       7    H5      19.983389   19.666036   23.511778 H          1 MOL1         0.1041
       8    C3      19.153175   19.279240   21.528866 C.3        1 MOL1        -0.1274
       9    H6      18.163105   19.106761   21.086263 H          1 MOL1         0.1041
      10    H7      19.538874   20.204001   21.079523 H          1 MOL1         0.1041
      11    C4      20.069371   18.099270   21.147034 C.3        1 MOL1         0.0313
      12    H8      20.061658   17.972606   20.061440 H          1 MOL1         0.1015
      13    H9      19.690988   17.179094   21.599291 H          1 MOL1         0.1015
      14    N1      21.514024   18.273284   21.576667 N.4        1 MOL1        -0.4809
      15    H10     21.568738   18.394840   22.598765 H          1 MOL1         0.3726
      16    H11     21.902193   19.140663   21.175389 H          1 MOL1         0.3726
      17    C5      22.335177   17.067976   21.138744 C.3        1 MOL1        -0.0677
      18    H12     21.926681   16.166894   21.601316 H          1 MOL1         0.1026
      19    H13     22.290224   16.977922   20.051244 H          1 MOL1         0.1026
      20    H14     23.371743   17.206169   21.454056 H          1 MOL1         0.1026
@<TRIPOS>BOND
    1     1     2    1
    2     1     3    1
    3     1     4    1
    4     1     5    1
    5     5     6    1
    6     5     7    1
    7     5     8    1
    8     8     9    1
    9     8    10    1
   10     8    11    1
   11    11    12    1
   12    11    13    1
   13    11    14    1
   14    14    15    1
   15    14    16    1
   16    14    17    1
   17    17    18    1
   18    17    19    1
   19    17    20    1
@<TRIPOS>SUBSTRUCTURE
       1 MOL1            1 RESIDUE      1      MOL     
@<SCITEGIC>MOL_PROPERTY
VConf Rank
SciTegic.value.IntegerValue
575

@<SCITEGIC>MOL_PROPERTY
Conf_Id
SciTegic.value.IntegerValue
50

@<SCITEGIC>MOL_PROPERTY
Delta U+W
SciTegic.value.DoubleValue
0.319

@<SCITEGIC>MOL_PROPERTY
U+W
SciTegic.value.DoubleValue
15.657

@<SCITEGIC>MOL_PROPERTY
Grad RMS
SciTegic.value.DoubleValue
0.000000

@<SCITEGIC>MOL_PROPERTY
U
SciTegic.value.DoubleValue
69.962

@<SCITEGIC>MOL_PROPERTY
W
SciTegic.value.DoubleValue
-54.305

@<SCITEGIC>MOL_PROPERTY
W(PB)
SciTegic.value.DoubleValue
-56.223

@<SCITEGIC>MOL_PROPERTY
W(SA)
SciTegic.value.DoubleValue
1.918

@<SCITEGIC>MOL_PROPERTY
Valence
SciTegic.value.DoubleValue
0.982

@<SCITEGIC>MOL_PROPERTY
Coulomb
SciTegic.value.DoubleValue
69.058

@<SCITEGIC>MOL_PROPERTY
VdW
SciTegic.value.DoubleValue
-0.078

@<SCITEGIC>MOL_PROPERTY
VdW6
SciTegic.value.DoubleValue
-3.548

@<SCITEGIC>MOL_PROPERTY
VdW12
SciTegic.value.DoubleValue
3.471

@<SCITEGIC>MOL_PROPERTY
Bond
SciTegic.value.DoubleValue
0.105

@<SCITEGIC>MOL_PROPERTY
Angle
SciTegic.value.DoubleValue
0.408

@<SCITEGIC>MOL_PROPERTY
Pdih
SciTegic.value.DoubleValue
0.469

@<SCITEGIC>MOL_PROPERTY
Idih
SciTegic.value.DoubleValue
0.000

@<SCITEGIC>MOL_PROPERTY
Tether
SciTegic.value.DoubleValue
0.000

@<TRIPOS>MOLECULE
guest-s9_confgen4.mol2 : confsearch ligand conformer 576
          20          19           1
SMALL
USER_CHARGES
 
@<TRIPOS>ATOM
       1    C1      21.927790   20.550650   20.322076 C.3        1 MOL1        -0.2224
       2    H1      22.029628   21.640368   20.406757 H          1 MOL1         0.1052
       3    H2      22.935567   20.116109   20.349083 H          1 MOL1         0.1052
       4    H3      21.486733   20.329481   19.341395 H          1 MOL1         0.1052
       5    C2      21.050775   19.994123   21.464506 C.3        1 MOL1        -0.1209
       6    H4      20.066282   20.480002   21.430024 H          1 MOL1         0.1041
       7    H5      21.501469   20.258783   22.431539 H          1 MOL1         0.1041
       8    C3      20.891059   18.458463   21.367414 C.3        1 MOL1        -0.1274
       9    H6      20.415318   18.188453   20.415247 H          1 MOL1         0.1041
      10    H7      21.884267   17.990053   21.363692 H          1 MOL1         0.1041
      11    C4      20.078024   17.866482   22.536206 C.3        1 MOL1         0.0313
      12    H8      20.546197   18.140130   23.485083 H          1 MOL1         0.1015
      13    H9      20.076901   16.776178   22.459684 H          1 MOL1         0.1015
      14    N1      18.631821   18.323255   22.577978 N.4        1 MOL1        -0.4809
      15    H10     18.159573   18.089867   21.691096 H          1 MOL1         0.3726
      16    H11     18.585430   19.350298   22.652043 H          1 MOL1         0.3726
      17    C5      17.914729   17.671443   23.752610 C.3        1 MOL1        -0.0677
      18    H12     16.876009   18.008664   23.770897 H          1 MOL1         0.1026
      19    H13     17.947245   16.585968   23.636543 H          1 MOL1         0.1026
      20    H14     18.411465   17.958722   24.681865 H          1 MOL1         0.1026
@<TRIPOS>BOND
    1     1     2    1
    2     1     3    1
    3     1     4    1
    4     1     5    1
    5     5     6    1
    6     5     7    1
    7     5     8    1
    8     8     9    1
    9     8    10    1
   10     8    11    1
   11    11    12    1
   12    11    13    1
   13    11    14    1
   14    14    15    1
   15    14    16    1
   16    14    17    1
   17    17    18    1
   18    17    19    1
   19    17    20    1
@<TRIPOS>SUBSTRUCTURE
       1 MOL1            1 RESIDUE      1      MOL     
@<SCITEGIC>MOL_PROPERTY
VConf Rank
SciTegic.value.IntegerValue
576

@<SCITEGIC>MOL_PROPERTY
Conf_Id
SciTegic.value.IntegerValue
35

@<SCITEGIC>MOL_PROPERTY
Delta U+W
SciTegic.value.DoubleValue
0.360

@<SCITEGIC>MOL_PROPERTY
U+W
SciTegic.value.DoubleValue
15.698

@<SCITEGIC>MOL_PROPERTY
Grad RMS
SciTegic.value.DoubleValue
0.000000

@<SCITEGIC>MOL_PROPERTY
U
SciTegic.value.DoubleValue
69.962

@<SCITEGIC>MOL_PROPERTY
W
SciTegic.value.DoubleValue
-54.264

@<SCITEGIC>MOL_PROPERTY
W(PB)
SciTegic.value.DoubleValue
-56.166

@<SCITEGIC>MOL_PROPERTY
W(SA)
SciTegic.value.DoubleValue
1.902

@<SCITEGIC>MOL_PROPERTY
Valence
SciTegic.value.DoubleValue
0.982

@<SCITEGIC>MOL_PROPERTY
Coulomb
SciTegic.value.DoubleValue
69.058

@<SCITEGIC>MOL_PROPERTY
VdW
SciTegic.value.DoubleValue
-0.078

@<SCITEGIC>MOL_PROPERTY
VdW6
SciTegic.value.DoubleValue
-3.548

@<SCITEGIC>MOL_PROPERTY
VdW12
SciTegic.value.DoubleValue
3.471

@<SCITEGIC>MOL_PROPERTY
Bond
SciTegic.value.DoubleValue
0.105

@<SCITEGIC>MOL_PROPERTY
Angle
SciTegic.value.DoubleValue
0.408

@<SCITEGIC>MOL_PROPERTY
Pdih
SciTegic.value.DoubleValue
0.469

@<SCITEGIC>MOL_PROPERTY
Idih
SciTegic.value.DoubleValue
0.000

@<SCITEGIC>MOL_PROPERTY
Tether
SciTegic.value.DoubleValue
0.000

@<TRIPOS>MOLECULE
guest-s9_confgen4.mol2 : confsearch ligand conformer 577
          20          19           1
SMALL
USER_CHARGES
 
@<TRIPOS>ATOM
       1    C1      17.527478   19.209098   22.230406 C.3        1 MOL1        -0.2224
       2    H1      17.902485   19.265511   23.260094 H          1 MOL1         0.1052
       3    H2      16.560420   19.727702   22.201741 H          1 MOL1         0.1052
       4    H3      17.348375   18.153473   21.988184 H          1 MOL1         0.1052
       5    C2      18.516242   19.849764   21.229356 C.3        1 MOL1        -0.1209
       6    H4      18.681931   20.902945   21.496800 H          1 MOL1         0.1041
       7    H5      18.061627   19.853322   20.228707 H          1 MOL1         0.1041
       8    C3      19.872330   19.109191   21.162650 C.3        1 MOL1        -0.1274
       9    H6      19.703844   18.068051   20.858757 H          1 MOL1         0.1041
      10    H7      20.492468   19.568457   20.381612 H          1 MOL1         0.1041
      11    C4      20.636401   19.150137   22.503540 C.3        1 MOL1         0.0313
      12    H8      20.059504   18.636482   23.276266 H          1 MOL1         0.1015
      13    H9      20.759740   20.192127   22.809502 H          1 MOL1         0.1015
      14    N1      22.020645   18.523612   22.461937 N.4        1 MOL1        -0.4809
      15    H10     22.522590   18.736482   23.338262 H          1 MOL1         0.3726
      16    H11     22.588465   18.960151   21.719822 H          1 MOL1         0.3726
      17    C5      21.939291   17.013536   22.265933 C.3        1 MOL1        -0.0677
      18    H12     21.466038   16.797364   21.306146 H          1 MOL1         0.1026
      19    H13     22.948630   16.596358   22.278610 H          1 MOL1         0.1026
      20    H14     21.350759   16.577113   23.075785 H          1 MOL1         0.1026
@<TRIPOS>BOND
    1     1     2    1
    2     1     3    1
    3     1     4    1
    4     1     5    1
    5     5     6    1
    6     5     7    1
    7     5     8    1
    8     8     9    1
    9     8    10    1
   10     8    11    1
   11    11    12    1
   12    11    13    1
   13    11    14    1
   14    14    15    1
   15    14    16    1
   16    14    17    1
   17    17    18    1
   18    17    19    1
   19    17    20    1
@<TRIPOS>SUBSTRUCTURE
       1 MOL1            1 RESIDUE      1      MOL     
@<SCITEGIC>MOL_PROPERTY
VConf Rank
SciTegic.value.IntegerValue
577

@<SCITEGIC>MOL_PROPERTY
Conf_Id
SciTegic.value.IntegerValue
33

@<SCITEGIC>MOL_PROPERTY
Delta U+W
SciTegic.value.DoubleValue
0.372

@<SCITEGIC>MOL_PROPERTY
U+W
SciTegic.value.DoubleValue
15.711

@<SCITEGIC>MOL_PROPERTY
Grad RMS
SciTegic.value.DoubleValue
0.000000

@<SCITEGIC>MOL_PROPERTY
U
SciTegic.value.DoubleValue
70.163

@<SCITEGIC>MOL_PROPERTY
W
SciTegic.value.DoubleValue
-54.452

@<SCITEGIC>MOL_PROPERTY
W(PB)
SciTegic.value.DoubleValue
-56.363

@<SCITEGIC>MOL_PROPERTY
W(SA)
SciTegic.value.DoubleValue
1.911

@<SCITEGIC>MOL_PROPERTY
Valence
SciTegic.value.DoubleValue
1.420

@<SCITEGIC>MOL_PROPERTY
Coulomb
SciTegic.value.DoubleValue
68.566

@<SCITEGIC>MOL_PROPERTY
VdW
SciTegic.value.DoubleValue
0.177

@<SCITEGIC>MOL_PROPERTY
VdW6
SciTegic.value.DoubleValue
-4.267

@<SCITEGIC>MOL_PROPERTY
VdW12
SciTegic.value.DoubleValue
4.445

@<SCITEGIC>MOL_PROPERTY
Bond
SciTegic.value.DoubleValue
0.146

@<SCITEGIC>MOL_PROPERTY
Angle
SciTegic.value.DoubleValue
0.581

@<SCITEGIC>MOL_PROPERTY
Pdih
SciTegic.value.DoubleValue
0.693

@<SCITEGIC>MOL_PROPERTY
Idih
SciTegic.value.DoubleValue
0.000

@<SCITEGIC>MOL_PROPERTY
Tether
SciTegic.value.DoubleValue
0.000

@<TRIPOS>MOLECULE
guest-s9_confgen4.mol2 : confsearch ligand conformer 578
          20          19           1
SMALL
USER_CHARGES
 
@<TRIPOS>ATOM
       1    C1      19.148376   16.446643   21.815746 C.3        1 MOL1        -0.2224
       2    H1      18.614823   15.520070   22.064255 H          1 MOL1         0.1052
       3    H2      18.476223   17.061216   21.203717 H          1 MOL1         0.1052
       4    H3      20.019116   16.177526   21.203795 H          1 MOL1         0.1052
       5    C2      19.580033   17.185788   23.103204 C.3        1 MOL1        -0.1209
       6    H4      20.174635   16.503135   23.726436 H          1 MOL1         0.1041
       7    H5      18.691078   17.447887   23.694161 H          1 MOL1         0.1041
       8    C3      20.410876   18.458807   22.818595 C.3        1 MOL1        -0.1274
       9    H6      20.746467   18.887330   23.772148 H          1 MOL1         0.1041
      10    H7      21.315814   18.185604   22.260780 H          1 MOL1         0.1041
      11    C4      19.612421   19.525382   22.038626 C.3        1 MOL1         0.0313
      12    H8      18.696731   19.755503   22.589193 H          1 MOL1         0.1015
      13    H9      19.328912   19.134795   21.058412 H          1 MOL1         0.1015
      14    N1      20.351757   20.835646   21.821847 N.4        1 MOL1        -0.4809
      15    H10     20.666603   21.222090   22.724759 H          1 MOL1         0.3726
      16    H11     19.700020   21.541756   21.445212 H          1 MOL1         0.3726
      17    C5      21.528105   20.656436   20.868192 C.3        1 MOL1        -0.0677
      18    H12     22.009891   21.623627   20.708862 H          1 MOL1         0.1026
      19    H13     22.245067   19.957861   21.303904 H          1 MOL1         0.1026
      20    H14     21.162633   20.266288   19.915872 H          1 MOL1         0.1026
@<TRIPOS>BOND
    1     1     2    1
    2     1     3    1
    3     1     4    1
    4     1     5    1
    5     5     6    1
    6     5     7    1
    7     5     8    1
    8     8     9    1
    9     8    10    1
   10     8    11    1
   11    11    12    1
   12    11    13    1
   13    11    14    1
   14    14    15    1
   15    14    16    1
   16    14    17    1
   17    17    18    1
   18    17    19    1
   19    17    20    1
@<TRIPOS>SUBSTRUCTURE
       1 MOL1            1 RESIDUE      1      MOL     
@<SCITEGIC>MOL_PROPERTY
VConf Rank
SciTegic.value.IntegerValue
578

@<SCITEGIC>MOL_PROPERTY
Conf_Id
SciTegic.value.IntegerValue
53

@<SCITEGIC>MOL_PROPERTY
Delta U+W
SciTegic.value.DoubleValue
0.379

@<SCITEGIC>MOL_PROPERTY
U+W
SciTegic.value.DoubleValue
15.717

@<SCITEGIC>MOL_PROPERTY
Grad RMS
SciTegic.value.DoubleValue
0.000000

@<SCITEGIC>MOL_PROPERTY
U
SciTegic.value.DoubleValue
70.163

@<SCITEGIC>MOL_PROPERTY
W
SciTegic.value.DoubleValue
-54.446

@<SCITEGIC>MOL_PROPERTY
W(PB)
SciTegic.value.DoubleValue
-56.322

@<SCITEGIC>MOL_PROPERTY
W(SA)
SciTegic.value.DoubleValue
1.876

@<SCITEGIC>MOL_PROPERTY
Valence
SciTegic.value.DoubleValue
1.420

@<SCITEGIC>MOL_PROPERTY
Coulomb
SciTegic.value.DoubleValue
68.566

@<SCITEGIC>MOL_PROPERTY
VdW
SciTegic.value.DoubleValue
0.177

@<SCITEGIC>MOL_PROPERTY
VdW6
SciTegic.value.DoubleValue
-4.267

@<SCITEGIC>MOL_PROPERTY
VdW12
SciTegic.value.DoubleValue
4.445

@<SCITEGIC>MOL_PROPERTY
Bond
SciTegic.value.DoubleValue
0.146

@<SCITEGIC>MOL_PROPERTY
Angle
SciTegic.value.DoubleValue
0.581

@<SCITEGIC>MOL_PROPERTY
Pdih
SciTegic.value.DoubleValue
0.693

@<SCITEGIC>MOL_PROPERTY
Idih
SciTegic.value.DoubleValue
0.000

@<SCITEGIC>MOL_PROPERTY
Tether
SciTegic.value.DoubleValue
0.000

@<TRIPOS>MOLECULE
guest-s9_confgen4.mol2 : confsearch ligand conformer 579
          20          19           1
SMALL
USER_CHARGES
 
@<TRIPOS>ATOM
       1    C1      22.410167   19.715169   20.641707 C.3        1 MOL1        -0.2224
       2    H1      22.987377   19.180494   19.876233 H          1 MOL1         0.1052
       3    H2      22.324971   20.763409   20.326934 H          1 MOL1         0.1052
       4    H3      22.983692   19.685029   21.577294 H          1 MOL1         0.1052
       5    C2      21.017590   19.073285   20.822468 C.3        1 MOL1        -0.1209
       6    H4      21.142661   18.017527   21.098855 H          1 MOL1         0.1041
       7    H5      20.481275   19.089755   19.863157 H          1 MOL1         0.1041
       8    C3      20.183840   19.807847   21.898573 C.3        1 MOL1        -0.1274
       9    H6      20.702226   19.770925   22.865348 H          1 MOL1         0.1041
      10    H7      20.103802   20.870209   21.632816 H          1 MOL1         0.1041
      11    C4      18.756322   19.235987   22.046325 C.3        1 MOL1         0.0313
      12    H8      18.234775   19.332923   21.090699 H          1 MOL1         0.1015
      13    H9      18.205385   19.818935   22.788709 H          1 MOL1         0.1015
      14    N1      18.679090   17.773984   22.460102 N.4        1 MOL1        -0.4809
      15    H10     19.190725   17.185915   21.785984 H          1 MOL1         0.3726
      16    H11     17.700366   17.451109   22.404659 H          1 MOL1         0.3726
      17    C5      19.213372   17.568598   23.873359 C.3        1 MOL1        -0.0677
      18    H12     18.641121   18.187815   24.567445 H          1 MOL1         0.1026
      19    H13     19.108042   16.516313   24.146368 H          1 MOL1         0.1026
      20    H14     20.267251   17.851879   23.906593 H          1 MOL1         0.1026
@<TRIPOS>BOND
    1     1     2    1
    2     1     3    1
    3     1     4    1
    4     1     5    1
    5     5     6    1
    6     5     7    1
    7     5     8    1
    8     8     9    1
    9     8    10    1
   10     8    11    1
   11    11    12    1
   12    11    13    1
   13    11    14    1
   14    14    15    1
   15    14    16    1
   16    14    17    1
   17    17    18    1
   18    17    19    1
   19    17    20    1
@<TRIPOS>SUBSTRUCTURE
       1 MOL1            1 RESIDUE      1      MOL     
@<SCITEGIC>MOL_PROPERTY
VConf Rank
SciTegic.value.IntegerValue
579

@<SCITEGIC>MOL_PROPERTY
Conf_Id
SciTegic.value.IntegerValue
49

@<SCITEGIC>MOL_PROPERTY
Delta U+W
SciTegic.value.DoubleValue
0.268

@<SCITEGIC>MOL_PROPERTY
U+W
SciTegic.value.DoubleValue
15.607

@<SCITEGIC>MOL_PROPERTY
Grad RMS
SciTegic.value.DoubleValue
0.000000

@<SCITEGIC>MOL_PROPERTY
U
SciTegic.value.DoubleValue
70.298

@<SCITEGIC>MOL_PROPERTY
W
SciTegic.value.DoubleValue
-54.692

@<SCITEGIC>MOL_PROPERTY
W(PB)
SciTegic.value.DoubleValue
-56.576

@<SCITEGIC>MOL_PROPERTY
W(SA)
SciTegic.value.DoubleValue
1.885

@<SCITEGIC>MOL_PROPERTY
Valence
SciTegic.value.DoubleValue
1.245

@<SCITEGIC>MOL_PROPERTY
Coulomb
SciTegic.value.DoubleValue
68.933

@<SCITEGIC>MOL_PROPERTY
VdW
SciTegic.value.DoubleValue
0.120

@<SCITEGIC>MOL_PROPERTY
VdW6
SciTegic.value.DoubleValue
-4.430

@<SCITEGIC>MOL_PROPERTY
VdW12
SciTegic.value.DoubleValue
4.550

@<SCITEGIC>MOL_PROPERTY
Bond
SciTegic.value.DoubleValue
0.148

@<SCITEGIC>MOL_PROPERTY
Angle
SciTegic.value.DoubleValue
0.587

@<SCITEGIC>MOL_PROPERTY
Pdih
SciTegic.value.DoubleValue
0.509

@<SCITEGIC>MOL_PROPERTY
Idih
SciTegic.value.DoubleValue
0.000

@<SCITEGIC>MOL_PROPERTY
Tether
SciTegic.value.DoubleValue
0.000

@<TRIPOS>MOLECULE
guest-s9_confgen4.mol2 : confsearch ligand conformer 580
          20          19           1
SMALL
USER_CHARGES
 
@<TRIPOS>ATOM
       1    C1      20.706670   21.439385   22.181167 C.3        1 MOL1        -0.2224
       2    H1      20.976516   21.518652   23.242332 H          1 MOL1         0.1052
       3    H2      21.599290   21.666461   21.583834 H          1 MOL1         0.1052
       4    H3      19.954666   22.209870   21.967060 H          1 MOL1         0.1052
       5    C2      20.157688   20.034513   21.850591 C.3        1 MOL1        -0.1209
       6    H4      19.870654   19.994642   20.790397 H          1 MOL1         0.1041
       7    H5      19.245942   19.863447   22.437961 H          1 MOL1         0.1041
       8    C3      21.194969   18.928324   22.153937 C.3        1 MOL1        -0.1274
       9    H6      22.139610   19.175527   21.651640 H          1 MOL1         0.1041
      10    H7      21.414256   18.909705   23.229633 H          1 MOL1         0.1041
      11    C4      20.766721   17.516636   21.692885 C.3        1 MOL1         0.0313
      12    H8      21.593491   16.831006   21.895637 H          1 MOL1         0.1015
      13    H9      20.585961   17.507321   20.615139 H          1 MOL1         0.1015
      14    N1      19.541625   16.941526   22.386895 N.4        1 MOL1        -0.4809
      15    H10     19.491869   17.272592   23.361964 H          1 MOL1         0.3726
      16    H11     19.642130   15.917122   22.461071 H          1 MOL1         0.3726
      17    C5      18.263145   17.265713   21.620711 C.3        1 MOL1        -0.0677
      18    H12     17.412990   16.816398   22.138697 H          1 MOL1         0.1026
      19    H13     18.128572   18.346590   21.566811 H          1 MOL1         0.1026
      20    H14     18.336470   16.853798   20.611931 H          1 MOL1         0.1026
@<TRIPOS>BOND
    1     1     2    1
    2     1     3    1
    3     1     4    1
    4     1     5    1
    5     5     6    1
    6     5     7    1
    7     5     8    1
    8     8     9    1
    9     8    10    1
   10     8    11    1
   11    11    12    1
   12    11    13    1
   13    11    14    1
   14    14    15    1
   15    14    16    1
   16    14    17    1
   17    17    18    1
   18    17    19    1
   19    17    20    1
@<TRIPOS>SUBSTRUCTURE
       1 MOL1            1 RESIDUE      1      MOL     
@<SCITEGIC>MOL_PROPERTY
VConf Rank
SciTegic.value.IntegerValue
580

@<SCITEGIC>MOL_PROPERTY
Conf_Id
SciTegic.value.IntegerValue
65

@<SCITEGIC>MOL_PROPERTY
Delta U+W
SciTegic.value.DoubleValue
1.775

@<SCITEGIC>MOL_PROPERTY
U+W
SciTegic.value.DoubleValue
17.114

@<SCITEGIC>MOL_PROPERTY
Grad RMS
SciTegic.value.DoubleValue
0.000000

@<SCITEGIC>MOL_PROPERTY
U
SciTegic.value.DoubleValue
71.726

@<SCITEGIC>MOL_PROPERTY
W
SciTegic.value.DoubleValue
-54.613

@<SCITEGIC>MOL_PROPERTY
W(PB)
SciTegic.value.DoubleValue
-56.495

@<SCITEGIC>MOL_PROPERTY
W(SA)
SciTegic.value.DoubleValue
1.883

@<SCITEGIC>MOL_PROPERTY
Valence
SciTegic.value.DoubleValue
2.885

@<SCITEGIC>MOL_PROPERTY
Coulomb
SciTegic.value.DoubleValue
68.822

@<SCITEGIC>MOL_PROPERTY
VdW
SciTegic.value.DoubleValue
0.019

@<SCITEGIC>MOL_PROPERTY
VdW6
SciTegic.value.DoubleValue
-4.600

@<SCITEGIC>MOL_PROPERTY
VdW12
SciTegic.value.DoubleValue
4.619

@<SCITEGIC>MOL_PROPERTY
Bond
SciTegic.value.DoubleValue
0.152

@<SCITEGIC>MOL_PROPERTY
Angle
SciTegic.value.DoubleValue
0.862

@<SCITEGIC>MOL_PROPERTY
Pdih
SciTegic.value.DoubleValue
1.871

@<SCITEGIC>MOL_PROPERTY
Idih
SciTegic.value.DoubleValue
0.000

@<SCITEGIC>MOL_PROPERTY
Tether
SciTegic.value.DoubleValue
0.000

@<TRIPOS>MOLECULE
guest-s9_confgen4.mol2 : confsearch ligand conformer 581
          20          19           1
SMALL
USER_CHARGES
 
@<TRIPOS>ATOM
       1    C1      20.510097   19.679391   19.880048 C.3        1 MOL1        -0.2224
       2    H1      20.417314   18.587769   19.941326 H          1 MOL1         0.1052
       3    H2      19.987660   20.005110   18.971232 H          1 MOL1         0.1052
       4    H3      21.573028   19.926722   19.761407 H          1 MOL1         0.1052
       5    C2      19.913759   20.373058   21.126394 C.3        1 MOL1        -0.1209
       6    H4      18.851341   20.111081   21.222550 H          1 MOL1         0.1041
       7    H5      19.944492   21.461661   20.978052 H          1 MOL1         0.1041
       8    C3      20.669203   20.026806   22.433838 C.3        1 MOL1        -0.1274
       9    H6      21.703330   20.388527   22.359644 H          1 MOL1         0.1041
      10    H7      20.214928   20.570736   23.272599 H          1 MOL1         0.1041
      11    C4      20.697145   18.519400   22.762338 C.3        1 MOL1         0.0313
      12    H8      21.272637   18.358716   23.677505 H          1 MOL1         0.1015
      13    H9      21.189705   17.975458   21.952846 H          1 MOL1         0.1015
      14    N1      19.324432   17.908250   22.969119 N.4        1 MOL1        -0.4809
      15    H10     18.746683   18.046338   22.126725 H          1 MOL1         0.3726
      16    H11     18.827355   18.399073   23.728004 H          1 MOL1         0.3726
      17    C5      19.457839   16.425353   23.288078 C.3        1 MOL1        -0.0677
      18    H12     20.046365   16.305167   24.200195 H          1 MOL1         0.1026
      19    H13     18.462969   15.998531   23.433081 H          1 MOL1         0.1026
      20    H14     19.956942   15.921971   22.457258 H          1 MOL1         0.1026
@<TRIPOS>BOND
    1     1     2    1
    2     1     3    1
    3     1     4    1
    4     1     5    1
    5     5     6    1
    6     5     7    1
    7     5     8    1
    8     8     9    1
    9     8    10    1
   10     8    11    1
   11    11    12    1
   12    11    13    1
   13    11    14    1
   14    14    15    1
   15    14    16    1
   16    14    17    1
   17    17    18    1
   18    17    19    1
   19    17    20    1
@<TRIPOS>SUBSTRUCTURE
       1 MOL1            1 RESIDUE      1      MOL     
@<SCITEGIC>MOL_PROPERTY
VConf Rank
SciTegic.value.IntegerValue
581

@<SCITEGIC>MOL_PROPERTY
Conf_Id
SciTegic.value.IntegerValue
23

@<SCITEGIC>MOL_PROPERTY
Delta U+W
SciTegic.value.DoubleValue
0.896

@<SCITEGIC>MOL_PROPERTY
U+W
SciTegic.value.DoubleValue
16.234

@<SCITEGIC>MOL_PROPERTY
Grad RMS
SciTegic.value.DoubleValue
0.000000

@<SCITEGIC>MOL_PROPERTY
U
SciTegic.value.DoubleValue
70.374

@<SCITEGIC>MOL_PROPERTY
W
SciTegic.value.DoubleValue
-54.140

@<SCITEGIC>MOL_PROPERTY
W(PB)
SciTegic.value.DoubleValue
-56.046

@<SCITEGIC>MOL_PROPERTY
W(SA)
SciTegic.value.DoubleValue
1.907

@<SCITEGIC>MOL_PROPERTY
Valence
SciTegic.value.DoubleValue
1.257

@<SCITEGIC>MOL_PROPERTY
Coulomb
SciTegic.value.DoubleValue
69.240

@<SCITEGIC>MOL_PROPERTY
VdW
SciTegic.value.DoubleValue
-0.123

@<SCITEGIC>MOL_PROPERTY
VdW6
SciTegic.value.DoubleValue
-4.336

@<SCITEGIC>MOL_PROPERTY
VdW12
SciTegic.value.DoubleValue
4.213

@<SCITEGIC>MOL_PROPERTY
Bond
SciTegic.value.DoubleValue
0.128

@<SCITEGIC>MOL_PROPERTY
Angle
SciTegic.value.DoubleValue
0.603

@<SCITEGIC>MOL_PROPERTY
Pdih
SciTegic.value.DoubleValue
0.526

@<SCITEGIC>MOL_PROPERTY
Idih
SciTegic.value.DoubleValue
0.000

@<SCITEGIC>MOL_PROPERTY
Tether
SciTegic.value.DoubleValue
0.000

@<TRIPOS>MOLECULE
guest-s9_confgen4.mol2 : confsearch ligand conformer 582
          20          19           1
SMALL
USER_CHARGES
 
@<TRIPOS>ATOM
       1    C1      21.758514   17.196797   21.351323 C.3        1 MOL1        -0.2224
       2    H1      22.001995   16.508647   22.171224 H          1 MOL1         0.1052
       3    H2      22.324699   16.876737   20.467029 H          1 MOL1         0.1052
       4    H3      22.114225   18.197497   21.627137 H          1 MOL1         0.1052
       5    C2      20.241284   17.192876   21.054396 C.3        1 MOL1        -0.1209
       6    H4      19.950674   16.196138   20.693753 H          1 MOL1         0.1041
       7    H5      20.023738   17.887234   20.231504 H          1 MOL1         0.1041
       8    C3      19.379316   17.545720   22.292342 C.3        1 MOL1        -0.1274
       9    H6      18.316098   17.498315   22.022040 H          1 MOL1         0.1041
      10    H7      19.531624   16.782874   23.067348 H          1 MOL1         0.1041
      11    C4      19.687598   18.931152   22.897741 C.3        1 MOL1         0.0313
      12    H8      20.733193   18.970879   23.212253 H          1 MOL1         0.1015
      13    H9      19.062336   19.088041   23.780336 H          1 MOL1         0.1015
      14    N1      19.440589   20.087526   21.947798 N.4        1 MOL1        -0.4809
      15    H10     18.460064   20.081534   21.627746 H          1 MOL1         0.3726
      16    H11     20.009303   19.971477   21.095985 H          1 MOL1         0.3726
      17    C5      19.771188   21.405312   22.635306 C.3        1 MOL1        -0.0677
      18    H12     20.821279   21.401196   22.935393 H          1 MOL1         0.1026
      19    H13     19.590095   22.228088   21.940169 H          1 MOL1         0.1026
      20    H14     19.135660   21.520920   23.515933 H          1 MOL1         0.1026
@<TRIPOS>BOND
    1     1     2    1
    2     1     3    1
    3     1     4    1
    4     1     5    1
    5     5     6    1
    6     5     7    1
    7     5     8    1
    8     8     9    1
    9     8    10    1
   10     8    11    1
   11    11    12    1
   12    11    13    1
   13    11    14    1
   14    14    15    1
   15    14    16    1
   16    14    17    1
   17    17    18    1
   18    17    19    1
   19    17    20    1
@<TRIPOS>SUBSTRUCTURE
       1 MOL1            1 RESIDUE      1      MOL     
@<SCITEGIC>MOL_PROPERTY
VConf Rank
SciTegic.value.IntegerValue
582

@<SCITEGIC>MOL_PROPERTY
Conf_Id
SciTegic.value.IntegerValue
24

@<SCITEGIC>MOL_PROPERTY
Delta U+W
SciTegic.value.DoubleValue
0.792

@<SCITEGIC>MOL_PROPERTY
U+W
SciTegic.value.DoubleValue
16.130

@<SCITEGIC>MOL_PROPERTY
Grad RMS
SciTegic.value.DoubleValue
0.000000

@<SCITEGIC>MOL_PROPERTY
U
SciTegic.value.DoubleValue
70.374

@<SCITEGIC>MOL_PROPERTY
W
SciTegic.value.DoubleValue
-54.243

@<SCITEGIC>MOL_PROPERTY
W(PB)
SciTegic.value.DoubleValue
-56.130

@<SCITEGIC>MOL_PROPERTY
W(SA)
SciTegic.value.DoubleValue
1.887

@<SCITEGIC>MOL_PROPERTY
Valence
SciTegic.value.DoubleValue
1.257

@<SCITEGIC>MOL_PROPERTY
Coulomb
SciTegic.value.DoubleValue
69.240

@<SCITEGIC>MOL_PROPERTY
VdW
SciTegic.value.DoubleValue
-0.123

@<SCITEGIC>MOL_PROPERTY
VdW6
SciTegic.value.DoubleValue
-4.336

@<SCITEGIC>MOL_PROPERTY
VdW12
SciTegic.value.DoubleValue
4.213

@<SCITEGIC>MOL_PROPERTY
Bond
SciTegic.value.DoubleValue
0.128

@<SCITEGIC>MOL_PROPERTY
Angle
SciTegic.value.DoubleValue
0.603

@<SCITEGIC>MOL_PROPERTY
Pdih
SciTegic.value.DoubleValue
0.526

@<SCITEGIC>MOL_PROPERTY
Idih
SciTegic.value.DoubleValue
0.000

@<SCITEGIC>MOL_PROPERTY
Tether
SciTegic.value.DoubleValue
0.000

@<TRIPOS>MOLECULE
guest-s9_confgen4.mol2 : confsearch ligand conformer 583
          20          19           1
SMALL
USER_CHARGES
 
@<TRIPOS>ATOM
       1    C1      19.027637   17.116998   23.096323 C.3        1 MOL1        -0.2224
       2    H1      18.839967   16.129420   23.537560 H          1 MOL1         0.1052
       3    H2      19.951381   17.499151   23.546553 H          1 MOL1         0.1052
       4    H3      18.194495   17.772104   23.382458 H          1 MOL1         0.1052
       5    C2      19.150067   17.001669   21.559713 C.3        1 MOL1        -0.1209
       6    H4      18.295600   16.422302   21.182504 H          1 MOL1         0.1041
       7    H5      20.046999   16.418686   21.307231 H          1 MOL1         0.1041
       8    C3      19.185611   18.360534   20.814689 C.3        1 MOL1        -0.1274
       9    H6      19.203024   18.154293   19.736274 H          1 MOL1         0.1041
      10    H7      18.259945   18.921722   20.998851 H          1 MOL1         0.1041
      11    C4      20.410760   19.238704   21.146522 C.3        1 MOL1         0.0313
      12    H8      20.558271   19.964420   20.342705 H          1 MOL1         0.1015
      13    H9      21.306101   18.615175   21.208646 H          1 MOL1         0.1015
      14    N1      20.284187   20.027579   22.435961 N.4        1 MOL1        -0.4809
      15    H10     20.090099   19.390316   23.221355 H          1 MOL1         0.3726
      16    H11     19.469689   20.658609   22.386939 H          1 MOL1         0.3726
      17    C5      21.559636   20.819560   22.689750 C.3        1 MOL1        -0.0677
      18    H12     22.402001   20.129128   22.770337 H          1 MOL1         0.1026
      19    H13     21.725647   21.509554   21.859621 H          1 MOL1         0.1026
      20    H14     21.453974   21.381846   23.620148 H          1 MOL1         0.1026
@<TRIPOS>BOND
    1     1     2    1
    2     1     3    1
    3     1     4    1
    4     1     5    1
    5     5     6    1
    6     5     7    1
    7     5     8    1
    8     8     9    1
    9     8    10    1
   10     8    11    1
   11    11    12    1
   12    11    13    1
   13    11    14    1
   14    14    15    1
   15    14    16    1
   16    14    17    1
   17    17    18    1
   18    17    19    1
   19    17    20    1
@<TRIPOS>SUBSTRUCTURE
       1 MOL1            1 RESIDUE      1      MOL     
@<SCITEGIC>MOL_PROPERTY
VConf Rank
SciTegic.value.IntegerValue
583

@<SCITEGIC>MOL_PROPERTY
Conf_Id
SciTegic.value.IntegerValue
26

@<SCITEGIC>MOL_PROPERTY
Delta U+W
SciTegic.value.DoubleValue
2.888

@<SCITEGIC>MOL_PROPERTY
U+W
SciTegic.value.DoubleValue
18.226

@<SCITEGIC>MOL_PROPERTY
Grad RMS
SciTegic.value.DoubleValue
0.000000

@<SCITEGIC>MOL_PROPERTY
U
SciTegic.value.DoubleValue
72.042

@<SCITEGIC>MOL_PROPERTY
W
SciTegic.value.DoubleValue
-53.816

@<SCITEGIC>MOL_PROPERTY
W(PB)
SciTegic.value.DoubleValue
-55.689

@<SCITEGIC>MOL_PROPERTY
W(SA)
SciTegic.value.DoubleValue
1.873

@<SCITEGIC>MOL_PROPERTY
Valence
SciTegic.value.DoubleValue
2.428

@<SCITEGIC>MOL_PROPERTY
Coulomb
SciTegic.value.DoubleValue
69.829

@<SCITEGIC>MOL_PROPERTY
VdW
SciTegic.value.DoubleValue
-0.215

@<SCITEGIC>MOL_PROPERTY
VdW6
SciTegic.value.DoubleValue
-4.563

@<SCITEGIC>MOL_PROPERTY
VdW12
SciTegic.value.DoubleValue
4.348

@<SCITEGIC>MOL_PROPERTY
Bond
SciTegic.value.DoubleValue
0.137

@<SCITEGIC>MOL_PROPERTY
Angle
SciTegic.value.DoubleValue
0.936

@<SCITEGIC>MOL_PROPERTY
Pdih
SciTegic.value.DoubleValue
1.356

@<SCITEGIC>MOL_PROPERTY
Idih
SciTegic.value.DoubleValue
0.000

@<SCITEGIC>MOL_PROPERTY
Tether
SciTegic.value.DoubleValue
0.000

@<TRIPOS>MOLECULE
guest-s9_confgen4.mol2 : confsearch ligand conformer 584
          20          19           1
SMALL
USER_CHARGES
 
@<TRIPOS>ATOM
       1    C1      22.135093   18.280258   21.602686 C.3        1 MOL1        -0.2224
       2    H1      23.026881   17.665915   21.422365 H          1 MOL1         0.1052
       3    H2      22.446705   19.332637   21.578998 H          1 MOL1         0.1052
       4    H3      21.777065   18.037943   22.610233 H          1 MOL1         0.1052
       5    C2      21.059097   17.988241   20.531977 C.3        1 MOL1        -0.1209
       6    H4      20.701925   16.954921   20.645038 H          1 MOL1         0.1041
       7    H5      21.528932   18.039917   19.539681 H          1 MOL1         0.1041
       8    C3      19.852579   18.961248   20.552178 C.3        1 MOL1        -0.1274
       9    H6      20.187978   19.989936   20.365053 H          1 MOL1         0.1041
      10    H7      19.194953   18.701586   19.711986 H          1 MOL1         0.1041
      11    C4      19.010215   18.906987   21.844370 C.3        1 MOL1         0.0313
      12    H8      18.892700   17.868961   22.165268 H          1 MOL1         0.1015
      13    H9      18.016311   19.313176   21.640144 H          1 MOL1         0.1015
      14    N1      19.584574   19.704945   22.999523 N.4        1 MOL1        -0.4809
      15    H10     19.665310   20.699441   22.737867 H          1 MOL1         0.3726
      16    H11     20.546399   19.395011   23.198153 H          1 MOL1         0.3726
      17    C5      18.704054   19.545998   24.231526 C.3        1 MOL1        -0.0677
      18    H12     18.659965   18.490533   24.508682 H          1 MOL1         0.1026
      19    H13     19.129398   20.125316   25.053988 H          1 MOL1         0.1026
      20    H14     17.699812   19.910782   24.005259 H          1 MOL1         0.1026
@<TRIPOS>BOND
    1     1     2    1
    2     1     3    1
    3     1     4    1
    4     1     5    1
    5     5     6    1
    6     5     7    1
    7     5     8    1
    8     8     9    1
    9     8    10    1
   10     8    11    1
   11    11    12    1
   12    11    13    1
   13    11    14    1
   14    14    15    1
   15    14    16    1
   16    14    17    1
   17    17    18    1
   18    17    19    1
   19    17    20    1
@<TRIPOS>SUBSTRUCTURE
       1 MOL1            1 RESIDUE      1      MOL     
@<SCITEGIC>MOL_PROPERTY
VConf Rank
SciTegic.value.IntegerValue
584

@<SCITEGIC>MOL_PROPERTY
Conf_Id
SciTegic.value.IntegerValue
5

@<SCITEGIC>MOL_PROPERTY
Delta U+W
SciTegic.value.DoubleValue
2.950

@<SCITEGIC>MOL_PROPERTY
U+W
SciTegic.value.DoubleValue
18.289

@<SCITEGIC>MOL_PROPERTY
Grad RMS
SciTegic.value.DoubleValue
0.000000

@<SCITEGIC>MOL_PROPERTY
U
SciTegic.value.DoubleValue
72.042

@<SCITEGIC>MOL_PROPERTY
W
SciTegic.value.DoubleValue
-53.753

@<SCITEGIC>MOL_PROPERTY
W(PB)
SciTegic.value.DoubleValue
-55.644

@<SCITEGIC>MOL_PROPERTY
W(SA)
SciTegic.value.DoubleValue
1.891

@<SCITEGIC>MOL_PROPERTY
Valence
SciTegic.value.DoubleValue
2.428

@<SCITEGIC>MOL_PROPERTY
Coulomb
SciTegic.value.DoubleValue
69.829

@<SCITEGIC>MOL_PROPERTY
VdW
SciTegic.value.DoubleValue
-0.215

@<SCITEGIC>MOL_PROPERTY
VdW6
SciTegic.value.DoubleValue
-4.563

@<SCITEGIC>MOL_PROPERTY
VdW12
SciTegic.value.DoubleValue
4.348

@<SCITEGIC>MOL_PROPERTY
Bond
SciTegic.value.DoubleValue
0.137

@<SCITEGIC>MOL_PROPERTY
Angle
SciTegic.value.DoubleValue
0.936

@<SCITEGIC>MOL_PROPERTY
Pdih
SciTegic.value.DoubleValue
1.356

@<SCITEGIC>MOL_PROPERTY
Idih
SciTegic.value.DoubleValue
0.000

@<SCITEGIC>MOL_PROPERTY
Tether
SciTegic.value.DoubleValue
0.000

@<TRIPOS>MOLECULE
guest-s9_confgen4.mol2 : confsearch ligand conformer 585
          20          19           1
SMALL
USER_CHARGES
 
@<TRIPOS>ATOM
       1    C1      20.645626   19.734801   19.802958 C.3        1 MOL1        -0.2224
       2    H1      21.182069   19.009680   19.177269 H          1 MOL1         0.1052
       3    H2      19.578557   19.480345   19.783112 H          1 MOL1         0.1052
       4    H3      20.758641   20.723727   19.340120 H          1 MOL1         0.1052
       5    C2      21.203241   19.744024   21.244874 C.3        1 MOL1        -0.1209
       6    H4      20.654508   20.478466   21.850060 H          1 MOL1         0.1041
       7    H5      22.246346   20.089432   21.222110 H          1 MOL1         0.1041
       8    C3      21.153442   18.352782   21.924036 C.3        1 MOL1        -0.1274
       9    H6      21.783910   17.653050   21.359748 H          1 MOL1         0.1041
      10    H7      21.599077   18.419905   22.924863 H          1 MOL1         0.1041
      11    C4      19.731499   17.756090   22.031593 C.3        1 MOL1         0.0313
      12    H8      19.780764   16.780550   22.521810 H          1 MOL1         0.1015
      13    H9      19.332608   17.604195   21.025664 H          1 MOL1         0.1015
      14    N1      18.728265   18.606878   22.795140 N.4        1 MOL1        -0.4809
      15    H10     17.784355   18.201669   22.695667 H          1 MOL1         0.3726
      16    H11     18.663582   19.543144   22.369316 H          1 MOL1         0.3726
      17    C5      19.097347   18.707054   24.271069 C.3        1 MOL1        -0.0677
      18    H12     20.070109   19.193072   24.368583 H          1 MOL1         0.1026
      19    H13     18.339030   19.297069   24.790437 H          1 MOL1         0.1026
      20    H14     19.140007   17.703501   24.699668 H          1 MOL1         0.1026
@<TRIPOS>BOND
    1     1     2    1
    2     1     3    1
    3     1     4    1
    4     1     5    1
    5     5     6    1
    6     5     7    1
    7     5     8    1
    8     8     9    1
    9     8    10    1
   10     8    11    1
   11    11    12    1
   12    11    13    1
   13    11    14    1
   14    14    15    1
   15    14    16    1
   16    14    17    1
   17    17    18    1
   18    17    19    1
   19    17    20    1
@<TRIPOS>SUBSTRUCTURE
       1 MOL1            1 RESIDUE      1      MOL     
@<SCITEGIC>MOL_PROPERTY
VConf Rank
SciTegic.value.IntegerValue
585

@<SCITEGIC>MOL_PROPERTY
Conf_Id
SciTegic.value.IntegerValue
52

@<SCITEGIC>MOL_PROPERTY
Delta U+W
SciTegic.value.DoubleValue
0.784

@<SCITEGIC>MOL_PROPERTY
U+W
SciTegic.value.DoubleValue
16.122

@<SCITEGIC>MOL_PROPERTY
Grad RMS
SciTegic.value.DoubleValue
0.000000

@<SCITEGIC>MOL_PROPERTY
U
SciTegic.value.DoubleValue
70.777

@<SCITEGIC>MOL_PROPERTY
W
SciTegic.value.DoubleValue
-54.655

@<SCITEGIC>MOL_PROPERTY
W(PB)
SciTegic.value.DoubleValue
-56.491

@<SCITEGIC>MOL_PROPERTY
W(SA)
SciTegic.value.DoubleValue
1.836

@<SCITEGIC>MOL_PROPERTY
Valence
SciTegic.value.DoubleValue
1.529

@<SCITEGIC>MOL_PROPERTY
Coulomb
SciTegic.value.DoubleValue
69.166

@<SCITEGIC>MOL_PROPERTY
VdW
SciTegic.value.DoubleValue
0.082

@<SCITEGIC>MOL_PROPERTY
VdW6
SciTegic.value.DoubleValue
-5.166

@<SCITEGIC>MOL_PROPERTY
VdW12
SciTegic.value.DoubleValue
5.248

@<SCITEGIC>MOL_PROPERTY
Bond
SciTegic.value.DoubleValue
0.171

@<SCITEGIC>MOL_PROPERTY
Angle
SciTegic.value.DoubleValue
0.752

@<SCITEGIC>MOL_PROPERTY
Pdih
SciTegic.value.DoubleValue
0.605

@<SCITEGIC>MOL_PROPERTY
Idih
SciTegic.value.DoubleValue
0.000

@<SCITEGIC>MOL_PROPERTY
Tether
SciTegic.value.DoubleValue
0.000

@<TRIPOS>MOLECULE
guest-s9_confgen4.mol2 : confsearch ligand conformer 586
          20          19           1
SMALL
USER_CHARGES
 
@<TRIPOS>ATOM
       1    C1      21.809376   19.653115   21.166797 C.3        1 MOL1        -0.2224
       2    H1      22.621727   20.140545   20.612119 H          1 MOL1         0.1052
       3    H2      21.704851   20.188196   22.117542 H          1 MOL1         0.1052
       4    H3      22.120033   18.620450   21.372720 H          1 MOL1         0.1052
       5    C2      20.500989   19.692959   20.344666 C.3        1 MOL1        -0.1209
       6    H4      20.721549   19.356631   19.321797 H          1 MOL1         0.1041
       7    H5      20.155417   20.732389   20.254198 H          1 MOL1         0.1041
       8    C3      19.360046   18.809659   20.911105 C.3        1 MOL1        -0.1274
       9    H6      18.524016   18.843868   20.200141 H          1 MOL1         0.1041
      10    H7      19.675489   17.759393   20.947714 H          1 MOL1         0.1041
      11    C4      18.820209   19.261193   22.288147 C.3        1 MOL1         0.0313
      12    H8      17.835264   18.816683   22.451594 H          1 MOL1         0.1015
      13    H9      18.699000   20.347363   22.284849 H          1 MOL1         0.1015
      14    N1      19.678059   18.890921   23.487941 N.4        1 MOL1        -0.4809
      15    H10     19.339075   19.393488   24.323211 H          1 MOL1         0.3726
      16    H11     20.643184   19.220379   23.347114 H          1 MOL1         0.3726
      17    C5      19.652493   17.387967   23.743283 C.3        1 MOL1        -0.0677
      18    H12     18.620653   17.068435   23.904050 H          1 MOL1         0.1026
      19    H13     20.071654   16.865821   22.881144 H          1 MOL1         0.1026
      20    H14     20.248635   17.165834   24.631080 H          1 MOL1         0.1026
@<TRIPOS>BOND
    1     1     2    1
    2     1     3    1
    3     1     4    1
    4     1     5    1
    5     5     6    1
    6     5     7    1
    7     5     8    1
    8     8     9    1
    9     8    10    1
   10     8    11    1
   11    11    12    1
   12    11    13    1
   13    11    14    1
   14    14    15    1
   15    14    16    1
   16    14    17    1
   17    17    18    1
   18    17    19    1
   19    17    20    1
@<TRIPOS>SUBSTRUCTURE
       1 MOL1            1 RESIDUE      1      MOL     
@<SCITEGIC>MOL_PROPERTY
VConf Rank
SciTegic.value.IntegerValue
586

@<SCITEGIC>MOL_PROPERTY
Conf_Id
SciTegic.value.IntegerValue
55

@<SCITEGIC>MOL_PROPERTY
Delta U+W
SciTegic.value.DoubleValue
2.745

@<SCITEGIC>MOL_PROPERTY
U+W
SciTegic.value.DoubleValue
18.083

@<SCITEGIC>MOL_PROPERTY
Grad RMS
SciTegic.value.DoubleValue
0.000000

@<SCITEGIC>MOL_PROPERTY
U
SciTegic.value.DoubleValue
72.490

@<SCITEGIC>MOL_PROPERTY
W
SciTegic.value.DoubleValue
-54.407

@<SCITEGIC>MOL_PROPERTY
W(PB)
SciTegic.value.DoubleValue
-56.269

@<SCITEGIC>MOL_PROPERTY
W(SA)
SciTegic.value.DoubleValue
1.861

@<SCITEGIC>MOL_PROPERTY
Valence
SciTegic.value.DoubleValue
2.738

@<SCITEGIC>MOL_PROPERTY
Coulomb
SciTegic.value.DoubleValue
69.795

@<SCITEGIC>MOL_PROPERTY
VdW
SciTegic.value.DoubleValue
-0.043

@<SCITEGIC>MOL_PROPERTY
VdW6
SciTegic.value.DoubleValue
-5.333

@<SCITEGIC>MOL_PROPERTY
VdW12
SciTegic.value.DoubleValue
5.290

@<SCITEGIC>MOL_PROPERTY
Bond
SciTegic.value.DoubleValue
0.182

@<SCITEGIC>MOL_PROPERTY
Angle
SciTegic.value.DoubleValue
1.135

@<SCITEGIC>MOL_PROPERTY
Pdih
SciTegic.value.DoubleValue
1.422

@<SCITEGIC>MOL_PROPERTY
Idih
SciTegic.value.DoubleValue
0.000

@<SCITEGIC>MOL_PROPERTY
Tether
SciTegic.value.DoubleValue
0.000

@<TRIPOS>MOLECULE
guest-s9_confgen4.mol2 : confsearch ligand conformer 587
          20          19           1
SMALL
USER_CHARGES
 
@<TRIPOS>ATOM
       1    C1      21.924998   18.315697   22.563670 C.3        1 MOL1        -0.2224
       2    H1      22.994109   18.217996   22.793072 H          1 MOL1         0.1052
       3    H2      21.369311   17.742501   23.317306 H          1 MOL1         0.1052
       4    H3      21.765268   17.857553   21.580949 H          1 MOL1         0.1052
       5    C2      21.509922   19.804663   22.571516 C.3        1 MOL1        -0.1209
       6    H4      21.995244   20.325805   21.734323 H          1 MOL1         0.1041
       7    H5      21.901269   20.270887   23.486671 H          1 MOL1         0.1041
       8    C3      19.979323   20.044433   22.520450 C.3        1 MOL1        -0.1274
       9    H6      19.492928   19.578548   23.386633 H          1 MOL1         0.1041
      10    H7      19.804431   21.123208   22.626488 H          1 MOL1         0.1041
      11    C4      19.300229   19.588503   21.208004 C.3        1 MOL1         0.0313
      12    H8      19.915145   19.902321   20.360736 H          1 MOL1         0.1015
      13    H9      18.329242   20.081499   21.115468 H          1 MOL1         0.1015
      14    N1      19.052597   18.093859   21.076745 N.4        1 MOL1        -0.4809
      15    H10     19.927931   17.575663   21.235180 H          1 MOL1         0.3726
      16    H11     18.778495   17.873038   20.106556 H          1 MOL1         0.3726
      17    C5      17.966731   17.626552   22.039677 C.3        1 MOL1        -0.0677
      18    H12     18.290726   17.804766   23.066753 H          1 MOL1         0.1026
      19    H13     17.046975   18.180492   21.840085 H          1 MOL1         0.1026
      20    H14     17.792279   16.558669   21.891002 H          1 MOL1         0.1026
@<TRIPOS>BOND
    1     1     2    1
    2     1     3    1
    3     1     4    1
    4     1     5    1
    5     5     6    1
    6     5     7    1
    7     5     8    1
    8     8     9    1
    9     8    10    1
   10     8    11    1
   11    11    12    1
   12    11    13    1
   13    11    14    1
   14    14    15    1
   15    14    16    1
   16    14    17    1
   17    17    18    1
   18    17    19    1
   19    17    20    1
@<TRIPOS>SUBSTRUCTURE
       1 MOL1            1 RESIDUE      1      MOL     
@<SCITEGIC>MOL_PROPERTY
VConf Rank
SciTegic.value.IntegerValue
587

@<SCITEGIC>MOL_PROPERTY
Conf_Id
SciTegic.value.IntegerValue
76

@<SCITEGIC>MOL_PROPERTY
Delta U+W
SciTegic.value.DoubleValue
2.799

@<SCITEGIC>MOL_PROPERTY
U+W
SciTegic.value.DoubleValue
18.137

@<SCITEGIC>MOL_PROPERTY
Grad RMS
SciTegic.value.DoubleValue
0.000000

@<SCITEGIC>MOL_PROPERTY
U
SciTegic.value.DoubleValue
72.490

@<SCITEGIC>MOL_PROPERTY
W
SciTegic.value.DoubleValue
-54.353

@<SCITEGIC>MOL_PROPERTY
W(PB)
SciTegic.value.DoubleValue
-56.201

@<SCITEGIC>MOL_PROPERTY
W(SA)
SciTegic.value.DoubleValue
1.848

@<SCITEGIC>MOL_PROPERTY
Valence
SciTegic.value.DoubleValue
2.738

@<SCITEGIC>MOL_PROPERTY
Coulomb
SciTegic.value.DoubleValue
69.795

@<SCITEGIC>MOL_PROPERTY
VdW
SciTegic.value.DoubleValue
-0.043

@<SCITEGIC>MOL_PROPERTY
VdW6
SciTegic.value.DoubleValue
-5.334

@<SCITEGIC>MOL_PROPERTY
VdW12
SciTegic.value.DoubleValue
5.290

@<SCITEGIC>MOL_PROPERTY
Bond
SciTegic.value.DoubleValue
0.182

@<SCITEGIC>MOL_PROPERTY
Angle
SciTegic.value.DoubleValue
1.135

@<SCITEGIC>MOL_PROPERTY
Pdih
SciTegic.value.DoubleValue
1.421

@<SCITEGIC>MOL_PROPERTY
Idih
SciTegic.value.DoubleValue
0.000

@<SCITEGIC>MOL_PROPERTY
Tether
SciTegic.value.DoubleValue
0.000

@<TRIPOS>MOLECULE
guest-s9_confgen4.mol2 : confsearch ligand conformer 588
          20          19           1
SMALL
USER_CHARGES
 
@<TRIPOS>ATOM
       1    C1      18.147937   19.649285   21.908039 C.3        1 MOL1        -0.2224
       2    H1      18.795363   19.842277   21.043953 H          1 MOL1         0.1052
       3    H2      17.318504   19.011141   21.576733 H          1 MOL1         0.1052
       4    H3      17.723910   20.610540   22.225899 H          1 MOL1         0.1052
       5    C2      18.925979   18.988924   23.069562 C.3        1 MOL1        -0.1209
       6    H4      18.252714   18.883573   23.931796 H          1 MOL1         0.1041
       7    H5      19.736960   19.648531   23.404212 H          1 MOL1         0.1041
       8    C3      19.488587   17.592605   22.707332 C.3        1 MOL1        -0.1274
       9    H6      19.989341   17.163697   23.585222 H          1 MOL1         0.1041
      10    H7      18.647697   16.922782   22.483977 H          1 MOL1         0.1041
      11    C4      20.461869   17.562138   21.505469 C.3        1 MOL1         0.0313
      12    H8      19.990875   17.992748   20.618730 H          1 MOL1         0.1015
      13    H9      20.685931   16.515508   21.284046 H          1 MOL1         0.1015
      14    N1      21.799616   18.252965   21.724866 N.4        1 MOL1        -0.4809
      15    H10     22.524853   17.771417   21.170843 H          1 MOL1         0.3726
      16    H11     22.102833   18.145517   22.704233 H          1 MOL1         0.3726
      17    C5      21.750670   19.721121   21.315756 C.3        1 MOL1        -0.0677
      18    H12     22.737661   20.165362   21.462130 H          1 MOL1         0.1026
      19    H13     21.470565   19.789986   20.262480 H          1 MOL1         0.1026
      20    H14     21.018108   20.249976   21.926237 H          1 MOL1         0.1026
@<TRIPOS>BOND
    1     1     2    1
    2     1     3    1
    3     1     4    1
    4     1     5    1
    5     5     6    1
    6     5     7    1
    7     5     8    1
    8     8     9    1
    9     8    10    1
   10     8    11    1
   11    11    12    1
   12    11    13    1
   13    11    14    1
   14    14    15    1
   15    14    16    1
   16    14    17    1
   17    17    18    1
   18    17    19    1
   19    17    20    1
@<TRIPOS>SUBSTRUCTURE
       1 MOL1            1 RESIDUE      1      MOL     
@<SCITEGIC>MOL_PROPERTY
VConf Rank
SciTegic.value.IntegerValue
588

@<SCITEGIC>MOL_PROPERTY
Conf_Id
SciTegic.value.IntegerValue
60

@<SCITEGIC>MOL_PROPERTY
Delta U+W
SciTegic.value.DoubleValue
1.788

@<SCITEGIC>MOL_PROPERTY
U+W
SciTegic.value.DoubleValue
17.127

@<SCITEGIC>MOL_PROPERTY
Grad RMS
SciTegic.value.DoubleValue
0.000000

@<SCITEGIC>MOL_PROPERTY
U
SciTegic.value.DoubleValue
72.122

@<SCITEGIC>MOL_PROPERTY
W
SciTegic.value.DoubleValue
-54.995

@<SCITEGIC>MOL_PROPERTY
W(PB)
SciTegic.value.DoubleValue
-56.810

@<SCITEGIC>MOL_PROPERTY
W(SA)
SciTegic.value.DoubleValue
1.815

@<SCITEGIC>MOL_PROPERTY
Valence
SciTegic.value.DoubleValue
3.197

@<SCITEGIC>MOL_PROPERTY
Coulomb
SciTegic.value.DoubleValue
69.115

@<SCITEGIC>MOL_PROPERTY
VdW
SciTegic.value.DoubleValue
-0.190

@<SCITEGIC>MOL_PROPERTY
VdW6
SciTegic.value.DoubleValue
-5.585

@<SCITEGIC>MOL_PROPERTY
VdW12
SciTegic.value.DoubleValue
5.395

@<SCITEGIC>MOL_PROPERTY
Bond
SciTegic.value.DoubleValue
0.177

@<SCITEGIC>MOL_PROPERTY
Angle
SciTegic.value.DoubleValue
1.207

@<SCITEGIC>MOL_PROPERTY
Pdih
SciTegic.value.DoubleValue
1.813

@<SCITEGIC>MOL_PROPERTY
Idih
SciTegic.value.DoubleValue
0.000

@<SCITEGIC>MOL_PROPERTY
Tether
SciTegic.value.DoubleValue
0.000

@<TRIPOS>MOLECULE
guest-s9_confgen4.mol2 : confsearch ligand conformer 589
          20          19           1
SMALL
USER_CHARGES
 
@<TRIPOS>ATOM
       1    C1      18.661827   17.487297   22.833021 C.3        1 MOL1        -0.2224
       2    H1      18.390856   17.152641   23.842686 H          1 MOL1         0.1052
       3    H2      17.888262   17.127091   22.142514 H          1 MOL1         0.1052
       4    H3      19.608906   17.002557   22.566340 H          1 MOL1         0.1052
       5    C2      18.774543   19.028558   22.784340 C.3        1 MOL1        -0.1209
       6    H4      19.535420   19.374363   23.495851 H          1 MOL1         0.1041
       7    H5      17.825708   19.463865   23.127928 H          1 MOL1         0.1041
       8    C3      19.083331   19.570495   21.367159 C.3        1 MOL1        -0.1274
       9    H6      18.251967   19.304448   20.701052 H          1 MOL1         0.1041
      10    H7      19.106749   20.667806   21.394877 H          1 MOL1         0.1041
      11    C4      20.395174   19.053076   20.731532 C.3        1 MOL1         0.0313
      12    H8      20.430547   19.412590   19.699948 H          1 MOL1         0.1015
      13    H9      20.402153   17.961047   20.700055 H          1 MOL1         0.1015
      14    N1      21.679319   19.524804   21.397403 N.4        1 MOL1        -0.4809
      15    H10     21.563869   20.481948   21.762359 H          1 MOL1         0.3726
      16    H11     22.421802   19.602892   20.685068 H          1 MOL1         0.3726
      17    C5      22.134377   18.563954   22.490533 C.3        1 MOL1        -0.0677
      18    H12     22.288795   17.574248   22.055531 H          1 MOL1         0.1026
      19    H13     23.072057   18.927017   22.916995 H          1 MOL1         0.1026
      20    H14     21.375619   18.507809   23.271657 H          1 MOL1         0.1026
@<TRIPOS>BOND
    1     1     2    1
    2     1     3    1
    3     1     4    1
    4     1     5    1
    5     5     6    1
    6     5     7    1
    7     5     8    1
    8     8     9    1
    9     8    10    1
   10     8    11    1
   11    11    12    1
   12    11    13    1
   13    11    14    1
   14    14    15    1
   15    14    16    1
   16    14    17    1
   17    17    18    1
   18    17    19    1
   19    17    20    1
@<TRIPOS>SUBSTRUCTURE
       1 MOL1            1 RESIDUE      1      MOL     
@<SCITEGIC>MOL_PROPERTY
VConf Rank
SciTegic.value.IntegerValue
589

@<SCITEGIC>MOL_PROPERTY
Conf_Id
SciTegic.value.IntegerValue
54

@<SCITEGIC>MOL_PROPERTY
Delta U+W
SciTegic.value.DoubleValue
1.880

@<SCITEGIC>MOL_PROPERTY
U+W
SciTegic.value.DoubleValue
17.218

@<SCITEGIC>MOL_PROPERTY
Grad RMS
SciTegic.value.DoubleValue
0.000000

@<SCITEGIC>MOL_PROPERTY
U
SciTegic.value.DoubleValue
72.122

@<SCITEGIC>MOL_PROPERTY
W
SciTegic.value.DoubleValue
-54.903

@<SCITEGIC>MOL_PROPERTY
W(PB)
SciTegic.value.DoubleValue
-56.724

@<SCITEGIC>MOL_PROPERTY
W(SA)
SciTegic.value.DoubleValue
1.821

@<SCITEGIC>MOL_PROPERTY
Valence
SciTegic.value.DoubleValue
3.197

@<SCITEGIC>MOL_PROPERTY
Coulomb
SciTegic.value.DoubleValue
69.115

@<SCITEGIC>MOL_PROPERTY
VdW
SciTegic.value.DoubleValue
-0.190

@<SCITEGIC>MOL_PROPERTY
VdW6
SciTegic.value.DoubleValue
-5.585

@<SCITEGIC>MOL_PROPERTY
VdW12
SciTegic.value.DoubleValue
5.395

@<SCITEGIC>MOL_PROPERTY
Bond
SciTegic.value.DoubleValue
0.177

@<SCITEGIC>MOL_PROPERTY
Angle
SciTegic.value.DoubleValue
1.207

@<SCITEGIC>MOL_PROPERTY
Pdih
SciTegic.value.DoubleValue
1.813

@<SCITEGIC>MOL_PROPERTY
Idih
SciTegic.value.DoubleValue
0.000

@<SCITEGIC>MOL_PROPERTY
Tether
SciTegic.value.DoubleValue
0.000

@<TRIPOS>MOLECULE
guest-s9_confgen4.mol2 : confsearch ligand conformer 590
          20          19           1
SMALL
USER_CHARGES
 
@<TRIPOS>ATOM
       1    C1      22.756742   19.198364   23.688948 C.3        1 MOL1        -0.2224
       2    H1      22.742382   20.295460   23.725703 H          1 MOL1         0.1052
       3    H2      23.154504   18.835288   24.645497 H          1 MOL1         0.1052
       4    H3      23.453229   18.892264   22.897503 H          1 MOL1         0.1052
       5    C2      21.342919   18.631655   23.435613 C.3        1 MOL1        -0.1209
       6    H4      20.678609   18.925311   24.260725 H          1 MOL1         0.1041
       7    H5      21.383878   17.533173   23.438950 H          1 MOL1         0.1041
       8    C3      20.757348   19.126524   22.094728 C.3        1 MOL1        -0.1274
       9    H6      20.713512   20.223813   22.093580 H          1 MOL1         0.1041
      10    H7      21.419841   18.829879   21.270671 H          1 MOL1         0.1041
      11    C4      19.347704   18.557059   21.849385 C.3        1 MOL1         0.0313
      12    H8      18.681737   18.863439   22.660008 H          1 MOL1         0.1015
      13    H9      19.390367   17.465070   21.834298 H          1 MOL1         0.1015
      14    N1      18.731748   19.016646   20.542449 N.4        1 MOL1        -0.4809
      15    H10     19.337187   18.751919   19.750286 H          1 MOL1         0.3726
      16    H11     18.681042   20.046607   20.514813 H          1 MOL1         0.3726
      17    C5      17.344571   18.409602   20.379930 C.3        1 MOL1        -0.0677
      18    H12     16.711676   18.730665   21.210092 H          1 MOL1         0.1026
      19    H13     16.912977   18.748598   19.435569 H          1 MOL1         0.1026
      20    H14     17.426342   17.320513   20.377272 H          1 MOL1         0.1026
@<TRIPOS>BOND
    1     1     2    1
    2     1     3    1
    3     1     4    1
    4     1     5    1
    5     5     6    1
    6     5     7    1
    7     5     8    1
    8     8     9    1
    9     8    10    1
   10     8    11    1
   11    11    12    1
   12    11    13    1
   13    11    14    1
   14    14    15    1
   15    14    16    1
   16    14    17    1
   17    17    18    1
   18    17    19    1
   19    17    20    1
@<TRIPOS>SUBSTRUCTURE
       1 MOL1            1 RESIDUE      1      MOL     
@<SCITEGIC>MOL_PROPERTY
VConf Rank
SciTegic.value.IntegerValue
590

@<SCITEGIC>MOL_PROPERTY
Conf_Id
SciTegic.value.IntegerValue
67

@<SCITEGIC>MOL_PROPERTY
Delta U+W
SciTegic.value.DoubleValue
0.000

@<SCITEGIC>MOL_PROPERTY
U+W
SciTegic.value.DoubleValue
15.338

@<SCITEGIC>MOL_PROPERTY
Grad RMS
SciTegic.value.DoubleValue
0.000000

@<SCITEGIC>MOL_PROPERTY
U
SciTegic.value.DoubleValue
69.277

@<SCITEGIC>MOL_PROPERTY
W
SciTegic.value.DoubleValue
-53.939

@<SCITEGIC>MOL_PROPERTY
W(PB)
SciTegic.value.DoubleValue
-55.889

@<SCITEGIC>MOL_PROPERTY
W(SA)
SciTegic.value.DoubleValue
1.950

@<SCITEGIC>MOL_PROPERTY
Valence
SciTegic.value.DoubleValue
0.846

@<SCITEGIC>MOL_PROPERTY
Coulomb
SciTegic.value.DoubleValue
68.557

@<SCITEGIC>MOL_PROPERTY
VdW
SciTegic.value.DoubleValue
-0.127

@<SCITEGIC>MOL_PROPERTY
VdW6
SciTegic.value.DoubleValue
-3.008

@<SCITEGIC>MOL_PROPERTY
VdW12
SciTegic.value.DoubleValue
2.882

@<SCITEGIC>MOL_PROPERTY
Bond
SciTegic.value.DoubleValue
0.088

@<SCITEGIC>MOL_PROPERTY
Angle
SciTegic.value.DoubleValue
0.332

@<SCITEGIC>MOL_PROPERTY
Pdih
SciTegic.value.DoubleValue
0.426

@<SCITEGIC>MOL_PROPERTY
Idih
SciTegic.value.DoubleValue
0.000

@<SCITEGIC>MOL_PROPERTY
Tether
SciTegic.value.DoubleValue
0.000

@<TRIPOS>MOLECULE
guest-s9_confgen4.mol2 : confsearch ligand conformer 591
          20          19           1
SMALL
USER_CHARGES
 
@<TRIPOS>ATOM
       1    C1      20.823566   21.516806   20.750376 C.3        1 MOL1        -0.2224
       2    H1      20.683825   22.016626   21.717755 H          1 MOL1         0.1052
       3    H2      21.642573   22.024836   20.224873 H          1 MOL1         0.1052
       4    H3      19.908631   21.654466   20.159519 H          1 MOL1         0.1052
       5    C2      21.143349   20.018068   20.939570 C.3        1 MOL1        -0.1209
       6    H4      22.080822   19.913112   21.503889 H          1 MOL1         0.1041
       7    H5      21.312296   19.554040   19.957509 H          1 MOL1         0.1041
       8    C3      20.006664   19.276594   21.677034 C.3        1 MOL1        -0.1274
       9    H6      19.841549   19.743264   22.656682 H          1 MOL1         0.1041
      10    H7      19.071547   19.378193   21.110594 H          1 MOL1         0.1041
      11    C4      20.334660   17.780275   21.859859 C.3        1 MOL1         0.0313
      12    H8      21.238322   17.669551   22.464438 H          1 MOL1         0.1015
      13    H9      20.527560   17.337209   20.879471 H          1 MOL1         0.1015
      14    N1      19.230645   16.965590   22.514230 N.4        1 MOL1        -0.4809
      15    H10     19.458459   15.961007   22.449423 H          1 MOL1         0.3726
      16    H11     18.349451   17.070660   21.988651 H          1 MOL1         0.3726
      17    C5      19.041689   17.359836   23.975182 C.3        1 MOL1        -0.0677
      18    H12     18.736055   18.406380   24.031935 H          1 MOL1         0.1026
      19    H13     18.268889   16.728296   24.418926 H          1 MOL1         0.1026
      20    H14     19.983379   17.219337   24.510148 H          1 MOL1         0.1026
@<TRIPOS>BOND
    1     1     2    1
    2     1     3    1
    3     1     4    1
    4     1     5    1
    5     5     6    1
    6     5     7    1
    7     5     8    1
    8     8     9    1
    9     8    10    1
   10     8    11    1
   11    11    12    1
   12    11    13    1
   13    11    14    1
   14    14    15    1
   15    14    16    1
   16    14    17    1
   17    17    18    1
   18    17    19    1
   19    17    20    1
@<TRIPOS>SUBSTRUCTURE
       1 MOL1            1 RESIDUE      1      MOL     
@<SCITEGIC>MOL_PROPERTY
VConf Rank
SciTegic.value.IntegerValue
591

@<SCITEGIC>MOL_PROPERTY
Conf_Id
SciTegic.value.IntegerValue
37

@<SCITEGIC>MOL_PROPERTY
Delta U+W
SciTegic.value.DoubleValue
-0.021

@<SCITEGIC>MOL_PROPERTY
U+W
SciTegic.value.DoubleValue
15.318

@<SCITEGIC>MOL_PROPERTY
Grad RMS
SciTegic.value.DoubleValue
0.000000

@<SCITEGIC>MOL_PROPERTY
U
SciTegic.value.DoubleValue
69.657

@<SCITEGIC>MOL_PROPERTY
W
SciTegic.value.DoubleValue
-54.340

@<SCITEGIC>MOL_PROPERTY
W(PB)
SciTegic.value.DoubleValue
-56.238

@<SCITEGIC>MOL_PROPERTY
W(SA)
SciTegic.value.DoubleValue
1.899

@<SCITEGIC>MOL_PROPERTY
Valence
SciTegic.value.DoubleValue
1.137

@<SCITEGIC>MOL_PROPERTY
Coulomb
SciTegic.value.DoubleValue
68.383

@<SCITEGIC>MOL_PROPERTY
VdW
SciTegic.value.DoubleValue
0.138

@<SCITEGIC>MOL_PROPERTY
VdW6
SciTegic.value.DoubleValue
-3.703

@<SCITEGIC>MOL_PROPERTY
VdW12
SciTegic.value.DoubleValue
3.841

@<SCITEGIC>MOL_PROPERTY
Bond
SciTegic.value.DoubleValue
0.125

@<SCITEGIC>MOL_PROPERTY
Angle
SciTegic.value.DoubleValue
0.468

@<SCITEGIC>MOL_PROPERTY
Pdih
SciTegic.value.DoubleValue
0.543

@<SCITEGIC>MOL_PROPERTY
Idih
SciTegic.value.DoubleValue
0.000

@<SCITEGIC>MOL_PROPERTY
Tether
SciTegic.value.DoubleValue
0.000

@<TRIPOS>MOLECULE
guest-s9_confgen4.mol2 : confsearch ligand conformer 592
          20          19           1
SMALL
USER_CHARGES
 
@<TRIPOS>ATOM
       1    C1      19.985747   16.354944   20.216893 C.3        1 MOL1        -0.2224
       2    H1      19.709691   15.292514   20.209518 H          1 MOL1         0.1052
       3    H2      19.342017   16.874431   19.495150 H          1 MOL1         0.1052
       4    H3      21.023631   16.434915   19.868221 H          1 MOL1         0.1052
       5    C2      19.827198   16.950044   21.632868 C.3        1 MOL1        -0.1209
       6    H4      20.455910   16.387689   22.337700 H          1 MOL1         0.1041
       7    H5      18.787676   16.824469   21.967461 H          1 MOL1         0.1041
       8    C3      20.209487   18.445999   21.673584 C.3        1 MOL1        -0.1274
       9    H6      21.249270   18.570212   21.343365 H          1 MOL1         0.1041
      10    H7      19.579398   19.003299   20.968488 H          1 MOL1         0.1041
      11    C4      20.049348   19.030881   23.092117 C.3        1 MOL1         0.0313
      12    H8      20.657346   18.446375   23.787365 H          1 MOL1         0.1015
      13    H9      19.006263   18.955045   23.409300 H          1 MOL1         0.1015
      14    N1      20.476332   20.483280   23.229881 N.4        1 MOL1        -0.4809
      15    H10     21.449166   20.601858   22.908466 H          1 MOL1         0.3726
      16    H11     20.494530   20.744358   24.228277 H          1 MOL1         0.3726
      17    C5      19.536257   21.412488   22.469389 C.3        1 MOL1        -0.0677
      18    H12     18.519016   21.279967   22.844040 H          1 MOL1         0.1026
      19    H13     19.853210   22.446276   22.623649 H          1 MOL1         0.1026
      20    H14     19.572897   21.173621   21.404735 H          1 MOL1         0.1026
@<TRIPOS>BOND
    1     1     2    1
    2     1     3    1
    3     1     4    1
    4     1     5    1
    5     5     6    1
    6     5     7    1
    7     5     8    1
    8     8     9    1
    9     8    10    1
   10     8    11    1
   11    11    12    1
   12    11    13    1
   13    11    14    1
   14    14    15    1
   15    14    16    1
   16    14    17    1
   17    17    18    1
   18    17    19    1
   19    17    20    1
@<TRIPOS>SUBSTRUCTURE
       1 MOL1            1 RESIDUE      1      MOL     
@<SCITEGIC>MOL_PROPERTY
VConf Rank
SciTegic.value.IntegerValue
592

@<SCITEGIC>MOL_PROPERTY
Conf_Id
SciTegic.value.IntegerValue
2

@<SCITEGIC>MOL_PROPERTY
Delta U+W
SciTegic.value.DoubleValue
0.069

@<SCITEGIC>MOL_PROPERTY
U+W
SciTegic.value.DoubleValue
15.407

@<SCITEGIC>MOL_PROPERTY
Grad RMS
SciTegic.value.DoubleValue
0.000000

@<SCITEGIC>MOL_PROPERTY
U
SciTegic.value.DoubleValue
69.657

@<SCITEGIC>MOL_PROPERTY
W
SciTegic.value.DoubleValue
-54.250

@<SCITEGIC>MOL_PROPERTY
W(PB)
SciTegic.value.DoubleValue
-56.176

@<SCITEGIC>MOL_PROPERTY
W(SA)
SciTegic.value.DoubleValue
1.926

@<SCITEGIC>MOL_PROPERTY
Valence
SciTegic.value.DoubleValue
1.137

@<SCITEGIC>MOL_PROPERTY
Coulomb
SciTegic.value.DoubleValue
68.383

@<SCITEGIC>MOL_PROPERTY
VdW
SciTegic.value.DoubleValue
0.138

@<SCITEGIC>MOL_PROPERTY
VdW6
SciTegic.value.DoubleValue
-3.703

@<SCITEGIC>MOL_PROPERTY
VdW12
SciTegic.value.DoubleValue
3.841

@<SCITEGIC>MOL_PROPERTY
Bond
SciTegic.value.DoubleValue
0.125

@<SCITEGIC>MOL_PROPERTY
Angle
SciTegic.value.DoubleValue
0.468

@<SCITEGIC>MOL_PROPERTY
Pdih
SciTegic.value.DoubleValue
0.543

@<SCITEGIC>MOL_PROPERTY
Idih
SciTegic.value.DoubleValue
0.000

@<SCITEGIC>MOL_PROPERTY
Tether
SciTegic.value.DoubleValue
0.000

@<TRIPOS>MOLECULE
guest-s9_confgen4.mol2 : confsearch ligand conformer 593
          20          19           1
SMALL
USER_CHARGES
 
@<TRIPOS>ATOM
       1    C1      20.665155   21.336223   21.969161 C.3        1 MOL1        -0.2224
       2    H1      20.991438   20.826272   21.053982 H          1 MOL1         0.1052
       3    H2      19.644318   21.707148   21.809770 H          1 MOL1         0.1052
       4    H3      21.318491   22.206470   22.113428 H          1 MOL1         0.1052
       5    C2      20.731566   20.399074   23.197016 C.3        1 MOL1        -0.1209
       6    H4      20.487335   20.974713   24.100899 H          1 MOL1         0.1041
       7    H5      21.761053   20.037655   23.330203 H          1 MOL1         0.1041
       8    C3      19.766101   19.195325   23.091915 C.3        1 MOL1        -0.1274
       9    H6      19.809869   18.619628   24.025999 H          1 MOL1         0.1041
      10    H7      18.734403   19.558479   22.994018 H          1 MOL1         0.1041
      11    C4      20.102233   18.266029   21.909261 C.3        1 MOL1         0.0313
      12    H8      21.128227   17.902806   22.008139 H          1 MOL1         0.1015
      13    H9      20.022744   18.820345   20.971082 H          1 MOL1         0.1015
      14    N1      19.188504   17.060096   21.812837 N.4        1 MOL1        -0.4809
      15    H10     18.206133   17.363031   21.727596 H          1 MOL1         0.3726
      16    H11     19.229961   16.510540   22.684831 H          1 MOL1         0.3726
      17    C5      19.587146   16.200332   20.620786 C.3        1 MOL1        -0.0677
      18    H12     20.618011   15.863143   20.748934 H          1 MOL1         0.1026
      19    H13     18.921684   15.336126   20.563238 H          1 MOL1         0.1026
      20    H14     19.502608   16.791463   19.706337 H          1 MOL1         0.1026
@<TRIPOS>BOND
    1     1     2    1
    2     1     3    1
    3     1     4    1
    4     1     5    1
    5     5     6    1
    6     5     7    1
    7     5     8    1
    8     8     9    1
    9     8    10    1
   10     8    11    1
   11    11    12    1
   12    11    13    1
   13    11    14    1
   14    14    15    1
   15    14    16    1
   16    14    17    1
   17    17    18    1
   18    17    19    1
   19    17    20    1
@<TRIPOS>SUBSTRUCTURE
       1 MOL1            1 RESIDUE      1      MOL     
@<SCITEGIC>MOL_PROPERTY
VConf Rank
SciTegic.value.IntegerValue
593

@<SCITEGIC>MOL_PROPERTY
Conf_Id
SciTegic.value.IntegerValue
34

@<SCITEGIC>MOL_PROPERTY
Delta U+W
SciTegic.value.DoubleValue
0.276

@<SCITEGIC>MOL_PROPERTY
U+W
SciTegic.value.DoubleValue
15.615

@<SCITEGIC>MOL_PROPERTY
Grad RMS
SciTegic.value.DoubleValue
0.000000

@<SCITEGIC>MOL_PROPERTY
U
SciTegic.value.DoubleValue
69.798

@<SCITEGIC>MOL_PROPERTY
W
SciTegic.value.DoubleValue
-54.184

@<SCITEGIC>MOL_PROPERTY
W(PB)
SciTegic.value.DoubleValue
-56.116

@<SCITEGIC>MOL_PROPERTY
W(SA)
SciTegic.value.DoubleValue
1.933

@<SCITEGIC>MOL_PROPERTY
Valence
SciTegic.value.DoubleValue
1.134

@<SCITEGIC>MOL_PROPERTY
Coulomb
SciTegic.value.DoubleValue
68.735

@<SCITEGIC>MOL_PROPERTY
VdW
SciTegic.value.DoubleValue
-0.070

@<SCITEGIC>MOL_PROPERTY
VdW6
SciTegic.value.DoubleValue
-3.565

@<SCITEGIC>MOL_PROPERTY
VdW12
SciTegic.value.DoubleValue
3.494

@<SCITEGIC>MOL_PROPERTY
Bond
SciTegic.value.DoubleValue
0.108

@<SCITEGIC>MOL_PROPERTY
Angle
SciTegic.value.DoubleValue
0.456

@<SCITEGIC>MOL_PROPERTY
Pdih
SciTegic.value.DoubleValue
0.569

@<SCITEGIC>MOL_PROPERTY
Idih
SciTegic.value.DoubleValue
0.000

@<SCITEGIC>MOL_PROPERTY
Tether
SciTegic.value.DoubleValue
0.000

@<TRIPOS>MOLECULE
guest-s9_confgen4.mol2 : confsearch ligand conformer 594
          20          19           1
SMALL
USER_CHARGES
 
@<TRIPOS>ATOM
       1    C1      17.756313   18.014115   23.858617 C.3        1 MOL1        -0.2224
       2    H1      18.075086   18.166931   24.897943 H          1 MOL1         0.1052
       3    H2      16.720806   18.367426   23.769606 H          1 MOL1         0.1052
       4    H3      17.762107   16.935416   23.654765 H          1 MOL1         0.1052
       5    C2      18.677267   18.770506   22.876913 C.3        1 MOL1        -0.1209
       6    H4      18.625155   19.848441   23.085872 H          1 MOL1         0.1041
       7    H5      18.304833   18.627625   21.853500 H          1 MOL1         0.1041
       8    C3      20.143967   18.290039   22.982408 C.3        1 MOL1        -0.1274
       9    H6      20.488872   18.402756   24.018853 H          1 MOL1         0.1041
      10    H7      20.207668   17.219301   22.747207 H          1 MOL1         0.1041
      11    C4      21.099061   19.077621   22.063142 C.3        1 MOL1         0.0313
      12    H8      22.126695   18.754676   22.248329 H          1 MOL1         0.1015
      13    H9      21.031741   20.144388   22.290983 H          1 MOL1         0.1015
      14    N1      20.822680   18.896054   20.582422 N.4        1 MOL1        -0.4809
      15    H10     19.860190   19.191534   20.361612 H          1 MOL1         0.3726
      16    H11     20.867637   17.896296   20.332404 H          1 MOL1         0.3726
      17    C5      21.826800   19.696903   19.764360 C.3        1 MOL1        -0.0677
      18    H12     21.738372   20.754688   20.021384 H          1 MOL1         0.1026
      19    H13     22.836040   19.345172   19.989092 H          1 MOL1         0.1026
      20    H14     21.616558   19.557409   18.701661 H          1 MOL1         0.1026
@<TRIPOS>BOND
    1     1     2    1
    2     1     3    1
    3     1     4    1
    4     1     5    1
    5     5     6    1
    6     5     7    1
    7     5     8    1
    8     8     9    1
    9     8    10    1
   10     8    11    1
   11    11    12    1
   12    11    13    1
   13    11    14    1
   14    14    15    1
   15    14    16    1
   16    14    17    1
   17    17    18    1
   18    17    19    1
   19    17    20    1
@<TRIPOS>SUBSTRUCTURE
       1 MOL1            1 RESIDUE      1      MOL     
@<SCITEGIC>MOL_PROPERTY
VConf Rank
SciTegic.value.IntegerValue
594

@<SCITEGIC>MOL_PROPERTY
Conf_Id
SciTegic.value.IntegerValue
50

@<SCITEGIC>MOL_PROPERTY
Delta U+W
SciTegic.value.DoubleValue
0.319

@<SCITEGIC>MOL_PROPERTY
U+W
SciTegic.value.DoubleValue
15.657

@<SCITEGIC>MOL_PROPERTY
Grad RMS
SciTegic.value.DoubleValue
0.000000

@<SCITEGIC>MOL_PROPERTY
U
SciTegic.value.DoubleValue
69.962

@<SCITEGIC>MOL_PROPERTY
W
SciTegic.value.DoubleValue
-54.305

@<SCITEGIC>MOL_PROPERTY
W(PB)
SciTegic.value.DoubleValue
-56.223

@<SCITEGIC>MOL_PROPERTY
W(SA)
SciTegic.value.DoubleValue
1.918

@<SCITEGIC>MOL_PROPERTY
Valence
SciTegic.value.DoubleValue
0.982

@<SCITEGIC>MOL_PROPERTY
Coulomb
SciTegic.value.DoubleValue
69.058

@<SCITEGIC>MOL_PROPERTY
VdW
SciTegic.value.DoubleValue
-0.078

@<SCITEGIC>MOL_PROPERTY
VdW6
SciTegic.value.DoubleValue
-3.548

@<SCITEGIC>MOL_PROPERTY
VdW12
SciTegic.value.DoubleValue
3.471

@<SCITEGIC>MOL_PROPERTY
Bond
SciTegic.value.DoubleValue
0.105

@<SCITEGIC>MOL_PROPERTY
Angle
SciTegic.value.DoubleValue
0.408

@<SCITEGIC>MOL_PROPERTY
Pdih
SciTegic.value.DoubleValue
0.469

@<SCITEGIC>MOL_PROPERTY
Idih
SciTegic.value.DoubleValue
0.000

@<SCITEGIC>MOL_PROPERTY
Tether
SciTegic.value.DoubleValue
0.000

@<TRIPOS>MOLECULE
guest-s9_confgen4.mol2 : confsearch ligand conformer 595
          20          19           1
SMALL
USER_CHARGES
 
@<TRIPOS>ATOM
       1    C1      22.614702   17.182673   21.957630 C.3        1 MOL1        -0.2224
       2    H1      23.526108   17.411400   22.525126 H          1 MOL1         0.1052
       3    H2      22.359058   16.131173   22.142463 H          1 MOL1         0.1052
       4    H3      22.846101   17.295325   20.890416 H          1 MOL1         0.1052
       5    C2      21.460747   18.118369   22.378204 C.3        1 MOL1        -0.1209
       6    H4      21.767364   19.160696   22.216850 H          1 MOL1         0.1041
       7    H5      21.274786   18.005566   23.455710 H          1 MOL1         0.1041
       8    C3      20.163358   17.816461   21.591553 C.3        1 MOL1        -0.1274
       9    H6      20.334145   17.954646   20.515637 H          1 MOL1         0.1041
      10    H7      19.891641   16.761696   21.731278 H          1 MOL1         0.1041
      11    C4      18.974328   18.689146   22.041189 C.3        1 MOL1         0.0313
      12    H8      18.807295   18.558219   23.113287 H          1 MOL1         0.1015
      13    H9      18.071637   18.368562   21.514887 H          1 MOL1         0.1015
      14    N1      19.157963   20.171081   21.772797 N.4        1 MOL1        -0.4809
      15    H10     19.328832   20.331912   20.768313 H          1 MOL1         0.3726
      16    H11     20.001083   20.517664   22.253922 H          1 MOL1         0.3726
      17    C5      17.927079   20.939312   22.234950 C.3        1 MOL1        -0.0677
      18    H12     18.072593   22.003421   22.036234 H          1 MOL1         0.1026
      19    H13     17.052317   20.579274   21.689103 H          1 MOL1         0.1026
      20    H14     17.785148   20.780893   23.306188 H          1 MOL1         0.1026
@<TRIPOS>BOND
    1     1     2    1
    2     1     3    1
    3     1     4    1
    4     1     5    1
    5     5     6    1
    6     5     7    1
    7     5     8    1
    8     8     9    1
    9     8    10    1
   10     8    11    1
   11    11    12    1
   12    11    13    1
   13    11    14    1
   14    14    15    1
   15    14    16    1
   16    14    17    1
   17    17    18    1
   18    17    19    1
   19    17    20    1
@<TRIPOS>SUBSTRUCTURE
       1 MOL1            1 RESIDUE      1      MOL     
@<SCITEGIC>MOL_PROPERTY
VConf Rank
SciTegic.value.IntegerValue
595

@<SCITEGIC>MOL_PROPERTY
Conf_Id
SciTegic.value.IntegerValue
35

@<SCITEGIC>MOL_PROPERTY
Delta U+W
SciTegic.value.DoubleValue
0.360

@<SCITEGIC>MOL_PROPERTY
U+W
SciTegic.value.DoubleValue
15.698

@<SCITEGIC>MOL_PROPERTY
Grad RMS
SciTegic.value.DoubleValue
0.000000

@<SCITEGIC>MOL_PROPERTY
U
SciTegic.value.DoubleValue
69.962

@<SCITEGIC>MOL_PROPERTY
W
SciTegic.value.DoubleValue
-54.264

@<SCITEGIC>MOL_PROPERTY
W(PB)
SciTegic.value.DoubleValue
-56.166

@<SCITEGIC>MOL_PROPERTY
W(SA)
SciTegic.value.DoubleValue
1.902

@<SCITEGIC>MOL_PROPERTY
Valence
SciTegic.value.DoubleValue
0.982

@<SCITEGIC>MOL_PROPERTY
Coulomb
SciTegic.value.DoubleValue
69.058

@<SCITEGIC>MOL_PROPERTY
VdW
SciTegic.value.DoubleValue
-0.078

@<SCITEGIC>MOL_PROPERTY
VdW6
SciTegic.value.DoubleValue
-3.548

@<SCITEGIC>MOL_PROPERTY
VdW12
SciTegic.value.DoubleValue
3.471

@<SCITEGIC>MOL_PROPERTY
Bond
SciTegic.value.DoubleValue
0.105

@<SCITEGIC>MOL_PROPERTY
Angle
SciTegic.value.DoubleValue
0.408

@<SCITEGIC>MOL_PROPERTY
Pdih
SciTegic.value.DoubleValue
0.469

@<SCITEGIC>MOL_PROPERTY
Idih
SciTegic.value.DoubleValue
0.000

@<SCITEGIC>MOL_PROPERTY
Tether
SciTegic.value.DoubleValue
0.000

@<TRIPOS>MOLECULE
guest-s9_confgen4.mol2 : confsearch ligand conformer 596
          20          19           1
SMALL
USER_CHARGES
 
@<TRIPOS>ATOM
       1    C1      18.067501   20.167494   22.824090 C.3        1 MOL1        -0.2224
       2    H1      17.615213   19.468065   22.109733 H          1 MOL1         0.1052
       3    H2      17.262199   20.557906   23.459733 H          1 MOL1         0.1052
       4    H3      18.486832   21.010535   22.259698 H          1 MOL1         0.1052
       5    C2      19.152128   19.479320   23.684444 C.3        1 MOL1        -0.1209
       6    H4      18.708163   18.637405   24.234209 H          1 MOL1         0.1041
       7    H5      19.511212   20.188491   24.443471 H          1 MOL1         0.1041
       8    C3      20.356735   18.981309   22.852111 C.3        1 MOL1        -0.1274
       9    H6      20.818608   19.832291   22.335184 H          1 MOL1         0.1041
      10    H7      21.117575   18.575453   23.531758 H          1 MOL1         0.1041
      11    C4      19.961483   17.894397   21.829435 C.3        1 MOL1         0.0313
      12    H8      19.254149   18.304911   21.104928 H          1 MOL1         0.1015
      13    H9      19.468124   17.074078   22.356923 H          1 MOL1         0.1015
      14    N1      21.127306   17.299483   21.056564 N.4        1 MOL1        -0.4809
      15    H10     20.804116   16.477651   20.522384 H          1 MOL1         0.3726
      16    H11     21.836030   16.928922   21.707805 H          1 MOL1         0.3726
      17    C5      21.743285   18.323080   20.108838 C.3        1 MOL1        -0.0677
      18    H12     22.141705   19.159013   20.687082 H          1 MOL1         0.1026
      19    H13     22.550773   17.849188   19.546386 H          1 MOL1         0.1026
      20    H14     20.976123   18.681885   19.419333 H          1 MOL1         0.1026
@<TRIPOS>BOND
    1     1     2    1
    2     1     3    1
    3     1     4    1
    4     1     5    1
    5     5     6    1
    6     5     7    1
    7     5     8    1
    8     8     9    1
    9     8    10    1
   10     8    11    1
   11    11    12    1
   12    11    13    1
   13    11    14    1
   14    14    15    1
   15    14    16    1
   16    14    17    1
   17    17    18    1
   18    17    19    1
   19    17    20    1
@<TRIPOS>SUBSTRUCTURE
       1 MOL1            1 RESIDUE      1      MOL     
@<SCITEGIC>MOL_PROPERTY
VConf Rank
SciTegic.value.IntegerValue
596

@<SCITEGIC>MOL_PROPERTY
Conf_Id
SciTegic.value.IntegerValue
33

@<SCITEGIC>MOL_PROPERTY
Delta U+W
SciTegic.value.DoubleValue
0.372

@<SCITEGIC>MOL_PROPERTY
U+W
SciTegic.value.DoubleValue
15.711

@<SCITEGIC>MOL_PROPERTY
Grad RMS
SciTegic.value.DoubleValue
0.000000

@<SCITEGIC>MOL_PROPERTY
U
SciTegic.value.DoubleValue
70.163

@<SCITEGIC>MOL_PROPERTY
W
SciTegic.value.DoubleValue
-54.452

@<SCITEGIC>MOL_PROPERTY
W(PB)
SciTegic.value.DoubleValue
-56.363

@<SCITEGIC>MOL_PROPERTY
W(SA)
SciTegic.value.DoubleValue
1.911

@<SCITEGIC>MOL_PROPERTY
Valence
SciTegic.value.DoubleValue
1.420

@<SCITEGIC>MOL_PROPERTY
Coulomb
SciTegic.value.DoubleValue
68.566

@<SCITEGIC>MOL_PROPERTY
VdW
SciTegic.value.DoubleValue
0.177

@<SCITEGIC>MOL_PROPERTY
VdW6
SciTegic.value.DoubleValue
-4.267

@<SCITEGIC>MOL_PROPERTY
VdW12
SciTegic.value.DoubleValue
4.445

@<SCITEGIC>MOL_PROPERTY
Bond
SciTegic.value.DoubleValue
0.146

@<SCITEGIC>MOL_PROPERTY
Angle
SciTegic.value.DoubleValue
0.581

@<SCITEGIC>MOL_PROPERTY
Pdih
SciTegic.value.DoubleValue
0.693

@<SCITEGIC>MOL_PROPERTY
Idih
SciTegic.value.DoubleValue
0.000

@<SCITEGIC>MOL_PROPERTY
Tether
SciTegic.value.DoubleValue
0.000

@<TRIPOS>MOLECULE
guest-s9_confgen4.mol2 : confsearch ligand conformer 597
          20          19           1
SMALL
USER_CHARGES
 
@<TRIPOS>ATOM
       1    C1      22.376002   19.967285   22.487470 C.3        1 MOL1        -0.2224
       2    H1      23.384158   20.152607   22.880217 H          1 MOL1         0.1052
       3    H2      22.484760   19.584656   21.464809 H          1 MOL1         0.1052
       4    H3      21.853339   20.931424   22.438949 H          1 MOL1         0.1052
       5    C2      21.617407   18.967866   23.390746 C.3        1 MOL1        -0.1209
       6    H4      21.612107   19.348849   24.421672 H          1 MOL1         0.1041
       7    H5      22.157880   18.011148   23.418065 H          1 MOL1         0.1041
       8    C3      20.158682   18.729839   22.935395 C.3        1 MOL1        -0.1274
       9    H6      19.659976   18.074261   23.661360 H          1 MOL1         0.1041
      10    H7      19.614027   19.682701   22.946086 H          1 MOL1         0.1041
      11    C4      20.072677   18.088906   21.533514 C.3        1 MOL1         0.0313
      12    H8      20.652714   17.162558   21.531150 H          1 MOL1         0.1015
      13    H9      20.506192   18.761614   20.789684 H          1 MOL1         0.1015
      14    N1      18.663315   17.741756   21.082308 N.4        1 MOL1        -0.4809
      15    H10     18.205603   17.131971   21.776845 H          1 MOL1         0.3726
      16    H11     18.706221   17.175020   20.220812 H          1 MOL1         0.3726
      17    C5      17.836000   18.998491   20.834248 C.3        1 MOL1        -0.0677
      18    H12     16.845092   18.709613   20.477018 H          1 MOL1         0.1026
      19    H13     17.739931   19.559251   21.766024 H          1 MOL1         0.1026
      20    H14     18.333495   19.613576   20.081342 H          1 MOL1         0.1026
@<TRIPOS>BOND
    1     1     2    1
    2     1     3    1
    3     1     4    1
    4     1     5    1
    5     5     6    1
    6     5     7    1
    7     5     8    1
    8     8     9    1
    9     8    10    1
   10     8    11    1
   11    11    12    1
   12    11    13    1
   13    11    14    1
   14    14    15    1
   15    14    16    1
   16    14    17    1
   17    17    18    1
   18    17    19    1
   19    17    20    1
@<TRIPOS>SUBSTRUCTURE
       1 MOL1            1 RESIDUE      1      MOL     
@<SCITEGIC>MOL_PROPERTY
VConf Rank
SciTegic.value.IntegerValue
597

@<SCITEGIC>MOL_PROPERTY
Conf_Id
SciTegic.value.IntegerValue
53

@<SCITEGIC>MOL_PROPERTY
Delta U+W
SciTegic.value.DoubleValue
0.379

@<SCITEGIC>MOL_PROPERTY
U+W
SciTegic.value.DoubleValue
15.717

@<SCITEGIC>MOL_PROPERTY
Grad RMS
SciTegic.value.DoubleValue
0.000000

@<SCITEGIC>MOL_PROPERTY
U
SciTegic.value.DoubleValue
70.163

@<SCITEGIC>MOL_PROPERTY
W
SciTegic.value.DoubleValue
-54.446

@<SCITEGIC>MOL_PROPERTY
W(PB)
SciTegic.value.DoubleValue
-56.322

@<SCITEGIC>MOL_PROPERTY
W(SA)
SciTegic.value.DoubleValue
1.876

@<SCITEGIC>MOL_PROPERTY
Valence
SciTegic.value.DoubleValue
1.420

@<SCITEGIC>MOL_PROPERTY
Coulomb
SciTegic.value.DoubleValue
68.566

@<SCITEGIC>MOL_PROPERTY
VdW
SciTegic.value.DoubleValue
0.177

@<SCITEGIC>MOL_PROPERTY
VdW6
SciTegic.value.DoubleValue
-4.267

@<SCITEGIC>MOL_PROPERTY
VdW12
SciTegic.value.DoubleValue
4.445

@<SCITEGIC>MOL_PROPERTY
Bond
SciTegic.value.DoubleValue
0.146

@<SCITEGIC>MOL_PROPERTY
Angle
SciTegic.value.DoubleValue
0.581

@<SCITEGIC>MOL_PROPERTY
Pdih
SciTegic.value.DoubleValue
0.693

@<SCITEGIC>MOL_PROPERTY
Idih
SciTegic.value.DoubleValue
0.000

@<SCITEGIC>MOL_PROPERTY
Tether
SciTegic.value.DoubleValue
0.000

@<TRIPOS>MOLECULE
guest-s9_confgen4.mol2 : confsearch ligand conformer 598
          20          19           1
SMALL
USER_CHARGES
 
@<TRIPOS>ATOM
       1    C1      21.287159   16.319584   21.716550 C.3        1 MOL1        -0.2224
       2    H1      20.852215   15.344337   21.970947 H          1 MOL1         0.1052
       3    H2      21.812741   16.213355   20.758622 H          1 MOL1         0.1052
       4    H3      22.028453   16.568356   22.487106 H          1 MOL1         0.1052
       5    C2      20.188869   17.401508   21.631921 C.3        1 MOL1        -0.1209
       6    H4      19.660641   17.452077   22.593730 H          1 MOL1         0.1041
       7    H5      19.446406   17.108949   20.876051 H          1 MOL1         0.1041
       8    C3      20.776606   18.787455   21.276337 C.3        1 MOL1        -0.1274
       9    H6      21.499011   19.096918   22.042565 H          1 MOL1         0.1041
      10    H7      21.338602   18.712738   20.336005 H          1 MOL1         0.1041
      11    C4      19.691983   19.874621   21.108045 C.3        1 MOL1         0.0313
      12    H8      19.014809   19.578353   20.302880 H          1 MOL1         0.1015
      13    H9      20.163045   20.817508   20.818980 H          1 MOL1         0.1015
      14    N1      18.842058   20.144180   22.340764 N.4        1 MOL1        -0.4809
      15    H10     18.379781   19.276884   22.650808 H          1 MOL1         0.3726
      16    H11     18.069823   20.783022   22.094273 H          1 MOL1         0.3726
      17    C5      19.674219   20.747312   23.467119 C.3        1 MOL1        -0.0677
      18    H12     20.135431   21.673275   23.117070 H          1 MOL1         0.1026
      19    H13     19.023852   20.959198   24.318623 H          1 MOL1         0.1026
      20    H14     20.448345   20.037474   23.765234 H          1 MOL1         0.1026
@<TRIPOS>BOND
    1     1     2    1
    2     1     3    1
    3     1     4    1
    4     1     5    1
    5     5     6    1
    6     5     7    1
    7     5     8    1
    8     8     9    1
    9     8    10    1
   10     8    11    1
   11    11    12    1
   12    11    13    1
   13    11    14    1
   14    14    15    1
   15    14    16    1
   16    14    17    1
   17    17    18    1
   18    17    19    1
   19    17    20    1
@<TRIPOS>SUBSTRUCTURE
       1 MOL1            1 RESIDUE      1      MOL     
@<SCITEGIC>MOL_PROPERTY
VConf Rank
SciTegic.value.IntegerValue
598

@<SCITEGIC>MOL_PROPERTY
Conf_Id
SciTegic.value.IntegerValue
49

@<SCITEGIC>MOL_PROPERTY
Delta U+W
SciTegic.value.DoubleValue
0.268

@<SCITEGIC>MOL_PROPERTY
U+W
SciTegic.value.DoubleValue
15.607

@<SCITEGIC>MOL_PROPERTY
Grad RMS
SciTegic.value.DoubleValue
0.000000

@<SCITEGIC>MOL_PROPERTY
U
SciTegic.value.DoubleValue
70.298

@<SCITEGIC>MOL_PROPERTY
W
SciTegic.value.DoubleValue
-54.692

@<SCITEGIC>MOL_PROPERTY
W(PB)
SciTegic.value.DoubleValue
-56.576

@<SCITEGIC>MOL_PROPERTY
W(SA)
SciTegic.value.DoubleValue
1.885

@<SCITEGIC>MOL_PROPERTY
Valence
SciTegic.value.DoubleValue
1.245

@<SCITEGIC>MOL_PROPERTY
Coulomb
SciTegic.value.DoubleValue
68.933

@<SCITEGIC>MOL_PROPERTY
VdW
SciTegic.value.DoubleValue
0.120

@<SCITEGIC>MOL_PROPERTY
VdW6
SciTegic.value.DoubleValue
-4.430

@<SCITEGIC>MOL_PROPERTY
VdW12
SciTegic.value.DoubleValue
4.550

@<SCITEGIC>MOL_PROPERTY
Bond
SciTegic.value.DoubleValue
0.148

@<SCITEGIC>MOL_PROPERTY
Angle
SciTegic.value.DoubleValue
0.587

@<SCITEGIC>MOL_PROPERTY
Pdih
SciTegic.value.DoubleValue
0.509

@<SCITEGIC>MOL_PROPERTY
Idih
SciTegic.value.DoubleValue
0.000

@<SCITEGIC>MOL_PROPERTY
Tether
SciTegic.value.DoubleValue
0.000

@<TRIPOS>MOLECULE
guest-s9_confgen4.mol2 : confsearch ligand conformer 599
          20          19           1
SMALL
USER_CHARGES
 
@<TRIPOS>ATOM
       1    C1      21.769390   17.069662   23.359946 C.3        1 MOL1        -0.2224
       2    H1      22.562027   16.903797   22.618739 H          1 MOL1         0.1052
       3    H2      22.209317   17.592048   24.219432 H          1 MOL1         0.1052
       4    H3      21.421934   16.087582   23.706057 H          1 MOL1         0.1052
       5    C2      20.602153   17.878828   22.754026 C.3        1 MOL1        -0.1209
       6    H4      19.813767   18.004345   23.509462 H          1 MOL1         0.1041
       7    H5      20.166213   17.305186   21.925510 H          1 MOL1         0.1041
       8    C3      21.067517   19.264126   22.248054 C.3        1 MOL1        -0.1274
       9    H6      21.604475   19.778743   23.055891 H          1 MOL1         0.1041
      10    H7      21.789542   19.137622   21.430600 H          1 MOL1         0.1041
      11    C4      19.917895   20.184851   21.779580 C.3        1 MOL1         0.0313
      12    H8      20.350103   21.151262   21.507571 H          1 MOL1         0.1015
      13    H9      19.211621   20.356288   22.595719 H          1 MOL1         0.1015
      14    N1      19.137695   19.698317   20.568039 N.4        1 MOL1        -0.4809
      15    H10     19.753652   19.170807   19.931510 H          1 MOL1         0.3726
      16    H11     18.823353   20.511999   20.016569 H          1 MOL1         0.3726
      17    C5      17.923108   18.873396   20.981475 C.3        1 MOL1        -0.0677
      18    H12     17.379910   18.564339   20.085720 H          1 MOL1         0.1026
      19    H13     18.246534   17.991356   21.535290 H          1 MOL1         0.1026
      20    H14     17.273032   19.484673   21.611102 H          1 MOL1         0.1026
@<TRIPOS>BOND
    1     1     2    1
    2     1     3    1
    3     1     4    1
    4     1     5    1
    5     5     6    1
    6     5     7    1
    7     5     8    1
    8     8     9    1
    9     8    10    1
   10     8    11    1
   11    11    12    1
   12    11    13    1
   13    11    14    1
   14    14    15    1
   15    14    16    1
   16    14    17    1
   17    17    18    1
   18    17    19    1
   19    17    20    1
@<TRIPOS>SUBSTRUCTURE
       1 MOL1            1 RESIDUE      1      MOL     
@<SCITEGIC>MOL_PROPERTY
VConf Rank
SciTegic.value.IntegerValue
599

@<SCITEGIC>MOL_PROPERTY
Conf_Id
SciTegic.value.IntegerValue
65

@<SCITEGIC>MOL_PROPERTY
Delta U+W
SciTegic.value.DoubleValue
1.775

@<SCITEGIC>MOL_PROPERTY
U+W
SciTegic.value.DoubleValue
17.114

@<SCITEGIC>MOL_PROPERTY
Grad RMS
SciTegic.value.DoubleValue
0.000000

@<SCITEGIC>MOL_PROPERTY
U
SciTegic.value.DoubleValue
71.726

@<SCITEGIC>MOL_PROPERTY
W
SciTegic.value.DoubleValue
-54.613

@<SCITEGIC>MOL_PROPERTY
W(PB)
SciTegic.value.DoubleValue
-56.495

@<SCITEGIC>MOL_PROPERTY
W(SA)
SciTegic.value.DoubleValue
1.883

@<SCITEGIC>MOL_PROPERTY
Valence
SciTegic.value.DoubleValue
2.885

@<SCITEGIC>MOL_PROPERTY
Coulomb
SciTegic.value.DoubleValue
68.822

@<SCITEGIC>MOL_PROPERTY
VdW
SciTegic.value.DoubleValue
0.019

@<SCITEGIC>MOL_PROPERTY
VdW6
SciTegic.value.DoubleValue
-4.600

@<SCITEGIC>MOL_PROPERTY
VdW12
SciTegic.value.DoubleValue
4.619

@<SCITEGIC>MOL_PROPERTY
Bond
SciTegic.value.DoubleValue
0.152

@<SCITEGIC>MOL_PROPERTY
Angle
SciTegic.value.DoubleValue
0.862

@<SCITEGIC>MOL_PROPERTY
Pdih
SciTegic.value.DoubleValue
1.871

@<SCITEGIC>MOL_PROPERTY
Idih
SciTegic.value.DoubleValue
0.000

@<SCITEGIC>MOL_PROPERTY
Tether
SciTegic.value.DoubleValue
0.000

@<TRIPOS>MOLECULE
guest-s9_confgen4.mol2 : confsearch ligand conformer 600
          20          19           1
SMALL
USER_CHARGES
 
@<TRIPOS>ATOM
       1    C1      18.465728   20.440723   21.628112 C.3        1 MOL1        -0.2224
       2    H1      19.255328   20.668648   22.355151 H          1 MOL1         0.1052
       3    H2      18.301087   21.343054   21.025060 H          1 MOL1         0.1052
       4    H3      17.540038   20.234705   22.181036 H          1 MOL1         0.1052
       5    C2      18.850522   19.247087   20.724046 C.3        1 MOL1        -0.1209
       6    H4      19.777639   19.477638   20.181911 H          1 MOL1         0.1041
       7    H5      18.075453   19.116761   19.955743 H          1 MOL1         0.1041
       8    C3      19.005704   17.918563   21.505673 C.3        1 MOL1        -0.1274
       9    H6      18.040952   17.650208   21.956232 H          1 MOL1         0.1041
      10    H7      19.250973   17.109547   20.804902 H          1 MOL1         0.1041
      11    C4      20.072927   17.966252   22.619103 C.3        1 MOL1         0.0313
      12    H8      20.096901   17.005318   23.139269 H          1 MOL1         0.1015
      13    H9      19.811546   18.738477   23.346506 H          1 MOL1         0.1015
      14    N1      21.475214   18.252263   22.116718 N.4        1 MOL1        -0.4809
      15    H10     21.492259   19.150802   21.611914 H          1 MOL1         0.3726
      16    H11     21.756699   17.541488   21.424285 H          1 MOL1         0.3726
      17    C5      22.451373   18.277421   23.285050 C.3        1 MOL1        -0.0677
      18    H12     22.439242   17.306434   23.784852 H          1 MOL1         0.1026
      19    H13     23.455608   18.485395   22.909246 H          1 MOL1         0.1026
      20    H14     22.152029   19.058330   23.987428 H          1 MOL1         0.1026
@<TRIPOS>BOND
    1     1     2    1
    2     1     3    1
    3     1     4    1
    4     1     5    1
    5     5     6    1
    6     5     7    1
    7     5     8    1
    8     8     9    1
    9     8    10    1
   10     8    11    1
   11    11    12    1
   12    11    13    1
   13    11    14    1
   14    14    15    1
   15    14    16    1
   16    14    17    1
   17    17    18    1
   18    17    19    1
   19    17    20    1
@<TRIPOS>SUBSTRUCTURE
       1 MOL1            1 RESIDUE      1      MOL     
@<SCITEGIC>MOL_PROPERTY
VConf Rank
SciTegic.value.IntegerValue
600

@<SCITEGIC>MOL_PROPERTY
Conf_Id
SciTegic.value.IntegerValue
23

@<SCITEGIC>MOL_PROPERTY
Delta U+W
SciTegic.value.DoubleValue
0.896

@<SCITEGIC>MOL_PROPERTY
U+W
SciTegic.value.DoubleValue
16.234

@<SCITEGIC>MOL_PROPERTY
Grad RMS
SciTegic.value.DoubleValue
0.000000

@<SCITEGIC>MOL_PROPERTY
U
SciTegic.value.DoubleValue
70.374

@<SCITEGIC>MOL_PROPERTY
W
SciTegic.value.DoubleValue
-54.140

@<SCITEGIC>MOL_PROPERTY
W(PB)
SciTegic.value.DoubleValue
-56.046

@<SCITEGIC>MOL_PROPERTY
W(SA)
SciTegic.value.DoubleValue
1.907

@<SCITEGIC>MOL_PROPERTY
Valence
SciTegic.value.DoubleValue
1.257

@<SCITEGIC>MOL_PROPERTY
Coulomb
SciTegic.value.DoubleValue
69.240

@<SCITEGIC>MOL_PROPERTY
VdW
SciTegic.value.DoubleValue
-0.123

@<SCITEGIC>MOL_PROPERTY
VdW6
SciTegic.value.DoubleValue
-4.336

@<SCITEGIC>MOL_PROPERTY
VdW12
SciTegic.value.DoubleValue
4.213

@<SCITEGIC>MOL_PROPERTY
Bond
SciTegic.value.DoubleValue
0.128

@<SCITEGIC>MOL_PROPERTY
Angle
SciTegic.value.DoubleValue
0.603

@<SCITEGIC>MOL_PROPERTY
Pdih
SciTegic.value.DoubleValue
0.526

@<SCITEGIC>MOL_PROPERTY
Idih
SciTegic.value.DoubleValue
0.000

@<SCITEGIC>MOL_PROPERTY
Tether
SciTegic.value.DoubleValue
0.000

@<TRIPOS>MOLECULE
guest-s9_confgen4.mol2 : confsearch ligand conformer 601
          20          19           1
SMALL
USER_CHARGES
 
@<TRIPOS>ATOM
       1    C1      17.879354   19.406817   22.525737 C.3        1 MOL1        -0.2224
       2    H1      17.370188   19.786418   21.630347 H          1 MOL1         0.1052
       3    H2      17.149220   19.394066   23.345323 H          1 MOL1         0.1052
       4    H3      18.669295   20.118107   22.797883 H          1 MOL1         0.1052
       5    C2      18.447247   17.989452   22.283367 C.3        1 MOL1        -0.1209
       6    H4      17.613000   17.295964   22.106981 H          1 MOL1         0.1041
       7    H5      18.950152   17.632189   23.192246 H          1 MOL1         0.1041
       8    C3      19.415498   17.921485   21.075946 C.3        1 MOL1        -0.1274
       9    H6      19.759589   16.887358   20.942056 H          1 MOL1         0.1041
      10    H7      18.868921   18.182401   20.160007 H          1 MOL1         0.1041
      11    C4      20.640367   18.851640   21.200340 C.3        1 MOL1         0.0313
      12    H8      20.307560   19.888663   21.287450 H          1 MOL1         0.1015
      13    H9      21.252465   18.767061   20.298829 H          1 MOL1         0.1015
      14    N1      21.529324   18.544127   22.390213 N.4        1 MOL1        -0.4809
      15    H10     21.862762   17.569228   22.342388 H          1 MOL1         0.3726
      16    H11     20.984192   18.606511   23.262813 H          1 MOL1         0.3726
      17    C5      22.705186   19.510915   22.424763 C.3        1 MOL1        -0.0677
      18    H12     22.328712   20.532684   22.508526 H          1 MOL1         0.1026
      19    H13     23.335366   19.278905   23.286166 H          1 MOL1         0.1026
      20    H14     23.285074   19.404971   21.505377 H          1 MOL1         0.1026
@<TRIPOS>BOND
    1     1     2    1
    2     1     3    1
    3     1     4    1
    4     1     5    1
    5     5     6    1
    6     5     7    1
    7     5     8    1
    8     8     9    1
    9     8    10    1
   10     8    11    1
   11    11    12    1
   12    11    13    1
   13    11    14    1
   14    14    15    1
   15    14    16    1
   16    14    17    1
   17    17    18    1
   18    17    19    1
   19    17    20    1
@<TRIPOS>SUBSTRUCTURE
       1 MOL1            1 RESIDUE      1      MOL     
@<SCITEGIC>MOL_PROPERTY
VConf Rank
SciTegic.value.IntegerValue
601

@<SCITEGIC>MOL_PROPERTY
Conf_Id
SciTegic.value.IntegerValue
24

@<SCITEGIC>MOL_PROPERTY
Delta U+W
SciTegic.value.DoubleValue
0.792

@<SCITEGIC>MOL_PROPERTY
U+W
SciTegic.value.DoubleValue
16.130

@<SCITEGIC>MOL_PROPERTY
Grad RMS
SciTegic.value.DoubleValue
0.000000

@<SCITEGIC>MOL_PROPERTY
U
SciTegic.value.DoubleValue
70.374

@<SCITEGIC>MOL_PROPERTY
W
SciTegic.value.DoubleValue
-54.243

@<SCITEGIC>MOL_PROPERTY
W(PB)
SciTegic.value.DoubleValue
-56.130

@<SCITEGIC>MOL_PROPERTY
W(SA)
SciTegic.value.DoubleValue
1.887

@<SCITEGIC>MOL_PROPERTY
Valence
SciTegic.value.DoubleValue
1.257

@<SCITEGIC>MOL_PROPERTY
Coulomb
SciTegic.value.DoubleValue
69.240

@<SCITEGIC>MOL_PROPERTY
VdW
SciTegic.value.DoubleValue
-0.123

@<SCITEGIC>MOL_PROPERTY
VdW6
SciTegic.value.DoubleValue
-4.336

@<SCITEGIC>MOL_PROPERTY
VdW12
SciTegic.value.DoubleValue
4.213

@<SCITEGIC>MOL_PROPERTY
Bond
SciTegic.value.DoubleValue
0.128

@<SCITEGIC>MOL_PROPERTY
Angle
SciTegic.value.DoubleValue
0.603

@<SCITEGIC>MOL_PROPERTY
Pdih
SciTegic.value.DoubleValue
0.526

@<SCITEGIC>MOL_PROPERTY
Idih
SciTegic.value.DoubleValue
0.000

@<SCITEGIC>MOL_PROPERTY
Tether
SciTegic.value.DoubleValue
0.000

@<TRIPOS>MOLECULE
guest-s9_confgen4.mol2 : confsearch ligand conformer 602
          20          19           1
SMALL
USER_CHARGES
 
@<TRIPOS>ATOM
       1    C1      19.852434   20.906221   22.495569 C.3        1 MOL1        -0.2224
       2    H1      19.542218   21.959299   22.499345 H          1 MOL1         0.1052
       3    H2      18.976026   20.312663   22.781307 H          1 MOL1         0.1052
       4    H3      20.629086   20.786264   23.262110 H          1 MOL1         0.1052
       5    C2      20.376655   20.508164   21.096925 C.3        1 MOL1        -0.1209
       6    H4      21.106184   21.261805   20.768473 H          1 MOL1         0.1041
       7    H5      19.551386   20.548746   20.372088 H          1 MOL1         0.1041
       8    C3      21.053622   19.114955   21.037589 C.3        1 MOL1        -0.1274
       9    H6      21.444566   18.972221   20.021416 H          1 MOL1         0.1041
      10    H7      21.926730   19.085614   21.702816 H          1 MOL1         0.1041
      11    C4      20.111144   17.933349   21.350365 C.3        1 MOL1         0.0313
      12    H8      20.537454   17.016759   20.934833 H          1 MOL1         0.1015
      13    H9      19.140192   18.100238   20.877413 H          1 MOL1         0.1015
      14    N1      19.888514   17.685479   22.830228 N.4        1 MOL1        -0.4809
      15    H10     19.535191   18.541072   23.281606 H          1 MOL1         0.3726
      16    H11     20.786716   17.481239   23.294479 H          1 MOL1         0.3726
      17    C5      18.912057   16.533453   23.024597 C.3        1 MOL1        -0.0677
      18    H12     17.959496   16.785671   22.553659 H          1 MOL1         0.1026
      19    H13     19.323695   15.631875   22.565821 H          1 MOL1         0.1026
      20    H14     18.761722   16.366686   24.093503 H          1 MOL1         0.1026
@<TRIPOS>BOND
    1     1     2    1
    2     1     3    1
    3     1     4    1
    4     1     5    1
    5     5     6    1
    6     5     7    1
    7     5     8    1
    8     8     9    1
    9     8    10    1
   10     8    11    1
   11    11    12    1
   12    11    13    1
   13    11    14    1
   14    14    15    1
   15    14    16    1
   16    14    17    1
   17    17    18    1
   18    17    19    1
   19    17    20    1
@<TRIPOS>SUBSTRUCTURE
       1 MOL1            1 RESIDUE      1      MOL     
@<SCITEGIC>MOL_PROPERTY
VConf Rank
SciTegic.value.IntegerValue
602

@<SCITEGIC>MOL_PROPERTY
Conf_Id
SciTegic.value.IntegerValue
26

@<SCITEGIC>MOL_PROPERTY
Delta U+W
SciTegic.value.DoubleValue
2.888

@<SCITEGIC>MOL_PROPERTY
U+W
SciTegic.value.DoubleValue
18.226

@<SCITEGIC>MOL_PROPERTY
Grad RMS
SciTegic.value.DoubleValue
0.000000

@<SCITEGIC>MOL_PROPERTY
U
SciTegic.value.DoubleValue
72.042

@<SCITEGIC>MOL_PROPERTY
W
SciTegic.value.DoubleValue
-53.816

@<SCITEGIC>MOL_PROPERTY
W(PB)
SciTegic.value.DoubleValue
-55.689

@<SCITEGIC>MOL_PROPERTY
W(SA)
SciTegic.value.DoubleValue
1.873

@<SCITEGIC>MOL_PROPERTY
Valence
SciTegic.value.DoubleValue
2.428

@<SCITEGIC>MOL_PROPERTY
Coulomb
SciTegic.value.DoubleValue
69.829

@<SCITEGIC>MOL_PROPERTY
VdW
SciTegic.value.DoubleValue
-0.215

@<SCITEGIC>MOL_PROPERTY
VdW6
SciTegic.value.DoubleValue
-4.563

@<SCITEGIC>MOL_PROPERTY
VdW12
SciTegic.value.DoubleValue
4.348

@<SCITEGIC>MOL_PROPERTY
Bond
SciTegic.value.DoubleValue
0.137

@<SCITEGIC>MOL_PROPERTY
Angle
SciTegic.value.DoubleValue
0.936

@<SCITEGIC>MOL_PROPERTY
Pdih
SciTegic.value.DoubleValue
1.356

@<SCITEGIC>MOL_PROPERTY
Idih
SciTegic.value.DoubleValue
0.000

@<SCITEGIC>MOL_PROPERTY
Tether
SciTegic.value.DoubleValue
0.000

@<TRIPOS>MOLECULE
guest-s9_confgen4.mol2 : confsearch ligand conformer 603
          20          19           1
SMALL
USER_CHARGES
 
@<TRIPOS>ATOM
       1    C1      18.477849   19.625579   23.319934 C.3        1 MOL1        -0.2224
       2    H1      17.569624   19.671210   23.934966 H          1 MOL1         0.1052
       3    H2      18.872598   20.646400   23.234705 H          1 MOL1         0.1052
       4    H3      18.174644   19.277328   22.325531 H          1 MOL1         0.1052
       5    C2      19.512501   18.674585   23.963803 C.3        1 MOL1        -0.1209
       6    H4      19.123913   17.646560   23.947363 H          1 MOL1         0.1041
       7    H5      19.620869   18.940969   25.024634 H          1 MOL1         0.1041
       8    C3      20.915340   18.711461   23.305382 C.3        1 MOL1        -0.1274
       9    H6      21.347267   19.718062   23.382184 H          1 MOL1         0.1041
      10    H7      21.577866   18.054688   23.884628 H          1 MOL1         0.1041
      11    C4      20.944480   18.234595   21.837719 C.3        1 MOL1         0.0313
      12    H8      20.298023   17.361337   21.720263 H          1 MOL1         0.1015
      13    H9      21.964183   17.938724   21.578474 H          1 MOL1         0.1015
      14    N1      20.519925   19.285770   20.829857 N.4        1 MOL1        -0.4809
      15    H10     21.142826   20.105813   20.889259 H          1 MOL1         0.3726
      16    H11     19.580518   19.637937   21.062479 H          1 MOL1         0.3726
      17    C5      20.540719   18.699195   19.424898 C.3        1 MOL1        -0.0677
      18    H12     19.850485   17.854157   19.377412 H          1 MOL1         0.1026
      19    H13     20.233281   19.466451   18.710915 H          1 MOL1         0.1026
      20    H14     21.553035   18.362931   19.190572 H          1 MOL1         0.1026
@<TRIPOS>BOND
    1     1     2    1
    2     1     3    1
    3     1     4    1
    4     1     5    1
    5     5     6    1
    6     5     7    1
    7     5     8    1
    8     8     9    1
    9     8    10    1
   10     8    11    1
   11    11    12    1
   12    11    13    1
   13    11    14    1
   14    14    15    1
   15    14    16    1
   16    14    17    1
   17    17    18    1
   18    17    19    1
   19    17    20    1
@<TRIPOS>SUBSTRUCTURE
       1 MOL1            1 RESIDUE      1      MOL     
@<SCITEGIC>MOL_PROPERTY
VConf Rank
SciTegic.value.IntegerValue
603

@<SCITEGIC>MOL_PROPERTY
Conf_Id
SciTegic.value.IntegerValue
5

@<SCITEGIC>MOL_PROPERTY
Delta U+W
SciTegic.value.DoubleValue
2.950

@<SCITEGIC>MOL_PROPERTY
U+W
SciTegic.value.DoubleValue
18.289

@<SCITEGIC>MOL_PROPERTY
Grad RMS
SciTegic.value.DoubleValue
0.000000

@<SCITEGIC>MOL_PROPERTY
U
SciTegic.value.DoubleValue
72.042

@<SCITEGIC>MOL_PROPERTY
W
SciTegic.value.DoubleValue
-53.753

@<SCITEGIC>MOL_PROPERTY
W(PB)
SciTegic.value.DoubleValue
-55.644

@<SCITEGIC>MOL_PROPERTY
W(SA)
SciTegic.value.DoubleValue
1.891

@<SCITEGIC>MOL_PROPERTY
Valence
SciTegic.value.DoubleValue
2.428

@<SCITEGIC>MOL_PROPERTY
Coulomb
SciTegic.value.DoubleValue
69.829

@<SCITEGIC>MOL_PROPERTY
VdW
SciTegic.value.DoubleValue
-0.215

@<SCITEGIC>MOL_PROPERTY
VdW6
SciTegic.value.DoubleValue
-4.563

@<SCITEGIC>MOL_PROPERTY
VdW12
SciTegic.value.DoubleValue
4.348

@<SCITEGIC>MOL_PROPERTY
Bond
SciTegic.value.DoubleValue
0.137

@<SCITEGIC>MOL_PROPERTY
Angle
SciTegic.value.DoubleValue
0.936

@<SCITEGIC>MOL_PROPERTY
Pdih
SciTegic.value.DoubleValue
1.356

@<SCITEGIC>MOL_PROPERTY
Idih
SciTegic.value.DoubleValue
0.000

@<SCITEGIC>MOL_PROPERTY
Tether
SciTegic.value.DoubleValue
0.000

@<TRIPOS>MOLECULE
guest-s9_confgen4.mol2 : confsearch ligand conformer 604
          20          19           1
SMALL
USER_CHARGES
 
@<TRIPOS>ATOM
       1    C1      21.525679   20.741074   21.458465 C.3        1 MOL1        -0.2224
       2    H1      21.570212   21.495373   22.254774 H          1 MOL1         0.1052
       3    H2      22.176243   19.904618   21.742868 H          1 MOL1         0.1052
       4    H3      21.943590   21.190725   20.548448 H          1 MOL1         0.1052
       5    C2      20.071635   20.275716   21.214869 C.3        1 MOL1        -0.1209
       6    H4      20.051796   19.525338   20.412808 H          1 MOL1         0.1041
       7    H5      19.481107   21.126826   20.847743 H          1 MOL1         0.1041
       8    C3      19.393676   19.710588   22.487779 C.3        1 MOL1        -0.1274
       9    H6      19.335563   20.501584   23.247043 H          1 MOL1         0.1041
      10    H7      18.355879   19.437644   22.257060 H          1 MOL1         0.1041
      11    C4      20.122953   18.493337   23.100956 C.3        1 MOL1         0.0313
      12    H8      19.583999   18.153827   23.989033 H          1 MOL1         0.1015
      13    H9      21.123824   18.799576   23.414892 H          1 MOL1         0.1015
      14    N1      20.282815   17.299153   22.172682 N.4        1 MOL1        -0.4809
      15    H10     20.896662   16.597080   22.614656 H          1 MOL1         0.3726
      16    H11     20.776765   17.583591   21.314071 H          1 MOL1         0.3726
      17    C5      18.933383   16.672614   21.839361 C.3        1 MOL1        -0.0677
      18    H12     18.313883   17.404312   21.317032 H          1 MOL1         0.1026
      19    H13     19.091309   15.802105   21.198908 H          1 MOL1         0.1026
      20    H14     18.442009   16.364352   22.764650 H          1 MOL1         0.1026
@<TRIPOS>BOND
    1     1     2    1
    2     1     3    1
    3     1     4    1
    4     1     5    1
    5     5     6    1
    6     5     7    1
    7     5     8    1
    8     8     9    1
    9     8    10    1
   10     8    11    1
   11    11    12    1
   12    11    13    1
   13    11    14    1
   14    14    15    1
   15    14    16    1
   16    14    17    1
   17    17    18    1
   18    17    19    1
   19    17    20    1
@<TRIPOS>SUBSTRUCTURE
       1 MOL1            1 RESIDUE      1      MOL     
@<SCITEGIC>MOL_PROPERTY
VConf Rank
SciTegic.value.IntegerValue
604

@<SCITEGIC>MOL_PROPERTY
Conf_Id
SciTegic.value.IntegerValue
52

@<SCITEGIC>MOL_PROPERTY
Delta U+W
SciTegic.value.DoubleValue
0.784

@<SCITEGIC>MOL_PROPERTY
U+W
SciTegic.value.DoubleValue
16.122

@<SCITEGIC>MOL_PROPERTY
Grad RMS
SciTegic.value.DoubleValue
0.000000

@<SCITEGIC>MOL_PROPERTY
U
SciTegic.value.DoubleValue
70.777

@<SCITEGIC>MOL_PROPERTY
W
SciTegic.value.DoubleValue
-54.655

@<SCITEGIC>MOL_PROPERTY
W(PB)
SciTegic.value.DoubleValue
-56.491

@<SCITEGIC>MOL_PROPERTY
W(SA)
SciTegic.value.DoubleValue
1.836

@<SCITEGIC>MOL_PROPERTY
Valence
SciTegic.value.DoubleValue
1.529

@<SCITEGIC>MOL_PROPERTY
Coulomb
SciTegic.value.DoubleValue
69.166

@<SCITEGIC>MOL_PROPERTY
VdW
SciTegic.value.DoubleValue
0.082

@<SCITEGIC>MOL_PROPERTY
VdW6
SciTegic.value.DoubleValue
-5.166

@<SCITEGIC>MOL_PROPERTY
VdW12
SciTegic.value.DoubleValue
5.248

@<SCITEGIC>MOL_PROPERTY
Bond
SciTegic.value.DoubleValue
0.171

@<SCITEGIC>MOL_PROPERTY
Angle
SciTegic.value.DoubleValue
0.752

@<SCITEGIC>MOL_PROPERTY
Pdih
SciTegic.value.DoubleValue
0.605

@<SCITEGIC>MOL_PROPERTY
Idih
SciTegic.value.DoubleValue
0.000

@<SCITEGIC>MOL_PROPERTY
Tether
SciTegic.value.DoubleValue
0.000

@<TRIPOS>MOLECULE
guest-s9_confgen4.mol2 : confsearch ligand conformer 605
          20          19           1
SMALL
USER_CHARGES
 
@<TRIPOS>ATOM
       1    C1      21.015840   17.050882   22.150286 C.3        1 MOL1        -0.2224
       2    H1      21.466310   16.055578   22.042504 H          1 MOL1         0.1052
       3    H2      21.811109   17.783356   21.970895 H          1 MOL1         0.1052
       4    H3      20.670035   17.148971   23.187641 H          1 MOL1         0.1052
       5    C2      19.849251   17.221346   21.150597 C.3        1 MOL1        -0.1209
       6    H4      19.201596   16.335763   21.216250 H          1 MOL1         0.1041
       7    H5      20.243345   17.233404   20.124653 H          1 MOL1         0.1041
       8    C3      18.976993   18.480017   21.390883 C.3        1 MOL1        -0.1274
       9    H6      18.134367   18.444165   20.687830 H          1 MOL1         0.1041
      10    H7      18.529512   18.446352   22.392147 H          1 MOL1         0.1041
      11    C4      19.711345   19.823102   21.170878 C.3        1 MOL1         0.0313
      12    H8      18.973874   20.617263   21.029930 H          1 MOL1         0.1015
      13    H9      20.308672   19.757466   20.257991 H          1 MOL1         0.1015
      14    N1      20.629871   20.266489   22.298809 N.4        1 MOL1        -0.4809
      15    H10     21.209324   21.059204   21.981012 H          1 MOL1         0.3726
      16    H11     21.297984   19.516777   22.525519 H          1 MOL1         0.3726
      17    C5      19.833064   20.671297   23.534104 C.3        1 MOL1        -0.0677
      18    H12     19.144498   21.476568   23.269421 H          1 MOL1         0.1026
      19    H13     19.271884   19.810538   23.902596 H          1 MOL1         0.1026
      20    H14     20.522842   21.016751   24.307267 H          1 MOL1         0.1026
@<TRIPOS>BOND
    1     1     2    1
    2     1     3    1
    3     1     4    1
    4     1     5    1
    5     5     6    1
    6     5     7    1
    7     5     8    1
    8     8     9    1
    9     8    10    1
   10     8    11    1
   11    11    12    1
   12    11    13    1
   13    11    14    1
   14    14    15    1
   15    14    16    1
   16    14    17    1
   17    17    18    1
   18    17    19    1
   19    17    20    1
@<TRIPOS>SUBSTRUCTURE
       1 MOL1            1 RESIDUE      1      MOL     
@<SCITEGIC>MOL_PROPERTY
VConf Rank
SciTegic.value.IntegerValue
605

@<SCITEGIC>MOL_PROPERTY
Conf_Id
SciTegic.value.IntegerValue
55

@<SCITEGIC>MOL_PROPERTY
Delta U+W
SciTegic.value.DoubleValue
2.745

@<SCITEGIC>MOL_PROPERTY
U+W
SciTegic.value.DoubleValue
18.083

@<SCITEGIC>MOL_PROPERTY
Grad RMS
SciTegic.value.DoubleValue
0.000000

@<SCITEGIC>MOL_PROPERTY
U
SciTegic.value.DoubleValue
72.490

@<SCITEGIC>MOL_PROPERTY
W
SciTegic.value.DoubleValue
-54.407

@<SCITEGIC>MOL_PROPERTY
W(PB)
SciTegic.value.DoubleValue
-56.269

@<SCITEGIC>MOL_PROPERTY
W(SA)
SciTegic.value.DoubleValue
1.861

@<SCITEGIC>MOL_PROPERTY
Valence
SciTegic.value.DoubleValue
2.738

@<SCITEGIC>MOL_PROPERTY
Coulomb
SciTegic.value.DoubleValue
69.795

@<SCITEGIC>MOL_PROPERTY
VdW
SciTegic.value.DoubleValue
-0.043

@<SCITEGIC>MOL_PROPERTY
VdW6
SciTegic.value.DoubleValue
-5.333

@<SCITEGIC>MOL_PROPERTY
VdW12
SciTegic.value.DoubleValue
5.290

@<SCITEGIC>MOL_PROPERTY
Bond
SciTegic.value.DoubleValue
0.182

@<SCITEGIC>MOL_PROPERTY
Angle
SciTegic.value.DoubleValue
1.135

@<SCITEGIC>MOL_PROPERTY
Pdih
SciTegic.value.DoubleValue
1.422

@<SCITEGIC>MOL_PROPERTY
Idih
SciTegic.value.DoubleValue
0.000

@<SCITEGIC>MOL_PROPERTY
Tether
SciTegic.value.DoubleValue
0.000

@<TRIPOS>MOLECULE
guest-s9_confgen4.mol2 : confsearch ligand conformer 606
          20          19           1
SMALL
USER_CHARGES
 
@<TRIPOS>ATOM
       1    C1      21.899664   19.537983   21.642276 C.3        1 MOL1        -0.2224
       2    H1      22.892596   19.831964   21.277818 H          1 MOL1         0.1052
       3    H2      21.527233   20.347957   22.283014 H          1 MOL1         0.1052
       4    H3      22.036139   18.637688   22.252190 H          1 MOL1         0.1052
       5    C2      20.947586   19.280031   20.452159 C.3        1 MOL1        -0.1209
       6    H4      21.284557   18.392912   19.897643 H          1 MOL1         0.1041
       7    H5      21.027836   20.123672   19.752263 H          1 MOL1         0.1041
       8    C3      19.457449   19.115908   20.846355 C.3        1 MOL1        -0.1274
       9    H6      19.095151   20.022421   21.347231 H          1 MOL1         0.1041
      10    H7      18.872101   19.033985   19.921022 H          1 MOL1         0.1041
      11    C4      19.152768   17.865229   21.703399 C.3        1 MOL1         0.0313
      12    H8      19.689143   17.008662   21.287391 H          1 MOL1         0.1015
      13    H9      18.083409   17.645652   21.651633 H          1 MOL1         0.1015
      14    N1      19.512686   17.970380   23.177140 N.4        1 MOL1        -0.4809
      15    H10     20.496766   18.254389   23.280896 H          1 MOL1         0.3726
      16    H11     19.451957   17.037747   23.614936 H          1 MOL1         0.3726
      17    C5      18.590528   18.943345   23.903557 C.3        1 MOL1        -0.0677
      18    H12     18.707125   19.941468   23.477206 H          1 MOL1         0.1026
      19    H13     17.556508   18.610743   23.790344 H          1 MOL1         0.1026
      20    H14     18.855950   18.964517   24.962809 H          1 MOL1         0.1026
@<TRIPOS>BOND
    1     1     2    1
    2     1     3    1
    3     1     4    1
    4     1     5    1
    5     5     6    1
    6     5     7    1
    7     5     8    1
    8     8     9    1
    9     8    10    1
   10     8    11    1
   11    11    12    1
   12    11    13    1
   13    11    14    1
   14    14    15    1
   15    14    16    1
   16    14    17    1
   17    17    18    1
   18    17    19    1
   19    17    20    1
@<TRIPOS>SUBSTRUCTURE
       1 MOL1            1 RESIDUE      1      MOL     
@<SCITEGIC>MOL_PROPERTY
VConf Rank
SciTegic.value.IntegerValue
606

@<SCITEGIC>MOL_PROPERTY
Conf_Id
SciTegic.value.IntegerValue
76

@<SCITEGIC>MOL_PROPERTY
Delta U+W
SciTegic.value.DoubleValue
2.799

@<SCITEGIC>MOL_PROPERTY
U+W
SciTegic.value.DoubleValue
18.137

@<SCITEGIC>MOL_PROPERTY
Grad RMS
SciTegic.value.DoubleValue
0.000000

@<SCITEGIC>MOL_PROPERTY
U
SciTegic.value.DoubleValue
72.490

@<SCITEGIC>MOL_PROPERTY
W
SciTegic.value.DoubleValue
-54.353

@<SCITEGIC>MOL_PROPERTY
W(PB)
SciTegic.value.DoubleValue
-56.201

@<SCITEGIC>MOL_PROPERTY
W(SA)
SciTegic.value.DoubleValue
1.848

@<SCITEGIC>MOL_PROPERTY
Valence
SciTegic.value.DoubleValue
2.738

@<SCITEGIC>MOL_PROPERTY
Coulomb
SciTegic.value.DoubleValue
69.795

@<SCITEGIC>MOL_PROPERTY
VdW
SciTegic.value.DoubleValue
-0.043

@<SCITEGIC>MOL_PROPERTY
VdW6
SciTegic.value.DoubleValue
-5.334

@<SCITEGIC>MOL_PROPERTY
VdW12
SciTegic.value.DoubleValue
5.290

@<SCITEGIC>MOL_PROPERTY
Bond
SciTegic.value.DoubleValue
0.182

@<SCITEGIC>MOL_PROPERTY
Angle
SciTegic.value.DoubleValue
1.135

@<SCITEGIC>MOL_PROPERTY
Pdih
SciTegic.value.DoubleValue
1.421

@<SCITEGIC>MOL_PROPERTY
Idih
SciTegic.value.DoubleValue
0.000

@<SCITEGIC>MOL_PROPERTY
Tether
SciTegic.value.DoubleValue
0.000

@<TRIPOS>MOLECULE
guest-s9_confgen4.mol2 : confsearch ligand conformer 607
          20          19           1
SMALL
USER_CHARGES
 
@<TRIPOS>ATOM
       1    C1      21.767985   17.939272   20.936943 C.3        1 MOL1        -0.2224
       2    H1      22.012530   18.563237   21.805227 H          1 MOL1         0.1052
       3    H2      22.049302   16.904331   21.170849 H          1 MOL1         0.1052
       4    H3      22.394292   18.275081   20.100393 H          1 MOL1         0.1052
       5    C2      20.270063   18.036551   20.566366 C.3        1 MOL1        -0.1209
       6    H4      20.093082   17.453248   19.651889 H          1 MOL1         0.1041
       7    H5      20.009966   19.072480   20.313457 H          1 MOL1         0.1041
       8    C3      19.333298   17.507567   21.679961 C.3        1 MOL1        -0.1274
       9    H6      18.292069   17.564800   21.336487 H          1 MOL1         0.1041
      10    H7      19.540335   16.440434   21.834908 H          1 MOL1         0.1041
      11    C4      19.455319   18.225640   23.044571 C.3        1 MOL1         0.0313
      12    H8      20.485815   18.191568   23.405797 H          1 MOL1         0.1015
      13    H9      18.836117   17.683168   23.763584 H          1 MOL1         0.1015
      14    N1      18.982117   19.671425   23.071563 N.4        1 MOL1        -0.4809
      15    H10     18.605203   19.887463   24.007545 H          1 MOL1         0.3726
      16    H11     18.184612   19.800194   22.431213 H          1 MOL1         0.3726
      17    C5      20.114042   20.642008   22.752247 C.3        1 MOL1        -0.0677
      18    H12     19.735059   21.664547   22.813181 H          1 MOL1         0.1026
      19    H13     20.918085   20.505508   23.478521 H          1 MOL1         0.1026
      20    H14     20.490682   20.451571   21.746813 H          1 MOL1         0.1026
@<TRIPOS>BOND
    1     1     2    1
    2     1     3    1
    3     1     4    1
    4     1     5    1
    5     5     6    1
    6     5     7    1
    7     5     8    1
    8     8     9    1
    9     8    10    1
   10     8    11    1
   11    11    12    1
   12    11    13    1
   13    11    14    1
   14    14    15    1
   15    14    16    1
   16    14    17    1
   17    17    18    1
   18    17    19    1
   19    17    20    1
@<TRIPOS>SUBSTRUCTURE
       1 MOL1            1 RESIDUE      1      MOL     
@<SCITEGIC>MOL_PROPERTY
VConf Rank
SciTegic.value.IntegerValue
607

@<SCITEGIC>MOL_PROPERTY
Conf_Id
SciTegic.value.IntegerValue
60

@<SCITEGIC>MOL_PROPERTY
Delta U+W
SciTegic.value.DoubleValue
1.788

@<SCITEGIC>MOL_PROPERTY
U+W
SciTegic.value.DoubleValue
17.127

@<SCITEGIC>MOL_PROPERTY
Grad RMS
SciTegic.value.DoubleValue
0.000000

@<SCITEGIC>MOL_PROPERTY
U
SciTegic.value.DoubleValue
72.122

@<SCITEGIC>MOL_PROPERTY
W
SciTegic.value.DoubleValue
-54.995

@<SCITEGIC>MOL_PROPERTY
W(PB)
SciTegic.value.DoubleValue
-56.810

@<SCITEGIC>MOL_PROPERTY
W(SA)
SciTegic.value.DoubleValue
1.815

@<SCITEGIC>MOL_PROPERTY
Valence
SciTegic.value.DoubleValue
3.197

@<SCITEGIC>MOL_PROPERTY
Coulomb
SciTegic.value.DoubleValue
69.115

@<SCITEGIC>MOL_PROPERTY
VdW
SciTegic.value.DoubleValue
-0.190

@<SCITEGIC>MOL_PROPERTY
VdW6
SciTegic.value.DoubleValue
-5.585

@<SCITEGIC>MOL_PROPERTY
VdW12
SciTegic.value.DoubleValue
5.395

@<SCITEGIC>MOL_PROPERTY
Bond
SciTegic.value.DoubleValue
0.177

@<SCITEGIC>MOL_PROPERTY
Angle
SciTegic.value.DoubleValue
1.207

@<SCITEGIC>MOL_PROPERTY
Pdih
SciTegic.value.DoubleValue
1.813

@<SCITEGIC>MOL_PROPERTY
Idih
SciTegic.value.DoubleValue
0.000

@<SCITEGIC>MOL_PROPERTY
Tether
SciTegic.value.DoubleValue
0.000

@<TRIPOS>MOLECULE
guest-s9_confgen4.mol2 : confsearch ligand conformer 608
          20          19           1
SMALL
USER_CHARGES
 
@<TRIPOS>ATOM
       1    C1      21.801249   19.763561   22.945544 C.3        1 MOL1        -0.2224
       2    H1      21.987109   20.217626   23.927443 H          1 MOL1         0.1052
       3    H2      22.756879   19.729781   22.406489 H          1 MOL1         0.1052
       4    H3      21.123556   20.428280   22.396061 H          1 MOL1         0.1052
       5    C2      21.205412   18.346046   23.107374 C.3        1 MOL1        -0.1209
       6    H4      20.262617   18.394208   23.667356 H          1 MOL1         0.1041
       7    H5      21.887455   17.743650   23.723628 H          1 MOL1         0.1041
       8    C3      20.987687   17.620900   21.756741 C.3        1 MOL1        -0.1274
       9    H6      21.962346   17.488019   21.268861 H          1 MOL1         0.1041
      10    H7      20.605549   16.609013   21.945056 H          1 MOL1         0.1041
      11    C4      20.045120   18.340127   20.763285 C.3        1 MOL1         0.0313
      12    H8      20.074126   17.790958   19.818700 H          1 MOL1         0.1015
      13    H9      20.397924   19.354930   20.565120 H          1 MOL1         0.1015
      14    N1      18.582720   18.409950   21.177353 N.4        1 MOL1        -0.4809
      15    H10     18.316841   17.562448   21.700513 H          1 MOL1         0.3726
      16    H11     17.990020   18.394259   20.332806 H          1 MOL1         0.3726
      17    C5      18.281769   19.673698   21.975861 C.3        1 MOL1        -0.0677
      18    H12     18.534070   20.547527   21.371413 H          1 MOL1         0.1026
      19    H13     17.218233   19.694356   22.223633 H          1 MOL1         0.1026
      20    H14     18.870601   19.679169   22.893612 H          1 MOL1         0.1026
@<TRIPOS>BOND
    1     1     2    1
    2     1     3    1
    3     1     4    1
    4     1     5    1
    5     5     6    1
    6     5     7    1
    7     5     8    1
    8     8     9    1
    9     8    10    1
   10     8    11    1
   11    11    12    1
   12    11    13    1
   13    11    14    1
   14    14    15    1
   15    14    16    1
   16    14    17    1
   17    17    18    1
   18    17    19    1
   19    17    20    1
@<TRIPOS>SUBSTRUCTURE
       1 MOL1            1 RESIDUE      1      MOL     
@<SCITEGIC>MOL_PROPERTY
VConf Rank
SciTegic.value.IntegerValue
608

@<SCITEGIC>MOL_PROPERTY
Conf_Id
SciTegic.value.IntegerValue
54

@<SCITEGIC>MOL_PROPERTY
Delta U+W
SciTegic.value.DoubleValue
1.880

@<SCITEGIC>MOL_PROPERTY
U+W
SciTegic.value.DoubleValue
17.218

@<SCITEGIC>MOL_PROPERTY
Grad RMS
SciTegic.value.DoubleValue
0.000000

@<SCITEGIC>MOL_PROPERTY
U
SciTegic.value.DoubleValue
72.122

@<SCITEGIC>MOL_PROPERTY
W
SciTegic.value.DoubleValue
-54.903

@<SCITEGIC>MOL_PROPERTY
W(PB)
SciTegic.value.DoubleValue
-56.724

@<SCITEGIC>MOL_PROPERTY
W(SA)
SciTegic.value.DoubleValue
1.821

@<SCITEGIC>MOL_PROPERTY
Valence
SciTegic.value.DoubleValue
3.197

@<SCITEGIC>MOL_PROPERTY
Coulomb
SciTegic.value.DoubleValue
69.115

@<SCITEGIC>MOL_PROPERTY
VdW
SciTegic.value.DoubleValue
-0.190

@<SCITEGIC>MOL_PROPERTY
VdW6
SciTegic.value.DoubleValue
-5.585

@<SCITEGIC>MOL_PROPERTY
VdW12
SciTegic.value.DoubleValue
5.395

@<SCITEGIC>MOL_PROPERTY
Bond
SciTegic.value.DoubleValue
0.177

@<SCITEGIC>MOL_PROPERTY
Angle
SciTegic.value.DoubleValue
1.207

@<SCITEGIC>MOL_PROPERTY
Pdih
SciTegic.value.DoubleValue
1.813

@<SCITEGIC>MOL_PROPERTY
Idih
SciTegic.value.DoubleValue
0.000

@<SCITEGIC>MOL_PROPERTY
Tether
SciTegic.value.DoubleValue
0.000

@<TRIPOS>MOLECULE
guest-s9_confgen4.mol2 : confsearch ligand conformer 609
          20          19           1
SMALL
USER_CHARGES
 
@<TRIPOS>ATOM
       1    C1      19.386922   21.373055   23.837675 C.3        1 MOL1        -0.2224
       2    H1      18.295424   21.255843   23.845977 H          1 MOL1         0.1052
       3    H2      19.692709   21.742588   24.825078 H          1 MOL1         0.1052
       4    H3      19.642172   22.142258   23.097168 H          1 MOL1         0.1052
       5    C2      20.087640   20.035564   23.514649 C.3        1 MOL1        -0.1209
       6    H4      19.841126   19.297403   24.290987 H          1 MOL1         0.1041
       7    H5      21.177261   20.176863   23.547979 H          1 MOL1         0.1041
       8    C3      19.675621   19.491030   22.129194 C.3        1 MOL1        -0.1274
       9    H6      18.587412   19.346846   22.097906 H          1 MOL1         0.1041
      10    H7      19.925258   20.227595   21.353875 H          1 MOL1         0.1041
      11    C4      20.378537   18.157451   21.814461 C.3        1 MOL1         0.0313
      12    H8      20.119794   17.417372   22.575922 H          1 MOL1         0.1015
      13    H9      21.461895   18.300986   21.829345 H          1 MOL1         0.1015
      14    N1      20.003809   17.583858   20.461954 N.4        1 MOL1        -0.4809
      15    H10     20.226366   18.258819   19.714255 H          1 MOL1         0.3726
      16    H11     18.983778   17.440662   20.405513 H          1 MOL1         0.3726
      17    C5      20.740431   16.270939   20.232156 C.3        1 MOL1        -0.0677
      18    H12     20.463612   15.561173   21.014723 H          1 MOL1         0.1026
      19    H13     20.461529   15.869238   19.255499 H          1 MOL1         0.1026
      20    H14     21.817019   16.452307   20.261706 H          1 MOL1         0.1026
@<TRIPOS>BOND
    1     1     2    1
    2     1     3    1
    3     1     4    1
    4     1     5    1
    5     5     6    1
    6     5     7    1
    7     5     8    1
    8     8     9    1
    9     8    10    1
   10     8    11    1
   11    11    12    1
   12    11    13    1
   13    11    14    1
   14    14    15    1
   15    14    16    1
   16    14    17    1
   17    17    18    1
   18    17    19    1
   19    17    20    1
@<TRIPOS>SUBSTRUCTURE
       1 MOL1            1 RESIDUE      1      MOL     
@<SCITEGIC>MOL_PROPERTY
VConf Rank
SciTegic.value.IntegerValue
609

@<SCITEGIC>MOL_PROPERTY
Conf_Id
SciTegic.value.IntegerValue
67

@<SCITEGIC>MOL_PROPERTY
Delta U+W
SciTegic.value.DoubleValue
0.000

@<SCITEGIC>MOL_PROPERTY
U+W
SciTegic.value.DoubleValue
15.338

@<SCITEGIC>MOL_PROPERTY
Grad RMS
SciTegic.value.DoubleValue
0.000000

@<SCITEGIC>MOL_PROPERTY
U
SciTegic.value.DoubleValue
69.277

@<SCITEGIC>MOL_PROPERTY
W
SciTegic.value.DoubleValue
-53.939

@<SCITEGIC>MOL_PROPERTY
W(PB)
SciTegic.value.DoubleValue
-55.889

@<SCITEGIC>MOL_PROPERTY
W(SA)
SciTegic.value.DoubleValue
1.950

@<SCITEGIC>MOL_PROPERTY
Valence
SciTegic.value.DoubleValue
0.846

@<SCITEGIC>MOL_PROPERTY
Coulomb
SciTegic.value.DoubleValue
68.557

@<SCITEGIC>MOL_PROPERTY
VdW
SciTegic.value.DoubleValue
-0.127

@<SCITEGIC>MOL_PROPERTY
VdW6
SciTegic.value.DoubleValue
-3.008

@<SCITEGIC>MOL_PROPERTY
VdW12
SciTegic.value.DoubleValue
2.882

@<SCITEGIC>MOL_PROPERTY
Bond
SciTegic.value.DoubleValue
0.088

@<SCITEGIC>MOL_PROPERTY
Angle
SciTegic.value.DoubleValue
0.332

@<SCITEGIC>MOL_PROPERTY
Pdih
SciTegic.value.DoubleValue
0.426

@<SCITEGIC>MOL_PROPERTY
Idih
SciTegic.value.DoubleValue
0.000

@<SCITEGIC>MOL_PROPERTY
Tether
SciTegic.value.DoubleValue
0.000

@<TRIPOS>MOLECULE
guest-s9_confgen4.mol2 : confsearch ligand conformer 610
          20          19           1
SMALL
USER_CHARGES
 
@<TRIPOS>ATOM
       1    C1      17.675630   19.473489   23.687333 C.3        1 MOL1        -0.2224
       2    H1      17.121843   19.799340   22.797215 H          1 MOL1         0.1052
       3    H2      16.961829   18.995908   24.371017 H          1 MOL1         0.1052
       4    H3      18.074201   20.365893   24.187257 H          1 MOL1         0.1052
       5    C2      18.808555   18.494433   23.310234 C.3        1 MOL1        -0.1209
       6    H4      18.376198   17.597856   22.843819 H          1 MOL1         0.1041
       7    H5      19.320674   18.159568   24.223420 H          1 MOL1         0.1041
       8    C3      19.829556   19.140274   22.347874 C.3        1 MOL1        -0.1274
       9    H6      19.313856   19.473026   21.437883 H          1 MOL1         0.1041
      10    H7      20.264188   20.033279   22.816127 H          1 MOL1         0.1041
      11    C4      20.957866   18.155231   21.978308 C.3        1 MOL1         0.0313
      12    H8      20.538238   17.284826   21.467730 H          1 MOL1         0.1015
      13    H9      21.440614   17.808711   22.895672 H          1 MOL1         0.1015
      14    N1      22.043671   18.740809   21.090112 N.4        1 MOL1        -0.4809
      15    H10     22.832501   18.078194   21.027065 H          1 MOL1         0.3726
      16    H11     22.443561   19.586373   21.524722 H          1 MOL1         0.3726
      17    C5      21.512895   19.047358   19.693753 C.3        1 MOL1        -0.0677
      18    H12     20.723687   19.798570   19.762443 H          1 MOL1         0.1026
      19    H13     22.329195   19.429476   19.076816 H          1 MOL1         0.1026
      20    H14     21.115178   18.131535   19.251263 H          1 MOL1         0.1026
@<TRIPOS>BOND
    1     1     2    1
    2     1     3    1
    3     1     4    1
    4     1     5    1
    5     5     6    1
    6     5     7    1
    7     5     8    1
    8     8     9    1
    9     8    10    1
   10     8    11    1
   11    11    12    1
   12    11    13    1
   13    11    14    1
   14    14    15    1
   15    14    16    1
   16    14    17    1
   17    17    18    1
   18    17    19    1
   19    17    20    1
@<TRIPOS>SUBSTRUCTURE
       1 MOL1            1 RESIDUE      1      MOL     
@<SCITEGIC>MOL_PROPERTY
VConf Rank
SciTegic.value.IntegerValue
610

@<SCITEGIC>MOL_PROPERTY
Conf_Id
SciTegic.value.IntegerValue
37

@<SCITEGIC>MOL_PROPERTY
Delta U+W
SciTegic.value.DoubleValue
-0.021

@<SCITEGIC>MOL_PROPERTY
U+W
SciTegic.value.DoubleValue
15.318

@<SCITEGIC>MOL_PROPERTY
Grad RMS
SciTegic.value.DoubleValue
0.000000

@<SCITEGIC>MOL_PROPERTY
U
SciTegic.value.DoubleValue
69.657

@<SCITEGIC>MOL_PROPERTY
W
SciTegic.value.DoubleValue
-54.340

@<SCITEGIC>MOL_PROPERTY
W(PB)
SciTegic.value.DoubleValue
-56.238

@<SCITEGIC>MOL_PROPERTY
W(SA)
SciTegic.value.DoubleValue
1.899

@<SCITEGIC>MOL_PROPERTY
Valence
SciTegic.value.DoubleValue
1.137

@<SCITEGIC>MOL_PROPERTY
Coulomb
SciTegic.value.DoubleValue
68.383

@<SCITEGIC>MOL_PROPERTY
VdW
SciTegic.value.DoubleValue
0.138

@<SCITEGIC>MOL_PROPERTY
VdW6
SciTegic.value.DoubleValue
-3.703

@<SCITEGIC>MOL_PROPERTY
VdW12
SciTegic.value.DoubleValue
3.841

@<SCITEGIC>MOL_PROPERTY
Bond
SciTegic.value.DoubleValue
0.125

@<SCITEGIC>MOL_PROPERTY
Angle
SciTegic.value.DoubleValue
0.468

@<SCITEGIC>MOL_PROPERTY
Pdih
SciTegic.value.DoubleValue
0.543

@<SCITEGIC>MOL_PROPERTY
Idih
SciTegic.value.DoubleValue
0.000

@<SCITEGIC>MOL_PROPERTY
Tether
SciTegic.value.DoubleValue
0.000

@<TRIPOS>MOLECULE
guest-s9_confgen4.mol2 : confsearch ligand conformer 611
          20          19           1
SMALL
USER_CHARGES
 
@<TRIPOS>ATOM
       1    C1      20.493089   21.582654   21.006183 C.3        1 MOL1        -0.2224
       2    H1      20.079854   22.352851   20.342065 H          1 MOL1         0.1052
       3    H2      20.433784   21.959492   22.035573 H          1 MOL1         0.1052
       4    H3      21.552760   21.452040   20.750830 H          1 MOL1         0.1052
       5    C2      19.716582   20.256760   20.853507 C.3        1 MOL1        -0.1209
       6    H4      19.764800   19.923889   19.806998 H          1 MOL1         0.1041
       7    H5      18.654935   20.426915   21.082154 H          1 MOL1         0.1041
       8    C3      20.277044   19.152968   21.777201 C.3        1 MOL1        -0.1274
       9    H6      21.336349   18.980527   21.545339 H          1 MOL1         0.1041
      10    H7      20.226928   19.489683   22.820688 H          1 MOL1         0.1041
      11    C4      19.496053   17.832300   21.616398 C.3        1 MOL1         0.0313
      12    H8      19.528248   17.526795   20.567442 H          1 MOL1         0.1015
      13    H9      18.449489   17.984035   21.892192 H          1 MOL1         0.1015
      14    N1      20.034430   16.674132   22.440750 N.4        1 MOL1        -0.4809
      15    H10     21.032550   16.520043   22.231495 H          1 MOL1         0.3726
      16    H11     19.566637   15.799859   22.154217 H          1 MOL1         0.3726
      17    C5      19.822486   16.909173   23.932511 C.3        1 MOL1        -0.0677
      18    H12     18.756855   17.048638   24.126638 H          1 MOL1         0.1026
      19    H13     20.186714   16.041230   24.486573 H          1 MOL1         0.1026
      20    H14     20.374806   17.798682   24.241710 H          1 MOL1         0.1026
@<TRIPOS>BOND
    1     1     2    1
    2     1     3    1
    3     1     4    1
    4     1     5    1
    5     5     6    1
    6     5     7    1
    7     5     8    1
    8     8     9    1
    9     8    10    1
   10     8    11    1
   11    11    12    1
   12    11    13    1
   13    11    14    1
   14    14    15    1
   15    14    16    1
   16    14    17    1
   17    17    18    1
   18    17    19    1
   19    17    20    1
@<TRIPOS>SUBSTRUCTURE
       1 MOL1            1 RESIDUE      1      MOL     
@<SCITEGIC>MOL_PROPERTY
VConf Rank
SciTegic.value.IntegerValue
611

@<SCITEGIC>MOL_PROPERTY
Conf_Id
SciTegic.value.IntegerValue
2

@<SCITEGIC>MOL_PROPERTY
Delta U+W
SciTegic.value.DoubleValue
0.069

@<SCITEGIC>MOL_PROPERTY
U+W
SciTegic.value.DoubleValue
15.407

@<SCITEGIC>MOL_PROPERTY
Grad RMS
SciTegic.value.DoubleValue
0.000000

@<SCITEGIC>MOL_PROPERTY
U
SciTegic.value.DoubleValue
69.657

@<SCITEGIC>MOL_PROPERTY
W
SciTegic.value.DoubleValue
-54.250

@<SCITEGIC>MOL_PROPERTY
W(PB)
SciTegic.value.DoubleValue
-56.176

@<SCITEGIC>MOL_PROPERTY
W(SA)
SciTegic.value.DoubleValue
1.926

@<SCITEGIC>MOL_PROPERTY
Valence
SciTegic.value.DoubleValue
1.137

@<SCITEGIC>MOL_PROPERTY
Coulomb
SciTegic.value.DoubleValue
68.383

@<SCITEGIC>MOL_PROPERTY
VdW
SciTegic.value.DoubleValue
0.138

@<SCITEGIC>MOL_PROPERTY
VdW6
SciTegic.value.DoubleValue
-3.703

@<SCITEGIC>MOL_PROPERTY
VdW12
SciTegic.value.DoubleValue
3.841

@<SCITEGIC>MOL_PROPERTY
Bond
SciTegic.value.DoubleValue
0.125

@<SCITEGIC>MOL_PROPERTY
Angle
SciTegic.value.DoubleValue
0.468

@<SCITEGIC>MOL_PROPERTY
Pdih
SciTegic.value.DoubleValue
0.543

@<SCITEGIC>MOL_PROPERTY
Idih
SciTegic.value.DoubleValue
0.000

@<SCITEGIC>MOL_PROPERTY
Tether
SciTegic.value.DoubleValue
0.000

@<TRIPOS>MOLECULE
guest-s9_confgen4.mol2 : confsearch ligand conformer 612
          20          19           1
SMALL
USER_CHARGES
 
@<TRIPOS>ATOM
       1    C1      17.889560   20.291447   21.585345 C.3        1 MOL1        -0.2224
       2    H1      17.599789   19.241853   21.721170 H          1 MOL1         0.1052
       3    H2      17.893216   20.776459   22.570154 H          1 MOL1         0.1052
       4    H3      17.112075   20.773036   20.978239 H          1 MOL1         0.1052
       5    C2      19.268856   20.416373   20.898158 C.3        1 MOL1        -0.1209
       6    H4      19.475087   21.477336   20.698560 H          1 MOL1         0.1041
       7    H5      19.239737   19.918176   19.918792 H          1 MOL1         0.1041
       8    C3      20.422283   19.831346   21.746408 C.3        1 MOL1        -0.1274
       9    H6      21.374860   20.023322   21.234941 H          1 MOL1         0.1041
      10    H7      20.471811   20.354266   22.710756 H          1 MOL1         0.1041
      11    C4      20.273732   18.316186   21.986134 C.3        1 MOL1         0.0313
      12    H8      20.226879   17.795706   21.026301 H          1 MOL1         0.1015
      13    H9      19.346980   18.118417   22.529995 H          1 MOL1         0.1015
      14    N1      21.415326   17.718434   22.784837 N.4        1 MOL1        -0.4809
      15    H10     21.498161   18.191921   23.697547 H          1 MOL1         0.3726
      16    H11     22.313129   17.889084   22.306368 H          1 MOL1         0.3726
      17    C5      21.188586   16.224880   22.977126 C.3        1 MOL1        -0.0677
      18    H12     21.138491   15.739706   21.999937 H          1 MOL1         0.1026
      19    H13     22.017337   15.807445   23.553255 H          1 MOL1         0.1026
      20    H14     20.251084   16.069504   23.515408 H          1 MOL1         0.1026
@<TRIPOS>BOND
    1     1     2    1
    2     1     3    1
    3     1     4    1
    4     1     5    1
    5     5     6    1
    6     5     7    1
    7     5     8    1
    8     8     9    1
    9     8    10    1
   10     8    11    1
   11    11    12    1
   12    11    13    1
   13    11    14    1
   14    14    15    1
   15    14    16    1
   16    14    17    1
   17    17    18    1
   18    17    19    1
   19    17    20    1
@<TRIPOS>SUBSTRUCTURE
       1 MOL1            1 RESIDUE      1      MOL     
@<SCITEGIC>MOL_PROPERTY
VConf Rank
SciTegic.value.IntegerValue
612

@<SCITEGIC>MOL_PROPERTY
Conf_Id
SciTegic.value.IntegerValue
34

@<SCITEGIC>MOL_PROPERTY
Delta U+W
SciTegic.value.DoubleValue
0.276

@<SCITEGIC>MOL_PROPERTY
U+W
SciTegic.value.DoubleValue
15.615

@<SCITEGIC>MOL_PROPERTY
Grad RMS
SciTegic.value.DoubleValue
0.000000

@<SCITEGIC>MOL_PROPERTY
U
SciTegic.value.DoubleValue
69.798

@<SCITEGIC>MOL_PROPERTY
W
SciTegic.value.DoubleValue
-54.184

@<SCITEGIC>MOL_PROPERTY
W(PB)
SciTegic.value.DoubleValue
-56.116

@<SCITEGIC>MOL_PROPERTY
W(SA)
SciTegic.value.DoubleValue
1.933

@<SCITEGIC>MOL_PROPERTY
Valence
SciTegic.value.DoubleValue
1.134

@<SCITEGIC>MOL_PROPERTY
Coulomb
SciTegic.value.DoubleValue
68.735

@<SCITEGIC>MOL_PROPERTY
VdW
SciTegic.value.DoubleValue
-0.070

@<SCITEGIC>MOL_PROPERTY
VdW6
SciTegic.value.DoubleValue
-3.565

@<SCITEGIC>MOL_PROPERTY
VdW12
SciTegic.value.DoubleValue
3.494

@<SCITEGIC>MOL_PROPERTY
Bond
SciTegic.value.DoubleValue
0.108

@<SCITEGIC>MOL_PROPERTY
Angle
SciTegic.value.DoubleValue
0.456

@<SCITEGIC>MOL_PROPERTY
Pdih
SciTegic.value.DoubleValue
0.569

@<SCITEGIC>MOL_PROPERTY
Idih
SciTegic.value.DoubleValue
0.000

@<SCITEGIC>MOL_PROPERTY
Tether
SciTegic.value.DoubleValue
0.000

@<TRIPOS>MOLECULE
guest-s9_confgen4.mol2 : confsearch ligand conformer 613
          20          19           1
SMALL
USER_CHARGES
 
@<TRIPOS>ATOM
       1    C1      18.324054   21.290194   21.693658 C.3        1 MOL1        -0.2224
       2    H1      17.747984   21.445335   22.615203 H          1 MOL1         0.1052
       3    H2      18.693649   22.268509   21.360007 H          1 MOL1         0.1052
       4    H3      17.640616   20.908707   20.923878 H          1 MOL1         0.1052
       5    C2      19.497565   20.314572   21.928304 C.3        1 MOL1        -0.1209
       6    H4      20.179069   20.738671   22.679314 H          1 MOL1         0.1041
       7    H5      20.073059   20.215591   20.997979 H          1 MOL1         0.1041
       8    C3      19.002601   18.926608   22.399210 C.3        1 MOL1        -0.1274
       9    H6      18.396955   19.046470   23.307345 H          1 MOL1         0.1041
      10    H7      18.343169   18.484320   21.640667 H          1 MOL1         0.1041
      11    C4      20.157518   17.953175   22.709264 C.3        1 MOL1         0.0313
      12    H8      19.748486   17.026704   23.120316 H          1 MOL1         0.1015
      13    H9      20.818902   18.394766   23.458934 H          1 MOL1         0.1015
      14    N1      20.998006   17.585235   21.500923 N.4        1 MOL1        -0.4809
      15    H10     21.406719   18.433074   21.080712 H          1 MOL1         0.3726
      16    H11     20.402748   17.173554   20.765918 H          1 MOL1         0.3726
      17    C5      22.094840   16.610586   21.908171 C.3        1 MOL1        -0.0677
      18    H12     22.731288   17.079388   22.661795 H          1 MOL1         0.1026
      19    H13     21.639012   15.707370   22.319519 H          1 MOL1         0.1026
      20    H14     22.691608   16.354466   21.029956 H          1 MOL1         0.1026
@<TRIPOS>BOND
    1     1     2    1
    2     1     3    1
    3     1     4    1
    4     1     5    1
    5     5     6    1
    6     5     7    1
    7     5     8    1
    8     8     9    1
    9     8    10    1
   10     8    11    1
   11    11    12    1
   12    11    13    1
   13    11    14    1
   14    14    15    1
   15    14    16    1
   16    14    17    1
   17    17    18    1
   18    17    19    1
   19    17    20    1
@<TRIPOS>SUBSTRUCTURE
       1 MOL1            1 RESIDUE      1      MOL     
@<SCITEGIC>MOL_PROPERTY
VConf Rank
SciTegic.value.IntegerValue
613

@<SCITEGIC>MOL_PROPERTY
Conf_Id
SciTegic.value.IntegerValue
50

@<SCITEGIC>MOL_PROPERTY
Delta U+W
SciTegic.value.DoubleValue
0.319

@<SCITEGIC>MOL_PROPERTY
U+W
SciTegic.value.DoubleValue
15.657

@<SCITEGIC>MOL_PROPERTY
Grad RMS
SciTegic.value.DoubleValue
0.000000

@<SCITEGIC>MOL_PROPERTY
U
SciTegic.value.DoubleValue
69.962

@<SCITEGIC>MOL_PROPERTY
W
SciTegic.value.DoubleValue
-54.305

@<SCITEGIC>MOL_PROPERTY
W(PB)
SciTegic.value.DoubleValue
-56.223

@<SCITEGIC>MOL_PROPERTY
W(SA)
SciTegic.value.DoubleValue
1.918

@<SCITEGIC>MOL_PROPERTY
Valence
SciTegic.value.DoubleValue
0.982

@<SCITEGIC>MOL_PROPERTY
Coulomb
SciTegic.value.DoubleValue
69.058

@<SCITEGIC>MOL_PROPERTY
VdW
SciTegic.value.DoubleValue
-0.078

@<SCITEGIC>MOL_PROPERTY
VdW6
SciTegic.value.DoubleValue
-3.548

@<SCITEGIC>MOL_PROPERTY
VdW12
SciTegic.value.DoubleValue
3.471

@<SCITEGIC>MOL_PROPERTY
Bond
SciTegic.value.DoubleValue
0.105

@<SCITEGIC>MOL_PROPERTY
Angle
SciTegic.value.DoubleValue
0.408

@<SCITEGIC>MOL_PROPERTY
Pdih
SciTegic.value.DoubleValue
0.469

@<SCITEGIC>MOL_PROPERTY
Idih
SciTegic.value.DoubleValue
0.000

@<SCITEGIC>MOL_PROPERTY
Tether
SciTegic.value.DoubleValue
0.000

@<TRIPOS>MOLECULE
guest-s9_confgen4.mol2 : confsearch ligand conformer 614
          20          19           1
SMALL
USER_CHARGES
 
@<TRIPOS>ATOM
       1    C1      19.625423   20.803750   19.735735 C.3        1 MOL1        -0.2224
       2    H1      19.202073   20.548054   18.755724 H          1 MOL1         0.1052
       3    H2      19.079631   21.675195   20.120267 H          1 MOL1         0.1052
       4    H3      20.672470   21.096514   19.583541 H          1 MOL1         0.1052
       5    C2      19.517946   19.607168   20.705613 C.3        1 MOL1        -0.1209
       6    H4      20.040197   18.744578   20.270081 H          1 MOL1         0.1041
       7    H5      18.462667   19.318440   20.812128 H          1 MOL1         0.1041
       8    C3      20.108934   19.942047   22.095497 C.3        1 MOL1        -0.1274
       9    H6      21.171024   20.204241   22.000229 H          1 MOL1         0.1041
      10    H7      19.603781   20.829120   22.500225 H          1 MOL1         0.1041
      11    C4      19.951249   18.788422   23.106352 C.3        1 MOL1         0.0313
      12    H8      18.895374   18.521393   23.197222 H          1 MOL1         0.1015
      13    H9      20.304442   19.116836   24.087178 H          1 MOL1         0.1015
      14    N1      20.722157   17.534278   22.739320 N.4        1 MOL1        -0.4809
      15    H10     21.725125   17.751404   22.634624 H          1 MOL1         0.3726
      16    H11     20.418400   17.187325   21.817469 H          1 MOL1         0.3726
      17    C5      20.515201   16.466522   23.805109 C.3        1 MOL1        -0.0677
      18    H12     21.074816   15.570213   23.528610 H          1 MOL1         0.1026
      19    H13     20.873953   16.842641   24.765638 H          1 MOL1         0.1026
      20    H14     19.451420   16.229348   23.875175 H          1 MOL1         0.1026
@<TRIPOS>BOND
    1     1     2    1
    2     1     3    1
    3     1     4    1
    4     1     5    1
    5     5     6    1
    6     5     7    1
    7     5     8    1
    8     8     9    1
    9     8    10    1
   10     8    11    1
   11    11    12    1
   12    11    13    1
   13    11    14    1
   14    14    15    1
   15    14    16    1
   16    14    17    1
   17    17    18    1
   18    17    19    1
   19    17    20    1
@<TRIPOS>SUBSTRUCTURE
       1 MOL1            1 RESIDUE      1      MOL     
@<SCITEGIC>MOL_PROPERTY
VConf Rank
SciTegic.value.IntegerValue
614

@<SCITEGIC>MOL_PROPERTY
Conf_Id
SciTegic.value.IntegerValue
35

@<SCITEGIC>MOL_PROPERTY
Delta U+W
SciTegic.value.DoubleValue
0.360

@<SCITEGIC>MOL_PROPERTY
U+W
SciTegic.value.DoubleValue
15.698

@<SCITEGIC>MOL_PROPERTY
Grad RMS
SciTegic.value.DoubleValue
0.000000

@<SCITEGIC>MOL_PROPERTY
U
SciTegic.value.DoubleValue
69.962

@<SCITEGIC>MOL_PROPERTY
W
SciTegic.value.DoubleValue
-54.264

@<SCITEGIC>MOL_PROPERTY
W(PB)
SciTegic.value.DoubleValue
-56.166

@<SCITEGIC>MOL_PROPERTY
W(SA)
SciTegic.value.DoubleValue
1.902

@<SCITEGIC>MOL_PROPERTY
Valence
SciTegic.value.DoubleValue
0.982

@<SCITEGIC>MOL_PROPERTY
Coulomb
SciTegic.value.DoubleValue
69.058

@<SCITEGIC>MOL_PROPERTY
VdW
SciTegic.value.DoubleValue
-0.078

@<SCITEGIC>MOL_PROPERTY
VdW6
SciTegic.value.DoubleValue
-3.548

@<SCITEGIC>MOL_PROPERTY
VdW12
SciTegic.value.DoubleValue
3.471

@<SCITEGIC>MOL_PROPERTY
Bond
SciTegic.value.DoubleValue
0.105

@<SCITEGIC>MOL_PROPERTY
Angle
SciTegic.value.DoubleValue
0.408

@<SCITEGIC>MOL_PROPERTY
Pdih
SciTegic.value.DoubleValue
0.469

@<SCITEGIC>MOL_PROPERTY
Idih
SciTegic.value.DoubleValue
0.000

@<SCITEGIC>MOL_PROPERTY
Tether
SciTegic.value.DoubleValue
0.000

@<TRIPOS>MOLECULE
guest-s9_confgen4.mol2 : confsearch ligand conformer 615
          20          19           1
SMALL
USER_CHARGES
 
@<TRIPOS>ATOM
       1    C1      18.036510   17.520144   20.966907 C.3        1 MOL1        -0.2224
       2    H1      18.359935   16.859345   21.781038 H          1 MOL1         0.1052
       3    H2      17.003154   17.250638   20.712906 H          1 MOL1         0.1052
       4    H3      18.661780   17.313322   20.088639 H          1 MOL1         0.1052
       5    C2      18.124115   19.008966   21.374269 C.3        1 MOL1        -0.1209
       6    H4      17.494357   19.187858   22.257201 H          1 MOL1         0.1041
       7    H5      17.706408   19.626855   20.566976 H          1 MOL1         0.1041
       8    C3      19.571273   19.471410   21.663673 C.3        1 MOL1        -0.1274
       9    H6      20.186366   19.325116   20.766472 H          1 MOL1         0.1041
      10    H7      19.567483   20.549784   21.870095 H          1 MOL1         0.1041
      11    C4      20.201804   18.729896   22.862028 C.3        1 MOL1         0.0313
      12    H8      20.273577   17.661954   22.642702 H          1 MOL1         0.1015
      13    H9      19.555930   18.853617   23.735017 H          1 MOL1         0.1015
      14    N1      21.587218   19.219687   23.250779 N.4        1 MOL1        -0.4809
      15    H10     21.864895   18.793383   24.148759 H          1 MOL1         0.3726
      16    H11     21.569088   20.234353   23.434744 H          1 MOL1         0.3726
      17    C5      22.615764   18.880869   22.177159 C.3        1 MOL1        -0.0677
      18    H12     22.350711   19.388762   21.247815 H          1 MOL1         0.1026
      19    H13     23.601634   19.214519   22.508369 H          1 MOL1         0.1026
      20    H14     22.627258   17.800401   22.018561 H          1 MOL1         0.1026
@<TRIPOS>BOND
    1     1     2    1
    2     1     3    1
    3     1     4    1
    4     1     5    1
    5     5     6    1
    6     5     7    1
    7     5     8    1
    8     8     9    1
    9     8    10    1
   10     8    11    1
   11    11    12    1
   12    11    13    1
   13    11    14    1
   14    14    15    1
   15    14    16    1
   16    14    17    1
   17    17    18    1
   18    17    19    1
   19    17    20    1
@<TRIPOS>SUBSTRUCTURE
       1 MOL1            1 RESIDUE      1      MOL     
@<SCITEGIC>MOL_PROPERTY
VConf Rank
SciTegic.value.IntegerValue
615

@<SCITEGIC>MOL_PROPERTY
Conf_Id
SciTegic.value.IntegerValue
33

@<SCITEGIC>MOL_PROPERTY
Delta U+W
SciTegic.value.DoubleValue
0.372

@<SCITEGIC>MOL_PROPERTY
U+W
SciTegic.value.DoubleValue
15.711

@<SCITEGIC>MOL_PROPERTY
Grad RMS
SciTegic.value.DoubleValue
0.000000

@<SCITEGIC>MOL_PROPERTY
U
SciTegic.value.DoubleValue
70.163

@<SCITEGIC>MOL_PROPERTY
W
SciTegic.value.DoubleValue
-54.452

@<SCITEGIC>MOL_PROPERTY
W(PB)
SciTegic.value.DoubleValue
-56.363

@<SCITEGIC>MOL_PROPERTY
W(SA)
SciTegic.value.DoubleValue
1.911

@<SCITEGIC>MOL_PROPERTY
Valence
SciTegic.value.DoubleValue
1.420

@<SCITEGIC>MOL_PROPERTY
Coulomb
SciTegic.value.DoubleValue
68.566

@<SCITEGIC>MOL_PROPERTY
VdW
SciTegic.value.DoubleValue
0.177

@<SCITEGIC>MOL_PROPERTY
VdW6
SciTegic.value.DoubleValue
-4.267

@<SCITEGIC>MOL_PROPERTY
VdW12
SciTegic.value.DoubleValue
4.445

@<SCITEGIC>MOL_PROPERTY
Bond
SciTegic.value.DoubleValue
0.146

@<SCITEGIC>MOL_PROPERTY
Angle
SciTegic.value.DoubleValue
0.581

@<SCITEGIC>MOL_PROPERTY
Pdih
SciTegic.value.DoubleValue
0.693

@<SCITEGIC>MOL_PROPERTY
Idih
SciTegic.value.DoubleValue
0.000

@<SCITEGIC>MOL_PROPERTY
Tether
SciTegic.value.DoubleValue
0.000

@<TRIPOS>MOLECULE
guest-s9_confgen4.mol2 : confsearch ligand conformer 616
          20          19           1
SMALL
USER_CHARGES
 
@<TRIPOS>ATOM
       1    C1      19.051596   16.611354   22.776904 C.3        1 MOL1        -0.2224
       2    H1      18.295590   15.855642   23.026561 H          1 MOL1         0.1052
       3    H2      19.417319   16.391726   21.765924 H          1 MOL1         0.1052
       4    H3      19.888214   16.491914   23.477546 H          1 MOL1         0.1052
       5    C2      18.448591   18.032074   22.867192 C.3        1 MOL1        -0.1209
       6    H4      18.014388   18.174533   23.866771 H          1 MOL1         0.1041
       7    H5      17.617961   18.126671   22.153559 H          1 MOL1         0.1041
       8    C3      19.488651   19.146842   22.607485 C.3        1 MOL1        -0.1274
       9    H6      19.012043   20.123702   22.762740 H          1 MOL1         0.1041
      10    H7      20.296571   19.070107   23.346462 H          1 MOL1         0.1041
      11    C4      20.072937   19.091074   21.179563 C.3        1 MOL1         0.0313
      12    H8      19.252011   19.128870   20.458993 H          1 MOL1         0.1015
      13    H9      20.608638   18.150123   21.033309 H          1 MOL1         0.1015
      14    N1      21.025056   20.226562   20.841125 N.4        1 MOL1        -0.4809
      15    H10     20.566207   21.136745   20.998419 H          1 MOL1         0.3726
      16    H11     21.238205   20.209234   19.831435 H          1 MOL1         0.3726
      17    C5      22.317084   20.123857   21.644545 C.3        1 MOL1        -0.0677
      18    H12     22.988196   20.932767   21.347499 H          1 MOL1         0.1026
      19    H13     22.090012   20.209068   22.709000 H          1 MOL1         0.1026
      20    H14     22.790312   19.160527   21.442681 H          1 MOL1         0.1026
@<TRIPOS>BOND
    1     1     2    1
    2     1     3    1
    3     1     4    1
    4     1     5    1
    5     5     6    1
    6     5     7    1
    7     5     8    1
    8     8     9    1
    9     8    10    1
   10     8    11    1
   11    11    12    1
   12    11    13    1
   13    11    14    1
   14    14    15    1
   15    14    16    1
   16    14    17    1
   17    17    18    1
   18    17    19    1
   19    17    20    1
@<TRIPOS>SUBSTRUCTURE
       1 MOL1            1 RESIDUE      1      MOL     
@<SCITEGIC>MOL_PROPERTY
VConf Rank
SciTegic.value.IntegerValue
616

@<SCITEGIC>MOL_PROPERTY
Conf_Id
SciTegic.value.IntegerValue
53

@<SCITEGIC>MOL_PROPERTY
Delta U+W
SciTegic.value.DoubleValue
0.379

@<SCITEGIC>MOL_PROPERTY
U+W
SciTegic.value.DoubleValue
15.717

@<SCITEGIC>MOL_PROPERTY
Grad RMS
SciTegic.value.DoubleValue
0.000000

@<SCITEGIC>MOL_PROPERTY
U
SciTegic.value.DoubleValue
70.163

@<SCITEGIC>MOL_PROPERTY
W
SciTegic.value.DoubleValue
-54.446

@<SCITEGIC>MOL_PROPERTY
W(PB)
SciTegic.value.DoubleValue
-56.322

@<SCITEGIC>MOL_PROPERTY
W(SA)
SciTegic.value.DoubleValue
1.876

@<SCITEGIC>MOL_PROPERTY
Valence
SciTegic.value.DoubleValue
1.420

@<SCITEGIC>MOL_PROPERTY
Coulomb
SciTegic.value.DoubleValue
68.566

@<SCITEGIC>MOL_PROPERTY
VdW
SciTegic.value.DoubleValue
0.177

@<SCITEGIC>MOL_PROPERTY
VdW6
SciTegic.value.DoubleValue
-4.267

@<SCITEGIC>MOL_PROPERTY
VdW12
SciTegic.value.DoubleValue
4.445

@<SCITEGIC>MOL_PROPERTY
Bond
SciTegic.value.DoubleValue
0.146

@<SCITEGIC>MOL_PROPERTY
Angle
SciTegic.value.DoubleValue
0.581

@<SCITEGIC>MOL_PROPERTY
Pdih
SciTegic.value.DoubleValue
0.693

@<SCITEGIC>MOL_PROPERTY
Idih
SciTegic.value.DoubleValue
0.000

@<SCITEGIC>MOL_PROPERTY
Tether
SciTegic.value.DoubleValue
0.000

@<TRIPOS>MOLECULE
guest-s9_confgen4.mol2 : confsearch ligand conformer 617
          20          19           1
SMALL
USER_CHARGES
 
@<TRIPOS>ATOM
       1    C1      18.073490   16.946712   22.185317 C.3        1 MOL1        -0.2224
       2    H1      17.779132   16.191475   21.445066 H          1 MOL1         0.1052
       3    H2      18.054352   16.472225   23.175086 H          1 MOL1         0.1052
       4    H3      17.316935   17.742098   22.173161 H          1 MOL1         0.1052
       5    C2      19.475487   17.508161   21.864158 C.3        1 MOL1        -0.1209
       6    H4      19.466203   17.939185   20.853817 H          1 MOL1         0.1041
       7    H5      20.203886   16.685072   21.852353 H          1 MOL1         0.1041
       8    C3      19.913521   18.577294   22.892654 C.3        1 MOL1        -0.1274
       9    H6      19.204012   19.414746   22.889219 H          1 MOL1         0.1041
      10    H7      19.876076   18.146532   23.901956 H          1 MOL1         0.1041
      11    C4      21.345028   19.101211   22.641741 C.3        1 MOL1         0.0313
      12    H8      22.045224   18.264385   22.705582 H          1 MOL1         0.1015
      13    H9      21.611438   19.820407   23.420378 H          1 MOL1         0.1015
      14    N1      21.565702   19.776980   21.296650 N.4        1 MOL1        -0.4809
      15    H10     21.322507   19.132209   20.530387 H          1 MOL1         0.3726
      16    H11     22.571112   19.972662   21.169827 H          1 MOL1         0.3726
      17    C5      20.768010   21.071989   21.189081 C.3        1 MOL1        -0.0677
      18    H12     21.059820   21.742290   22.000377 H          1 MOL1         0.1026
      19    H13     20.980202   21.544180   20.227342 H          1 MOL1         0.1026
      20    H14     19.701911   20.847287   21.259479 H          1 MOL1         0.1026
@<TRIPOS>BOND
    1     1     2    1
    2     1     3    1
    3     1     4    1
    4     1     5    1
    5     5     6    1
    6     5     7    1
    7     5     8    1
    8     8     9    1
    9     8    10    1
   10     8    11    1
   11    11    12    1
   12    11    13    1
   13    11    14    1
   14    14    15    1
   15    14    16    1
   16    14    17    1
   17    17    18    1
   18    17    19    1
   19    17    20    1
@<TRIPOS>SUBSTRUCTURE
       1 MOL1            1 RESIDUE      1      MOL     
@<SCITEGIC>MOL_PROPERTY
VConf Rank
SciTegic.value.IntegerValue
617

@<SCITEGIC>MOL_PROPERTY
Conf_Id
SciTegic.value.IntegerValue
49

@<SCITEGIC>MOL_PROPERTY
Delta U+W
SciTegic.value.DoubleValue
0.268

@<SCITEGIC>MOL_PROPERTY
U+W
SciTegic.value.DoubleValue
15.607

@<SCITEGIC>MOL_PROPERTY
Grad RMS
SciTegic.value.DoubleValue
0.000000

@<SCITEGIC>MOL_PROPERTY
U
SciTegic.value.DoubleValue
70.298

@<SCITEGIC>MOL_PROPERTY
W
SciTegic.value.DoubleValue
-54.692

@<SCITEGIC>MOL_PROPERTY
W(PB)
SciTegic.value.DoubleValue
-56.576

@<SCITEGIC>MOL_PROPERTY
W(SA)
SciTegic.value.DoubleValue
1.885

@<SCITEGIC>MOL_PROPERTY
Valence
SciTegic.value.DoubleValue
1.245

@<SCITEGIC>MOL_PROPERTY
Coulomb
SciTegic.value.DoubleValue
68.933

@<SCITEGIC>MOL_PROPERTY
VdW
SciTegic.value.DoubleValue
0.120

@<SCITEGIC>MOL_PROPERTY
VdW6
SciTegic.value.DoubleValue
-4.430

@<SCITEGIC>MOL_PROPERTY
VdW12
SciTegic.value.DoubleValue
4.550

@<SCITEGIC>MOL_PROPERTY
Bond
SciTegic.value.DoubleValue
0.148

@<SCITEGIC>MOL_PROPERTY
Angle
SciTegic.value.DoubleValue
0.587

@<SCITEGIC>MOL_PROPERTY
Pdih
SciTegic.value.DoubleValue
0.509

@<SCITEGIC>MOL_PROPERTY
Idih
SciTegic.value.DoubleValue
0.000

@<SCITEGIC>MOL_PROPERTY
Tether
SciTegic.value.DoubleValue
0.000

@<TRIPOS>MOLECULE
guest-s9_confgen4.mol2 : confsearch ligand conformer 618
          20          19           1
SMALL
USER_CHARGES
 
@<TRIPOS>ATOM
       1    C1      20.052812   15.977703   21.847284 C.3        1 MOL1        -0.2224
       2    H1      19.232794   15.725692   22.532289 H          1 MOL1         0.1052
       3    H2      19.774803   15.636603   20.841550 H          1 MOL1         0.1052
       4    H3      20.939020   15.410867   22.160863 H          1 MOL1         0.1052
       5    C2      20.342364   17.494378   21.860951 C.3        1 MOL1        -0.1209
       6    H4      21.184255   17.711617   21.188629 H          1 MOL1         0.1041
       7    H5      20.654132   17.786195   22.872480 H          1 MOL1         0.1041
       8    C3      19.105026   18.317525   21.433108 C.3        1 MOL1        -0.1274
       9    H6      18.735210   17.935359   20.472410 H          1 MOL1         0.1041
      10    H7      18.292309   18.169578   22.156405 H          1 MOL1         0.1041
      11    C4      19.377726   19.830063   21.269727 C.3        1 MOL1         0.0313
      12    H8      18.460659   20.300061   20.905262 H          1 MOL1         0.1015
      13    H9      20.155488   19.997294   20.520449 H          1 MOL1         0.1015
      14    N1      19.772366   20.568168   22.539657 N.4        1 MOL1        -0.4809
      15    H10     19.308343   20.148194   23.358891 H          1 MOL1         0.3726
      16    H11     19.410895   21.533894   22.498189 H          1 MOL1         0.3726
      17    C5      21.287183   20.606870   22.714236 C.3        1 MOL1        -0.0677
      18    H12     21.527641   21.163799   23.622513 H          1 MOL1         0.1026
      19    H13     21.676029   19.591169   22.794614 H          1 MOL1         0.1026
      20    H14     21.734182   21.104198   21.850786 H          1 MOL1         0.1026
@<TRIPOS>BOND
    1     1     2    1
    2     1     3    1
    3     1     4    1
    4     1     5    1
    5     5     6    1
    6     5     7    1
    7     5     8    1
    8     8     9    1
    9     8    10    1
   10     8    11    1
   11    11    12    1
   12    11    13    1
   13    11    14    1
   14    14    15    1
   15    14    16    1
   16    14    17    1
   17    17    18    1
   18    17    19    1
   19    17    20    1
@<TRIPOS>SUBSTRUCTURE
       1 MOL1            1 RESIDUE      1      MOL     
@<SCITEGIC>MOL_PROPERTY
VConf Rank
SciTegic.value.IntegerValue
618

@<SCITEGIC>MOL_PROPERTY
Conf_Id
SciTegic.value.IntegerValue
65

@<SCITEGIC>MOL_PROPERTY
Delta U+W
SciTegic.value.DoubleValue
1.775

@<SCITEGIC>MOL_PROPERTY
U+W
SciTegic.value.DoubleValue
17.114

@<SCITEGIC>MOL_PROPERTY
Grad RMS
SciTegic.value.DoubleValue
0.000000

@<SCITEGIC>MOL_PROPERTY
U
SciTegic.value.DoubleValue
71.726

@<SCITEGIC>MOL_PROPERTY
W
SciTegic.value.DoubleValue
-54.613

@<SCITEGIC>MOL_PROPERTY
W(PB)
SciTegic.value.DoubleValue
-56.495

@<SCITEGIC>MOL_PROPERTY
W(SA)
SciTegic.value.DoubleValue
1.883

@<SCITEGIC>MOL_PROPERTY
Valence
SciTegic.value.DoubleValue
2.885

@<SCITEGIC>MOL_PROPERTY
Coulomb
SciTegic.value.DoubleValue
68.822

@<SCITEGIC>MOL_PROPERTY
VdW
SciTegic.value.DoubleValue
0.019

@<SCITEGIC>MOL_PROPERTY
VdW6
SciTegic.value.DoubleValue
-4.600

@<SCITEGIC>MOL_PROPERTY
VdW12
SciTegic.value.DoubleValue
4.619

@<SCITEGIC>MOL_PROPERTY
Bond
SciTegic.value.DoubleValue
0.152

@<SCITEGIC>MOL_PROPERTY
Angle
SciTegic.value.DoubleValue
0.862

@<SCITEGIC>MOL_PROPERTY
Pdih
SciTegic.value.DoubleValue
1.871

@<SCITEGIC>MOL_PROPERTY
Idih
SciTegic.value.DoubleValue
0.000

@<SCITEGIC>MOL_PROPERTY
Tether
SciTegic.value.DoubleValue
0.000

@<TRIPOS>MOLECULE
guest-s9_confgen4.mol2 : confsearch ligand conformer 619
          20          19           1
SMALL
USER_CHARGES
 
@<TRIPOS>ATOM
       1    C1      20.468128   17.262659   23.843079 C.3        1 MOL1        -0.2224
       2    H1      19.496436   17.771289   23.809713 H          1 MOL1         0.1052
       3    H2      20.287528   16.224586   24.150923 H          1 MOL1         0.1052
       4    H3      21.078392   17.740496   24.620460 H          1 MOL1         0.1052
       5    C2      21.181308   17.305378   22.472051 C.3        1 MOL1        -0.1209
       6    H4      20.552196   16.821349   21.712747 H          1 MOL1         0.1041
       7    H5      22.101039   16.706355   22.529255 H          1 MOL1         0.1041
       8    C3      21.549304   18.741812   22.023458 C.3        1 MOL1        -0.1274
       9    H6      22.260111   19.172898   22.740873 H          1 MOL1         0.1041
      10    H7      22.075151   18.699757   21.060410 H          1 MOL1         0.1041
      11    C4      20.338546   19.690305   21.899395 C.3        1 MOL1         0.0313
      12    H8      20.686127   20.685537   21.610880 H          1 MOL1         0.1015
      13    H9      19.836286   19.774227   22.866069 H          1 MOL1         0.1015
      14    N1      19.311124   19.247297   20.875310 N.4        1 MOL1        -0.4809
      15    H10     18.963294   18.305712   21.109663 H          1 MOL1         0.3726
      16    H11     19.751110   19.155651   19.946918 H          1 MOL1         0.3726
      17    C5      18.161513   20.244569   20.826720 C.3        1 MOL1        -0.0677
      18    H12     18.548786   21.226505   20.546390 H          1 MOL1         0.1026
      19    H13     17.429570   19.912735   20.087047 H          1 MOL1         0.1026
      20    H14     17.691273   20.299998   21.810876 H          1 MOL1         0.1026
@<TRIPOS>BOND
    1     1     2    1
    2     1     3    1
    3     1     4    1
    4     1     5    1
    5     5     6    1
    6     5     7    1
    7     5     8    1
    8     8     9    1
    9     8    10    1
   10     8    11    1
   11    11    12    1
   12    11    13    1
   13    11    14    1
   14    14    15    1
   15    14    16    1
   16    14    17    1
   17    17    18    1
   18    17    19    1
   19    17    20    1
@<TRIPOS>SUBSTRUCTURE
       1 MOL1            1 RESIDUE      1      MOL     
@<SCITEGIC>MOL_PROPERTY
VConf Rank
SciTegic.value.IntegerValue
619

@<SCITEGIC>MOL_PROPERTY
Conf_Id
SciTegic.value.IntegerValue
23

@<SCITEGIC>MOL_PROPERTY
Delta U+W
SciTegic.value.DoubleValue
0.896

@<SCITEGIC>MOL_PROPERTY
U+W
SciTegic.value.DoubleValue
16.234

@<SCITEGIC>MOL_PROPERTY
Grad RMS
SciTegic.value.DoubleValue
0.000000

@<SCITEGIC>MOL_PROPERTY
U
SciTegic.value.DoubleValue
70.374

@<SCITEGIC>MOL_PROPERTY
W
SciTegic.value.DoubleValue
-54.140

@<SCITEGIC>MOL_PROPERTY
W(PB)
SciTegic.value.DoubleValue
-56.046

@<SCITEGIC>MOL_PROPERTY
W(SA)
SciTegic.value.DoubleValue
1.907

@<SCITEGIC>MOL_PROPERTY
Valence
SciTegic.value.DoubleValue
1.257

@<SCITEGIC>MOL_PROPERTY
Coulomb
SciTegic.value.DoubleValue
69.240

@<SCITEGIC>MOL_PROPERTY
VdW
SciTegic.value.DoubleValue
-0.123

@<SCITEGIC>MOL_PROPERTY
VdW6
SciTegic.value.DoubleValue
-4.336

@<SCITEGIC>MOL_PROPERTY
VdW12
SciTegic.value.DoubleValue
4.213

@<SCITEGIC>MOL_PROPERTY
Bond
SciTegic.value.DoubleValue
0.128

@<SCITEGIC>MOL_PROPERTY
Angle
SciTegic.value.DoubleValue
0.603

@<SCITEGIC>MOL_PROPERTY
Pdih
SciTegic.value.DoubleValue
0.526

@<SCITEGIC>MOL_PROPERTY
Idih
SciTegic.value.DoubleValue
0.000

@<SCITEGIC>MOL_PROPERTY
Tether
SciTegic.value.DoubleValue
0.000

@<TRIPOS>MOLECULE
guest-s9_confgen4.mol2 : confsearch ligand conformer 620
          20          19           1
SMALL
USER_CHARGES
 
@<TRIPOS>ATOM
       1    C1      20.432598   17.779625   19.893975 C.3        1 MOL1        -0.2224
       2    H1      19.630351   18.069377   19.202950 H          1 MOL1         0.1052
       3    H2      21.148469   17.162890   19.335275 H          1 MOL1         0.1052
       4    H3      19.996778   17.150023   20.679893 H          1 MOL1         0.1052
       5    C2      21.134242   19.024358   20.484318 C.3        1 MOL1        -0.1209
       6    H4      21.633218   19.571646   19.672219 H          1 MOL1         0.1041
       7    H5      21.931776   18.708634   21.170516 H          1 MOL1         0.1041
       8    C3      20.158133   19.986062   21.207046 C.3        1 MOL1        -0.1274
       9    H6      20.712765   20.858521   21.577100 H          1 MOL1         0.1041
      10    H7      19.429469   20.372484   20.482137 H          1 MOL1         0.1041
      11    C4      19.391023   19.338230   22.378722 C.3        1 MOL1         0.0313
      12    H8      18.799411   18.496635   22.010650 H          1 MOL1         0.1015
      13    H9      18.705022   20.070720   22.811620 H          1 MOL1         0.1015
      14    N1      20.284429   18.829726   23.494005 N.4        1 MOL1        -0.4809
      15    H10     20.860998   19.599520   23.866676 H          1 MOL1         0.3726
      16    H11     20.953441   18.139160   23.122480 H          1 MOL1         0.3726
      17    C5      19.437452   18.212216   24.598466 C.3        1 MOL1        -0.0677
      18    H12     18.861663   17.379991   24.187822 H          1 MOL1         0.1026
      19    H13     20.093035   17.849676   25.393290 H          1 MOL1         0.1026
      20    H14     18.759198   18.969467   24.997597 H          1 MOL1         0.1026
@<TRIPOS>BOND
    1     1     2    1
    2     1     3    1
    3     1     4    1
    4     1     5    1
    5     5     6    1
    6     5     7    1
    7     5     8    1
    8     8     9    1
    9     8    10    1
   10     8    11    1
   11    11    12    1
   12    11    13    1
   13    11    14    1
   14    14    15    1
   15    14    16    1
   16    14    17    1
   17    17    18    1
   18    17    19    1
   19    17    20    1
@<TRIPOS>SUBSTRUCTURE
       1 MOL1            1 RESIDUE      1      MOL     
@<SCITEGIC>MOL_PROPERTY
VConf Rank
SciTegic.value.IntegerValue
620

@<SCITEGIC>MOL_PROPERTY
Conf_Id
SciTegic.value.IntegerValue
24

@<SCITEGIC>MOL_PROPERTY
Delta U+W
SciTegic.value.DoubleValue
0.792

@<SCITEGIC>MOL_PROPERTY
U+W
SciTegic.value.DoubleValue
16.130

@<SCITEGIC>MOL_PROPERTY
Grad RMS
SciTegic.value.DoubleValue
0.000000

@<SCITEGIC>MOL_PROPERTY
U
SciTegic.value.DoubleValue
70.374

@<SCITEGIC>MOL_PROPERTY
W
SciTegic.value.DoubleValue
-54.243

@<SCITEGIC>MOL_PROPERTY
W(PB)
SciTegic.value.DoubleValue
-56.130

@<SCITEGIC>MOL_PROPERTY
W(SA)
SciTegic.value.DoubleValue
1.887

@<SCITEGIC>MOL_PROPERTY
Valence
SciTegic.value.DoubleValue
1.257

@<SCITEGIC>MOL_PROPERTY
Coulomb
SciTegic.value.DoubleValue
69.240

@<SCITEGIC>MOL_PROPERTY
VdW
SciTegic.value.DoubleValue
-0.123

@<SCITEGIC>MOL_PROPERTY
VdW6
SciTegic.value.DoubleValue
-4.336

@<SCITEGIC>MOL_PROPERTY
VdW12
SciTegic.value.DoubleValue
4.213

@<SCITEGIC>MOL_PROPERTY
Bond
SciTegic.value.DoubleValue
0.128

@<SCITEGIC>MOL_PROPERTY
Angle
SciTegic.value.DoubleValue
0.603

@<SCITEGIC>MOL_PROPERTY
Pdih
SciTegic.value.DoubleValue
0.526

@<SCITEGIC>MOL_PROPERTY
Idih
SciTegic.value.DoubleValue
0.000

@<SCITEGIC>MOL_PROPERTY
Tether
SciTegic.value.DoubleValue
0.000

@<TRIPOS>MOLECULE
guest-s9_confgen4.mol2 : confsearch ligand conformer 621
          20          19           1
SMALL
USER_CHARGES
 
@<TRIPOS>ATOM
       1    C1      19.506877   20.183796   20.442377 C.3        1 MOL1        -0.2224
       2    H1      19.187593   21.083717   19.900694 H          1 MOL1         0.1052
       3    H2      20.315389   20.486243   21.118309 H          1 MOL1         0.1052
       4    H3      19.905937   19.476102   19.704080 H          1 MOL1         0.1052
       5    C2      18.315915   19.575556   21.217693 C.3        1 MOL1        -0.1209
       6    H4      17.459836   19.489207   20.533778 H          1 MOL1         0.1041
       7    H5      18.002475   20.270087   22.009833 H          1 MOL1         0.1041
       8    C3      18.594447   18.179012   21.830003 C.3        1 MOL1        -0.1274
       9    H6      17.664605   17.820781   22.291395 H          1 MOL1         0.1041
      10    H7      18.835971   17.456302   21.039395 H          1 MOL1         0.1041
      11    C4      19.694098   18.164525   22.912981 C.3        1 MOL1         0.0313
      12    H8      19.571584   17.273894   23.534520 H          1 MOL1         0.1015
      13    H9      19.591450   19.042718   23.555261 H          1 MOL1         0.1015
      14    N1      21.109079   18.131024   22.367358 N.4        1 MOL1        -0.4809
      15    H10     21.259676   18.925350   21.729405 H          1 MOL1         0.3726
      16    H11     21.246955   17.286530   21.791311 H          1 MOL1         0.3726
      17    C5      22.110651   18.165700   23.513684 C.3        1 MOL1        -0.0677
      18    H12     21.967430   19.082806   24.089160 H          1 MOL1         0.1026
      19    H13     21.951406   17.297418   24.156718 H          1 MOL1         0.1026
      20    H14     23.123719   18.141003   23.106187 H          1 MOL1         0.1026
@<TRIPOS>BOND
    1     1     2    1
    2     1     3    1
    3     1     4    1
    4     1     5    1
    5     5     6    1
    6     5     7    1
    7     5     8    1
    8     8     9    1
    9     8    10    1
   10     8    11    1
   11    11    12    1
   12    11    13    1
   13    11    14    1
   14    14    15    1
   15    14    16    1
   16    14    17    1
   17    17    18    1
   18    17    19    1
   19    17    20    1
@<TRIPOS>SUBSTRUCTURE
       1 MOL1            1 RESIDUE      1      MOL     
@<SCITEGIC>MOL_PROPERTY
VConf Rank
SciTegic.value.IntegerValue
621

@<SCITEGIC>MOL_PROPERTY
Conf_Id
SciTegic.value.IntegerValue
26

@<SCITEGIC>MOL_PROPERTY
Delta U+W
SciTegic.value.DoubleValue
2.888

@<SCITEGIC>MOL_PROPERTY
U+W
SciTegic.value.DoubleValue
18.226

@<SCITEGIC>MOL_PROPERTY
Grad RMS
SciTegic.value.DoubleValue
0.000000

@<SCITEGIC>MOL_PROPERTY
U
SciTegic.value.DoubleValue
72.042

@<SCITEGIC>MOL_PROPERTY
W
SciTegic.value.DoubleValue
-53.816

@<SCITEGIC>MOL_PROPERTY
W(PB)
SciTegic.value.DoubleValue
-55.689

@<SCITEGIC>MOL_PROPERTY
W(SA)
SciTegic.value.DoubleValue
1.873

@<SCITEGIC>MOL_PROPERTY
Valence
SciTegic.value.DoubleValue
2.428

@<SCITEGIC>MOL_PROPERTY
Coulomb
SciTegic.value.DoubleValue
69.829

@<SCITEGIC>MOL_PROPERTY
VdW
SciTegic.value.DoubleValue
-0.215

@<SCITEGIC>MOL_PROPERTY
VdW6
SciTegic.value.DoubleValue
-4.563

@<SCITEGIC>MOL_PROPERTY
VdW12
SciTegic.value.DoubleValue
4.348

@<SCITEGIC>MOL_PROPERTY
Bond
SciTegic.value.DoubleValue
0.137

@<SCITEGIC>MOL_PROPERTY
Angle
SciTegic.value.DoubleValue
0.936

@<SCITEGIC>MOL_PROPERTY
Pdih
SciTegic.value.DoubleValue
1.356

@<SCITEGIC>MOL_PROPERTY
Idih
SciTegic.value.DoubleValue
0.000

@<SCITEGIC>MOL_PROPERTY
Tether
SciTegic.value.DoubleValue
0.000

@<TRIPOS>MOLECULE
guest-s9_confgen4.mol2 : confsearch ligand conformer 622
          20          19           1
SMALL
USER_CHARGES
 
@<TRIPOS>ATOM
       1    C1      22.037341   17.935968   22.260326 C.3        1 MOL1        -0.2224
       2    H1      22.888849   17.256163   22.126097 H          1 MOL1         0.1052
       3    H2      22.275001   18.604175   23.098290 H          1 MOL1         0.1052
       4    H3      21.173395   17.318090   22.532122 H          1 MOL1         0.1052
       5    C2      21.779455   18.733065   20.961252 C.3        1 MOL1        -0.1209
       6    H4      21.452668   18.044903   20.168945 H          1 MOL1         0.1041
       7    H5      22.731785   19.160925   20.617640 H          1 MOL1         0.1041
       8    C3      20.751624   19.884142   21.107616 C.3        1 MOL1        -0.1274
       9    H6      21.103215   20.619211   21.843661 H          1 MOL1         0.1041
      10    H7      20.702991   20.417661   20.149070 H          1 MOL1         0.1041
      11    C4      19.322391   19.422470   21.463192 C.3        1 MOL1         0.0313
      12    H8      19.072677   18.523133   20.894756 H          1 MOL1         0.1015
      13    H9      18.614039   20.206894   21.184875 H          1 MOL1         0.1015
      14    N1      19.106320   19.134919   22.936837 N.4        1 MOL1        -0.4809
      15    H10     19.293225   19.982340   23.494465 H          1 MOL1         0.3726
      16    H11     19.788789   18.436151   23.263304 H          1 MOL1         0.3726
      17    C5      17.683469   18.645070   23.169113 C.3        1 MOL1        -0.0677
      18    H12     17.519464   17.730495   22.595158 H          1 MOL1         0.1026
      19    H13     17.542726   18.442406   24.233110 H          1 MOL1         0.1026
      20    H14     16.980520   19.415572   22.845145 H          1 MOL1         0.1026
@<TRIPOS>BOND
    1     1     2    1
    2     1     3    1
    3     1     4    1
    4     1     5    1
    5     5     6    1
    6     5     7    1
    7     5     8    1
    8     8     9    1
    9     8    10    1
   10     8    11    1
   11    11    12    1
   12    11    13    1
   13    11    14    1
   14    14    15    1
   15    14    16    1
   16    14    17    1
   17    17    18    1
   18    17    19    1
   19    17    20    1
@<TRIPOS>SUBSTRUCTURE
       1 MOL1            1 RESIDUE      1      MOL     
@<SCITEGIC>MOL_PROPERTY
VConf Rank
SciTegic.value.IntegerValue
622

@<SCITEGIC>MOL_PROPERTY
Conf_Id
SciTegic.value.IntegerValue
5

@<SCITEGIC>MOL_PROPERTY
Delta U+W
SciTegic.value.DoubleValue
2.950

@<SCITEGIC>MOL_PROPERTY
U+W
SciTegic.value.DoubleValue
18.289

@<SCITEGIC>MOL_PROPERTY
Grad RMS
SciTegic.value.DoubleValue
0.000000

@<SCITEGIC>MOL_PROPERTY
U
SciTegic.value.DoubleValue
72.042

@<SCITEGIC>MOL_PROPERTY
W
SciTegic.value.DoubleValue
-53.753

@<SCITEGIC>MOL_PROPERTY
W(PB)
SciTegic.value.DoubleValue
-55.644

@<SCITEGIC>MOL_PROPERTY
W(SA)
SciTegic.value.DoubleValue
1.891

@<SCITEGIC>MOL_PROPERTY
Valence
SciTegic.value.DoubleValue
2.428

@<SCITEGIC>MOL_PROPERTY
Coulomb
SciTegic.value.DoubleValue
69.829

@<SCITEGIC>MOL_PROPERTY
VdW
SciTegic.value.DoubleValue
-0.215

@<SCITEGIC>MOL_PROPERTY
VdW6
SciTegic.value.DoubleValue
-4.563

@<SCITEGIC>MOL_PROPERTY
VdW12
SciTegic.value.DoubleValue
4.348

@<SCITEGIC>MOL_PROPERTY
Bond
SciTegic.value.DoubleValue
0.137

@<SCITEGIC>MOL_PROPERTY
Angle
SciTegic.value.DoubleValue
0.936

@<SCITEGIC>MOL_PROPERTY
Pdih
SciTegic.value.DoubleValue
1.356

@<SCITEGIC>MOL_PROPERTY
Idih
SciTegic.value.DoubleValue
0.000

@<SCITEGIC>MOL_PROPERTY
Tether
SciTegic.value.DoubleValue
0.000

@<TRIPOS>MOLECULE
guest-s9_confgen4.mol2 : confsearch ligand conformer 623
          20          19           1
SMALL
USER_CHARGES
 
@<TRIPOS>ATOM
       1    C1      18.041545   19.292009   23.295327 C.3        1 MOL1        -0.2224
       2    H1      17.432199   20.101222   22.872327 H          1 MOL1         0.1052
       3    H2      17.861933   18.384442   22.705548 H          1 MOL1         0.1052
       4    H3      17.682001   19.100754   24.314697 H          1 MOL1         0.1052
       5    C2      19.539326   19.674803   23.311510 C.3        1 MOL1        -0.1209
       6    H4      20.127602   18.852821   23.741672 H          1 MOL1         0.1041
       7    H5      19.681365   20.532685   23.983640 H          1 MOL1         0.1041
       8    C3      20.087022   20.043260   21.910238 C.3        1 MOL1        -0.1274
       9    H6      19.552686   20.925837   21.534636 H          1 MOL1         0.1041
      10    H7      21.139337   20.342815   21.997711 H          1 MOL1         0.1041
      11    C4      19.958435   18.909933   20.866893 C.3        1 MOL1         0.0313
      12    H8      20.367238   19.245637   19.910545 H          1 MOL1         0.1015
      13    H9      18.900035   18.683688   20.716287 H          1 MOL1         0.1015
      14    N1      20.653885   17.608463   21.235474 N.4        1 MOL1        -0.4809
      15    H10     20.398946   16.875276   20.555401 H          1 MOL1         0.3726
      16    H11     20.303399   17.265835   22.142044 H          1 MOL1         0.3726
      17    C5      22.168411   17.780642   21.269938 C.3        1 MOL1        -0.0677
      18    H12     22.431947   18.513171   22.035404 H          1 MOL1         0.1026
      19    H13     22.632544   16.820562   21.506019 H          1 MOL1         0.1026
      20    H14     22.513126   18.125580   20.292787 H          1 MOL1         0.1026
@<TRIPOS>BOND
    1     1     2    1
    2     1     3    1
    3     1     4    1
    4     1     5    1
    5     5     6    1
    6     5     7    1
    7     5     8    1
    8     8     9    1
    9     8    10    1
   10     8    11    1
   11    11    12    1
   12    11    13    1
   13    11    14    1
   14    14    15    1
   15    14    16    1
   16    14    17    1
   17    17    18    1
   18    17    19    1
   19    17    20    1
@<TRIPOS>SUBSTRUCTURE
       1 MOL1            1 RESIDUE      1      MOL     
@<SCITEGIC>MOL_PROPERTY
VConf Rank
SciTegic.value.IntegerValue
623

@<SCITEGIC>MOL_PROPERTY
Conf_Id
SciTegic.value.IntegerValue
52

@<SCITEGIC>MOL_PROPERTY
Delta U+W
SciTegic.value.DoubleValue
0.784

@<SCITEGIC>MOL_PROPERTY
U+W
SciTegic.value.DoubleValue
16.122

@<SCITEGIC>MOL_PROPERTY
Grad RMS
SciTegic.value.DoubleValue
0.000000

@<SCITEGIC>MOL_PROPERTY
U
SciTegic.value.DoubleValue
70.777

@<SCITEGIC>MOL_PROPERTY
W
SciTegic.value.DoubleValue
-54.655

@<SCITEGIC>MOL_PROPERTY
W(PB)
SciTegic.value.DoubleValue
-56.491

@<SCITEGIC>MOL_PROPERTY
W(SA)
SciTegic.value.DoubleValue
1.836

@<SCITEGIC>MOL_PROPERTY
Valence
SciTegic.value.DoubleValue
1.529

@<SCITEGIC>MOL_PROPERTY
Coulomb
SciTegic.value.DoubleValue
69.166

@<SCITEGIC>MOL_PROPERTY
VdW
SciTegic.value.DoubleValue
0.082

@<SCITEGIC>MOL_PROPERTY
VdW6
SciTegic.value.DoubleValue
-5.166

@<SCITEGIC>MOL_PROPERTY
VdW12
SciTegic.value.DoubleValue
5.248

@<SCITEGIC>MOL_PROPERTY
Bond
SciTegic.value.DoubleValue
0.171

@<SCITEGIC>MOL_PROPERTY
Angle
SciTegic.value.DoubleValue
0.752

@<SCITEGIC>MOL_PROPERTY
Pdih
SciTegic.value.DoubleValue
0.605

@<SCITEGIC>MOL_PROPERTY
Idih
SciTegic.value.DoubleValue
0.000

@<SCITEGIC>MOL_PROPERTY
Tether
SciTegic.value.DoubleValue
0.000

@<TRIPOS>MOLECULE
guest-s9_confgen4.mol2 : confsearch ligand conformer 624
          20          19           1
SMALL
USER_CHARGES
 
@<TRIPOS>ATOM
       1    C1      20.413559   19.662561   20.100531 C.3        1 MOL1        -0.2224
       2    H1      20.467833   20.166162   19.126566 H          1 MOL1         0.1052
       3    H2      21.171812   20.124949   20.742717 H          1 MOL1         0.1052
       4    H3      20.675358   18.607813   19.944722 H          1 MOL1         0.1052
       5    C2      18.995871   19.807090   20.699394 C.3        1 MOL1        -0.1209
       6    H4      18.261701   19.544756   19.924667 H          1 MOL1         0.1041
       7    H5      18.808640   20.860673   20.950244 H          1 MOL1         0.1041
       8    C3      18.730210   18.918340   21.941316 C.3        1 MOL1        -0.1274
       9    H6      17.673812   19.033872   22.217471 H          1 MOL1         0.1041
      10    H7      18.855380   17.859094   21.683959 H          1 MOL1         0.1041
      11    C4      19.579033   19.277835   23.183014 C.3        1 MOL1         0.0313
      12    H8      19.110439   18.852860   24.074214 H          1 MOL1         0.1015
      13    H9      19.595443   20.364210   23.301287 H          1 MOL1         0.1015
      14    N1      21.018769   18.788666   23.163404 N.4        1 MOL1        -0.4809
      15    H10     21.545687   19.234957   23.930438 H          1 MOL1         0.3726
      16    H11     21.485018   19.097851   22.299195 H          1 MOL1         0.3726
      17    C5      21.089406   17.271917   23.301995 C.3        1 MOL1        -0.0677
      18    H12     20.601911   16.973149   24.232440 H          1 MOL1         0.1026
      19    H13     20.585030   16.805709   22.453543 H          1 MOL1         0.1026
      20    H14     22.136807   16.962825   23.320094 H          1 MOL1         0.1026
@<TRIPOS>BOND
    1     1     2    1
    2     1     3    1
    3     1     4    1
    4     1     5    1
    5     5     6    1
    6     5     7    1
    7     5     8    1
    8     8     9    1
    9     8    10    1
   10     8    11    1
   11    11    12    1
   12    11    13    1
   13    11    14    1
   14    14    15    1
   15    14    16    1
   16    14    17    1
   17    17    18    1
   18    17    19    1
   19    17    20    1
@<TRIPOS>SUBSTRUCTURE
       1 MOL1            1 RESIDUE      1      MOL     
@<SCITEGIC>MOL_PROPERTY
VConf Rank
SciTegic.value.IntegerValue
624

@<SCITEGIC>MOL_PROPERTY
Conf_Id
SciTegic.value.IntegerValue
55

@<SCITEGIC>MOL_PROPERTY
Delta U+W
SciTegic.value.DoubleValue
2.745

@<SCITEGIC>MOL_PROPERTY
U+W
SciTegic.value.DoubleValue
18.083

@<SCITEGIC>MOL_PROPERTY
Grad RMS
SciTegic.value.DoubleValue
0.000000

@<SCITEGIC>MOL_PROPERTY
U
SciTegic.value.DoubleValue
72.490

@<SCITEGIC>MOL_PROPERTY
W
SciTegic.value.DoubleValue
-54.407

@<SCITEGIC>MOL_PROPERTY
W(PB)
SciTegic.value.DoubleValue
-56.269

@<SCITEGIC>MOL_PROPERTY
W(SA)
SciTegic.value.DoubleValue
1.861

@<SCITEGIC>MOL_PROPERTY
Valence
SciTegic.value.DoubleValue
2.738

@<SCITEGIC>MOL_PROPERTY
Coulomb
SciTegic.value.DoubleValue
69.795

@<SCITEGIC>MOL_PROPERTY
VdW
SciTegic.value.DoubleValue
-0.043

@<SCITEGIC>MOL_PROPERTY
VdW6
SciTegic.value.DoubleValue
-5.333

@<SCITEGIC>MOL_PROPERTY
VdW12
SciTegic.value.DoubleValue
5.290

@<SCITEGIC>MOL_PROPERTY
Bond
SciTegic.value.DoubleValue
0.182

@<SCITEGIC>MOL_PROPERTY
Angle
SciTegic.value.DoubleValue
1.135

@<SCITEGIC>MOL_PROPERTY
Pdih
SciTegic.value.DoubleValue
1.422

@<SCITEGIC>MOL_PROPERTY
Idih
SciTegic.value.DoubleValue
0.000

@<SCITEGIC>MOL_PROPERTY
Tether
SciTegic.value.DoubleValue
0.000

@<TRIPOS>MOLECULE
guest-s9_confgen4.mol2 : confsearch ligand conformer 625
          20          19           1
SMALL
USER_CHARGES
 
@<TRIPOS>ATOM
       1    C1      19.515088   17.209487   20.757376 C.3        1 MOL1        -0.2224
       2    H1      19.313796   16.261096   20.242395 H          1 MOL1         0.1052
       3    H2      18.835093   17.964579   20.341744 H          1 MOL1         0.1052
       4    H3      20.546779   17.491190   20.517777 H          1 MOL1         0.1052
       5    C2      19.309192   17.045494   22.280558 C.3        1 MOL1        -0.1209
       6    H4      20.077888   16.371922   22.684817 H          1 MOL1         0.1041
       7    H5      18.346372   16.543262   22.450158 H          1 MOL1         0.1041
       8    C3      19.309433   18.376480   23.075108 C.3        1 MOL1        -0.1274
       9    H6      18.504822   19.031704   22.718476 H          1 MOL1         0.1041
      10    H7      19.062348   18.144464   24.119475 H          1 MOL1         0.1041
      11    C4      20.661197   19.127662   23.071315 C.3        1 MOL1         0.0313
      12    H8      21.468375   18.409922   23.237987 H          1 MOL1         0.1015
      13    H9      20.676821   19.843970   23.896593 H          1 MOL1         0.1015
      14    N1      20.981821   19.904671   21.804048 N.4        1 MOL1        -0.4809
      15    H10     20.902915   19.288892   20.982811 H          1 MOL1         0.3726
      16    H11     21.968899   20.205420   21.823692 H          1 MOL1         0.3726
      17    C5      20.073897   21.120631   21.656289 C.3        1 MOL1        -0.0677
      18    H12     19.036564   20.791352   21.571827 H          1 MOL1         0.1026
      19    H13     20.188419   21.762967   22.532034 H          1 MOL1         0.1026
      20    H14     20.357433   21.671487   20.756802 H          1 MOL1         0.1026
@<TRIPOS>BOND
    1     1     2    1
    2     1     3    1
    3     1     4    1
    4     1     5    1
    5     5     6    1
    6     5     7    1
    7     5     8    1
    8     8     9    1
    9     8    10    1
   10     8    11    1
   11    11    12    1
   12    11    13    1
   13    11    14    1
   14    14    15    1
   15    14    16    1
   16    14    17    1
   17    17    18    1
   18    17    19    1
   19    17    20    1
@<TRIPOS>SUBSTRUCTURE
       1 MOL1            1 RESIDUE      1      MOL     
@<SCITEGIC>MOL_PROPERTY
VConf Rank
SciTegic.value.IntegerValue
625

@<SCITEGIC>MOL_PROPERTY
Conf_Id
SciTegic.value.IntegerValue
76

@<SCITEGIC>MOL_PROPERTY
Delta U+W
SciTegic.value.DoubleValue
2.799

@<SCITEGIC>MOL_PROPERTY
U+W
SciTegic.value.DoubleValue
18.137

@<SCITEGIC>MOL_PROPERTY
Grad RMS
SciTegic.value.DoubleValue
0.000000

@<SCITEGIC>MOL_PROPERTY
U
SciTegic.value.DoubleValue
72.490

@<SCITEGIC>MOL_PROPERTY
W
SciTegic.value.DoubleValue
-54.353

@<SCITEGIC>MOL_PROPERTY
W(PB)
SciTegic.value.DoubleValue
-56.201

@<SCITEGIC>MOL_PROPERTY
W(SA)
SciTegic.value.DoubleValue
1.848

@<SCITEGIC>MOL_PROPERTY
Valence
SciTegic.value.DoubleValue
2.738

@<SCITEGIC>MOL_PROPERTY
Coulomb
SciTegic.value.DoubleValue
69.795

@<SCITEGIC>MOL_PROPERTY
VdW
SciTegic.value.DoubleValue
-0.043

@<SCITEGIC>MOL_PROPERTY
VdW6
SciTegic.value.DoubleValue
-5.334

@<SCITEGIC>MOL_PROPERTY
VdW12
SciTegic.value.DoubleValue
5.290

@<SCITEGIC>MOL_PROPERTY
Bond
SciTegic.value.DoubleValue
0.182

@<SCITEGIC>MOL_PROPERTY
Angle
SciTegic.value.DoubleValue
1.135

@<SCITEGIC>MOL_PROPERTY
Pdih
SciTegic.value.DoubleValue
1.421

@<SCITEGIC>MOL_PROPERTY
Idih
SciTegic.value.DoubleValue
0.000

@<SCITEGIC>MOL_PROPERTY
Tether
SciTegic.value.DoubleValue
0.000

@<TRIPOS>MOLECULE
guest-s9_confgen4.mol2 : confsearch ligand conformer 626
          20          19           1
SMALL
USER_CHARGES
 
@<TRIPOS>ATOM
       1    C1      22.103442   19.404313   21.829271 C.3        1 MOL1        -0.2224
       2    H1      21.976162   18.446464   22.348284 H          1 MOL1         0.1052
       3    H2      22.603803   19.209389   20.871881 H          1 MOL1         0.1052
       4    H3      22.774867   20.024240   22.437322 H          1 MOL1         0.1052
       5    C2      20.750958   20.121430   21.612260 C.3        1 MOL1        -0.1209
       6    H4      20.940111   21.103247   21.156093 H          1 MOL1         0.1041
       7    H5      20.274241   20.329354   22.578836 H          1 MOL1         0.1041
       8    C3      19.783257   19.329511   20.699099 C.3        1 MOL1        -0.1274
       9    H6      18.864190   19.911809   20.551948 H          1 MOL1         0.1041
      10    H7      20.239621   19.232144   19.705169 H          1 MOL1         0.1041
      11    C4      19.409956   17.914142   21.199156 C.3        1 MOL1         0.0313
      12    H8      20.308795   17.315133   21.362993 H          1 MOL1         0.1015
      13    H9      18.827245   17.425772   20.413911 H          1 MOL1         0.1015
      14    N1      18.560837   17.865079   22.460716 N.4        1 MOL1        -0.4809
      15    H10     17.949501   17.034502   22.425933 H          1 MOL1         0.3726
      16    H11     17.913335   18.666690   22.489089 H          1 MOL1         0.3726
      17    C5      19.421079   17.800299   23.718108 C.3        1 MOL1        -0.0677
      18    H12     18.770139   17.736167   24.592803 H          1 MOL1         0.1026
      19    H13     20.058644   16.914964   23.670318 H          1 MOL1         0.1026
      20    H14     20.039791   18.695445   23.788325 H          1 MOL1         0.1026
@<TRIPOS>BOND
    1     1     2    1
    2     1     3    1
    3     1     4    1
    4     1     5    1
    5     5     6    1
    6     5     7    1
    7     5     8    1
    8     8     9    1
    9     8    10    1
   10     8    11    1
   11    11    12    1
   12    11    13    1
   13    11    14    1
   14    14    15    1
   15    14    16    1
   16    14    17    1
   17    17    18    1
   18    17    19    1
   19    17    20    1
@<TRIPOS>SUBSTRUCTURE
       1 MOL1            1 RESIDUE      1      MOL     
@<SCITEGIC>MOL_PROPERTY
VConf Rank
SciTegic.value.IntegerValue
626

@<SCITEGIC>MOL_PROPERTY
Conf_Id
SciTegic.value.IntegerValue
60

@<SCITEGIC>MOL_PROPERTY
Delta U+W
SciTegic.value.DoubleValue
1.788

@<SCITEGIC>MOL_PROPERTY
U+W
SciTegic.value.DoubleValue
17.127

@<SCITEGIC>MOL_PROPERTY
Grad RMS
SciTegic.value.DoubleValue
0.000000

@<SCITEGIC>MOL_PROPERTY
U
SciTegic.value.DoubleValue
72.122

@<SCITEGIC>MOL_PROPERTY
W
SciTegic.value.DoubleValue
-54.995

@<SCITEGIC>MOL_PROPERTY
W(PB)
SciTegic.value.DoubleValue
-56.810

@<SCITEGIC>MOL_PROPERTY
W(SA)
SciTegic.value.DoubleValue
1.815

@<SCITEGIC>MOL_PROPERTY
Valence
SciTegic.value.DoubleValue
3.197

@<SCITEGIC>MOL_PROPERTY
Coulomb
SciTegic.value.DoubleValue
69.115

@<SCITEGIC>MOL_PROPERTY
VdW
SciTegic.value.DoubleValue
-0.190

@<SCITEGIC>MOL_PROPERTY
VdW6
SciTegic.value.DoubleValue
-5.585

@<SCITEGIC>MOL_PROPERTY
VdW12
SciTegic.value.DoubleValue
5.395

@<SCITEGIC>MOL_PROPERTY
Bond
SciTegic.value.DoubleValue
0.177

@<SCITEGIC>MOL_PROPERTY
Angle
SciTegic.value.DoubleValue
1.207

@<SCITEGIC>MOL_PROPERTY
Pdih
SciTegic.value.DoubleValue
1.813

@<SCITEGIC>MOL_PROPERTY
Idih
SciTegic.value.DoubleValue
0.000

@<SCITEGIC>MOL_PROPERTY
Tether
SciTegic.value.DoubleValue
0.000

@<TRIPOS>MOLECULE
guest-s9_confgen4.mol2 : confsearch ligand conformer 627
          20          19           1
SMALL
USER_CHARGES
 
@<TRIPOS>ATOM
       1    C1      19.959738   20.384174   23.417269 C.3        1 MOL1        -0.2224
       2    H1      20.310775   21.422260   23.480475 H          1 MOL1         0.1052
       3    H2      19.263498   20.215416   24.248967 H          1 MOL1         0.1052
       4    H3      20.828851   19.731090   23.562781 H          1 MOL1         0.1052
       5    C2      19.271660   20.126041   22.056946 C.3        1 MOL1        -0.1209
       6    H4      19.973373   20.320695   21.235684 H          1 MOL1         0.1041
       7    H5      18.455716   20.851225   21.929764 H          1 MOL1         0.1041
       8    C3      18.687881   18.697302   21.933026 C.3        1 MOL1        -0.1274
       9    H6      17.910102   18.568686   22.697332 H          1 MOL1         0.1041
      10    H7      18.178378   18.595582   20.965831 H          1 MOL1         0.1041
      11    C4      19.711345   17.547908   22.088243 C.3        1 MOL1         0.0313
      12    H8      19.156354   16.606365   22.100453 H          1 MOL1         0.1015
      13    H9      20.240402   17.630630   23.040515 H          1 MOL1         0.1015
      14    N1      20.740008   17.428293   20.973576 N.4        1 MOL1        -0.4809
      15    H10     20.324099   17.700461   20.070475 H          1 MOL1         0.3726
      16    H11     20.998427   16.436272   20.855619 H          1 MOL1         0.3726
      17    C5      21.995588   18.239555   21.274602 C.3        1 MOL1        -0.0677
      18    H12     22.430199   17.891057   22.213885 H          1 MOL1         0.1026
      19    H13     22.714062   18.098928   20.464081 H          1 MOL1         0.1026
      20    H14     21.740823   19.296566   21.357327 H          1 MOL1         0.1026
@<TRIPOS>BOND
    1     1     2    1
    2     1     3    1
    3     1     4    1
    4     1     5    1
    5     5     6    1
    6     5     7    1
    7     5     8    1
    8     8     9    1
    9     8    10    1
   10     8    11    1
   11    11    12    1
   12    11    13    1
   13    11    14    1
   14    14    15    1
   15    14    16    1
   16    14    17    1
   17    17    18    1
   18    17    19    1
   19    17    20    1
@<TRIPOS>SUBSTRUCTURE
       1 MOL1            1 RESIDUE      1      MOL     
@<SCITEGIC>MOL_PROPERTY
VConf Rank
SciTegic.value.IntegerValue
627

@<SCITEGIC>MOL_PROPERTY
Conf_Id
SciTegic.value.IntegerValue
54

@<SCITEGIC>MOL_PROPERTY
Delta U+W
SciTegic.value.DoubleValue
1.880

@<SCITEGIC>MOL_PROPERTY
U+W
SciTegic.value.DoubleValue
17.218

@<SCITEGIC>MOL_PROPERTY
Grad RMS
SciTegic.value.DoubleValue
0.000000

@<SCITEGIC>MOL_PROPERTY
U
SciTegic.value.DoubleValue
72.122

@<SCITEGIC>MOL_PROPERTY
W
SciTegic.value.DoubleValue
-54.903

@<SCITEGIC>MOL_PROPERTY
W(PB)
SciTegic.value.DoubleValue
-56.724

@<SCITEGIC>MOL_PROPERTY
W(SA)
SciTegic.value.DoubleValue
1.821

@<SCITEGIC>MOL_PROPERTY
Valence
SciTegic.value.DoubleValue
3.197

@<SCITEGIC>MOL_PROPERTY
Coulomb
SciTegic.value.DoubleValue
69.115

@<SCITEGIC>MOL_PROPERTY
VdW
SciTegic.value.DoubleValue
-0.190

@<SCITEGIC>MOL_PROPERTY
VdW6
SciTegic.value.DoubleValue
-5.585

@<SCITEGIC>MOL_PROPERTY
VdW12
SciTegic.value.DoubleValue
5.395

@<SCITEGIC>MOL_PROPERTY
Bond
SciTegic.value.DoubleValue
0.177

@<SCITEGIC>MOL_PROPERTY
Angle
SciTegic.value.DoubleValue
1.207

@<SCITEGIC>MOL_PROPERTY
Pdih
SciTegic.value.DoubleValue
1.813

@<SCITEGIC>MOL_PROPERTY
Idih
SciTegic.value.DoubleValue
0.000

@<SCITEGIC>MOL_PROPERTY
Tether
SciTegic.value.DoubleValue
0.000

@<TRIPOS>MOLECULE
guest-s9_confgen4.mol2 : confsearch ligand conformer 628
          20          19           1
SMALL
USER_CHARGES
 
@<TRIPOS>ATOM
       1    C1      17.501616   18.243471   23.874553 C.3        1 MOL1        -0.2224
       2    H1      17.965994   17.473145   24.503940 H          1 MOL1         0.1052
       3    H2      16.831903   18.837612   24.509774 H          1 MOL1         0.1052
       4    H3      16.887172   17.740430   23.116540 H          1 MOL1         0.1052
       5    C2      18.570331   19.143212   23.216870 C.3        1 MOL1        -0.1209
       6    H4      19.145118   19.658918   23.999187 H          1 MOL1         0.1041
       7    H5      18.074794   19.924033   22.622637 H          1 MOL1         0.1041
       8    C3      19.528236   18.332895   22.316001 C.3        1 MOL1        -0.1274
       9    H6      20.025471   17.555364   22.911122 H          1 MOL1         0.1041
      10    H7      18.953644   17.820715   21.532751 H          1 MOL1         0.1041
      11    C4      20.590708   19.237021   21.663859 C.3        1 MOL1         0.0313
      12    H8      21.174755   19.736563   22.440929 H          1 MOL1         0.1015
      13    H9      20.099502   20.002639   21.058025 H          1 MOL1         0.1015
      14    N1      21.555222   18.483636   20.768969 N.4        1 MOL1        -0.4809
      15    H10     21.039436   17.990281   20.024171 H          1 MOL1         0.3726
      16    H11     22.035009   17.743978   21.304567 H          1 MOL1         0.3726
      17    C5      22.567831   19.448935   20.167309 C.3        1 MOL1        -0.0677
      18    H12     23.125153   19.933593   20.971862 H          1 MOL1         0.1026
      19    H13     23.255615   18.893608   19.525769 H          1 MOL1         0.1026
      20    H14     22.040807   20.201803   19.577185 H          1 MOL1         0.1026
@<TRIPOS>BOND
    1     1     2    1
    2     1     3    1
    3     1     4    1
    4     1     5    1
    5     5     6    1
    6     5     7    1
    7     5     8    1
    8     8     9    1
    9     8    10    1
   10     8    11    1
   11    11    12    1
   12    11    13    1
   13    11    14    1
   14    14    15    1
   15    14    16    1
   16    14    17    1
   17    17    18    1
   18    17    19    1
   19    17    20    1
@<TRIPOS>SUBSTRUCTURE
       1 MOL1            1 RESIDUE      1      MOL     
@<SCITEGIC>MOL_PROPERTY
VConf Rank
SciTegic.value.IntegerValue
628

@<SCITEGIC>MOL_PROPERTY
Conf_Id
SciTegic.value.IntegerValue
67

@<SCITEGIC>MOL_PROPERTY
Delta U+W
SciTegic.value.DoubleValue
0.000

@<SCITEGIC>MOL_PROPERTY
U+W
SciTegic.value.DoubleValue
15.338

@<SCITEGIC>MOL_PROPERTY
Grad RMS
SciTegic.value.DoubleValue
0.000000

@<SCITEGIC>MOL_PROPERTY
U
SciTegic.value.DoubleValue
69.277

@<SCITEGIC>MOL_PROPERTY
W
SciTegic.value.DoubleValue
-53.939

@<SCITEGIC>MOL_PROPERTY
W(PB)
SciTegic.value.DoubleValue
-55.889

@<SCITEGIC>MOL_PROPERTY
W(SA)
SciTegic.value.DoubleValue
1.950

@<SCITEGIC>MOL_PROPERTY
Valence
SciTegic.value.DoubleValue
0.846

@<SCITEGIC>MOL_PROPERTY
Coulomb
SciTegic.value.DoubleValue
68.557

@<SCITEGIC>MOL_PROPERTY
VdW
SciTegic.value.DoubleValue
-0.127

@<SCITEGIC>MOL_PROPERTY
VdW6
SciTegic.value.DoubleValue
-3.008

@<SCITEGIC>MOL_PROPERTY
VdW12
SciTegic.value.DoubleValue
2.882

@<SCITEGIC>MOL_PROPERTY
Bond
SciTegic.value.DoubleValue
0.088

@<SCITEGIC>MOL_PROPERTY
Angle
SciTegic.value.DoubleValue
0.332

@<SCITEGIC>MOL_PROPERTY
Pdih
SciTegic.value.DoubleValue
0.426

@<SCITEGIC>MOL_PROPERTY
Idih
SciTegic.value.DoubleValue
0.000

@<SCITEGIC>MOL_PROPERTY
Tether
SciTegic.value.DoubleValue
0.000

@<TRIPOS>MOLECULE
guest-s9_confgen4.mol2 : confsearch ligand conformer 629
          20          19           1
SMALL
USER_CHARGES
 
@<TRIPOS>ATOM
       1    C1      20.851986   16.060818   21.281859 C.3        1 MOL1        -0.2224
       2    H1      21.103245   15.860065   22.331496 H          1 MOL1         0.1052
       3    H2      20.444648   15.136892   20.851215 H          1 MOL1         0.1052
       4    H3      21.781041   16.299380   20.747900 H          1 MOL1         0.1052
       5    C2      19.831367   17.213597   21.164772 C.3        1 MOL1        -0.1209
       6    H4      18.901492   16.931657   21.678746 H          1 MOL1         0.1041
       7    H5      19.573622   17.366966   20.107250 H          1 MOL1         0.1041
       8    C3      20.378269   18.528297   21.763230 C.3        1 MOL1        -0.1274
       9    H6      20.634230   18.370386   22.818835 H          1 MOL1         0.1041
      10    H7      21.304724   18.811595   21.246467 H          1 MOL1         0.1041
      11    C4      19.352404   19.673916   21.640217 C.3        1 MOL1         0.0313
      12    H8      18.444535   19.420148   22.193171 H          1 MOL1         0.1015
      13    H9      19.083732   19.797818   20.588008 H          1 MOL1         0.1015
      14    N1      19.845193   21.021510   22.142127 N.4        1 MOL1        -0.4809
      15    H10     19.171299   21.756429   21.875578 H          1 MOL1         0.3726
      16    H11     20.721775   21.281834   21.665041 H          1 MOL1         0.3726
      17    C5      20.031976   21.015394   23.655596 C.3        1 MOL1        -0.0677
      18    H12     20.794616   20.281781   23.924069 H          1 MOL1         0.1026
      19    H13     20.349086   22.008702   23.980793 H          1 MOL1         0.1026
      20    H14     19.084694   20.756962   24.133694 H          1 MOL1         0.1026
@<TRIPOS>BOND
    1     1     2    1
    2     1     3    1
    3     1     4    1
    4     1     5    1
    5     5     6    1
    6     5     7    1
    7     5     8    1
    8     8     9    1
    9     8    10    1
   10     8    11    1
   11    11    12    1
   12    11    13    1
   13    11    14    1
   14    14    15    1
   15    14    16    1
   16    14    17    1
   17    17    18    1
   18    17    19    1
   19    17    20    1
@<TRIPOS>SUBSTRUCTURE
       1 MOL1            1 RESIDUE      1      MOL     
@<SCITEGIC>MOL_PROPERTY
VConf Rank
SciTegic.value.IntegerValue
629

@<SCITEGIC>MOL_PROPERTY
Conf_Id
SciTegic.value.IntegerValue
37

@<SCITEGIC>MOL_PROPERTY
Delta U+W
SciTegic.value.DoubleValue
-0.021

@<SCITEGIC>MOL_PROPERTY
U+W
SciTegic.value.DoubleValue
15.318

@<SCITEGIC>MOL_PROPERTY
Grad RMS
SciTegic.value.DoubleValue
0.000000

@<SCITEGIC>MOL_PROPERTY
U
SciTegic.value.DoubleValue
69.657

@<SCITEGIC>MOL_PROPERTY
W
SciTegic.value.DoubleValue
-54.340

@<SCITEGIC>MOL_PROPERTY
W(PB)
SciTegic.value.DoubleValue
-56.238

@<SCITEGIC>MOL_PROPERTY
W(SA)
SciTegic.value.DoubleValue
1.899

@<SCITEGIC>MOL_PROPERTY
Valence
SciTegic.value.DoubleValue
1.137

@<SCITEGIC>MOL_PROPERTY
Coulomb
SciTegic.value.DoubleValue
68.383

@<SCITEGIC>MOL_PROPERTY
VdW
SciTegic.value.DoubleValue
0.138

@<SCITEGIC>MOL_PROPERTY
VdW6
SciTegic.value.DoubleValue
-3.703

@<SCITEGIC>MOL_PROPERTY
VdW12
SciTegic.value.DoubleValue
3.841

@<SCITEGIC>MOL_PROPERTY
Bond
SciTegic.value.DoubleValue
0.125

@<SCITEGIC>MOL_PROPERTY
Angle
SciTegic.value.DoubleValue
0.468

@<SCITEGIC>MOL_PROPERTY
Pdih
SciTegic.value.DoubleValue
0.543

@<SCITEGIC>MOL_PROPERTY
Idih
SciTegic.value.DoubleValue
0.000

@<SCITEGIC>MOL_PROPERTY
Tether
SciTegic.value.DoubleValue
0.000

@<TRIPOS>MOLECULE
guest-s9_confgen4.mol2 : confsearch ligand conformer 630
          20          19           1
SMALL
USER_CHARGES
 
@<TRIPOS>ATOM
       1    C1      21.946554   20.841824   22.974077 C.3        1 MOL1        -0.2224
       2    H1      22.311007   21.856617   22.768194 H          1 MOL1         0.1052
       3    H2      21.446147   20.856245   23.951090 H          1 MOL1         0.1052
       4    H3      22.819164   20.179709   23.047041 H          1 MOL1         0.1052
       5    C2      20.983239   20.372074   21.862490 C.3        1 MOL1        -0.1209
       6    H4      21.501549   20.401957   20.893588 H          1 MOL1         0.1041
       7    H5      20.139099   21.072510   21.790775 H          1 MOL1         0.1041
       8    C3      20.454000   18.945124   22.125942 C.3        1 MOL1        -0.1274
       9    H6      21.297454   18.245347   22.193169 H          1 MOL1         0.1041
      10    H7      19.937460   18.920123   23.094093 H          1 MOL1         0.1041
      11    C4      19.494025   18.484333   21.009658 C.3        1 MOL1         0.0313
      12    H8      20.012081   18.544900   20.049123 H          1 MOL1         0.1015
      13    H9      18.626888   19.148223   20.968359 H          1 MOL1         0.1015
      14    N1      18.986208   17.059430   21.159752 N.4        1 MOL1        -0.4809
      15    H10     19.778688   16.403601   21.234833 H          1 MOL1         0.3726
      16    H11     18.490709   16.777299   20.299420 H          1 MOL1         0.3726
      17    C5      18.055293   16.925735   22.360185 C.3        1 MOL1        -0.0677
      18    H12     17.216970   17.615907   22.243635 H          1 MOL1         0.1026
      19    H13     17.682947   15.900212   22.411501 H          1 MOL1         0.1026
      20    H14     18.604909   17.161498   23.273544 H          1 MOL1         0.1026
@<TRIPOS>BOND
    1     1     2    1
    2     1     3    1
    3     1     4    1
    4     1     5    1
    5     5     6    1
    6     5     7    1
    7     5     8    1
    8     8     9    1
    9     8    10    1
   10     8    11    1
   11    11    12    1
   12    11    13    1
   13    11    14    1
   14    14    15    1
   15    14    16    1
   16    14    17    1
   17    17    18    1
   18    17    19    1
   19    17    20    1
@<TRIPOS>SUBSTRUCTURE
       1 MOL1            1 RESIDUE      1      MOL     
@<SCITEGIC>MOL_PROPERTY
VConf Rank
SciTegic.value.IntegerValue
630

@<SCITEGIC>MOL_PROPERTY
Conf_Id
SciTegic.value.IntegerValue
2

@<SCITEGIC>MOL_PROPERTY
Delta U+W
SciTegic.value.DoubleValue
0.069

@<SCITEGIC>MOL_PROPERTY
U+W
SciTegic.value.DoubleValue
15.407

@<SCITEGIC>MOL_PROPERTY
Grad RMS
SciTegic.value.DoubleValue
0.000000

@<SCITEGIC>MOL_PROPERTY
U
SciTegic.value.DoubleValue
69.657

@<SCITEGIC>MOL_PROPERTY
W
SciTegic.value.DoubleValue
-54.250

@<SCITEGIC>MOL_PROPERTY
W(PB)
SciTegic.value.DoubleValue
-56.176

@<SCITEGIC>MOL_PROPERTY
W(SA)
SciTegic.value.DoubleValue
1.926

@<SCITEGIC>MOL_PROPERTY
Valence
SciTegic.value.DoubleValue
1.137

@<SCITEGIC>MOL_PROPERTY
Coulomb
SciTegic.value.DoubleValue
68.383

@<SCITEGIC>MOL_PROPERTY
VdW
SciTegic.value.DoubleValue
0.138

@<SCITEGIC>MOL_PROPERTY
VdW6
SciTegic.value.DoubleValue
-3.703

@<SCITEGIC>MOL_PROPERTY
VdW12
SciTegic.value.DoubleValue
3.841

@<SCITEGIC>MOL_PROPERTY
Bond
SciTegic.value.DoubleValue
0.125

@<SCITEGIC>MOL_PROPERTY
Angle
SciTegic.value.DoubleValue
0.468

@<SCITEGIC>MOL_PROPERTY
Pdih
SciTegic.value.DoubleValue
0.543

@<SCITEGIC>MOL_PROPERTY
Idih
SciTegic.value.DoubleValue
0.000

@<SCITEGIC>MOL_PROPERTY
Tether
SciTegic.value.DoubleValue
0.000

@<TRIPOS>MOLECULE
guest-s9_confgen4.mol2 : confsearch ligand conformer 631
          20          19           1
SMALL
USER_CHARGES
 
@<TRIPOS>ATOM
       1    C1      22.486603   19.488416   22.719043 C.3        1 MOL1        -0.2224
       2    H1      21.808208   19.502895   23.581385 H          1 MOL1         0.1052
       3    H2      22.932260   18.487555   22.649998 H          1 MOL1         0.1052
       4    H3      23.295829   20.201496   22.923148 H          1 MOL1         0.1052
       5    C2      21.751923   19.862106   21.411033 C.3        1 MOL1        -0.1209
       6    H4      22.484508   19.926164   20.594193 H          1 MOL1         0.1041
       7    H5      21.310589   20.864028   21.508923 H          1 MOL1         0.1041
       8    C3      20.653831   18.844611   21.022346 C.3        1 MOL1        -0.1274
       9    H6      20.230409   19.129895   20.050140 H          1 MOL1         0.1041
      10    H7      21.102635   17.851053   20.890877 H          1 MOL1         0.1041
      11    C4      19.520609   18.767057   22.063997 C.3        1 MOL1         0.0313
      12    H8      19.072484   19.755457   22.192929 H          1 MOL1         0.1015
      13    H9      19.926112   18.445323   23.026193 H          1 MOL1         0.1015
      14    N1      18.416342   17.801364   21.681241 N.4        1 MOL1        -0.4809
      15    H10     18.802851   16.855330   21.540809 H          1 MOL1         0.3726
      16    H11     18.009095   18.067597   20.771640 H          1 MOL1         0.3726
      17    C5      17.343421   17.784468   22.761817 C.3        1 MOL1        -0.0677
      18    H12     16.924948   18.787538   22.869214 H          1 MOL1         0.1026
      19    H13     16.554994   17.085652   22.473643 H          1 MOL1         0.1026
      20    H14     17.789328   17.466893   23.706863 H          1 MOL1         0.1026
@<TRIPOS>BOND
    1     1     2    1
    2     1     3    1
    3     1     4    1
    4     1     5    1
    5     5     6    1
    6     5     7    1
    7     5     8    1
    8     8     9    1
    9     8    10    1
   10     8    11    1
   11    11    12    1
   12    11    13    1
   13    11    14    1
   14    14    15    1
   15    14    16    1
   16    14    17    1
   17    17    18    1
   18    17    19    1
   19    17    20    1
@<TRIPOS>SUBSTRUCTURE
       1 MOL1            1 RESIDUE      1      MOL     
@<SCITEGIC>MOL_PROPERTY
VConf Rank
SciTegic.value.IntegerValue
631

@<SCITEGIC>MOL_PROPERTY
Conf_Id
SciTegic.value.IntegerValue
34

@<SCITEGIC>MOL_PROPERTY
Delta U+W
SciTegic.value.DoubleValue
0.276

@<SCITEGIC>MOL_PROPERTY
U+W
SciTegic.value.DoubleValue
15.615

@<SCITEGIC>MOL_PROPERTY
Grad RMS
SciTegic.value.DoubleValue
0.000000

@<SCITEGIC>MOL_PROPERTY
U
SciTegic.value.DoubleValue
69.798

@<SCITEGIC>MOL_PROPERTY
W
SciTegic.value.DoubleValue
-54.184

@<SCITEGIC>MOL_PROPERTY
W(PB)
SciTegic.value.DoubleValue
-56.116

@<SCITEGIC>MOL_PROPERTY
W(SA)
SciTegic.value.DoubleValue
1.933

@<SCITEGIC>MOL_PROPERTY
Valence
SciTegic.value.DoubleValue
1.134

@<SCITEGIC>MOL_PROPERTY
Coulomb
SciTegic.value.DoubleValue
68.735

@<SCITEGIC>MOL_PROPERTY
VdW
SciTegic.value.DoubleValue
-0.070

@<SCITEGIC>MOL_PROPERTY
VdW6
SciTegic.value.DoubleValue
-3.565

@<SCITEGIC>MOL_PROPERTY
VdW12
SciTegic.value.DoubleValue
3.494

@<SCITEGIC>MOL_PROPERTY
Bond
SciTegic.value.DoubleValue
0.108

@<SCITEGIC>MOL_PROPERTY
Angle
SciTegic.value.DoubleValue
0.456

@<SCITEGIC>MOL_PROPERTY
Pdih
SciTegic.value.DoubleValue
0.569

@<SCITEGIC>MOL_PROPERTY
Idih
SciTegic.value.DoubleValue
0.000

@<SCITEGIC>MOL_PROPERTY
Tether
SciTegic.value.DoubleValue
0.000

@<TRIPOS>MOLECULE
guest-s9_confgen4.mol2 : confsearch ligand conformer 632
          20          19           1
SMALL
USER_CHARGES
 
@<TRIPOS>ATOM
       1    C1      17.005085   18.759273   22.267589 C.3        1 MOL1        -0.2224
       2    H1      16.568381   19.338807   21.443817 H          1 MOL1         0.1052
       3    H2      16.396135   17.855923   22.402357 H          1 MOL1         0.1052
       4    H3      16.926829   19.357320   23.184866 H          1 MOL1         0.1052
       5    C2      18.473837   18.387842   21.969545 C.3        1 MOL1        -0.1209
       6    H4      18.515412   17.764178   21.065312 H          1 MOL1         0.1041
       7    H5      18.863549   17.776346   22.794587 H          1 MOL1         0.1041
       8    C3      19.354183   19.645077   21.775798 C.3        1 MOL1        -0.1274
       9    H6      18.929952   20.264948   20.974753 H          1 MOL1         0.1041
      10    H7      19.339914   20.259120   22.686074 H          1 MOL1         0.1041
      11    C4      20.811880   19.303620   21.406928 C.3        1 MOL1         0.0313
      12    H8      21.356997   20.227267   21.196349 H          1 MOL1         0.1015
      13    H9      20.827681   18.686481   20.505084 H          1 MOL1         0.1015
      14    N1      21.568455   18.564152   22.494434 N.4        1 MOL1        -0.4809
      15    H10     21.088173   17.681595   22.724381 H          1 MOL1         0.3726
      16    H11     21.565103   19.114485   23.366884 H          1 MOL1         0.3726
      17    C5      22.996157   18.291212   22.040551 C.3        1 MOL1        -0.0677
      18    H12     22.975518   17.680345   21.135451 H          1 MOL1         0.1026
      19    H13     23.495821   19.240243   21.834489 H          1 MOL1         0.1026
      20    H14     23.528784   17.759062   22.831825 H          1 MOL1         0.1026
@<TRIPOS>BOND
    1     1     2    1
    2     1     3    1
    3     1     4    1
    4     1     5    1
    5     5     6    1
    6     5     7    1
    7     5     8    1
    8     8     9    1
    9     8    10    1
   10     8    11    1
   11    11    12    1
   12    11    13    1
   13    11    14    1
   14    14    15    1
   15    14    16    1
   16    14    17    1
   17    17    18    1
   18    17    19    1
   19    17    20    1
@<TRIPOS>SUBSTRUCTURE
       1 MOL1            1 RESIDUE      1      MOL     
@<SCITEGIC>MOL_PROPERTY
VConf Rank
SciTegic.value.IntegerValue
632

@<SCITEGIC>MOL_PROPERTY
Conf_Id
SciTegic.value.IntegerValue
50

@<SCITEGIC>MOL_PROPERTY
Delta U+W
SciTegic.value.DoubleValue
0.319

@<SCITEGIC>MOL_PROPERTY
U+W
SciTegic.value.DoubleValue
15.657

@<SCITEGIC>MOL_PROPERTY
Grad RMS
SciTegic.value.DoubleValue
0.000000

@<SCITEGIC>MOL_PROPERTY
U
SciTegic.value.DoubleValue
69.962

@<SCITEGIC>MOL_PROPERTY
W
SciTegic.value.DoubleValue
-54.305

@<SCITEGIC>MOL_PROPERTY
W(PB)
SciTegic.value.DoubleValue
-56.223

@<SCITEGIC>MOL_PROPERTY
W(SA)
SciTegic.value.DoubleValue
1.918

@<SCITEGIC>MOL_PROPERTY
Valence
SciTegic.value.DoubleValue
0.982

@<SCITEGIC>MOL_PROPERTY
Coulomb
SciTegic.value.DoubleValue
69.058

@<SCITEGIC>MOL_PROPERTY
VdW
SciTegic.value.DoubleValue
-0.078

@<SCITEGIC>MOL_PROPERTY
VdW6
SciTegic.value.DoubleValue
-3.548

@<SCITEGIC>MOL_PROPERTY
VdW12
SciTegic.value.DoubleValue
3.471

@<SCITEGIC>MOL_PROPERTY
Bond
SciTegic.value.DoubleValue
0.105

@<SCITEGIC>MOL_PROPERTY
Angle
SciTegic.value.DoubleValue
0.408

@<SCITEGIC>MOL_PROPERTY
Pdih
SciTegic.value.DoubleValue
0.469

@<SCITEGIC>MOL_PROPERTY
Idih
SciTegic.value.DoubleValue
0.000

@<SCITEGIC>MOL_PROPERTY
Tether
SciTegic.value.DoubleValue
0.000

@<TRIPOS>MOLECULE
guest-s9_confgen4.mol2 : confsearch ligand conformer 633
          20          19           1
SMALL
USER_CHARGES
 
@<TRIPOS>ATOM
       1    C1      18.620995   21.412791   21.306956 C.3        1 MOL1        -0.2224
       2    H1      17.866762   21.901991   21.936911 H          1 MOL1         0.1052
       3    H2      19.360367   22.171138   21.018150 H          1 MOL1         0.1052
       4    H3      18.120326   21.059690   20.396004 H          1 MOL1         0.1052
       5    C2      19.288698   20.243903   22.063193 C.3        1 MOL1        -0.1209
       6    H4      18.515149   19.527129   22.370360 H          1 MOL1         0.1041
       7    H5      19.752768   20.623970   22.984341 H          1 MOL1         0.1041
       8    C3      20.356602   19.536602   21.195729 C.3        1 MOL1        -0.1274
       9    H6      19.894465   19.129524   20.286568 H          1 MOL1         0.1041
      10    H7      21.100684   20.273127   20.864435 H          1 MOL1         0.1041
      11    C4      21.089829   18.409545   21.950490 C.3        1 MOL1         0.0313
      12    H8      21.544553   18.811490   22.859391 H          1 MOL1         0.1015
      13    H9      21.887829   18.011401   21.318590 H          1 MOL1         0.1015
      14    N1      20.197890   17.247908   22.346638 N.4        1 MOL1        -0.4809
      15    H10     19.742205   16.848792   21.511709 H          1 MOL1         0.3726
      16    H11     19.428749   17.579152   22.947598 H          1 MOL1         0.3726
      17    C5      21.017349   16.185698   23.067082 C.3        1 MOL1        -0.0677
      18    H12     20.363736   15.356388   23.346411 H          1 MOL1         0.1026
      19    H13     21.804599   15.825628   22.401220 H          1 MOL1         0.1026
      20    H14     21.462728   16.621626   23.963963 H          1 MOL1         0.1026
@<TRIPOS>BOND
    1     1     2    1
    2     1     3    1
    3     1     4    1
    4     1     5    1
    5     5     6    1
    6     5     7    1
    7     5     8    1
    8     8     9    1
    9     8    10    1
   10     8    11    1
   11    11    12    1
   12    11    13    1
   13    11    14    1
   14    14    15    1
   15    14    16    1
   16    14    17    1
   17    17    18    1
   18    17    19    1
   19    17    20    1
@<TRIPOS>SUBSTRUCTURE
       1 MOL1            1 RESIDUE      1      MOL     
@<SCITEGIC>MOL_PROPERTY
VConf Rank
SciTegic.value.IntegerValue
633

@<SCITEGIC>MOL_PROPERTY
Conf_Id
SciTegic.value.IntegerValue
35

@<SCITEGIC>MOL_PROPERTY
Delta U+W
SciTegic.value.DoubleValue
0.360

@<SCITEGIC>MOL_PROPERTY
U+W
SciTegic.value.DoubleValue
15.698

@<SCITEGIC>MOL_PROPERTY
Grad RMS
SciTegic.value.DoubleValue
0.000000

@<SCITEGIC>MOL_PROPERTY
U
SciTegic.value.DoubleValue
69.962

@<SCITEGIC>MOL_PROPERTY
W
SciTegic.value.DoubleValue
-54.264

@<SCITEGIC>MOL_PROPERTY
W(PB)
SciTegic.value.DoubleValue
-56.166

@<SCITEGIC>MOL_PROPERTY
W(SA)
SciTegic.value.DoubleValue
1.902

@<SCITEGIC>MOL_PROPERTY
Valence
SciTegic.value.DoubleValue
0.982

@<SCITEGIC>MOL_PROPERTY
Coulomb
SciTegic.value.DoubleValue
69.058

@<SCITEGIC>MOL_PROPERTY
VdW
SciTegic.value.DoubleValue
-0.078

@<SCITEGIC>MOL_PROPERTY
VdW6
SciTegic.value.DoubleValue
-3.548

@<SCITEGIC>MOL_PROPERTY
VdW12
SciTegic.value.DoubleValue
3.471

@<SCITEGIC>MOL_PROPERTY
Bond
SciTegic.value.DoubleValue
0.105

@<SCITEGIC>MOL_PROPERTY
Angle
SciTegic.value.DoubleValue
0.408

@<SCITEGIC>MOL_PROPERTY
Pdih
SciTegic.value.DoubleValue
0.469

@<SCITEGIC>MOL_PROPERTY
Idih
SciTegic.value.DoubleValue
0.000

@<SCITEGIC>MOL_PROPERTY
Tether
SciTegic.value.DoubleValue
0.000

@<TRIPOS>MOLECULE
guest-s9_confgen4.mol2 : confsearch ligand conformer 634
          20          19           1
SMALL
USER_CHARGES
 
@<TRIPOS>ATOM
       1    C1      19.495782   20.446140   20.154459 C.3        1 MOL1        -0.2224
       2    H1      19.801196   19.546206   19.605907 H          1 MOL1         0.1052
       3    H2      18.925431   21.078219   19.461528 H          1 MOL1         0.1052
       4    H3      20.401251   20.996537   20.441306 H          1 MOL1         0.1052
       5    C2      18.642388   20.093831   21.394542 C.3        1 MOL1        -0.1209
       6    H4      17.746340   19.539879   21.080850 H          1 MOL1         0.1041
       7    H5      18.283800   21.023209   21.858933 H          1 MOL1         0.1041
       8    C3      19.420419   19.272684   22.449178 C.3        1 MOL1        -0.1274
       9    H6      20.293179   19.846764   22.785976 H          1 MOL1         0.1041
      10    H7      18.781713   19.125451   23.330026 H          1 MOL1         0.1041
      11    C4      19.869236   17.895578   21.914755 C.3        1 MOL1         0.0313
      12    H8      20.559815   18.028123   21.078520 H          1 MOL1         0.1015
      13    H9      18.992998   17.355051   21.547867 H          1 MOL1         0.1015
      14    N1      20.549750   17.008762   22.944732 N.4        1 MOL1        -0.4809
      15    H10     20.667564   16.058854   22.558725 H          1 MOL1         0.3726
      16    H11     19.941139   16.885410   23.768198 H          1 MOL1         0.3726
      17    C5      21.906332   17.573722   23.352006 C.3        1 MOL1        -0.0677
      18    H12     21.766936   18.550483   23.819335 H          1 MOL1         0.1026
      19    H13     22.378919   16.892028   24.062581 H          1 MOL1         0.1026
      20    H14     22.535072   17.673948   22.464686 H          1 MOL1         0.1026
@<TRIPOS>BOND
    1     1     2    1
    2     1     3    1
    3     1     4    1
    4     1     5    1
    5     5     6    1
    6     5     7    1
    7     5     8    1
    8     8     9    1
    9     8    10    1
   10     8    11    1
   11    11    12    1
   12    11    13    1
   13    11    14    1
   14    14    15    1
   15    14    16    1
   16    14    17    1
   17    17    18    1
   18    17    19    1
   19    17    20    1
@<TRIPOS>SUBSTRUCTURE
       1 MOL1            1 RESIDUE      1      MOL     
@<SCITEGIC>MOL_PROPERTY
VConf Rank
SciTegic.value.IntegerValue
634

@<SCITEGIC>MOL_PROPERTY
Conf_Id
SciTegic.value.IntegerValue
33

@<SCITEGIC>MOL_PROPERTY
Delta U+W
SciTegic.value.DoubleValue
0.372

@<SCITEGIC>MOL_PROPERTY
U+W
SciTegic.value.DoubleValue
15.711

@<SCITEGIC>MOL_PROPERTY
Grad RMS
SciTegic.value.DoubleValue
0.000000

@<SCITEGIC>MOL_PROPERTY
U
SciTegic.value.DoubleValue
70.163

@<SCITEGIC>MOL_PROPERTY
W
SciTegic.value.DoubleValue
-54.452

@<SCITEGIC>MOL_PROPERTY
W(PB)
SciTegic.value.DoubleValue
-56.363

@<SCITEGIC>MOL_PROPERTY
W(SA)
SciTegic.value.DoubleValue
1.911

@<SCITEGIC>MOL_PROPERTY
Valence
SciTegic.value.DoubleValue
1.420

@<SCITEGIC>MOL_PROPERTY
Coulomb
SciTegic.value.DoubleValue
68.566

@<SCITEGIC>MOL_PROPERTY
VdW
SciTegic.value.DoubleValue
0.177

@<SCITEGIC>MOL_PROPERTY
VdW6
SciTegic.value.DoubleValue
-4.267

@<SCITEGIC>MOL_PROPERTY
VdW12
SciTegic.value.DoubleValue
4.445

@<SCITEGIC>MOL_PROPERTY
Bond
SciTegic.value.DoubleValue
0.146

@<SCITEGIC>MOL_PROPERTY
Angle
SciTegic.value.DoubleValue
0.581

@<SCITEGIC>MOL_PROPERTY
Pdih
SciTegic.value.DoubleValue
0.693

@<SCITEGIC>MOL_PROPERTY
Idih
SciTegic.value.DoubleValue
0.000

@<SCITEGIC>MOL_PROPERTY
Tether
SciTegic.value.DoubleValue
0.000

@<TRIPOS>MOLECULE
guest-s9_confgen4.mol2 : confsearch ligand conformer 635
          20          19           1
SMALL
USER_CHARGES
 
@<TRIPOS>ATOM
       1    C1      18.357942   18.292097   23.801982 C.3        1 MOL1        -0.2224
       2    H1      17.902712   18.042491   24.769161 H          1 MOL1         0.1052
       3    H2      18.295088   19.380567   23.678080 H          1 MOL1         0.1052
       4    H3      17.752599   17.822113   23.015998 H          1 MOL1         0.1052
       5    C2      19.821658   17.797314   23.747790 C.3        1 MOL1        -0.1209
       6    H4      19.844583   16.720514   23.966792 H          1 MOL1         0.1041
       7    H5      20.406146   18.285909   24.540139 H          1 MOL1         0.1041
       8    C3      20.492381   18.045695   22.376544 C.3        1 MOL1        -0.1274
       9    H6      21.497189   17.603190   22.384629 H          1 MOL1         0.1041
      10    H7      19.925510   17.524506   21.594413 H          1 MOL1         0.1041
      11    C4      20.604348   19.547119   22.035001 C.3        1 MOL1         0.0313
      12    H8      21.136587   20.055633   22.842902 H          1 MOL1         0.1015
      13    H9      19.606958   19.986418   21.957654 H          1 MOL1         0.1015
      14    N1      21.347310   19.848155   20.743572 N.4        1 MOL1        -0.4809
      15    H10     22.285694   19.420632   20.763003 H          1 MOL1         0.3726
      16    H11     21.520898   20.863126   20.673516 H          1 MOL1         0.3726
      17    C5      20.559225   19.372861   19.527683 C.3        1 MOL1        -0.0677
      18    H12     21.106069   19.639349   18.620541 H          1 MOL1         0.1026
      19    H13     20.436583   18.289110   19.575947 H          1 MOL1         0.1026
      20    H14     19.580105   19.856591   19.522366 H          1 MOL1         0.1026
@<TRIPOS>BOND
    1     1     2    1
    2     1     3    1
    3     1     4    1
    4     1     5    1
    5     5     6    1
    6     5     7    1
    7     5     8    1
    8     8     9    1
    9     8    10    1
   10     8    11    1
   11    11    12    1
   12    11    13    1
   13    11    14    1
   14    14    15    1
   15    14    16    1
   16    14    17    1
   17    17    18    1
   18    17    19    1
   19    17    20    1
@<TRIPOS>SUBSTRUCTURE
       1 MOL1            1 RESIDUE      1      MOL     
@<SCITEGIC>MOL_PROPERTY
VConf Rank
SciTegic.value.IntegerValue
635

@<SCITEGIC>MOL_PROPERTY
Conf_Id
SciTegic.value.IntegerValue
53

@<SCITEGIC>MOL_PROPERTY
Delta U+W
SciTegic.value.DoubleValue
0.379

@<SCITEGIC>MOL_PROPERTY
U+W
SciTegic.value.DoubleValue
15.717

@<SCITEGIC>MOL_PROPERTY
Grad RMS
SciTegic.value.DoubleValue
0.000000

@<SCITEGIC>MOL_PROPERTY
U
SciTegic.value.DoubleValue
70.163

@<SCITEGIC>MOL_PROPERTY
W
SciTegic.value.DoubleValue
-54.446

@<SCITEGIC>MOL_PROPERTY
W(PB)
SciTegic.value.DoubleValue
-56.322

@<SCITEGIC>MOL_PROPERTY
W(SA)
SciTegic.value.DoubleValue
1.876

@<SCITEGIC>MOL_PROPERTY
Valence
SciTegic.value.DoubleValue
1.420

@<SCITEGIC>MOL_PROPERTY
Coulomb
SciTegic.value.DoubleValue
68.566

@<SCITEGIC>MOL_PROPERTY
VdW
SciTegic.value.DoubleValue
0.177

@<SCITEGIC>MOL_PROPERTY
VdW6
SciTegic.value.DoubleValue
-4.267

@<SCITEGIC>MOL_PROPERTY
VdW12
SciTegic.value.DoubleValue
4.445

@<SCITEGIC>MOL_PROPERTY
Bond
SciTegic.value.DoubleValue
0.146

@<SCITEGIC>MOL_PROPERTY
Angle
SciTegic.value.DoubleValue
0.581

@<SCITEGIC>MOL_PROPERTY
Pdih
SciTegic.value.DoubleValue
0.693

@<SCITEGIC>MOL_PROPERTY
Idih
SciTegic.value.DoubleValue
0.000

@<SCITEGIC>MOL_PROPERTY
Tether
SciTegic.value.DoubleValue
0.000

@<TRIPOS>MOLECULE
guest-s9_confgen4.mol2 : confsearch ligand conformer 636
          20          19           1
SMALL
USER_CHARGES
 
@<TRIPOS>ATOM
       1    C1      22.216392   17.133600   22.677390 C.3        1 MOL1        -0.2224
       2    H1      23.111533   16.891783   22.089812 H          1 MOL1         0.1052
       3    H2      22.527065   17.272132   23.721151 H          1 MOL1         0.1052
       4    H3      21.541833   16.268599   22.633744 H          1 MOL1         0.1052
       5    C2      21.529398   18.402515   22.127974 C.3        1 MOL1        -0.1209
       6    H4      21.268308   18.240684   21.073317 H          1 MOL1         0.1041
       7    H5      22.238621   19.241829   22.155100 H          1 MOL1         0.1041
       8    C3      20.262410   18.764151   22.938333 C.3        1 MOL1        -0.1274
       9    H6      19.539000   17.939965   22.892094 H          1 MOL1         0.1041
      10    H7      20.529685   18.879829   23.997026 H          1 MOL1         0.1041
      11    C4      19.597090   20.073877   22.460182 C.3        1 MOL1         0.0313
      12    H8      20.311612   20.894076   22.566762 H          1 MOL1         0.1015
      13    H9      18.734909   20.296906   23.093739 H          1 MOL1         0.1015
      14    N1      19.118460   20.072721   21.016041 N.4        1 MOL1        -0.4809
      15    H10     19.902760   19.862522   20.381437 H          1 MOL1         0.3726
      16    H11     18.811935   21.022649   20.753547 H          1 MOL1         0.3726
      17    C5      17.975692   19.084240   20.811296 C.3        1 MOL1        -0.0677
      18    H12     17.152782   19.342444   21.481228 H          1 MOL1         0.1026
      19    H13     17.636906   19.138642   19.774380 H          1 MOL1         0.1026
      20    H14     18.327659   18.073940   21.029076 H          1 MOL1         0.1026
@<TRIPOS>BOND
    1     1     2    1
    2     1     3    1
    3     1     4    1
    4     1     5    1
    5     5     6    1
    6     5     7    1
    7     5     8    1
    8     8     9    1
    9     8    10    1
   10     8    11    1
   11    11    12    1
   12    11    13    1
   13    11    14    1
   14    14    15    1
   15    14    16    1
   16    14    17    1
   17    17    18    1
   18    17    19    1
   19    17    20    1
@<TRIPOS>SUBSTRUCTURE
       1 MOL1            1 RESIDUE      1      MOL     
@<SCITEGIC>MOL_PROPERTY
VConf Rank
SciTegic.value.IntegerValue
636

@<SCITEGIC>MOL_PROPERTY
Conf_Id
SciTegic.value.IntegerValue
49

@<SCITEGIC>MOL_PROPERTY
Delta U+W
SciTegic.value.DoubleValue
0.268

@<SCITEGIC>MOL_PROPERTY
U+W
SciTegic.value.DoubleValue
15.607

@<SCITEGIC>MOL_PROPERTY
Grad RMS
SciTegic.value.DoubleValue
0.000000

@<SCITEGIC>MOL_PROPERTY
U
SciTegic.value.DoubleValue
70.298

@<SCITEGIC>MOL_PROPERTY
W
SciTegic.value.DoubleValue
-54.692

@<SCITEGIC>MOL_PROPERTY
W(PB)
SciTegic.value.DoubleValue
-56.576

@<SCITEGIC>MOL_PROPERTY
W(SA)
SciTegic.value.DoubleValue
1.885

@<SCITEGIC>MOL_PROPERTY
Valence
SciTegic.value.DoubleValue
1.245

@<SCITEGIC>MOL_PROPERTY
Coulomb
SciTegic.value.DoubleValue
68.933

@<SCITEGIC>MOL_PROPERTY
VdW
SciTegic.value.DoubleValue
0.120

@<SCITEGIC>MOL_PROPERTY
VdW6
SciTegic.value.DoubleValue
-4.430

@<SCITEGIC>MOL_PROPERTY
VdW12
SciTegic.value.DoubleValue
4.550

@<SCITEGIC>MOL_PROPERTY
Bond
SciTegic.value.DoubleValue
0.148

@<SCITEGIC>MOL_PROPERTY
Angle
SciTegic.value.DoubleValue
0.587

@<SCITEGIC>MOL_PROPERTY
Pdih
SciTegic.value.DoubleValue
0.509

@<SCITEGIC>MOL_PROPERTY
Idih
SciTegic.value.DoubleValue
0.000

@<SCITEGIC>MOL_PROPERTY
Tether
SciTegic.value.DoubleValue
0.000

@<TRIPOS>MOLECULE
guest-s9_confgen4.mol2 : confsearch ligand conformer 637
          20          19           1
SMALL
USER_CHARGES
 
@<TRIPOS>ATOM
       1    C1      22.569030   18.222436   23.013781 C.3        1 MOL1        -0.2224
       2    H1      23.021348   17.630067   22.207755 H          1 MOL1         0.1052
       3    H2      23.145083   19.150892   23.119945 H          1 MOL1         0.1052
       4    H3      22.672907   17.654445   23.947373 H          1 MOL1         0.1052
       5    C2      21.082811   18.519602   22.718529 C.3        1 MOL1        -0.1209
       6    H4      20.651019   19.088349   23.554036 H          1 MOL1         0.1041
       7    H5      20.536628   17.568948   22.659452 H          1 MOL1         0.1041
       8    C3      20.907634   19.310462   21.401154 C.3        1 MOL1        -0.1274
       9    H6      21.550827   20.200001   21.429083 H          1 MOL1         0.1041
      10    H7      21.257257   18.704514   20.554901 H          1 MOL1         0.1041
      11    C4      19.459454   19.779262   21.133138 C.3        1 MOL1         0.0313
      12    H8      19.463240   20.378192   20.218800 H          1 MOL1         0.1015
      13    H9      19.110619   20.419971   21.946835 H          1 MOL1         0.1015
      14    N1      18.437379   18.672089   20.926279 N.4        1 MOL1        -0.4809
      15    H10     18.876298   17.857571   20.471580 H          1 MOL1         0.3726
      16    H11     17.719539   18.992293   20.257561 H          1 MOL1         0.3726
      17    C5      17.762887   18.283662   22.238083 C.3        1 MOL1        -0.0677
      18    H12     17.022621   17.504910   22.041849 H          1 MOL1         0.1026
      19    H13     18.508658   17.910263   22.940727 H          1 MOL1         0.1026
      20    H14     17.267997   19.161295   22.659431 H          1 MOL1         0.1026
@<TRIPOS>BOND
    1     1     2    1
    2     1     3    1
    3     1     4    1
    4     1     5    1
    5     5     6    1
    6     5     7    1
    7     5     8    1
    8     8     9    1
    9     8    10    1
   10     8    11    1
   11    11    12    1
   12    11    13    1
   13    11    14    1
   14    14    15    1
   15    14    16    1
   16    14    17    1
   17    17    18    1
   18    17    19    1
   19    17    20    1
@<TRIPOS>SUBSTRUCTURE
       1 MOL1            1 RESIDUE      1      MOL     
@<SCITEGIC>MOL_PROPERTY
VConf Rank
SciTegic.value.IntegerValue
637

@<SCITEGIC>MOL_PROPERTY
Conf_Id
SciTegic.value.IntegerValue
65

@<SCITEGIC>MOL_PROPERTY
Delta U+W
SciTegic.value.DoubleValue
1.775

@<SCITEGIC>MOL_PROPERTY
U+W
SciTegic.value.DoubleValue
17.114

@<SCITEGIC>MOL_PROPERTY
Grad RMS
SciTegic.value.DoubleValue
0.000000

@<SCITEGIC>MOL_PROPERTY
U
SciTegic.value.DoubleValue
71.726

@<SCITEGIC>MOL_PROPERTY
W
SciTegic.value.DoubleValue
-54.613

@<SCITEGIC>MOL_PROPERTY
W(PB)
SciTegic.value.DoubleValue
-56.495

@<SCITEGIC>MOL_PROPERTY
W(SA)
SciTegic.value.DoubleValue
1.883

@<SCITEGIC>MOL_PROPERTY
Valence
SciTegic.value.DoubleValue
2.885

@<SCITEGIC>MOL_PROPERTY
Coulomb
SciTegic.value.DoubleValue
68.822

@<SCITEGIC>MOL_PROPERTY
VdW
SciTegic.value.DoubleValue
0.019

@<SCITEGIC>MOL_PROPERTY
VdW6
SciTegic.value.DoubleValue
-4.600

@<SCITEGIC>MOL_PROPERTY
VdW12
SciTegic.value.DoubleValue
4.619

@<SCITEGIC>MOL_PROPERTY
Bond
SciTegic.value.DoubleValue
0.152

@<SCITEGIC>MOL_PROPERTY
Angle
SciTegic.value.DoubleValue
0.862

@<SCITEGIC>MOL_PROPERTY
Pdih
SciTegic.value.DoubleValue
1.871

@<SCITEGIC>MOL_PROPERTY
Idih
SciTegic.value.DoubleValue
0.000

@<SCITEGIC>MOL_PROPERTY
Tether
SciTegic.value.DoubleValue
0.000

@<TRIPOS>MOLECULE
guest-s9_confgen4.mol2 : confsearch ligand conformer 638
          20          19           1
SMALL
USER_CHARGES
 
@<TRIPOS>ATOM
       1    C1      21.718343   18.994440   20.313734 C.3        1 MOL1        -0.2224
       2    H1      21.043777   18.132091   20.240804 H          1 MOL1         0.1052
       3    H2      21.841904   19.403968   19.302794 H          1 MOL1         0.1052
       4    H3      22.699143   18.634595   20.650799 H          1 MOL1         0.1052
       5    C2      21.162854   20.073320   21.271658 C.3        1 MOL1        -0.1209
       6    H4      20.183191   20.417212   20.913039 H          1 MOL1         0.1041
       7    H5      21.821961   20.952289   21.240069 H          1 MOL1         0.1041
       8    C3      21.053132   19.585217   22.737848 C.3        1 MOL1        -0.1274
       9    H6      22.056145   19.343270   23.113605 H          1 MOL1         0.1041
      10    H7      20.680291   20.403656   23.367842 H          1 MOL1         0.1041
      11    C4      20.147008   18.349924   22.922117 C.3        1 MOL1         0.0313
      12    H8      20.149018   18.052882   23.973927 H          1 MOL1         0.1015
      13    H9      20.537681   17.516007   22.334134 H          1 MOL1         0.1015
      14    N1      18.704710   18.576878   22.511178 N.4        1 MOL1        -0.4809
      15    H10     18.661310   18.866898   21.523000 H          1 MOL1         0.3726
      16    H11     18.301577   19.360847   23.046691 H          1 MOL1         0.3726
      17    C5      17.895038   17.306186   22.730925 C.3        1 MOL1        -0.0677
      18    H12     17.929625   17.036053   23.788562 H          1 MOL1         0.1026
      19    H13     16.860157   17.483514   22.430014 H          1 MOL1         0.1026
      20    H14     18.320355   16.499869   22.129496 H          1 MOL1         0.1026
@<TRIPOS>BOND
    1     1     2    1
    2     1     3    1
    3     1     4    1
    4     1     5    1
    5     5     6    1
    6     5     7    1
    7     5     8    1
    8     8     9    1
    9     8    10    1
   10     8    11    1
   11    11    12    1
   12    11    13    1
   13    11    14    1
   14    14    15    1
   15    14    16    1
   16    14    17    1
   17    17    18    1
   18    17    19    1
   19    17    20    1
@<TRIPOS>SUBSTRUCTURE
       1 MOL1            1 RESIDUE      1      MOL     
@<SCITEGIC>MOL_PROPERTY
VConf Rank
SciTegic.value.IntegerValue
638

@<SCITEGIC>MOL_PROPERTY
Conf_Id
SciTegic.value.IntegerValue
23

@<SCITEGIC>MOL_PROPERTY
Delta U+W
SciTegic.value.DoubleValue
0.896

@<SCITEGIC>MOL_PROPERTY
U+W
SciTegic.value.DoubleValue
16.234

@<SCITEGIC>MOL_PROPERTY
Grad RMS
SciTegic.value.DoubleValue
0.000000

@<SCITEGIC>MOL_PROPERTY
U
SciTegic.value.DoubleValue
70.374

@<SCITEGIC>MOL_PROPERTY
W
SciTegic.value.DoubleValue
-54.140

@<SCITEGIC>MOL_PROPERTY
W(PB)
SciTegic.value.DoubleValue
-56.046

@<SCITEGIC>MOL_PROPERTY
W(SA)
SciTegic.value.DoubleValue
1.907

@<SCITEGIC>MOL_PROPERTY
Valence
SciTegic.value.DoubleValue
1.257

@<SCITEGIC>MOL_PROPERTY
Coulomb
SciTegic.value.DoubleValue
69.240

@<SCITEGIC>MOL_PROPERTY
VdW
SciTegic.value.DoubleValue
-0.123

@<SCITEGIC>MOL_PROPERTY
VdW6
SciTegic.value.DoubleValue
-4.336

@<SCITEGIC>MOL_PROPERTY
VdW12
SciTegic.value.DoubleValue
4.213

@<SCITEGIC>MOL_PROPERTY
Bond
SciTegic.value.DoubleValue
0.128

@<SCITEGIC>MOL_PROPERTY
Angle
SciTegic.value.DoubleValue
0.603

@<SCITEGIC>MOL_PROPERTY
Pdih
SciTegic.value.DoubleValue
0.526

@<SCITEGIC>MOL_PROPERTY
Idih
SciTegic.value.DoubleValue
0.000

@<SCITEGIC>MOL_PROPERTY
Tether
SciTegic.value.DoubleValue
0.000

@<TRIPOS>MOLECULE
guest-s9_confgen4.mol2 : confsearch ligand conformer 639
          20          19           1
SMALL
USER_CHARGES
 
@<TRIPOS>ATOM
       1    C1      18.131848   17.795660   21.166392 C.3        1 MOL1        -0.2224
       2    H1      17.893082   16.864310   21.696154 H          1 MOL1         0.1052
       3    H2      17.325885   17.986480   20.445981 H          1 MOL1         0.1052
       4    H3      19.055214   17.637560   20.595076 H          1 MOL1         0.1052
       5    C2      18.267671   18.977579   22.153706 C.3        1 MOL1        -0.1209
       6    H4      17.294651   19.156381   22.632524 H          1 MOL1         0.1041
       7    H5      18.505480   19.896192   21.600344 H          1 MOL1         0.1041
       8    C3      19.327371   18.729224   23.256136 C.3        1 MOL1        -0.1274
       9    H6      19.354307   19.590405   23.936859 H          1 MOL1         0.1041
      10    H7      19.019984   17.868472   23.864730 H          1 MOL1         0.1041
      11    C4      20.747873   18.466646   22.713738 C.3        1 MOL1         0.0313
      12    H8      20.738975   17.582761   22.071528 H          1 MOL1         0.1015
      13    H9      21.424353   18.271069   23.549600 H          1 MOL1         0.1015
      14    N1      21.325319   19.619485   21.914912 N.4        1 MOL1        -0.4809
      15    H10     21.348306   20.474856   22.490854 H          1 MOL1         0.3726
      16    H11     20.709172   19.839895   21.118500 H          1 MOL1         0.3726
      17    C5      22.723380   19.265296   21.426548 C.3        1 MOL1        -0.0677
      18    H12     22.669160   18.377206   20.793211 H          1 MOL1         0.1026
      19    H13     23.125953   20.102850   20.852607 H          1 MOL1         0.1026
      20    H14     23.365488   19.066637   22.287360 H          1 MOL1         0.1026
@<TRIPOS>BOND
    1     1     2    1
    2     1     3    1
    3     1     4    1
    4     1     5    1
    5     5     6    1
    6     5     7    1
    7     5     8    1
    8     8     9    1
    9     8    10    1
   10     8    11    1
   11    11    12    1
   12    11    13    1
   13    11    14    1
   14    14    15    1
   15    14    16    1
   16    14    17    1
   17    17    18    1
   18    17    19    1
   19    17    20    1
@<TRIPOS>SUBSTRUCTURE
       1 MOL1            1 RESIDUE      1      MOL     
@<SCITEGIC>MOL_PROPERTY
VConf Rank
SciTegic.value.IntegerValue
639

@<SCITEGIC>MOL_PROPERTY
Conf_Id
SciTegic.value.IntegerValue
24

@<SCITEGIC>MOL_PROPERTY
Delta U+W
SciTegic.value.DoubleValue
0.792

@<SCITEGIC>MOL_PROPERTY
U+W
SciTegic.value.DoubleValue
16.130

@<SCITEGIC>MOL_PROPERTY
Grad RMS
SciTegic.value.DoubleValue
0.000000

@<SCITEGIC>MOL_PROPERTY
U
SciTegic.value.DoubleValue
70.374

@<SCITEGIC>MOL_PROPERTY
W
SciTegic.value.DoubleValue
-54.243

@<SCITEGIC>MOL_PROPERTY
W(PB)
SciTegic.value.DoubleValue
-56.130

@<SCITEGIC>MOL_PROPERTY
W(SA)
SciTegic.value.DoubleValue
1.887

@<SCITEGIC>MOL_PROPERTY
Valence
SciTegic.value.DoubleValue
1.257

@<SCITEGIC>MOL_PROPERTY
Coulomb
SciTegic.value.DoubleValue
69.240

@<SCITEGIC>MOL_PROPERTY
VdW
SciTegic.value.DoubleValue
-0.123

@<SCITEGIC>MOL_PROPERTY
VdW6
SciTegic.value.DoubleValue
-4.336

@<SCITEGIC>MOL_PROPERTY
VdW12
SciTegic.value.DoubleValue
4.213

@<SCITEGIC>MOL_PROPERTY
Bond
SciTegic.value.DoubleValue
0.128

@<SCITEGIC>MOL_PROPERTY
Angle
SciTegic.value.DoubleValue
0.603

@<SCITEGIC>MOL_PROPERTY
Pdih
SciTegic.value.DoubleValue
0.526

@<SCITEGIC>MOL_PROPERTY
Idih
SciTegic.value.DoubleValue
0.000

@<SCITEGIC>MOL_PROPERTY
Tether
SciTegic.value.DoubleValue
0.000

@<TRIPOS>MOLECULE
guest-s9_confgen4.mol2 : confsearch ligand conformer 640
          20          19           1
SMALL
USER_CHARGES
 
@<TRIPOS>ATOM
       1    C1      19.355069   20.231556   23.545162 C.3        1 MOL1        -0.2224
       2    H1      18.819545   21.038179   24.062650 H          1 MOL1         0.1052
       3    H2      18.615833   19.458305   23.305033 H          1 MOL1         0.1052
       4    H3      20.089207   19.816401   24.247908 H          1 MOL1         0.1052
       5    C2      20.041377   20.776339   22.271720 C.3        1 MOL1        -0.1209
       6    H4      20.604888   21.681865   22.537323 H          1 MOL1         0.1041
       7    H5      19.274901   21.096292   21.551825 H          1 MOL1         0.1041
       8    C3      21.012670   19.779434   21.589366 C.3        1 MOL1        -0.1274
       9    H6      21.488640   20.295629   20.745083 H          1 MOL1         0.1041
      10    H7      21.826955   19.509379   22.274723 H          1 MOL1         0.1041
      11    C4      20.337783   18.503786   21.042068 C.3        1 MOL1         0.0313
      12    H8      20.981919   18.057779   20.280025 H          1 MOL1         0.1015
      13    H9      19.385706   18.762354   20.571988 H          1 MOL1         0.1015
      14    N1      20.083015   17.433569   22.086448 N.4        1 MOL1        -0.4809
      15    H10     19.521167   17.820644   22.857887 H          1 MOL1         0.3726
      16    H11     20.973124   17.138804   22.516363 H          1 MOL1         0.3726
      17    C5      19.375953   16.243777   21.451726 C.3        1 MOL1        -0.0677
      18    H12     18.422733   16.573199   21.032654 H          1 MOL1         0.1026
      19    H13     20.005205   15.832208   20.659630 H          1 MOL1         0.1026
      20    H14     19.199404   15.482272   22.214557 H          1 MOL1         0.1026
@<TRIPOS>BOND
    1     1     2    1
    2     1     3    1
    3     1     4    1
    4     1     5    1
    5     5     6    1
    6     5     7    1
    7     5     8    1
    8     8     9    1
    9     8    10    1
   10     8    11    1
   11    11    12    1
   12    11    13    1
   13    11    14    1
   14    14    15    1
   15    14    16    1
   16    14    17    1
   17    17    18    1
   18    17    19    1
   19    17    20    1
@<TRIPOS>SUBSTRUCTURE
       1 MOL1            1 RESIDUE      1      MOL     
@<SCITEGIC>MOL_PROPERTY
VConf Rank
SciTegic.value.IntegerValue
640

@<SCITEGIC>MOL_PROPERTY
Conf_Id
SciTegic.value.IntegerValue
26

@<SCITEGIC>MOL_PROPERTY
Delta U+W
SciTegic.value.DoubleValue
2.888

@<SCITEGIC>MOL_PROPERTY
U+W
SciTegic.value.DoubleValue
18.226

@<SCITEGIC>MOL_PROPERTY
Grad RMS
SciTegic.value.DoubleValue
0.000000

@<SCITEGIC>MOL_PROPERTY
U
SciTegic.value.DoubleValue
72.042

@<SCITEGIC>MOL_PROPERTY
W
SciTegic.value.DoubleValue
-53.816

@<SCITEGIC>MOL_PROPERTY
W(PB)
SciTegic.value.DoubleValue
-55.689

@<SCITEGIC>MOL_PROPERTY
W(SA)
SciTegic.value.DoubleValue
1.873

@<SCITEGIC>MOL_PROPERTY
Valence
SciTegic.value.DoubleValue
2.428

@<SCITEGIC>MOL_PROPERTY
Coulomb
SciTegic.value.DoubleValue
69.829

@<SCITEGIC>MOL_PROPERTY
VdW
SciTegic.value.DoubleValue
-0.215

@<SCITEGIC>MOL_PROPERTY
VdW6
SciTegic.value.DoubleValue
-4.563

@<SCITEGIC>MOL_PROPERTY
VdW12
SciTegic.value.DoubleValue
4.348

@<SCITEGIC>MOL_PROPERTY
Bond
SciTegic.value.DoubleValue
0.137

@<SCITEGIC>MOL_PROPERTY
Angle
SciTegic.value.DoubleValue
0.936

@<SCITEGIC>MOL_PROPERTY
Pdih
SciTegic.value.DoubleValue
1.356

@<SCITEGIC>MOL_PROPERTY
Idih
SciTegic.value.DoubleValue
0.000

@<SCITEGIC>MOL_PROPERTY
Tether
SciTegic.value.DoubleValue
0.000

@<TRIPOS>MOLECULE
guest-s9_confgen4.mol2 : confsearch ligand conformer 641
          20          19           1
SMALL
USER_CHARGES
 
@<TRIPOS>ATOM
       1    C1      18.948196   18.797384   23.901719 C.3        1 MOL1        -0.2224
       2    H1      18.358836   18.422666   24.748749 H          1 MOL1         0.1052
       3    H2      19.010048   19.889237   23.997620 H          1 MOL1         0.1052
       4    H3      18.391425   18.551426   22.989819 H          1 MOL1         0.1052
       5    C2      20.353067   18.152561   23.900842 C.3        1 MOL1        -0.1209
       6    H4      20.260237   17.074353   23.708604 H          1 MOL1         0.1041
       7    H5      20.781886   18.245179   24.908613 H          1 MOL1         0.1041
       8    C3      21.346074   18.778299   22.888308 C.3        1 MOL1        -0.1274
       9    H6      21.505677   19.840526   23.116139 H          1 MOL1         0.1041
      10    H7      22.320622   18.291288   23.025766 H          1 MOL1         0.1041
      11    C4      20.939761   18.610527   21.408765 C.3        1 MOL1         0.0313
      12    H8      20.539961   17.606368   21.247187 H          1 MOL1         0.1015
      13    H9      21.825688   18.727884   20.779556 H          1 MOL1         0.1015
      14    N1      19.916252   19.619154   20.922861 N.4        1 MOL1        -0.4809
      15    H10     20.286636   20.576591   21.023540 H          1 MOL1         0.3726
      16    H11     19.077643   19.585700   21.519716 H          1 MOL1         0.3726
      17    C5      19.553830   19.335949   19.471360 C.3        1 MOL1        -0.0677
      18    H12     19.134237   18.330545   19.394725 H          1 MOL1         0.1026
      19    H13     18.817105   20.069092   19.135641 H          1 MOL1         0.1026
      20    H14     20.452761   19.409021   18.855446 H          1 MOL1         0.1026
@<TRIPOS>BOND
    1     1     2    1
    2     1     3    1
    3     1     4    1
    4     1     5    1
    5     5     6    1
    6     5     7    1
    7     5     8    1
    8     8     9    1
    9     8    10    1
   10     8    11    1
   11    11    12    1
   12    11    13    1
   13    11    14    1
   14    14    15    1
   15    14    16    1
   16    14    17    1
   17    17    18    1
   18    17    19    1
   19    17    20    1
@<TRIPOS>SUBSTRUCTURE
       1 MOL1            1 RESIDUE      1      MOL     
@<SCITEGIC>MOL_PROPERTY
VConf Rank
SciTegic.value.IntegerValue
641

@<SCITEGIC>MOL_PROPERTY
Conf_Id
SciTegic.value.IntegerValue
5

@<SCITEGIC>MOL_PROPERTY
Delta U+W
SciTegic.value.DoubleValue
2.950

@<SCITEGIC>MOL_PROPERTY
U+W
SciTegic.value.DoubleValue
18.289

@<SCITEGIC>MOL_PROPERTY
Grad RMS
SciTegic.value.DoubleValue
0.000000

@<SCITEGIC>MOL_PROPERTY
U
SciTegic.value.DoubleValue
72.042

@<SCITEGIC>MOL_PROPERTY
W
SciTegic.value.DoubleValue
-53.753

@<SCITEGIC>MOL_PROPERTY
W(PB)
SciTegic.value.DoubleValue
-55.644

@<SCITEGIC>MOL_PROPERTY
W(SA)
SciTegic.value.DoubleValue
1.891

@<SCITEGIC>MOL_PROPERTY
Valence
SciTegic.value.DoubleValue
2.428

@<SCITEGIC>MOL_PROPERTY
Coulomb
SciTegic.value.DoubleValue
69.829

@<SCITEGIC>MOL_PROPERTY
VdW
SciTegic.value.DoubleValue
-0.215

@<SCITEGIC>MOL_PROPERTY
VdW6
SciTegic.value.DoubleValue
-4.563

@<SCITEGIC>MOL_PROPERTY
VdW12
SciTegic.value.DoubleValue
4.348

@<SCITEGIC>MOL_PROPERTY
Bond
SciTegic.value.DoubleValue
0.137

@<SCITEGIC>MOL_PROPERTY
Angle
SciTegic.value.DoubleValue
0.936

@<SCITEGIC>MOL_PROPERTY
Pdih
SciTegic.value.DoubleValue
1.356

@<SCITEGIC>MOL_PROPERTY
Idih
SciTegic.value.DoubleValue
0.000

@<SCITEGIC>MOL_PROPERTY
Tether
SciTegic.value.DoubleValue
0.000

@<TRIPOS>MOLECULE
guest-s9_confgen4.mol2 : confsearch ligand conformer 642
          20          19           1
SMALL
USER_CHARGES
 
@<TRIPOS>ATOM
       1    C1      19.354454   18.970324   19.676913 C.3        1 MOL1        -0.2224
       2    H1      18.507798   18.307685   19.455234 H          1 MOL1         0.1052
       3    H2      18.966238   19.864676   20.180101 H          1 MOL1         0.1052
       4    H3      19.787587   19.290537   18.720447 H          1 MOL1         0.1052
       5    C2      20.415575   18.246797   20.537536 C.3        1 MOL1        -0.1209
       6    H4      21.253245   18.927142   20.742967 H          1 MOL1         0.1041
       7    H5      20.837484   17.413551   19.958238 H          1 MOL1         0.1041
       8    C3      19.844236   17.691579   21.865920 C.3        1 MOL1        -0.1274
       9    H6      19.073463   16.942385   21.641978 H          1 MOL1         0.1041
      10    H7      20.635369   17.157256   22.407545 H          1 MOL1         0.1041
      11    C4      19.228221   18.770845   22.785290 C.3        1 MOL1         0.0313
      12    H8      18.851847   18.301907   23.697901 H          1 MOL1         0.1015
      13    H9      18.380341   19.232355   22.273247 H          1 MOL1         0.1015
      14    N1      20.174568   19.888341   23.196329 N.4        1 MOL1        -0.4809
      15    H10     19.645824   20.626757   23.686459 H          1 MOL1         0.3726
      16    H11     20.562275   20.347829   22.359275 H          1 MOL1         0.3726
      17    C5      21.290850   19.366197   24.094050 C.3        1 MOL1        -0.0677
      18    H12     21.882235   18.630575   23.545312 H          1 MOL1         0.1026
      19    H13     21.929276   20.200324   24.393303 H          1 MOL1         0.1026
      20    H14     20.852099   18.902372   24.980051 H          1 MOL1         0.1026
@<TRIPOS>BOND
    1     1     2    1
    2     1     3    1
    3     1     4    1
    4     1     5    1
    5     5     6    1
    6     5     7    1
    7     5     8    1
    8     8     9    1
    9     8    10    1
   10     8    11    1
   11    11    12    1
   12    11    13    1
   13    11    14    1
   14    14    15    1
   15    14    16    1
   16    14    17    1
   17    17    18    1
   18    17    19    1
   19    17    20    1
@<TRIPOS>SUBSTRUCTURE
       1 MOL1            1 RESIDUE      1      MOL     
@<SCITEGIC>MOL_PROPERTY
VConf Rank
SciTegic.value.IntegerValue
642

@<SCITEGIC>MOL_PROPERTY
Conf_Id
SciTegic.value.IntegerValue
52

@<SCITEGIC>MOL_PROPERTY
Delta U+W
SciTegic.value.DoubleValue
0.784

@<SCITEGIC>MOL_PROPERTY
U+W
SciTegic.value.DoubleValue
16.122

@<SCITEGIC>MOL_PROPERTY
Grad RMS
SciTegic.value.DoubleValue
0.000000

@<SCITEGIC>MOL_PROPERTY
U
SciTegic.value.DoubleValue
70.777

@<SCITEGIC>MOL_PROPERTY
W
SciTegic.value.DoubleValue
-54.655

@<SCITEGIC>MOL_PROPERTY
W(PB)
SciTegic.value.DoubleValue
-56.491

@<SCITEGIC>MOL_PROPERTY
W(SA)
SciTegic.value.DoubleValue
1.836

@<SCITEGIC>MOL_PROPERTY
Valence
SciTegic.value.DoubleValue
1.529

@<SCITEGIC>MOL_PROPERTY
Coulomb
SciTegic.value.DoubleValue
69.166

@<SCITEGIC>MOL_PROPERTY
VdW
SciTegic.value.DoubleValue
0.082

@<SCITEGIC>MOL_PROPERTY
VdW6
SciTegic.value.DoubleValue
-5.166

@<SCITEGIC>MOL_PROPERTY
VdW12
SciTegic.value.DoubleValue
5.248

@<SCITEGIC>MOL_PROPERTY
Bond
SciTegic.value.DoubleValue
0.171

@<SCITEGIC>MOL_PROPERTY
Angle
SciTegic.value.DoubleValue
0.752

@<SCITEGIC>MOL_PROPERTY
Pdih
SciTegic.value.DoubleValue
0.605

@<SCITEGIC>MOL_PROPERTY
Idih
SciTegic.value.DoubleValue
0.000

@<SCITEGIC>MOL_PROPERTY
Tether
SciTegic.value.DoubleValue
0.000

@<TRIPOS>MOLECULE
guest-s9_confgen4.mol2 : confsearch ligand conformer 643
          20          19           1
SMALL
USER_CHARGES
 
@<TRIPOS>ATOM
       1    C1      18.271505   18.983103   23.166541 C.3        1 MOL1        -0.2224
       2    H1      17.415840   18.874795   23.845713 H          1 MOL1         0.1052
       3    H2      18.917636   19.761962   23.587310 H          1 MOL1         0.1052
       4    H3      17.885865   19.326636   22.197740 H          1 MOL1         0.1052
       5    C2      19.018851   17.637076   23.028523 C.3        1 MOL1        -0.1209
       6    H4      18.280731   16.847163   22.830429 H          1 MOL1         0.1041
       7    H5      19.489911   17.378378   23.987270 H          1 MOL1         0.1041
       8    C3      20.079746   17.605029   21.898788 C.3        1 MOL1        -0.1274
       9    H6      20.472243   16.581555   21.835295 H          1 MOL1         0.1041
      10    H7      19.607104   17.802179   20.928405 H          1 MOL1         0.1041
      11    C4      21.281806   18.552919   22.118123 C.3        1 MOL1         0.0313
      12    H8      22.111591   18.234429   21.482164 H          1 MOL1         0.1015
      13    H9      21.610696   18.476953   23.157608 H          1 MOL1         0.1015
      14    N1      21.029268   20.021460   21.814608 N.4        1 MOL1        -0.4809
      15    H10     21.815959   20.587689   22.169095 H          1 MOL1         0.3726
      16    H11     20.203116   20.352045   22.332322 H          1 MOL1         0.3726
      17    C5      20.857523   20.255185   20.317744 C.3        1 MOL1        -0.0677
      18    H12     21.752372   19.910259   19.795334 H          1 MOL1         0.1026
      19    H13     19.985318   19.703744   19.961670 H          1 MOL1         0.1026
      20    H14     20.714638   21.322732   20.136528 H          1 MOL1         0.1026
@<TRIPOS>BOND
    1     1     2    1
    2     1     3    1
    3     1     4    1
    4     1     5    1
    5     5     6    1
    6     5     7    1
    7     5     8    1
    8     8     9    1
    9     8    10    1
   10     8    11    1
   11    11    12    1
   12    11    13    1
   13    11    14    1
   14    14    15    1
   15    14    16    1
   16    14    17    1
   17    17    18    1
   18    17    19    1
   19    17    20    1
@<TRIPOS>SUBSTRUCTURE
       1 MOL1            1 RESIDUE      1      MOL     
@<SCITEGIC>MOL_PROPERTY
VConf Rank
SciTegic.value.IntegerValue
643

@<SCITEGIC>MOL_PROPERTY
Conf_Id
SciTegic.value.IntegerValue
55

@<SCITEGIC>MOL_PROPERTY
Delta U+W
SciTegic.value.DoubleValue
2.745

@<SCITEGIC>MOL_PROPERTY
U+W
SciTegic.value.DoubleValue
18.083

@<SCITEGIC>MOL_PROPERTY
Grad RMS
SciTegic.value.DoubleValue
0.000000

@<SCITEGIC>MOL_PROPERTY
U
SciTegic.value.DoubleValue
72.490

@<SCITEGIC>MOL_PROPERTY
W
SciTegic.value.DoubleValue
-54.407

@<SCITEGIC>MOL_PROPERTY
W(PB)
SciTegic.value.DoubleValue
-56.269

@<SCITEGIC>MOL_PROPERTY
W(SA)
SciTegic.value.DoubleValue
1.861

@<SCITEGIC>MOL_PROPERTY
Valence
SciTegic.value.DoubleValue
2.738

@<SCITEGIC>MOL_PROPERTY
Coulomb
SciTegic.value.DoubleValue
69.795

@<SCITEGIC>MOL_PROPERTY
VdW
SciTegic.value.DoubleValue
-0.043

@<SCITEGIC>MOL_PROPERTY
VdW6
SciTegic.value.DoubleValue
-5.333

@<SCITEGIC>MOL_PROPERTY
VdW12
SciTegic.value.DoubleValue
5.290

@<SCITEGIC>MOL_PROPERTY
Bond
SciTegic.value.DoubleValue
0.182

@<SCITEGIC>MOL_PROPERTY
Angle
SciTegic.value.DoubleValue
1.135

@<SCITEGIC>MOL_PROPERTY
Pdih
SciTegic.value.DoubleValue
1.422

@<SCITEGIC>MOL_PROPERTY
Idih
SciTegic.value.DoubleValue
0.000

@<SCITEGIC>MOL_PROPERTY
Tether
SciTegic.value.DoubleValue
0.000

@<TRIPOS>MOLECULE
guest-s9_confgen4.mol2 : confsearch ligand conformer 644
          20          19           1
SMALL
USER_CHARGES
 
@<TRIPOS>ATOM
       1    C1      20.283518   20.291680   23.501632 C.3        1 MOL1        -0.2224
       2    H1      20.497023   21.164560   24.132238 H          1 MOL1         0.1052
       3    H2      19.447045   19.747354   23.959158 H          1 MOL1         0.1052
       4    H3      21.175287   19.654962   23.523730 H          1 MOL1         0.1052
       5    C2      19.941259   20.741744   22.062996 C.3        1 MOL1        -0.1209
       6    H4      20.833215   21.179271   21.592888 H          1 MOL1         0.1041
       7    H5      19.199631   21.551056   22.118004 H          1 MOL1         0.1041
       8    C3      19.369992   19.619985   21.158483 C.3        1 MOL1        -0.1274
       9    H6      18.444589   19.218514   21.590171 H          1 MOL1         0.1041
      10    H7      19.078662   20.074787   20.202518 H          1 MOL1         0.1041
      11    C4      20.363147   18.476105   20.847461 C.3        1 MOL1         0.0313
      12    H8      21.338649   18.906404   20.607238 H          1 MOL1         0.1015
      13    H9      20.015693   17.927289   19.968541 H          1 MOL1         0.1015
      14    N1      20.563659   17.455266   21.956601 N.4        1 MOL1        -0.4809
      15    H10     20.816905   17.931644   22.833395 H          1 MOL1         0.3726
      16    H11     21.371971   16.854481   21.731103 H          1 MOL1         0.3726
      17    C5      19.318874   16.596089   22.149067 C.3        1 MOL1        -0.0677
      18    H12     18.482732   17.230168   22.449783 H          1 MOL1         0.1026
      19    H13     19.081975   16.091496   21.209969 H          1 MOL1         0.1026
      20    H14     19.513328   15.853798   22.926307 H          1 MOL1         0.1026
@<TRIPOS>BOND
    1     1     2    1
    2     1     3    1
    3     1     4    1
    4     1     5    1
    5     5     6    1
    6     5     7    1
    7     5     8    1
    8     8     9    1
    9     8    10    1
   10     8    11    1
   11    11    12    1
   12    11    13    1
   13    11    14    1
   14    14    15    1
   15    14    16    1
   16    14    17    1
   17    17    18    1
   18    17    19    1
   19    17    20    1
@<TRIPOS>SUBSTRUCTURE
       1 MOL1            1 RESIDUE      1      MOL     
@<SCITEGIC>MOL_PROPERTY
VConf Rank
SciTegic.value.IntegerValue
644

@<SCITEGIC>MOL_PROPERTY
Conf_Id
SciTegic.value.IntegerValue
76

@<SCITEGIC>MOL_PROPERTY
Delta U+W
SciTegic.value.DoubleValue
2.799

@<SCITEGIC>MOL_PROPERTY
U+W
SciTegic.value.DoubleValue
18.137

@<SCITEGIC>MOL_PROPERTY
Grad RMS
SciTegic.value.DoubleValue
0.000000

@<SCITEGIC>MOL_PROPERTY
U
SciTegic.value.DoubleValue
72.490

@<SCITEGIC>MOL_PROPERTY
W
SciTegic.value.DoubleValue
-54.353

@<SCITEGIC>MOL_PROPERTY
W(PB)
SciTegic.value.DoubleValue
-56.201

@<SCITEGIC>MOL_PROPERTY
W(SA)
SciTegic.value.DoubleValue
1.848

@<SCITEGIC>MOL_PROPERTY
Valence
SciTegic.value.DoubleValue
2.738

@<SCITEGIC>MOL_PROPERTY
Coulomb
SciTegic.value.DoubleValue
69.795

@<SCITEGIC>MOL_PROPERTY
VdW
SciTegic.value.DoubleValue
-0.043

@<SCITEGIC>MOL_PROPERTY
VdW6
SciTegic.value.DoubleValue
-5.334

@<SCITEGIC>MOL_PROPERTY
VdW12
SciTegic.value.DoubleValue
5.290

@<SCITEGIC>MOL_PROPERTY
Bond
SciTegic.value.DoubleValue
0.182

@<SCITEGIC>MOL_PROPERTY
Angle
SciTegic.value.DoubleValue
1.135

@<SCITEGIC>MOL_PROPERTY
Pdih
SciTegic.value.DoubleValue
1.421

@<SCITEGIC>MOL_PROPERTY
Idih
SciTegic.value.DoubleValue
0.000

@<SCITEGIC>MOL_PROPERTY
Tether
SciTegic.value.DoubleValue
0.000

@<TRIPOS>MOLECULE
guest-s9_confgen4.mol2 : confsearch ligand conformer 645
          20          19           1
SMALL
USER_CHARGES
 
@<TRIPOS>ATOM
       1    C1      20.221548   19.523148   20.012704 C.3        1 MOL1        -0.2224
       2    H1      20.244840   20.268591   20.816958 H          1 MOL1         0.1052
       3    H2      21.215367   19.492354   19.547593 H          1 MOL1         0.1052
       4    H3      19.508758   19.874489   19.255515 H          1 MOL1         0.1052
       5    C2      19.811498   18.127886   20.537741 C.3        1 MOL1        -0.1209
       6    H4      19.733517   17.438000   19.685796 H          1 MOL1         0.1041
       7    H5      18.807383   18.170395   20.978996 H          1 MOL1         0.1041
       8    C3      20.818621   17.542760   21.557926 C.3        1 MOL1        -0.1274
       9    H6      20.491705   16.537866   21.855789 H          1 MOL1         0.1041
      10    H7      21.786524   17.407761   21.057342 H          1 MOL1         0.1041
      11    C4      21.047089   18.396656   22.827313 C.3        1 MOL1         0.0313
      12    H8      21.364878   19.406817   22.558704 H          1 MOL1         0.1015
      13    H9      21.858438   17.936704   23.397246 H          1 MOL1         0.1015
      14    N1      19.859673   18.499835   23.773009 N.4        1 MOL1        -0.4809
      15    H10     20.204307   18.591800   24.741291 H          1 MOL1         0.3726
      16    H11     19.319895   17.621618   23.768719 H          1 MOL1         0.3726
      17    C5      18.975949   19.697375   23.441081 C.3        1 MOL1        -0.0677
      18    H12     18.157244   19.747398   24.162294 H          1 MOL1         0.1026
      19    H13     19.572761   20.609989   23.500593 H          1 MOL1         0.1026
      20    H14     18.569977   19.588651   22.434907 H          1 MOL1         0.1026
@<TRIPOS>BOND
    1     1     2    1
    2     1     3    1
    3     1     4    1
    4     1     5    1
    5     5     6    1
    6     5     7    1
    7     5     8    1
    8     8     9    1
    9     8    10    1
   10     8    11    1
   11    11    12    1
   12    11    13    1
   13    11    14    1
   14    14    15    1
   15    14    16    1
   16    14    17    1
   17    17    18    1
   18    17    19    1
   19    17    20    1
@<TRIPOS>SUBSTRUCTURE
       1 MOL1            1 RESIDUE      1      MOL     
@<SCITEGIC>MOL_PROPERTY
VConf Rank
SciTegic.value.IntegerValue
645

@<SCITEGIC>MOL_PROPERTY
Conf_Id
SciTegic.value.IntegerValue
60

@<SCITEGIC>MOL_PROPERTY
Delta U+W
SciTegic.value.DoubleValue
1.788

@<SCITEGIC>MOL_PROPERTY
U+W
SciTegic.value.DoubleValue
17.127

@<SCITEGIC>MOL_PROPERTY
Grad RMS
SciTegic.value.DoubleValue
0.000000

@<SCITEGIC>MOL_PROPERTY
U
SciTegic.value.DoubleValue
72.122

@<SCITEGIC>MOL_PROPERTY
W
SciTegic.value.DoubleValue
-54.995

@<SCITEGIC>MOL_PROPERTY
W(PB)
SciTegic.value.DoubleValue
-56.810

@<SCITEGIC>MOL_PROPERTY
W(SA)
SciTegic.value.DoubleValue
1.815

@<SCITEGIC>MOL_PROPERTY
Valence
SciTegic.value.DoubleValue
3.197

@<SCITEGIC>MOL_PROPERTY
Coulomb
SciTegic.value.DoubleValue
69.115

@<SCITEGIC>MOL_PROPERTY
VdW
SciTegic.value.DoubleValue
-0.190

@<SCITEGIC>MOL_PROPERTY
VdW6
SciTegic.value.DoubleValue
-5.585

@<SCITEGIC>MOL_PROPERTY
VdW12
SciTegic.value.DoubleValue
5.395

@<SCITEGIC>MOL_PROPERTY
Bond
SciTegic.value.DoubleValue
0.177

@<SCITEGIC>MOL_PROPERTY
Angle
SciTegic.value.DoubleValue
1.207

@<SCITEGIC>MOL_PROPERTY
Pdih
SciTegic.value.DoubleValue
1.813

@<SCITEGIC>MOL_PROPERTY
Idih
SciTegic.value.DoubleValue
0.000

@<SCITEGIC>MOL_PROPERTY
Tether
SciTegic.value.DoubleValue
0.000

@<TRIPOS>MOLECULE
guest-s9_confgen4.mol2 : confsearch ligand conformer 646
          20          19           1
SMALL
USER_CHARGES
 
@<TRIPOS>ATOM
       1    C1      20.878483   17.795084   23.748595 C.3        1 MOL1        -0.2224
       2    H1      21.092865   16.755493   24.028121 H          1 MOL1         0.1052
       3    H2      21.252452   18.441555   24.553065 H          1 MOL1         0.1052
       4    H3      19.788450   17.907182   23.700482 H          1 MOL1         0.1052
       5    C2      21.549414   18.143615   22.399915 C.3        1 MOL1        -0.1209
       6    H4      21.182172   17.474424   21.611195 H          1 MOL1         0.1041
       7    H5      22.627669   17.946518   22.479618 H          1 MOL1         0.1041
       8    C3      21.345703   19.621135   21.984119 C.3        1 MOL1        -0.1274
       9    H6      21.819855   20.265683   22.736039 H          1 MOL1         0.1041
      10    H7      21.881145   19.811379   21.044695 H          1 MOL1         0.1041
      11    C4      19.873201   20.067579   21.825685 C.3        1 MOL1         0.0313
      12    H8      19.868626   21.146561   21.651202 H          1 MOL1         0.1015
      13    H9      19.313965   19.880389   22.745348 H          1 MOL1         0.1015
      14    N1      19.116786   19.439276   20.664645 N.4        1 MOL1        -0.4809
      15    H10     19.750753   19.279298   19.867689 H          1 MOL1         0.3726
      16    H11     18.416714   20.110833   20.312921 H          1 MOL1         0.3726
      17    C5      18.410934   18.153207   21.080629 C.3        1 MOL1        -0.0677
      18    H12     17.716900   18.373081   21.894609 H          1 MOL1         0.1026
      19    H13     17.858968   17.756595   20.225667 H          1 MOL1         0.1026
      20    H14     19.146226   17.419617   21.412610 H          1 MOL1         0.1026
@<TRIPOS>BOND
    1     1     2    1
    2     1     3    1
    3     1     4    1
    4     1     5    1
    5     5     6    1
    6     5     7    1
    7     5     8    1
    8     8     9    1
    9     8    10    1
   10     8    11    1
   11    11    12    1
   12    11    13    1
   13    11    14    1
   14    14    15    1
   15    14    16    1
   16    14    17    1
   17    17    18    1
   18    17    19    1
   19    17    20    1
@<TRIPOS>SUBSTRUCTURE
       1 MOL1            1 RESIDUE      1      MOL     
@<SCITEGIC>MOL_PROPERTY
VConf Rank
SciTegic.value.IntegerValue
646

@<SCITEGIC>MOL_PROPERTY
Conf_Id
SciTegic.value.IntegerValue
54

@<SCITEGIC>MOL_PROPERTY
Delta U+W
SciTegic.value.DoubleValue
1.880

@<SCITEGIC>MOL_PROPERTY
U+W
SciTegic.value.DoubleValue
17.218

@<SCITEGIC>MOL_PROPERTY
Grad RMS
SciTegic.value.DoubleValue
0.000000

@<SCITEGIC>MOL_PROPERTY
U
SciTegic.value.DoubleValue
72.122

@<SCITEGIC>MOL_PROPERTY
W
SciTegic.value.DoubleValue
-54.903

@<SCITEGIC>MOL_PROPERTY
W(PB)
SciTegic.value.DoubleValue
-56.724

@<SCITEGIC>MOL_PROPERTY
W(SA)
SciTegic.value.DoubleValue
1.821

@<SCITEGIC>MOL_PROPERTY
Valence
SciTegic.value.DoubleValue
3.197

@<SCITEGIC>MOL_PROPERTY
Coulomb
SciTegic.value.DoubleValue
69.115

@<SCITEGIC>MOL_PROPERTY
VdW
SciTegic.value.DoubleValue
-0.190

@<SCITEGIC>MOL_PROPERTY
VdW6
SciTegic.value.DoubleValue
-5.585

@<SCITEGIC>MOL_PROPERTY
VdW12
SciTegic.value.DoubleValue
5.395

@<SCITEGIC>MOL_PROPERTY
Bond
SciTegic.value.DoubleValue
0.177

@<SCITEGIC>MOL_PROPERTY
Angle
SciTegic.value.DoubleValue
1.207

@<SCITEGIC>MOL_PROPERTY
Pdih
SciTegic.value.DoubleValue
1.813

@<SCITEGIC>MOL_PROPERTY
Idih
SciTegic.value.DoubleValue
0.000

@<SCITEGIC>MOL_PROPERTY
Tether
SciTegic.value.DoubleValue
0.000

@<TRIPOS>MOLECULE
guest-s9_confgen4.mol2 : confsearch ligand conformer 647
          20          19           1
SMALL
USER_CHARGES
 
@<TRIPOS>ATOM
       1    C1      22.628758   20.717862   21.774890 C.3        1 MOL1        -0.2224
       2    H1      22.955591   20.631076   22.819315 H          1 MOL1         0.1052
       3    H2      23.526363   20.764807   21.144710 H          1 MOL1         0.1052
       4    H3      22.089901   21.667809   21.663486 H          1 MOL1         0.1052
       5    C2      21.739179   19.522750   21.369194 C.3        1 MOL1        -0.1209
       6    H4      22.316264   18.591373   21.457849 H          1 MOL1         0.1041
       7    H5      21.457314   19.619996   20.311154 H          1 MOL1         0.1041
       8    C3      20.467001   19.431640   22.240414 C.3        1 MOL1        -0.1274
       9    H6      20.749458   19.330994   23.296849 H          1 MOL1         0.1041
      10    H7      19.889388   20.361110   22.148689 H          1 MOL1         0.1041
      11    C4      19.585305   18.237702   21.829678 C.3        1 MOL1         0.0313
      12    H8      20.152337   17.309288   21.934603 H          1 MOL1         0.1015
      13    H9      19.289387   18.342796   20.782837 H          1 MOL1         0.1015
      14    N1      18.322855   18.108027   22.659201 N.4        1 MOL1        -0.4809
      15    H10     17.761862   18.971134   22.592194 H          1 MOL1         0.3726
      16    H11     18.560843   18.014189   23.658556 H          1 MOL1         0.3726
      17    C5      17.512893   16.907335   22.188587 C.3        1 MOL1        -0.0677
      18    H12     18.113269   16.001908   22.300645 H          1 MOL1         0.1026
      19    H13     16.607414   16.825814   22.793957 H          1 MOL1         0.1026
      20    H14     17.242934   17.044240   21.139212 H          1 MOL1         0.1026
@<TRIPOS>BOND
    1     1     2    1
    2     1     3    1
    3     1     4    1
    4     1     5    1
    5     5     6    1
    6     5     7    1
    7     5     8    1
    8     8     9    1
    9     8    10    1
   10     8    11    1
   11    11    12    1
   12    11    13    1
   13    11    14    1
   14    14    15    1
   15    14    16    1
   16    14    17    1
   17    17    18    1
   18    17    19    1
   19    17    20    1
@<TRIPOS>SUBSTRUCTURE
       1 MOL1            1 RESIDUE      1      MOL     
@<SCITEGIC>MOL_PROPERTY
VConf Rank
SciTegic.value.IntegerValue
647

@<SCITEGIC>MOL_PROPERTY
Conf_Id
SciTegic.value.IntegerValue
67

@<SCITEGIC>MOL_PROPERTY
Delta U+W
SciTegic.value.DoubleValue
0.000

@<SCITEGIC>MOL_PROPERTY
U+W
SciTegic.value.DoubleValue
15.338

@<SCITEGIC>MOL_PROPERTY
Grad RMS
SciTegic.value.DoubleValue
0.000000

@<SCITEGIC>MOL_PROPERTY
U
SciTegic.value.DoubleValue
69.277

@<SCITEGIC>MOL_PROPERTY
W
SciTegic.value.DoubleValue
-53.939

@<SCITEGIC>MOL_PROPERTY
W(PB)
SciTegic.value.DoubleValue
-55.889

@<SCITEGIC>MOL_PROPERTY
W(SA)
SciTegic.value.DoubleValue
1.950

@<SCITEGIC>MOL_PROPERTY
Valence
SciTegic.value.DoubleValue
0.846

@<SCITEGIC>MOL_PROPERTY
Coulomb
SciTegic.value.DoubleValue
68.557

@<SCITEGIC>MOL_PROPERTY
VdW
SciTegic.value.DoubleValue
-0.127

@<SCITEGIC>MOL_PROPERTY
VdW6
SciTegic.value.DoubleValue
-3.008

@<SCITEGIC>MOL_PROPERTY
VdW12
SciTegic.value.DoubleValue
2.882

@<SCITEGIC>MOL_PROPERTY
Bond
SciTegic.value.DoubleValue
0.088

@<SCITEGIC>MOL_PROPERTY
Angle
SciTegic.value.DoubleValue
0.332

@<SCITEGIC>MOL_PROPERTY
Pdih
SciTegic.value.DoubleValue
0.426

@<SCITEGIC>MOL_PROPERTY
Idih
SciTegic.value.DoubleValue
0.000

@<SCITEGIC>MOL_PROPERTY
Tether
SciTegic.value.DoubleValue
0.000

@<TRIPOS>MOLECULE
guest-s9_confgen4.mol2 : confsearch ligand conformer 648
          20          19           1
SMALL
USER_CHARGES
 
@<TRIPOS>ATOM
       1    C1      22.084515   16.708979   21.421117 C.3        1 MOL1        -0.2224
       2    H1      22.182987   17.063181   20.386702 H          1 MOL1         0.1052
       3    H2      23.064227   16.331697   21.741806 H          1 MOL1         0.1052
       4    H3      21.381140   15.866137   21.428004 H          1 MOL1         0.1052
       5    C2      21.604210   17.841980   22.353796 C.3        1 MOL1        -0.1209
       6    H4      22.344313   18.654735   22.352163 H          1 MOL1         0.1041
       7    H5      21.549399   17.466887   23.385595 H          1 MOL1         0.1041
       8    C3      20.225995   18.392819   21.926257 C.3        1 MOL1        -0.1274
       9    H6      20.285522   18.766024   20.895757 H          1 MOL1         0.1041
      10    H7      19.486316   17.581364   21.932299 H          1 MOL1         0.1041
      11    C4      19.754210   19.522811   22.864613 C.3        1 MOL1         0.0313
      12    H8      20.460889   20.355632   22.827237 H          1 MOL1         0.1015
      13    H9      19.730563   19.145411   23.890132 H          1 MOL1         0.1015
      14    N1      18.370244   20.068564   22.552281 N.4        1 MOL1        -0.4809
      15    H10     18.066102   20.694552   23.314465 H          1 MOL1         0.3726
      16    H11     17.677629   19.304348   22.546374 H          1 MOL1         0.3726
      17    C5      18.357417   20.823099   21.227129 C.3        1 MOL1        -0.0677
      18    H12     18.615532   20.138154   20.417120 H          1 MOL1         0.1026
      19    H13     17.358419   21.230725   21.057375 H          1 MOL1         0.1026
      20    H14     19.084303   21.637051   21.269842 H          1 MOL1         0.1026
@<TRIPOS>BOND
    1     1     2    1
    2     1     3    1
    3     1     4    1
    4     1     5    1
    5     5     6    1
    6     5     7    1
    7     5     8    1
    8     8     9    1
    9     8    10    1
   10     8    11    1
   11    11    12    1
   12    11    13    1
   13    11    14    1
   14    14    15    1
   15    14    16    1
   16    14    17    1
   17    17    18    1
   18    17    19    1
   19    17    20    1
@<TRIPOS>SUBSTRUCTURE
       1 MOL1            1 RESIDUE      1      MOL     
@<SCITEGIC>MOL_PROPERTY
VConf Rank
SciTegic.value.IntegerValue
648

@<SCITEGIC>MOL_PROPERTY
Conf_Id
SciTegic.value.IntegerValue
37

@<SCITEGIC>MOL_PROPERTY
Delta U+W
SciTegic.value.DoubleValue
-0.021

@<SCITEGIC>MOL_PROPERTY
U+W
SciTegic.value.DoubleValue
15.318

@<SCITEGIC>MOL_PROPERTY
Grad RMS
SciTegic.value.DoubleValue
0.000000

@<SCITEGIC>MOL_PROPERTY
U
SciTegic.value.DoubleValue
69.657

@<SCITEGIC>MOL_PROPERTY
W
SciTegic.value.DoubleValue
-54.340

@<SCITEGIC>MOL_PROPERTY
W(PB)
SciTegic.value.DoubleValue
-56.238

@<SCITEGIC>MOL_PROPERTY
W(SA)
SciTegic.value.DoubleValue
1.899

@<SCITEGIC>MOL_PROPERTY
Valence
SciTegic.value.DoubleValue
1.137

@<SCITEGIC>MOL_PROPERTY
Coulomb
SciTegic.value.DoubleValue
68.383

@<SCITEGIC>MOL_PROPERTY
VdW
SciTegic.value.DoubleValue
0.138

@<SCITEGIC>MOL_PROPERTY
VdW6
SciTegic.value.DoubleValue
-3.703

@<SCITEGIC>MOL_PROPERTY
VdW12
SciTegic.value.DoubleValue
3.841

@<SCITEGIC>MOL_PROPERTY
Bond
SciTegic.value.DoubleValue
0.125

@<SCITEGIC>MOL_PROPERTY
Angle
SciTegic.value.DoubleValue
0.468

@<SCITEGIC>MOL_PROPERTY
Pdih
SciTegic.value.DoubleValue
0.543

@<SCITEGIC>MOL_PROPERTY
Idih
SciTegic.value.DoubleValue
0.000

@<SCITEGIC>MOL_PROPERTY
Tether
SciTegic.value.DoubleValue
0.000

@<TRIPOS>MOLECULE
guest-s9_confgen4.mol2 : confsearch ligand conformer 649
          20          19           1
SMALL
USER_CHARGES
 
@<TRIPOS>ATOM
       1    C1      19.996731   20.496622   24.457117 C.3        1 MOL1        -0.2224
       2    H1      20.363003   21.457466   24.841362 H          1 MOL1         0.1052
       3    H2      18.899894   20.538472   24.437961 H          1 MOL1         0.1052
       4    H3      20.296316   19.714612   25.166961 H          1 MOL1         0.1052
       5    C2      20.567543   20.218569   23.049592 C.3        1 MOL1        -0.1209
       6    H4      21.665847   20.217623   23.094708 H          1 MOL1         0.1041
       7    H5      20.280069   21.034371   22.371246 H          1 MOL1         0.1041
       8    C3      20.068658   18.871025   22.483091 C.3        1 MOL1        -0.1274
       9    H6      20.359886   18.056173   23.158978 H          1 MOL1         0.1041
      10    H7      18.971907   18.876581   22.439941 H          1 MOL1         0.1041
      11    C4      20.645347   18.601566   21.077819 C.3        1 MOL1         0.0313
      12    H8      21.736686   18.630624   21.130857 H          1 MOL1         0.1015
      13    H9      20.319684   19.383142   20.386830 H          1 MOL1         0.1015
      14    N1      20.257857   17.258051   20.481516 N.4        1 MOL1        -0.4809
      15    H10     20.520796   16.493552   21.121968 H          1 MOL1         0.3726
      16    H11     20.810291   17.087834   19.626455 H          1 MOL1         0.3726
      17    C5      18.769286   17.204673   20.154678 C.3        1 MOL1        -0.0677
      18    H12     18.524471   18.011496   19.460553 H          1 MOL1         0.1026
      19    H13     18.538456   16.241229   19.694824 H          1 MOL1         0.1026
      20    H14     18.191662   17.318986   21.074009 H          1 MOL1         0.1026
@<TRIPOS>BOND
    1     1     2    1
    2     1     3    1
    3     1     4    1
    4     1     5    1
    5     5     6    1
    6     5     7    1
    7     5     8    1
    8     8     9    1
    9     8    10    1
   10     8    11    1
   11    11    12    1
   12    11    13    1
   13    11    14    1
   14    14    15    1
   15    14    16    1
   16    14    17    1
   17    17    18    1
   18    17    19    1
   19    17    20    1
@<TRIPOS>SUBSTRUCTURE
       1 MOL1            1 RESIDUE      1      MOL     
@<SCITEGIC>MOL_PROPERTY
VConf Rank
SciTegic.value.IntegerValue
649

@<SCITEGIC>MOL_PROPERTY
Conf_Id
SciTegic.value.IntegerValue
2

@<SCITEGIC>MOL_PROPERTY
Delta U+W
SciTegic.value.DoubleValue
0.069

@<SCITEGIC>MOL_PROPERTY
U+W
SciTegic.value.DoubleValue
15.407

@<SCITEGIC>MOL_PROPERTY
Grad RMS
SciTegic.value.DoubleValue
0.000000

@<SCITEGIC>MOL_PROPERTY
U
SciTegic.value.DoubleValue
69.657

@<SCITEGIC>MOL_PROPERTY
W
SciTegic.value.DoubleValue
-54.250

@<SCITEGIC>MOL_PROPERTY
W(PB)
SciTegic.value.DoubleValue
-56.176

@<SCITEGIC>MOL_PROPERTY
W(SA)
SciTegic.value.DoubleValue
1.926

@<SCITEGIC>MOL_PROPERTY
Valence
SciTegic.value.DoubleValue
1.137

@<SCITEGIC>MOL_PROPERTY
Coulomb
SciTegic.value.DoubleValue
68.383

@<SCITEGIC>MOL_PROPERTY
VdW
SciTegic.value.DoubleValue
0.138

@<SCITEGIC>MOL_PROPERTY
VdW6
SciTegic.value.DoubleValue
-3.703

@<SCITEGIC>MOL_PROPERTY
VdW12
SciTegic.value.DoubleValue
3.841

@<SCITEGIC>MOL_PROPERTY
Bond
SciTegic.value.DoubleValue
0.125

@<SCITEGIC>MOL_PROPERTY
Angle
SciTegic.value.DoubleValue
0.468

@<SCITEGIC>MOL_PROPERTY
Pdih
SciTegic.value.DoubleValue
0.543

@<SCITEGIC>MOL_PROPERTY
Idih
SciTegic.value.DoubleValue
0.000

@<SCITEGIC>MOL_PROPERTY
Tether
SciTegic.value.DoubleValue
0.000

@<TRIPOS>MOLECULE
guest-s9_confgen4.mol2 : confsearch ligand conformer 650
          20          19           1
SMALL
USER_CHARGES
 
@<TRIPOS>ATOM
       1    C1      20.290724   20.543928   23.975800 C.3        1 MOL1        -0.2224
       2    H1      21.035203   20.701455   23.185231 H          1 MOL1         0.1052
       3    H2      19.394561   21.125761   23.723885 H          1 MOL1         0.1052
       4    H3      20.704891   20.953645   24.906170 H          1 MOL1         0.1052
       5    C2      19.951493   19.045320   24.147217 C.3        1 MOL1        -0.1209
       6    H4      19.277024   18.926545   25.006866 H          1 MOL1         0.1041
       7    H5      20.865271   18.485759   24.392385 H          1 MOL1         0.1041
       8    C3      19.283298   18.429550   22.895609 C.3        1 MOL1        -0.1274
       9    H6      19.001633   17.391171   23.115362 H          1 MOL1         0.1041
      10    H7      18.352410   18.967829   22.672972 H          1 MOL1         0.1041
      11    C4      20.203164   18.452863   21.659264 C.3        1 MOL1         0.0313
      12    H8      21.128528   17.915049   21.880237 H          1 MOL1         0.1015
      13    H9      20.457235   19.485520   21.408595 H          1 MOL1         0.1015
      14    N1      19.578012   17.819359   20.431938 N.4        1 MOL1        -0.4809
      15    H10     18.693738   18.295380   20.196241 H          1 MOL1         0.3726
      16    H11     19.317155   16.841019   20.629190 H          1 MOL1         0.3726
      17    C5      20.549056   17.886955   19.260787 C.3        1 MOL1        -0.0677
      18    H12     21.463103   17.348109   19.519563 H          1 MOL1         0.1026
      19    H13     20.086611   17.427599   18.384351 H          1 MOL1         0.1026
      20    H14     20.783869   18.932080   19.047770 H          1 MOL1         0.1026
@<TRIPOS>BOND
    1     1     2    1
    2     1     3    1
    3     1     4    1
    4     1     5    1
    5     5     6    1
    6     5     7    1
    7     5     8    1
    8     8     9    1
    9     8    10    1
   10     8    11    1
   11    11    12    1
   12    11    13    1
   13    11    14    1
   14    14    15    1
   15    14    16    1
   16    14    17    1
   17    17    18    1
   18    17    19    1
   19    17    20    1
@<TRIPOS>SUBSTRUCTURE
       1 MOL1            1 RESIDUE      1      MOL     
@<SCITEGIC>MOL_PROPERTY
VConf Rank
SciTegic.value.IntegerValue
650

@<SCITEGIC>MOL_PROPERTY
Conf_Id
SciTegic.value.IntegerValue
34

@<SCITEGIC>MOL_PROPERTY
Delta U+W
SciTegic.value.DoubleValue
0.276

@<SCITEGIC>MOL_PROPERTY
U+W
SciTegic.value.DoubleValue
15.615

@<SCITEGIC>MOL_PROPERTY
Grad RMS
SciTegic.value.DoubleValue
0.000000

@<SCITEGIC>MOL_PROPERTY
U
SciTegic.value.DoubleValue
69.798

@<SCITEGIC>MOL_PROPERTY
W
SciTegic.value.DoubleValue
-54.184

@<SCITEGIC>MOL_PROPERTY
W(PB)
SciTegic.value.DoubleValue
-56.116

@<SCITEGIC>MOL_PROPERTY
W(SA)
SciTegic.value.DoubleValue
1.933

@<SCITEGIC>MOL_PROPERTY
Valence
SciTegic.value.DoubleValue
1.134

@<SCITEGIC>MOL_PROPERTY
Coulomb
SciTegic.value.DoubleValue
68.735

@<SCITEGIC>MOL_PROPERTY
VdW
SciTegic.value.DoubleValue
-0.070

@<SCITEGIC>MOL_PROPERTY
VdW6
SciTegic.value.DoubleValue
-3.565

@<SCITEGIC>MOL_PROPERTY
VdW12
SciTegic.value.DoubleValue
3.494

@<SCITEGIC>MOL_PROPERTY
Bond
SciTegic.value.DoubleValue
0.108

@<SCITEGIC>MOL_PROPERTY
Angle
SciTegic.value.DoubleValue
0.456

@<SCITEGIC>MOL_PROPERTY
Pdih
SciTegic.value.DoubleValue
0.569

@<SCITEGIC>MOL_PROPERTY
Idih
SciTegic.value.DoubleValue
0.000

@<SCITEGIC>MOL_PROPERTY
Tether
SciTegic.value.DoubleValue
0.000

@<TRIPOS>MOLECULE
guest-s9_confgen4.mol2 : confsearch ligand conformer 651
          20          19           1
SMALL
USER_CHARGES
 
@<TRIPOS>ATOM
       1    C1      21.503373   20.059215   19.669839 C.3        1 MOL1        -0.2224
       2    H1      20.900358   19.938241   18.760494 H          1 MOL1         0.1052
       3    H2      21.921144   21.074324   19.663115 H          1 MOL1         0.1052
       4    H3      22.340633   19.350836   19.621099 H          1 MOL1         0.1052
       5    C2      20.652224   19.827786   20.937124 C.3        1 MOL1        -0.1209
       6    H4      19.843131   20.571022   20.973075 H          1 MOL1         0.1041
       7    H5      21.277203   19.996378   21.824522 H          1 MOL1         0.1041
       8    C3      20.051770   18.402480   20.970933 C.3        1 MOL1        -0.1274
       9    H6      19.462306   18.235555   20.059587 H          1 MOL1         0.1041
      10    H7      20.855740   17.654526   20.963727 H          1 MOL1         0.1041
      11    C4      19.139004   18.166652   22.191091 C.3        1 MOL1         0.0313
      12    H8      18.677083   17.179305   22.111131 H          1 MOL1         0.1015
      13    H9      18.342257   18.914626   22.203853 H          1 MOL1         0.1015
      14    N1      19.860365   18.227183   23.524455 N.4        1 MOL1        -0.4809
      15    H10     20.311396   19.146381   23.643198 H          1 MOL1         0.3726
      16    H11     20.628694   17.539203   23.544484 H          1 MOL1         0.3726
      17    C5      18.878775   17.964845   24.658694 C.3        1 MOL1        -0.0677
      18    H12     18.093588   18.723684   24.637898 H          1 MOL1         0.1026
      19    H13     18.438186   16.973680   24.531183 H          1 MOL1         0.1026
      20    H14     19.410616   18.011374   25.611569 H          1 MOL1         0.1026
@<TRIPOS>BOND
    1     1     2    1
    2     1     3    1
    3     1     4    1
    4     1     5    1
    5     5     6    1
    6     5     7    1
    7     5     8    1
    8     8     9    1
    9     8    10    1
   10     8    11    1
   11    11    12    1
   12    11    13    1
   13    11    14    1
   14    14    15    1
   15    14    16    1
   16    14    17    1
   17    17    18    1
   18    17    19    1
   19    17    20    1
@<TRIPOS>SUBSTRUCTURE
       1 MOL1            1 RESIDUE      1      MOL     
@<SCITEGIC>MOL_PROPERTY
VConf Rank
SciTegic.value.IntegerValue
651

@<SCITEGIC>MOL_PROPERTY
Conf_Id
SciTegic.value.IntegerValue
50

@<SCITEGIC>MOL_PROPERTY
Delta U+W
SciTegic.value.DoubleValue
0.319

@<SCITEGIC>MOL_PROPERTY
U+W
SciTegic.value.DoubleValue
15.657

@<SCITEGIC>MOL_PROPERTY
Grad RMS
SciTegic.value.DoubleValue
0.000000

@<SCITEGIC>MOL_PROPERTY
U
SciTegic.value.DoubleValue
69.962

@<SCITEGIC>MOL_PROPERTY
W
SciTegic.value.DoubleValue
-54.305

@<SCITEGIC>MOL_PROPERTY
W(PB)
SciTegic.value.DoubleValue
-56.223

@<SCITEGIC>MOL_PROPERTY
W(SA)
SciTegic.value.DoubleValue
1.918

@<SCITEGIC>MOL_PROPERTY
Valence
SciTegic.value.DoubleValue
0.982

@<SCITEGIC>MOL_PROPERTY
Coulomb
SciTegic.value.DoubleValue
69.058

@<SCITEGIC>MOL_PROPERTY
VdW
SciTegic.value.DoubleValue
-0.078

@<SCITEGIC>MOL_PROPERTY
VdW6
SciTegic.value.DoubleValue
-3.548

@<SCITEGIC>MOL_PROPERTY
VdW12
SciTegic.value.DoubleValue
3.471

@<SCITEGIC>MOL_PROPERTY
Bond
SciTegic.value.DoubleValue
0.105

@<SCITEGIC>MOL_PROPERTY
Angle
SciTegic.value.DoubleValue
0.408

@<SCITEGIC>MOL_PROPERTY
Pdih
SciTegic.value.DoubleValue
0.469

@<SCITEGIC>MOL_PROPERTY
Idih
SciTegic.value.DoubleValue
0.000

@<SCITEGIC>MOL_PROPERTY
Tether
SciTegic.value.DoubleValue
0.000

@<TRIPOS>MOLECULE
guest-s9_confgen4.mol2 : confsearch ligand conformer 652
          20          19           1
SMALL
USER_CHARGES
 
@<TRIPOS>ATOM
       1    C1      17.884268   16.894066   21.198380 C.3        1 MOL1        -0.2224
       2    H1      17.355654   16.220011   21.884852 H          1 MOL1         0.1052
       3    H2      17.130344   17.430772   20.607859 H          1 MOL1         0.1052
       4    H3      18.479061   16.276656   20.512663 H          1 MOL1         0.1052
       5    C2      18.781176   17.877007   21.981583 C.3        1 MOL1        -0.1209
       6    H4      19.494529   17.304637   22.589870 H          1 MOL1         0.1041
       7    H5      18.162017   18.456990   22.680573 H          1 MOL1         0.1041
       8    C3      19.538538   18.838730   21.035708 C.3        1 MOL1        -0.1274
       9    H6      20.181089   18.267288   20.352744 H          1 MOL1         0.1041
      10    H7      18.814479   19.374575   20.407623 H          1 MOL1         0.1041
      11    C4      20.388019   19.878166   21.794325 C.3        1 MOL1         0.0313
      12    H8      19.751314   20.443190   22.479736 H          1 MOL1         0.1015
      13    H9      20.823936   20.579962   21.078729 H          1 MOL1         0.1015
      14    N1      21.526581   19.278903   22.598345 N.4        1 MOL1        -0.4809
      15    H10     22.144610   18.727826   21.983200 H          1 MOL1         0.3726
      16    H11     21.159111   18.608960   23.290151 H          1 MOL1         0.3726
      17    C5      22.311161   20.384465   23.291892 C.3        1 MOL1        -0.0677
      18    H12     23.126597   19.939650   23.866517 H          1 MOL1         0.1026
      19    H13     22.718683   21.062937   22.539306 H          1 MOL1         0.1026
      20    H14     21.645119   20.932699   23.961682 H          1 MOL1         0.1026
@<TRIPOS>BOND
    1     1     2    1
    2     1     3    1
    3     1     4    1
    4     1     5    1
    5     5     6    1
    6     5     7    1
    7     5     8    1
    8     8     9    1
    9     8    10    1
   10     8    11    1
   11    11    12    1
   12    11    13    1
   13    11    14    1
   14    14    15    1
   15    14    16    1
   16    14    17    1
   17    17    18    1
   18    17    19    1
   19    17    20    1
@<TRIPOS>SUBSTRUCTURE
       1 MOL1            1 RESIDUE      1      MOL     
@<SCITEGIC>MOL_PROPERTY
VConf Rank
SciTegic.value.IntegerValue
652

@<SCITEGIC>MOL_PROPERTY
Conf_Id
SciTegic.value.IntegerValue
35

@<SCITEGIC>MOL_PROPERTY
Delta U+W
SciTegic.value.DoubleValue
0.360

@<SCITEGIC>MOL_PROPERTY
U+W
SciTegic.value.DoubleValue
15.698

@<SCITEGIC>MOL_PROPERTY
Grad RMS
SciTegic.value.DoubleValue
0.000000

@<SCITEGIC>MOL_PROPERTY
U
SciTegic.value.DoubleValue
69.962

@<SCITEGIC>MOL_PROPERTY
W
SciTegic.value.DoubleValue
-54.264

@<SCITEGIC>MOL_PROPERTY
W(PB)
SciTegic.value.DoubleValue
-56.166

@<SCITEGIC>MOL_PROPERTY
W(SA)
SciTegic.value.DoubleValue
1.902

@<SCITEGIC>MOL_PROPERTY
Valence
SciTegic.value.DoubleValue
0.982

@<SCITEGIC>MOL_PROPERTY
Coulomb
SciTegic.value.DoubleValue
69.058

@<SCITEGIC>MOL_PROPERTY
VdW
SciTegic.value.DoubleValue
-0.078

@<SCITEGIC>MOL_PROPERTY
VdW6
SciTegic.value.DoubleValue
-3.548

@<SCITEGIC>MOL_PROPERTY
VdW12
SciTegic.value.DoubleValue
3.471

@<SCITEGIC>MOL_PROPERTY
Bond
SciTegic.value.DoubleValue
0.105

@<SCITEGIC>MOL_PROPERTY
Angle
SciTegic.value.DoubleValue
0.408

@<SCITEGIC>MOL_PROPERTY
Pdih
SciTegic.value.DoubleValue
0.469

@<SCITEGIC>MOL_PROPERTY
Idih
SciTegic.value.DoubleValue
0.000

@<SCITEGIC>MOL_PROPERTY
Tether
SciTegic.value.DoubleValue
0.000

@<TRIPOS>MOLECULE
guest-s9_confgen4.mol2 : confsearch ligand conformer 653
          20          19           1
SMALL
USER_CHARGES
 
@<TRIPOS>ATOM
       1    C1      21.267807   18.112291   24.179087 C.3        1 MOL1        -0.2224
       2    H1      20.451202   17.382619   24.109781 H          1 MOL1         0.1052
       3    H2      22.019005   17.703593   24.867303 H          1 MOL1         0.1052
       4    H3      20.868834   19.031743   24.626884 H          1 MOL1         0.1052
       5    C2      21.896817   18.394725   22.795328 C.3        1 MOL1        -0.1209
       6    H4      22.283250   17.458905   22.367453 H          1 MOL1         0.1041
       7    H5      22.764717   19.056628   22.924244 H          1 MOL1         0.1041
       8    C3      20.906834   19.051168   21.804929 C.3        1 MOL1        -0.1274
       9    H6      20.553262   20.003262   22.221120 H          1 MOL1         0.1041
      10    H7      21.438513   19.292417   20.875073 H          1 MOL1         0.1041
      11    C4      19.704469   18.139817   21.477478 C.3        1 MOL1         0.0313
      12    H8      19.126747   17.945991   22.384354 H          1 MOL1         0.1015
      13    H9      20.076704   17.183166   21.102203 H          1 MOL1         0.1015
      14    N1      18.754494   18.698149   20.430477 N.4        1 MOL1        -0.4809
      15    H10     18.080133   17.968266   20.151700 H          1 MOL1         0.3726
      16    H11     19.269039   18.926066   19.566176 H          1 MOL1         0.3726
      17    C5      18.007486   19.919426   20.955670 C.3        1 MOL1        -0.0677
      18    H12     18.723240   20.710827   21.186469 H          1 MOL1         0.1026
      19    H13     17.310026   20.268243   20.190922 H          1 MOL1         0.1026
      20    H14     17.456681   19.643576   21.857456 H          1 MOL1         0.1026
@<TRIPOS>BOND
    1     1     2    1
    2     1     3    1
    3     1     4    1
    4     1     5    1
    5     5     6    1
    6     5     7    1
    7     5     8    1
    8     8     9    1
    9     8    10    1
   10     8    11    1
   11    11    12    1
   12    11    13    1
   13    11    14    1
   14    14    15    1
   15    14    16    1
   16    14    17    1
   17    17    18    1
   18    17    19    1
   19    17    20    1
@<TRIPOS>SUBSTRUCTURE
       1 MOL1            1 RESIDUE      1      MOL     
@<SCITEGIC>MOL_PROPERTY
VConf Rank
SciTegic.value.IntegerValue
653

@<SCITEGIC>MOL_PROPERTY
Conf_Id
SciTegic.value.IntegerValue
33

@<SCITEGIC>MOL_PROPERTY
Delta U+W
SciTegic.value.DoubleValue
0.372

@<SCITEGIC>MOL_PROPERTY
U+W
SciTegic.value.DoubleValue
15.711

@<SCITEGIC>MOL_PROPERTY
Grad RMS
SciTegic.value.DoubleValue
0.000000

@<SCITEGIC>MOL_PROPERTY
U
SciTegic.value.DoubleValue
70.163

@<SCITEGIC>MOL_PROPERTY
W
SciTegic.value.DoubleValue
-54.452

@<SCITEGIC>MOL_PROPERTY
W(PB)
SciTegic.value.DoubleValue
-56.363

@<SCITEGIC>MOL_PROPERTY
W(SA)
SciTegic.value.DoubleValue
1.911

@<SCITEGIC>MOL_PROPERTY
Valence
SciTegic.value.DoubleValue
1.420

@<SCITEGIC>MOL_PROPERTY
Coulomb
SciTegic.value.DoubleValue
68.566

@<SCITEGIC>MOL_PROPERTY
VdW
SciTegic.value.DoubleValue
0.177

@<SCITEGIC>MOL_PROPERTY
VdW6
SciTegic.value.DoubleValue
-4.267

@<SCITEGIC>MOL_PROPERTY
VdW12
SciTegic.value.DoubleValue
4.445

@<SCITEGIC>MOL_PROPERTY
Bond
SciTegic.value.DoubleValue
0.146

@<SCITEGIC>MOL_PROPERTY
Angle
SciTegic.value.DoubleValue
0.581

@<SCITEGIC>MOL_PROPERTY
Pdih
SciTegic.value.DoubleValue
0.693

@<SCITEGIC>MOL_PROPERTY
Idih
SciTegic.value.DoubleValue
0.000

@<SCITEGIC>MOL_PROPERTY
Tether
SciTegic.value.DoubleValue
0.000

@<TRIPOS>MOLECULE
guest-s9_confgen4.mol2 : confsearch ligand conformer 654
          20          19           1
SMALL
USER_CHARGES
 
@<TRIPOS>ATOM
       1    C1      18.879439   17.120255   23.484282 C.3        1 MOL1        -0.2224
       2    H1      18.506650   16.592557   24.371715 H          1 MOL1         0.1052
       3    H2      18.095202   17.815573   23.159358 H          1 MOL1         0.1052
       4    H3      19.028428   16.376513   22.690717 H          1 MOL1         0.1052
       5    C2      20.197521   17.860766   23.807567 C.3        1 MOL1        -0.1209
       6    H4      20.922423   17.141676   24.214277 H          1 MOL1         0.1041
       7    H5      20.020035   18.601661   24.599868 H          1 MOL1         0.1041
       8    C3      20.817721   18.555937   22.573075 C.3        1 MOL1        -0.1274
       9    H6      21.783945   18.993383   22.856918 H          1 MOL1         0.1041
      10    H7      21.027199   17.805613   21.799873 H          1 MOL1         0.1041
      11    C4      19.910018   19.665183   21.999393 C.3        1 MOL1         0.0313
      12    H8      19.680281   20.380835   22.792886 H          1 MOL1         0.1015
      13    H9      18.969158   19.232733   21.650789 H          1 MOL1         0.1015
      14    N1      20.518568   20.447129   20.846731 N.4        1 MOL1        -0.4809
      15    H10     21.427962   20.845681   21.125797 H          1 MOL1         0.3726
      16    H11     19.926164   21.264864   20.633253 H          1 MOL1         0.3726
      17    C5      20.665946   19.576309   19.603622 C.3        1 MOL1        -0.0677
      18    H12     21.070396   20.181235   18.789100 H          1 MOL1         0.1026
      19    H13     21.346236   18.749867   19.818303 H          1 MOL1         0.1026
      20    H14     19.686290   19.185621   19.320187 H          1 MOL1         0.1026
@<TRIPOS>BOND
    1     1     2    1
    2     1     3    1
    3     1     4    1
    4     1     5    1
    5     5     6    1
    6     5     7    1
    7     5     8    1
    8     8     9    1
    9     8    10    1
   10     8    11    1
   11    11    12    1
   12    11    13    1
   13    11    14    1
   14    14    15    1
   15    14    16    1
   16    14    17    1
   17    17    18    1
   18    17    19    1
   19    17    20    1
@<TRIPOS>SUBSTRUCTURE
       1 MOL1            1 RESIDUE      1      MOL     
@<SCITEGIC>MOL_PROPERTY
VConf Rank
SciTegic.value.IntegerValue
654

@<SCITEGIC>MOL_PROPERTY
Conf_Id
SciTegic.value.IntegerValue
53

@<SCITEGIC>MOL_PROPERTY
Delta U+W
SciTegic.value.DoubleValue
0.379

@<SCITEGIC>MOL_PROPERTY
U+W
SciTegic.value.DoubleValue
15.717

@<SCITEGIC>MOL_PROPERTY
Grad RMS
SciTegic.value.DoubleValue
0.000000

@<SCITEGIC>MOL_PROPERTY
U
SciTegic.value.DoubleValue
70.163

@<SCITEGIC>MOL_PROPERTY
W
SciTegic.value.DoubleValue
-54.446

@<SCITEGIC>MOL_PROPERTY
W(PB)
SciTegic.value.DoubleValue
-56.322

@<SCITEGIC>MOL_PROPERTY
W(SA)
SciTegic.value.DoubleValue
1.876

@<SCITEGIC>MOL_PROPERTY
Valence
SciTegic.value.DoubleValue
1.420

@<SCITEGIC>MOL_PROPERTY
Coulomb
SciTegic.value.DoubleValue
68.566

@<SCITEGIC>MOL_PROPERTY
VdW
SciTegic.value.DoubleValue
0.177

@<SCITEGIC>MOL_PROPERTY
VdW6
SciTegic.value.DoubleValue
-4.267

@<SCITEGIC>MOL_PROPERTY
VdW12
SciTegic.value.DoubleValue
4.445

@<SCITEGIC>MOL_PROPERTY
Bond
SciTegic.value.DoubleValue
0.146

@<SCITEGIC>MOL_PROPERTY
Angle
SciTegic.value.DoubleValue
0.581

@<SCITEGIC>MOL_PROPERTY
Pdih
SciTegic.value.DoubleValue
0.693

@<SCITEGIC>MOL_PROPERTY
Idih
SciTegic.value.DoubleValue
0.000

@<SCITEGIC>MOL_PROPERTY
Tether
SciTegic.value.DoubleValue
0.000

@<TRIPOS>MOLECULE
guest-s9_confgen4.mol2 : confsearch ligand conformer 655
          20          19           1
SMALL
USER_CHARGES
 
@<TRIPOS>ATOM
       1    C1      20.416625   21.594703   22.391972 C.3        1 MOL1        -0.2224
       2    H1      21.347684   22.175820   22.412776 H          1 MOL1         0.1052
       3    H2      19.671845   22.173629   21.830461 H          1 MOL1         0.1052
       4    H3      20.061159   21.492226   23.425560 H          1 MOL1         0.1052
       5    C2      20.650488   20.212438   21.744969 C.3        1 MOL1        -0.1209
       6    H4      21.427303   19.679163   22.309622 H          1 MOL1         0.1041
       7    H5      21.035399   20.348062   20.724366 H          1 MOL1         0.1041
       8    C3      19.352586   19.371845   21.705274 C.3        1 MOL1        -0.1274
       9    H6      18.978444   19.210197   22.724405 H          1 MOL1         0.1041
      10    H7      18.571919   19.934654   21.176642 H          1 MOL1         0.1041
      11    C4      19.538115   18.013713   20.992731 C.3        1 MOL1         0.0313
      12    H8      19.855181   18.194163   19.962423 H          1 MOL1         0.1015
      13    H9      18.581861   17.485459   20.960774 H          1 MOL1         0.1015
      14    N1      20.558630   17.079410   21.625390 N.4        1 MOL1        -0.4809
      15    H10     21.478607   17.540782   21.678375 H          1 MOL1         0.3726
      16    H11     20.706097   16.263081   21.011317 H          1 MOL1         0.3726
      17    C5      20.104946   16.614959   23.005024 C.3        1 MOL1        -0.0677
      18    H12     19.138879   16.113558   22.915752 H          1 MOL1         0.1026
      19    H13     20.844116   15.920127   23.409707 H          1 MOL1         0.1026
      20    H14     20.014165   17.479115   23.666089 H          1 MOL1         0.1026
@<TRIPOS>BOND
    1     1     2    1
    2     1     3    1
    3     1     4    1
    4     1     5    1
    5     5     6    1
    6     5     7    1
    7     5     8    1
    8     8     9    1
    9     8    10    1
   10     8    11    1
   11    11    12    1
   12    11    13    1
   13    11    14    1
   14    14    15    1
   15    14    16    1
   16    14    17    1
   17    17    18    1
   18    17    19    1
   19    17    20    1
@<TRIPOS>SUBSTRUCTURE
       1 MOL1            1 RESIDUE      1      MOL     
@<SCITEGIC>MOL_PROPERTY
VConf Rank
SciTegic.value.IntegerValue
655

@<SCITEGIC>MOL_PROPERTY
Conf_Id
SciTegic.value.IntegerValue
49

@<SCITEGIC>MOL_PROPERTY
Delta U+W
SciTegic.value.DoubleValue
0.268

@<SCITEGIC>MOL_PROPERTY
U+W
SciTegic.value.DoubleValue
15.607

@<SCITEGIC>MOL_PROPERTY
Grad RMS
SciTegic.value.DoubleValue
0.000000

@<SCITEGIC>MOL_PROPERTY
U
SciTegic.value.DoubleValue
70.298

@<SCITEGIC>MOL_PROPERTY
W
SciTegic.value.DoubleValue
-54.692

@<SCITEGIC>MOL_PROPERTY
W(PB)
SciTegic.value.DoubleValue
-56.576

@<SCITEGIC>MOL_PROPERTY
W(SA)
SciTegic.value.DoubleValue
1.885

@<SCITEGIC>MOL_PROPERTY
Valence
SciTegic.value.DoubleValue
1.245

@<SCITEGIC>MOL_PROPERTY
Coulomb
SciTegic.value.DoubleValue
68.933

@<SCITEGIC>MOL_PROPERTY
VdW
SciTegic.value.DoubleValue
0.120

@<SCITEGIC>MOL_PROPERTY
VdW6
SciTegic.value.DoubleValue
-4.430

@<SCITEGIC>MOL_PROPERTY
VdW12
SciTegic.value.DoubleValue
4.550

@<SCITEGIC>MOL_PROPERTY
Bond
SciTegic.value.DoubleValue
0.148

@<SCITEGIC>MOL_PROPERTY
Angle
SciTegic.value.DoubleValue
0.587

@<SCITEGIC>MOL_PROPERTY
Pdih
SciTegic.value.DoubleValue
0.509

@<SCITEGIC>MOL_PROPERTY
Idih
SciTegic.value.DoubleValue
0.000

@<SCITEGIC>MOL_PROPERTY
Tether
SciTegic.value.DoubleValue
0.000

@<TRIPOS>MOLECULE
guest-s9_confgen4.mol2 : confsearch ligand conformer 656
          20          19           1
SMALL
USER_CHARGES
 
@<TRIPOS>ATOM
       1    C1      21.939319   20.717394   21.452605 C.3        1 MOL1        -0.2224
       2    H1      22.268663   20.980074   22.466362 H          1 MOL1         0.1052
       3    H2      22.797402   20.295627   20.913211 H          1 MOL1         0.1052
       4    H3      21.645820   21.644655   20.943641 H          1 MOL1         0.1052
       5    C2      20.761052   19.720157   21.491780 C.3        1 MOL1        -0.1209
       6    H4      20.435879   19.498419   20.465581 H          1 MOL1         0.1041
       7    H5      19.912943   20.194116   22.003270 H          1 MOL1         0.1041
       8    C3      21.145236   18.407833   22.214158 C.3        1 MOL1        -0.1274
       9    H6      22.063448   18.007050   21.764694 H          1 MOL1         0.1041
      10    H7      21.383702   18.618433   23.265032 H          1 MOL1         0.1041
      11    C4      20.062223   17.307372   22.144162 C.3        1 MOL1         0.0313
      12    H8      20.461569   16.410897   22.625412 H          1 MOL1         0.1015
      13    H9      19.843716   17.054773   21.103611 H          1 MOL1         0.1015
      14    N1      18.750088   17.630564   22.842093 N.4        1 MOL1        -0.4809
      15    H10     18.918229   18.226512   23.666359 H          1 MOL1         0.3726
      16    H11     18.344447   16.761591   23.223339 H          1 MOL1         0.3726
      17    C5      17.751683   18.271463   21.883406 C.3        1 MOL1        -0.0677
      18    H12     16.818649   18.465548   22.417014 H          1 MOL1         0.1026
      19    H13     18.156061   19.209418   21.501268 H          1 MOL1         0.1026
      20    H14     17.563110   17.587328   21.053293 H          1 MOL1         0.1026
@<TRIPOS>BOND
    1     1     2    1
    2     1     3    1
    3     1     4    1
    4     1     5    1
    5     5     6    1
    6     5     7    1
    7     5     8    1
    8     8     9    1
    9     8    10    1
   10     8    11    1
   11    11    12    1
   12    11    13    1
   13    11    14    1
   14    14    15    1
   15    14    16    1
   16    14    17    1
   17    17    18    1
   18    17    19    1
   19    17    20    1
@<TRIPOS>SUBSTRUCTURE
       1 MOL1            1 RESIDUE      1      MOL     
@<SCITEGIC>MOL_PROPERTY
VConf Rank
SciTegic.value.IntegerValue
656

@<SCITEGIC>MOL_PROPERTY
Conf_Id
SciTegic.value.IntegerValue
65

@<SCITEGIC>MOL_PROPERTY
Delta U+W
SciTegic.value.DoubleValue
1.775

@<SCITEGIC>MOL_PROPERTY
U+W
SciTegic.value.DoubleValue
17.114

@<SCITEGIC>MOL_PROPERTY
Grad RMS
SciTegic.value.DoubleValue
0.000000

@<SCITEGIC>MOL_PROPERTY
U
SciTegic.value.DoubleValue
71.726

@<SCITEGIC>MOL_PROPERTY
W
SciTegic.value.DoubleValue
-54.613

@<SCITEGIC>MOL_PROPERTY
W(PB)
SciTegic.value.DoubleValue
-56.495

@<SCITEGIC>MOL_PROPERTY
W(SA)
SciTegic.value.DoubleValue
1.883

@<SCITEGIC>MOL_PROPERTY
Valence
SciTegic.value.DoubleValue
2.885

@<SCITEGIC>MOL_PROPERTY
Coulomb
SciTegic.value.DoubleValue
68.822

@<SCITEGIC>MOL_PROPERTY
VdW
SciTegic.value.DoubleValue
0.019

@<SCITEGIC>MOL_PROPERTY
VdW6
SciTegic.value.DoubleValue
-4.600

@<SCITEGIC>MOL_PROPERTY
VdW12
SciTegic.value.DoubleValue
4.619

@<SCITEGIC>MOL_PROPERTY
Bond
SciTegic.value.DoubleValue
0.152

@<SCITEGIC>MOL_PROPERTY
Angle
SciTegic.value.DoubleValue
0.862

@<SCITEGIC>MOL_PROPERTY
Pdih
SciTegic.value.DoubleValue
1.871

@<SCITEGIC>MOL_PROPERTY
Idih
SciTegic.value.DoubleValue
0.000

@<SCITEGIC>MOL_PROPERTY
Tether
SciTegic.value.DoubleValue
0.000

@<TRIPOS>MOLECULE
guest-s9_confgen4.mol2 : confsearch ligand conformer 657
          20          19           1
SMALL
USER_CHARGES
 
@<TRIPOS>ATOM
       1    C1      21.805434   20.380332   22.237888 C.3        1 MOL1        -0.2224
       2    H1      22.053501   19.353625   22.535105 H          1 MOL1         0.1052
       3    H2      22.670567   20.786364   21.697829 H          1 MOL1         0.1052
       4    H3      21.669834   20.977435   23.149014 H          1 MOL1         0.1052
       5    C2      20.541008   20.426900   21.349502 C.3        1 MOL1        -0.1209
       6    H4      20.701744   19.823782   20.445610 H          1 MOL1         0.1041
       7    H5      20.386979   21.458012   21.001522 H          1 MOL1         0.1041
       8    C3      19.263215   19.953626   22.086561 C.3        1 MOL1        -0.1274
       9    H6      19.059977   20.630325   22.927119 H          1 MOL1         0.1041
      10    H7      18.400868   20.037183   21.411934 H          1 MOL1         0.1041
      11    C4      19.347643   18.510286   22.625639 C.3        1 MOL1         0.0313
      12    H8      18.423498   18.267093   23.156066 H          1 MOL1         0.1015
      13    H9      20.175660   18.429883   23.333940 H          1 MOL1         0.1015
      14    N1      19.549529   17.461195   21.548954 N.4        1 MOL1        -0.4809
      15    H10     20.411038   17.660944   21.019433 H          1 MOL1         0.3726
      16    H11     18.784418   17.508187   20.858812 H          1 MOL1         0.3726
      17    C5      19.618395   16.076382   22.178293 C.3        1 MOL1        -0.0677
      18    H12     18.684137   15.874576   22.706688 H          1 MOL1         0.1026
      19    H13     19.765040   15.331990   21.392579 H          1 MOL1         0.1026
      20    H14     20.454736   16.040997   22.879749 H          1 MOL1         0.1026
@<TRIPOS>BOND
    1     1     2    1
    2     1     3    1
    3     1     4    1
    4     1     5    1
    5     5     6    1
    6     5     7    1
    7     5     8    1
    8     8     9    1
    9     8    10    1
   10     8    11    1
   11    11    12    1
   12    11    13    1
   13    11    14    1
   14    14    15    1
   15    14    16    1
   16    14    17    1
   17    17    18    1
   18    17    19    1
   19    17    20    1
@<TRIPOS>SUBSTRUCTURE
       1 MOL1            1 RESIDUE      1      MOL     
@<SCITEGIC>MOL_PROPERTY
VConf Rank
SciTegic.value.IntegerValue
657

@<SCITEGIC>MOL_PROPERTY
Conf_Id
SciTegic.value.IntegerValue
23

@<SCITEGIC>MOL_PROPERTY
Delta U+W
SciTegic.value.DoubleValue
0.896

@<SCITEGIC>MOL_PROPERTY
U+W
SciTegic.value.DoubleValue
16.234

@<SCITEGIC>MOL_PROPERTY
Grad RMS
SciTegic.value.DoubleValue
0.000000

@<SCITEGIC>MOL_PROPERTY
U
SciTegic.value.DoubleValue
70.374

@<SCITEGIC>MOL_PROPERTY
W
SciTegic.value.DoubleValue
-54.140

@<SCITEGIC>MOL_PROPERTY
W(PB)
SciTegic.value.DoubleValue
-56.046

@<SCITEGIC>MOL_PROPERTY
W(SA)
SciTegic.value.DoubleValue
1.907

@<SCITEGIC>MOL_PROPERTY
Valence
SciTegic.value.DoubleValue
1.257

@<SCITEGIC>MOL_PROPERTY
Coulomb
SciTegic.value.DoubleValue
69.240

@<SCITEGIC>MOL_PROPERTY
VdW
SciTegic.value.DoubleValue
-0.123

@<SCITEGIC>MOL_PROPERTY
VdW6
SciTegic.value.DoubleValue
-4.336

@<SCITEGIC>MOL_PROPERTY
VdW12
SciTegic.value.DoubleValue
4.213

@<SCITEGIC>MOL_PROPERTY
Bond
SciTegic.value.DoubleValue
0.128

@<SCITEGIC>MOL_PROPERTY
Angle
SciTegic.value.DoubleValue
0.603

@<SCITEGIC>MOL_PROPERTY
Pdih
SciTegic.value.DoubleValue
0.526

@<SCITEGIC>MOL_PROPERTY
Idih
SciTegic.value.DoubleValue
0.000

@<SCITEGIC>MOL_PROPERTY
Tether
SciTegic.value.DoubleValue
0.000

@<TRIPOS>MOLECULE
guest-s9_confgen4.mol2 : confsearch ligand conformer 658
          20          19           1
SMALL
USER_CHARGES
 
@<TRIPOS>ATOM
       1    C1      19.572727   17.429076   20.148296 C.3        1 MOL1        -0.2224
       2    H1      19.637029   18.008105   19.217887 H          1 MOL1         0.1052
       3    H2      19.330072   16.392477   19.880786 H          1 MOL1         0.1052
       4    H3      18.736031   17.822408   20.739255 H          1 MOL1         0.1052
       5    C2      20.903162   17.489203   20.933470 C.3        1 MOL1        -0.1209
       6    H4      21.689789   17.001318   20.340856 H          1 MOL1         0.1041
       7    H5      20.813750   16.902774   21.857980 H          1 MOL1         0.1041
       8    C3      21.350521   18.935925   21.260368 C.3        1 MOL1        -0.1274
       9    H6      22.311135   18.909451   21.791652 H          1 MOL1         0.1041
      10    H7      21.534925   19.477103   20.322879 H          1 MOL1         0.1041
      11    C4      20.329641   19.734711   22.097456 C.3        1 MOL1         0.0313
      12    H8      19.383978   19.805586   21.554812 H          1 MOL1         0.1015
      13    H9      20.705685   20.748564   22.256303 H          1 MOL1         0.1015
      14    N1      20.043351   19.131817   23.459499 N.4        1 MOL1        -0.4809
      15    H10     20.916644   19.048083   24.001944 H          1 MOL1         0.3726
      16    H11     19.692321   18.168661   23.351810 H          1 MOL1         0.3726
      17    C5      19.030041   19.989325   24.205425 C.3        1 MOL1        -0.0677
      18    H12     18.104028   20.036199   23.628310 H          1 MOL1         0.1026
      19    H13     18.832685   19.543273   25.182696 H          1 MOL1         0.1026
      20    H14     19.435958   20.994903   24.335075 H          1 MOL1         0.1026
@<TRIPOS>BOND
    1     1     2    1
    2     1     3    1
    3     1     4    1
    4     1     5    1
    5     5     6    1
    6     5     7    1
    7     5     8    1
    8     8     9    1
    9     8    10    1
   10     8    11    1
   11    11    12    1
   12    11    13    1
   13    11    14    1
   14    14    15    1
   15    14    16    1
   16    14    17    1
   17    17    18    1
   18    17    19    1
   19    17    20    1
@<TRIPOS>SUBSTRUCTURE
       1 MOL1            1 RESIDUE      1      MOL     
@<SCITEGIC>MOL_PROPERTY
VConf Rank
SciTegic.value.IntegerValue
658

@<SCITEGIC>MOL_PROPERTY
Conf_Id
SciTegic.value.IntegerValue
24

@<SCITEGIC>MOL_PROPERTY
Delta U+W
SciTegic.value.DoubleValue
0.792

@<SCITEGIC>MOL_PROPERTY
U+W
SciTegic.value.DoubleValue
16.130

@<SCITEGIC>MOL_PROPERTY
Grad RMS
SciTegic.value.DoubleValue
0.000000

@<SCITEGIC>MOL_PROPERTY
U
SciTegic.value.DoubleValue
70.374

@<SCITEGIC>MOL_PROPERTY
W
SciTegic.value.DoubleValue
-54.243

@<SCITEGIC>MOL_PROPERTY
W(PB)
SciTegic.value.DoubleValue
-56.130

@<SCITEGIC>MOL_PROPERTY
W(SA)
SciTegic.value.DoubleValue
1.887

@<SCITEGIC>MOL_PROPERTY
Valence
SciTegic.value.DoubleValue
1.257

@<SCITEGIC>MOL_PROPERTY
Coulomb
SciTegic.value.DoubleValue
69.240

@<SCITEGIC>MOL_PROPERTY
VdW
SciTegic.value.DoubleValue
-0.123

@<SCITEGIC>MOL_PROPERTY
VdW6
SciTegic.value.DoubleValue
-4.336

@<SCITEGIC>MOL_PROPERTY
VdW12
SciTegic.value.DoubleValue
4.213

@<SCITEGIC>MOL_PROPERTY
Bond
SciTegic.value.DoubleValue
0.128

@<SCITEGIC>MOL_PROPERTY
Angle
SciTegic.value.DoubleValue
0.603

@<SCITEGIC>MOL_PROPERTY
Pdih
SciTegic.value.DoubleValue
0.526

@<SCITEGIC>MOL_PROPERTY
Idih
SciTegic.value.DoubleValue
0.000

@<SCITEGIC>MOL_PROPERTY
Tether
SciTegic.value.DoubleValue
0.000

@<TRIPOS>MOLECULE
guest-s9_confgen4.mol2 : confsearch ligand conformer 659
          20          19           1
SMALL
USER_CHARGES
 
@<TRIPOS>ATOM
       1    C1      18.982017   20.707378   22.264290 C.3        1 MOL1        -0.2224
       2    H1      18.558265   21.696710   22.047775 H          1 MOL1         0.1052
       3    H2      18.477907   19.991207   21.604729 H          1 MOL1         0.1052
       4    H3      18.739363   20.463296   23.306742 H          1 MOL1         0.1052
       5    C2      20.509937   20.717156   22.030142 C.3        1 MOL1        -0.1209
       6    H4      20.938458   21.586380   22.548686 H          1 MOL1         0.1041
       7    H5      20.714936   20.870225   20.961194 H          1 MOL1         0.1041
       8    C3      21.243270   19.443807   22.523743 C.3        1 MOL1        -0.1274
       9    H6      22.320241   19.593021   22.369839 H          1 MOL1         0.1041
      10    H7      21.108240   19.320457   23.606451 H          1 MOL1         0.1041
      11    C4      20.837231   18.148217   21.789669 C.3        1 MOL1         0.0313
      12    H8      21.626880   17.403309   21.916597 H          1 MOL1         0.1015
      13    H9      20.728477   18.347997   20.720770 H          1 MOL1         0.1015
      14    N1      19.552115   17.519813   22.294232 N.4        1 MOL1        -0.4809
      15    H10     18.782940   18.202894   22.245348 H          1 MOL1         0.3726
      16    H11     19.643171   17.280210   23.293386 H          1 MOL1         0.3726
      17    C5      19.221687   16.279649   21.474950 C.3        1 MOL1        -0.0677
      18    H12     19.097912   16.562741   20.427426 H          1 MOL1         0.1026
      19    H13     20.036783   15.558858   21.568991 H          1 MOL1         0.1026
      20    H14     18.295262   15.838448   21.849180 H          1 MOL1         0.1026
@<TRIPOS>BOND
    1     1     2    1
    2     1     3    1
    3     1     4    1
    4     1     5    1
    5     5     6    1
    6     5     7    1
    7     5     8    1
    8     8     9    1
    9     8    10    1
   10     8    11    1
   11    11    12    1
   12    11    13    1
   13    11    14    1
   14    14    15    1
   15    14    16    1
   16    14    17    1
   17    17    18    1
   18    17    19    1
   19    17    20    1
@<TRIPOS>SUBSTRUCTURE
       1 MOL1            1 RESIDUE      1      MOL     
@<SCITEGIC>MOL_PROPERTY
VConf Rank
SciTegic.value.IntegerValue
659

@<SCITEGIC>MOL_PROPERTY
Conf_Id
SciTegic.value.IntegerValue
26

@<SCITEGIC>MOL_PROPERTY
Delta U+W
SciTegic.value.DoubleValue
2.888

@<SCITEGIC>MOL_PROPERTY
U+W
SciTegic.value.DoubleValue
18.226

@<SCITEGIC>MOL_PROPERTY
Grad RMS
SciTegic.value.DoubleValue
0.000000

@<SCITEGIC>MOL_PROPERTY
U
SciTegic.value.DoubleValue
72.042

@<SCITEGIC>MOL_PROPERTY
W
SciTegic.value.DoubleValue
-53.816

@<SCITEGIC>MOL_PROPERTY
W(PB)
SciTegic.value.DoubleValue
-55.689

@<SCITEGIC>MOL_PROPERTY
W(SA)
SciTegic.value.DoubleValue
1.873

@<SCITEGIC>MOL_PROPERTY
Valence
SciTegic.value.DoubleValue
2.428

@<SCITEGIC>MOL_PROPERTY
Coulomb
SciTegic.value.DoubleValue
69.829

@<SCITEGIC>MOL_PROPERTY
VdW
SciTegic.value.DoubleValue
-0.215

@<SCITEGIC>MOL_PROPERTY
VdW6
SciTegic.value.DoubleValue
-4.563

@<SCITEGIC>MOL_PROPERTY
VdW12
SciTegic.value.DoubleValue
4.348

@<SCITEGIC>MOL_PROPERTY
Bond
SciTegic.value.DoubleValue
0.137

@<SCITEGIC>MOL_PROPERTY
Angle
SciTegic.value.DoubleValue
0.936

@<SCITEGIC>MOL_PROPERTY
Pdih
SciTegic.value.DoubleValue
1.356

@<SCITEGIC>MOL_PROPERTY
Idih
SciTegic.value.DoubleValue
0.000

@<SCITEGIC>MOL_PROPERTY
Tether
SciTegic.value.DoubleValue
0.000

@<TRIPOS>MOLECULE
guest-s9_confgen4.mol2 : confsearch ligand conformer 660
          20          19           1
SMALL
USER_CHARGES
 
@<TRIPOS>ATOM
       1    C1      18.114607   19.777599   22.313391 C.3        1 MOL1        -0.2224
       2    H1      17.077530   19.943636   22.632956 H          1 MOL1         0.1052
       3    H2      18.378399   20.580141   21.612316 H          1 MOL1         0.1052
       4    H3      18.136769   18.819148   21.781479 H          1 MOL1         0.1052
       5    C2      19.056928   19.769158   23.538716 C.3        1 MOL1        -0.1209
       6    H4      18.827098   18.899659   24.170583 H          1 MOL1         0.1041
       7    H5      18.841952   20.655341   24.152337 H          1 MOL1         0.1041
       8    C3      20.566739   19.773003   23.187585 C.3        1 MOL1        -0.1274
       9    H6      20.824685   20.676434   22.619271 H          1 MOL1         0.1041
      10    H7      21.131964   19.836715   24.126883 H          1 MOL1         0.1041
      11    C4      21.049491   18.517183   22.431179 C.3        1 MOL1         0.0313
      12    H8      20.579880   17.626695   22.856362 H          1 MOL1         0.1015
      13    H9      22.131345   18.420720   22.552961 H          1 MOL1         0.1015
      14    N1      20.773313   18.540431   20.939808 N.4        1 MOL1        -0.4809
      15    H10     21.243002   19.349294   20.504908 H          1 MOL1         0.3726
      16    H11     19.767721   18.683644   20.769820 H          1 MOL1         0.3726
      17    C5      21.245960   17.241155   20.301922 C.3        1 MOL1        -0.0677
      18    H12     20.712144   16.402846   20.754741 H          1 MOL1         0.1026
      19    H13     21.040934   17.272303   19.229557 H          1 MOL1         0.1026
      20    H14     22.319486   17.128645   20.468203 H          1 MOL1         0.1026
@<TRIPOS>BOND
    1     1     2    1
    2     1     3    1
    3     1     4    1
    4     1     5    1
    5     5     6    1
    6     5     7    1
    7     5     8    1
    8     8     9    1
    9     8    10    1
   10     8    11    1
   11    11    12    1
   12    11    13    1
   13    11    14    1
   14    14    15    1
   15    14    16    1
   16    14    17    1
   17    17    18    1
   18    17    19    1
   19    17    20    1
@<TRIPOS>SUBSTRUCTURE
       1 MOL1            1 RESIDUE      1      MOL     
@<SCITEGIC>MOL_PROPERTY
VConf Rank
SciTegic.value.IntegerValue
660

@<SCITEGIC>MOL_PROPERTY
Conf_Id
SciTegic.value.IntegerValue
5

@<SCITEGIC>MOL_PROPERTY
Delta U+W
SciTegic.value.DoubleValue
2.950

@<SCITEGIC>MOL_PROPERTY
U+W
SciTegic.value.DoubleValue
18.289

@<SCITEGIC>MOL_PROPERTY
Grad RMS
SciTegic.value.DoubleValue
0.000000

@<SCITEGIC>MOL_PROPERTY
U
SciTegic.value.DoubleValue
72.042

@<SCITEGIC>MOL_PROPERTY
W
SciTegic.value.DoubleValue
-53.753

@<SCITEGIC>MOL_PROPERTY
W(PB)
SciTegic.value.DoubleValue
-55.644

@<SCITEGIC>MOL_PROPERTY
W(SA)
SciTegic.value.DoubleValue
1.891

@<SCITEGIC>MOL_PROPERTY
Valence
SciTegic.value.DoubleValue
2.428

@<SCITEGIC>MOL_PROPERTY
Coulomb
SciTegic.value.DoubleValue
69.829

@<SCITEGIC>MOL_PROPERTY
VdW
SciTegic.value.DoubleValue
-0.215

@<SCITEGIC>MOL_PROPERTY
VdW6
SciTegic.value.DoubleValue
-4.563

@<SCITEGIC>MOL_PROPERTY
VdW12
SciTegic.value.DoubleValue
4.348

@<SCITEGIC>MOL_PROPERTY
Bond
SciTegic.value.DoubleValue
0.137

@<SCITEGIC>MOL_PROPERTY
Angle
SciTegic.value.DoubleValue
0.936

@<SCITEGIC>MOL_PROPERTY
Pdih
SciTegic.value.DoubleValue
1.356

@<SCITEGIC>MOL_PROPERTY
Idih
SciTegic.value.DoubleValue
0.000

@<SCITEGIC>MOL_PROPERTY
Tether
SciTegic.value.DoubleValue
0.000

@<TRIPOS>MOLECULE
guest-s9_confgen4.mol2 : confsearch ligand conformer 661
          20          19           1
SMALL
USER_CHARGES
 
@<TRIPOS>ATOM
       1    C1      22.312394   18.020555   22.526693 C.3        1 MOL1        -0.2224
       2    H1      23.076056   18.377111   21.823311 H          1 MOL1         0.1052
       3    H2      22.096509   18.829226   23.236075 H          1 MOL1         0.1052
       4    H3      22.745180   17.187751   23.095991 H          1 MOL1         0.1052
       5    C2      21.039124   17.562471   21.778975 C.3        1 MOL1        -0.1209
       6    H4      20.292147   17.207090   22.501811 H          1 MOL1         0.1041
       7    H5      21.286923   16.696444   21.149303 H          1 MOL1         0.1041
       8    C3      20.428227   18.670263   20.885163 C.3        1 MOL1        -0.1274
       9    H6      21.152799   18.947397   20.108165 H          1 MOL1         0.1041
      10    H7      19.555329   18.269531   20.353926 H          1 MOL1         0.1041
      11    C4      20.021542   19.947047   21.655853 C.3        1 MOL1         0.0313
      12    H8      19.599014   20.675364   20.959116 H          1 MOL1         0.1015
      13    H9      20.913889   20.391875   22.102980 H          1 MOL1         0.1015
      14    N1      19.010651   19.735137   22.772329 N.4        1 MOL1        -0.4809
      15    H10     18.907174   20.606584   23.315401 H          1 MOL1         0.3726
      16    H11     19.368744   19.041598   23.445290 H          1 MOL1         0.3726
      17    C5      17.656833   19.304470   22.218863 C.3        1 MOL1        -0.0677
      18    H12     17.765344   18.350548   21.699009 H          1 MOL1         0.1026
      19    H13     16.951206   19.193518   23.045112 H          1 MOL1         0.1026
      20    H14     17.293898   20.065452   21.524732 H          1 MOL1         0.1026
@<TRIPOS>BOND
    1     1     2    1
    2     1     3    1
    3     1     4    1
    4     1     5    1
    5     5     6    1
    6     5     7    1
    7     5     8    1
    8     8     9    1
    9     8    10    1
   10     8    11    1
   11    11    12    1
   12    11    13    1
   13    11    14    1
   14    14    15    1
   15    14    16    1
   16    14    17    1
   17    17    18    1
   18    17    19    1
   19    17    20    1
@<TRIPOS>SUBSTRUCTURE
       1 MOL1            1 RESIDUE      1      MOL     
@<SCITEGIC>MOL_PROPERTY
VConf Rank
SciTegic.value.IntegerValue
661

@<SCITEGIC>MOL_PROPERTY
Conf_Id
SciTegic.value.IntegerValue
52

@<SCITEGIC>MOL_PROPERTY
Delta U+W
SciTegic.value.DoubleValue
0.784

@<SCITEGIC>MOL_PROPERTY
U+W
SciTegic.value.DoubleValue
16.122

@<SCITEGIC>MOL_PROPERTY
Grad RMS
SciTegic.value.DoubleValue
0.000000

@<SCITEGIC>MOL_PROPERTY
U
SciTegic.value.DoubleValue
70.777

@<SCITEGIC>MOL_PROPERTY
W
SciTegic.value.DoubleValue
-54.655

@<SCITEGIC>MOL_PROPERTY
W(PB)
SciTegic.value.DoubleValue
-56.491

@<SCITEGIC>MOL_PROPERTY
W(SA)
SciTegic.value.DoubleValue
1.836

@<SCITEGIC>MOL_PROPERTY
Valence
SciTegic.value.DoubleValue
1.529

@<SCITEGIC>MOL_PROPERTY
Coulomb
SciTegic.value.DoubleValue
69.166

@<SCITEGIC>MOL_PROPERTY
VdW
SciTegic.value.DoubleValue
0.082

@<SCITEGIC>MOL_PROPERTY
VdW6
SciTegic.value.DoubleValue
-5.166

@<SCITEGIC>MOL_PROPERTY
VdW12
SciTegic.value.DoubleValue
5.248

@<SCITEGIC>MOL_PROPERTY
Bond
SciTegic.value.DoubleValue
0.171

@<SCITEGIC>MOL_PROPERTY
Angle
SciTegic.value.DoubleValue
0.752

@<SCITEGIC>MOL_PROPERTY
Pdih
SciTegic.value.DoubleValue
0.605

@<SCITEGIC>MOL_PROPERTY
Idih
SciTegic.value.DoubleValue
0.000

@<SCITEGIC>MOL_PROPERTY
Tether
SciTegic.value.DoubleValue
0.000

@<TRIPOS>MOLECULE
guest-s9_confgen4.mol2 : confsearch ligand conformer 662
          20          19           1
SMALL
USER_CHARGES
 
@<TRIPOS>ATOM
       1    C1      19.133528   20.737511   21.512856 C.3        1 MOL1        -0.2224
       2    H1      18.505435   21.611760   21.297551 H          1 MOL1         0.1052
       3    H2      19.605198   20.914092   22.486252 H          1 MOL1         0.1052
       4    H3      19.914692   20.691346   20.742818 H          1 MOL1         0.1052
       5    C2      18.275940   19.451494   21.521104 C.3        1 MOL1        -0.1209
       6    H4      17.648622   19.444950   20.618632 H          1 MOL1         0.1041
       7    H5      17.581703   19.478290   22.372769 H          1 MOL1         0.1041
       8    C3      19.093712   18.135060   21.553872 C.3        1 MOL1        -0.1274
       9    H6      18.388213   17.298794   21.461596 H          1 MOL1         0.1041
      10    H7      19.746013   18.071300   20.673906 H          1 MOL1         0.1041
      11    C4      19.909345   17.916565   22.849463 C.3        1 MOL1         0.0313
      12    H8      20.170839   16.858921   22.935676 H          1 MOL1         0.1015
      13    H9      19.288141   18.177259   23.710051 H          1 MOL1         0.1015
      14    N1      21.206272   18.703628   22.954459 N.4        1 MOL1        -0.4809
      15    H10     21.572496   18.639108   23.917202 H          1 MOL1         0.3726
      16    H11     21.024913   19.705259   22.800552 H          1 MOL1         0.3726
      17    C5      22.248518   18.186073   21.969277 C.3        1 MOL1        -0.0677
      18    H12     22.432629   17.127435   22.164288 H          1 MOL1         0.1026
      19    H13     21.880849   18.316195   20.949716 H          1 MOL1         0.1026
      20    H14     23.174663   18.750251   22.099172 H          1 MOL1         0.1026
@<TRIPOS>BOND
    1     1     2    1
    2     1     3    1
    3     1     4    1
    4     1     5    1
    5     5     6    1
    6     5     7    1
    7     5     8    1
    8     8     9    1
    9     8    10    1
   10     8    11    1
   11    11    12    1
   12    11    13    1
   13    11    14    1
   14    14    15    1
   15    14    16    1
   16    14    17    1
   17    17    18    1
   18    17    19    1
   19    17    20    1
@<TRIPOS>SUBSTRUCTURE
       1 MOL1            1 RESIDUE      1      MOL     
@<SCITEGIC>MOL_PROPERTY
VConf Rank
SciTegic.value.IntegerValue
662

@<SCITEGIC>MOL_PROPERTY
Conf_Id
SciTegic.value.IntegerValue
55

@<SCITEGIC>MOL_PROPERTY
Delta U+W
SciTegic.value.DoubleValue
2.745

@<SCITEGIC>MOL_PROPERTY
U+W
SciTegic.value.DoubleValue
18.083

@<SCITEGIC>MOL_PROPERTY
Grad RMS
SciTegic.value.DoubleValue
0.000000

@<SCITEGIC>MOL_PROPERTY
U
SciTegic.value.DoubleValue
72.490

@<SCITEGIC>MOL_PROPERTY
W
SciTegic.value.DoubleValue
-54.407

@<SCITEGIC>MOL_PROPERTY
W(PB)
SciTegic.value.DoubleValue
-56.269

@<SCITEGIC>MOL_PROPERTY
W(SA)
SciTegic.value.DoubleValue
1.861

@<SCITEGIC>MOL_PROPERTY
Valence
SciTegic.value.DoubleValue
2.738

@<SCITEGIC>MOL_PROPERTY
Coulomb
SciTegic.value.DoubleValue
69.795

@<SCITEGIC>MOL_PROPERTY
VdW
SciTegic.value.DoubleValue
-0.043

@<SCITEGIC>MOL_PROPERTY
VdW6
SciTegic.value.DoubleValue
-5.333

@<SCITEGIC>MOL_PROPERTY
VdW12
SciTegic.value.DoubleValue
5.290

@<SCITEGIC>MOL_PROPERTY
Bond
SciTegic.value.DoubleValue
0.182

@<SCITEGIC>MOL_PROPERTY
Angle
SciTegic.value.DoubleValue
1.135

@<SCITEGIC>MOL_PROPERTY
Pdih
SciTegic.value.DoubleValue
1.422

@<SCITEGIC>MOL_PROPERTY
Idih
SciTegic.value.DoubleValue
0.000

@<SCITEGIC>MOL_PROPERTY
Tether
SciTegic.value.DoubleValue
0.000

@<TRIPOS>MOLECULE
guest-s9_confgen4.mol2 : confsearch ligand conformer 663
          20          19           1
SMALL
USER_CHARGES
 
@<TRIPOS>ATOM
       1    C1      20.583876   20.797865   21.634679 C.3        1 MOL1        -0.2224
       2    H1      21.008732   21.808824   21.583414 H          1 MOL1         0.1052
       3    H2      20.497677   20.420745   20.607227 H          1 MOL1         0.1052
       4    H3      19.579448   20.894035   22.062496 H          1 MOL1         0.1052
       5    C2      21.483755   19.882282   22.495664 C.3        1 MOL1        -0.1209
       6    H4      21.457250   20.219354   23.541464 H          1 MOL1         0.1041
       7    H5      22.524447   20.004573   22.163955 H          1 MOL1         0.1041
       8    C3      21.124190   18.376254   22.422020 C.3        1 MOL1        -0.1274
       9    H6      21.207291   18.016143   21.388910 H          1 MOL1         0.1041
      10    H7      21.881636   17.821668   22.991491 H          1 MOL1         0.1041
      11    C4      19.740700   18.015649   23.011489 C.3        1 MOL1         0.0313
      12    H8      19.606157   18.547815   23.956564 H          1 MOL1         0.1015
      13    H9      19.709042   16.944306   23.225136 H          1 MOL1         0.1015
      14    N1      18.543894   18.326506   22.126315 N.4        1 MOL1        -0.4809
      15    H10     18.570095   19.312207   21.830433 H          1 MOL1         0.3726
      16    H11     17.674706   18.230903   22.674522 H          1 MOL1         0.3726
      17    C5      18.495978   17.400602   20.915892 C.3        1 MOL1        -0.0677
      18    H12     19.388640   17.553019   20.306349 H          1 MOL1         0.1026
      19    H13     18.453515   16.364299   21.257815 H          1 MOL1         0.1026
      20    H14     17.606123   17.629603   20.325445 H          1 MOL1         0.1026
@<TRIPOS>BOND
    1     1     2    1
    2     1     3    1
    3     1     4    1
    4     1     5    1
    5     5     6    1
    6     5     7    1
    7     5     8    1
    8     8     9    1
    9     8    10    1
   10     8    11    1
   11    11    12    1
   12    11    13    1
   13    11    14    1
   14    14    15    1
   15    14    16    1
   16    14    17    1
   17    17    18    1
   18    17    19    1
   19    17    20    1
@<TRIPOS>SUBSTRUCTURE
       1 MOL1            1 RESIDUE      1      MOL     
@<SCITEGIC>MOL_PROPERTY
VConf Rank
SciTegic.value.IntegerValue
663

@<SCITEGIC>MOL_PROPERTY
Conf_Id
SciTegic.value.IntegerValue
76

@<SCITEGIC>MOL_PROPERTY
Delta U+W
SciTegic.value.DoubleValue
2.799

@<SCITEGIC>MOL_PROPERTY
U+W
SciTegic.value.DoubleValue
18.137

@<SCITEGIC>MOL_PROPERTY
Grad RMS
SciTegic.value.DoubleValue
0.000000

@<SCITEGIC>MOL_PROPERTY
U
SciTegic.value.DoubleValue
72.490

@<SCITEGIC>MOL_PROPERTY
W
SciTegic.value.DoubleValue
-54.353

@<SCITEGIC>MOL_PROPERTY
W(PB)
SciTegic.value.DoubleValue
-56.201

@<SCITEGIC>MOL_PROPERTY
W(SA)
SciTegic.value.DoubleValue
1.848

@<SCITEGIC>MOL_PROPERTY
Valence
SciTegic.value.DoubleValue
2.738

@<SCITEGIC>MOL_PROPERTY
Coulomb
SciTegic.value.DoubleValue
69.795

@<SCITEGIC>MOL_PROPERTY
VdW
SciTegic.value.DoubleValue
-0.043

@<SCITEGIC>MOL_PROPERTY
VdW6
SciTegic.value.DoubleValue
-5.334

@<SCITEGIC>MOL_PROPERTY
VdW12
SciTegic.value.DoubleValue
5.290

@<SCITEGIC>MOL_PROPERTY
Bond
SciTegic.value.DoubleValue
0.182

@<SCITEGIC>MOL_PROPERTY
Angle
SciTegic.value.DoubleValue
1.135

@<SCITEGIC>MOL_PROPERTY
Pdih
SciTegic.value.DoubleValue
1.421

@<SCITEGIC>MOL_PROPERTY
Idih
SciTegic.value.DoubleValue
0.000

@<SCITEGIC>MOL_PROPERTY
Tether
SciTegic.value.DoubleValue
0.000

@<TRIPOS>MOLECULE
guest-s9_confgen4.mol2 : confsearch ligand conformer 664
          20          19           1
SMALL
USER_CHARGES
 
@<TRIPOS>ATOM
       1    C1      20.000015   20.860532   21.854277 C.3        1 MOL1        -0.2224
       2    H1      19.029037   20.367502   21.985324 H          1 MOL1         0.1052
       3    H2      20.226884   21.416327   22.773285 H          1 MOL1         0.1052
       4    H3      19.894667   21.589248   21.040201 H          1 MOL1         0.1052
       5    C2      21.118827   19.843617   21.530694 C.3        1 MOL1        -0.1209
       6    H4      22.051315   20.392567   21.338463 H          1 MOL1         0.1041
       7    H5      20.888539   19.312629   20.598074 H          1 MOL1         0.1041
       8    C3      21.367844   18.830168   22.674528 C.3        1 MOL1        -0.1274
       9    H6      22.199336   18.168288   22.398950 H          1 MOL1         0.1041
      10    H7      21.703601   19.380190   23.563566 H          1 MOL1         0.1041
      11    C4      20.146833   17.968274   23.073219 C.3        1 MOL1         0.0313
      12    H8      19.300160   18.603477   23.343827 H          1 MOL1         0.1015
      13    H9      20.421481   17.390305   23.959326 H          1 MOL1         0.1015
      14    N1      19.682068   16.963578   22.029417 N.4        1 MOL1        -0.4809
      15    H10     19.284012   16.139287   22.505753 H          1 MOL1         0.3726
      16    H11     20.487223   16.597492   21.499936 H          1 MOL1         0.3726
      17    C5      18.630424   17.560315   21.100333 C.3        1 MOL1        -0.0677
      18    H12     18.306562   16.796023   20.390476 H          1 MOL1         0.1026
      19    H13     17.776699   17.894284   21.693805 H          1 MOL1         0.1026
      20    H14     19.054445   18.405992   20.558062 H          1 MOL1         0.1026
@<TRIPOS>BOND
    1     1     2    1
    2     1     3    1
    3     1     4    1
    4     1     5    1
    5     5     6    1
    6     5     7    1
    7     5     8    1
    8     8     9    1
    9     8    10    1
   10     8    11    1
   11    11    12    1
   12    11    13    1
   13    11    14    1
   14    14    15    1
   15    14    16    1
   16    14    17    1
   17    17    18    1
   18    17    19    1
   19    17    20    1
@<TRIPOS>SUBSTRUCTURE
       1 MOL1            1 RESIDUE      1      MOL     
@<SCITEGIC>MOL_PROPERTY
VConf Rank
SciTegic.value.IntegerValue
664

@<SCITEGIC>MOL_PROPERTY
Conf_Id
SciTegic.value.IntegerValue
60

@<SCITEGIC>MOL_PROPERTY
Delta U+W
SciTegic.value.DoubleValue
1.788

@<SCITEGIC>MOL_PROPERTY
U+W
SciTegic.value.DoubleValue
17.127

@<SCITEGIC>MOL_PROPERTY
Grad RMS
SciTegic.value.DoubleValue
0.000000

@<SCITEGIC>MOL_PROPERTY
U
SciTegic.value.DoubleValue
72.122

@<SCITEGIC>MOL_PROPERTY
W
SciTegic.value.DoubleValue
-54.995

@<SCITEGIC>MOL_PROPERTY
W(PB)
SciTegic.value.DoubleValue
-56.810

@<SCITEGIC>MOL_PROPERTY
W(SA)
SciTegic.value.DoubleValue
1.815

@<SCITEGIC>MOL_PROPERTY
Valence
SciTegic.value.DoubleValue
3.197

@<SCITEGIC>MOL_PROPERTY
Coulomb
SciTegic.value.DoubleValue
69.115

@<SCITEGIC>MOL_PROPERTY
VdW
SciTegic.value.DoubleValue
-0.190

@<SCITEGIC>MOL_PROPERTY
VdW6
SciTegic.value.DoubleValue
-5.585

@<SCITEGIC>MOL_PROPERTY
VdW12
SciTegic.value.DoubleValue
5.395

@<SCITEGIC>MOL_PROPERTY
Bond
SciTegic.value.DoubleValue
0.177

@<SCITEGIC>MOL_PROPERTY
Angle
SciTegic.value.DoubleValue
1.207

@<SCITEGIC>MOL_PROPERTY
Pdih
SciTegic.value.DoubleValue
1.813

@<SCITEGIC>MOL_PROPERTY
Idih
SciTegic.value.DoubleValue
0.000

@<SCITEGIC>MOL_PROPERTY
Tether
SciTegic.value.DoubleValue
0.000

@<TRIPOS>MOLECULE
guest-s9_confgen4.mol2 : confsearch ligand conformer 665
          20          19           1
SMALL
USER_CHARGES
 
@<TRIPOS>ATOM
       1    C1      18.614336   20.221195   22.444630 C.3        1 MOL1        -0.2224
       2    H1      18.587109   21.294479   22.673028 H          1 MOL1         0.1052
       3    H2      17.578714   19.879764   22.318680 H          1 MOL1         0.1052
       4    H3      19.038673   19.707690   23.316009 H          1 MOL1         0.1052
       5    C2      19.443904   19.959423   21.166407 C.3        1 MOL1        -0.1209
       6    H4      20.469682   20.326428   21.300014 H          1 MOL1         0.1041
       7    H5      19.020806   20.551059   20.342522 H          1 MOL1         0.1041
       8    C3      19.460485   18.468813   20.747774 C.3        1 MOL1        -0.1274
       9    H6      18.433512   18.158843   20.513486 H          1 MOL1         0.1041
      10    H7      20.027583   18.359926   19.813991 H          1 MOL1         0.1041
      11    C4      20.030716   17.491099   21.802093 C.3        1 MOL1         0.0313
      12    H8      19.874507   16.474200   21.433064 H          1 MOL1         0.1015
      13    H9      19.489147   17.585578   22.746202 H          1 MOL1         0.1015
      14    N1      21.519834   17.623851   22.084665 N.4        1 MOL1        -0.4809
      15    H10     22.025316   17.893098   21.227554 H          1 MOL1         0.3726
      16    H11     21.901325   16.698335   22.335033 H          1 MOL1         0.3726
      17    C5      21.793644   18.601776   23.222177 C.3        1 MOL1        -0.0677
      18    H12     21.278757   18.257692   24.121670 H          1 MOL1         0.1026
      19    H13     22.869221   18.640755   23.408025 H          1 MOL1         0.1026
      20    H14     21.434008   19.594503   22.949825 H          1 MOL1         0.1026
@<TRIPOS>BOND
    1     1     2    1
    2     1     3    1
    3     1     4    1
    4     1     5    1
    5     5     6    1
    6     5     7    1
    7     5     8    1
    8     8     9    1
    9     8    10    1
   10     8    11    1
   11    11    12    1
   12    11    13    1
   13    11    14    1
   14    14    15    1
   15    14    16    1
   16    14    17    1
   17    17    18    1
   18    17    19    1
   19    17    20    1
@<TRIPOS>SUBSTRUCTURE
       1 MOL1            1 RESIDUE      1      MOL     
@<SCITEGIC>MOL_PROPERTY
VConf Rank
SciTegic.value.IntegerValue
665

@<SCITEGIC>MOL_PROPERTY
Conf_Id
SciTegic.value.IntegerValue
54

@<SCITEGIC>MOL_PROPERTY
Delta U+W
SciTegic.value.DoubleValue
1.880

@<SCITEGIC>MOL_PROPERTY
U+W
SciTegic.value.DoubleValue
17.218

@<SCITEGIC>MOL_PROPERTY
Grad RMS
SciTegic.value.DoubleValue
0.000000

@<SCITEGIC>MOL_PROPERTY
U
SciTegic.value.DoubleValue
72.122

@<SCITEGIC>MOL_PROPERTY
W
SciTegic.value.DoubleValue
-54.903

@<SCITEGIC>MOL_PROPERTY
W(PB)
SciTegic.value.DoubleValue
-56.724

@<SCITEGIC>MOL_PROPERTY
W(SA)
SciTegic.value.DoubleValue
1.821

@<SCITEGIC>MOL_PROPERTY
Valence
SciTegic.value.DoubleValue
3.197

@<SCITEGIC>MOL_PROPERTY
Coulomb
SciTegic.value.DoubleValue
69.115

@<SCITEGIC>MOL_PROPERTY
VdW
SciTegic.value.DoubleValue
-0.190

@<SCITEGIC>MOL_PROPERTY
VdW6
SciTegic.value.DoubleValue
-5.585

@<SCITEGIC>MOL_PROPERTY
VdW12
SciTegic.value.DoubleValue
5.395

@<SCITEGIC>MOL_PROPERTY
Bond
SciTegic.value.DoubleValue
0.177

@<SCITEGIC>MOL_PROPERTY
Angle
SciTegic.value.DoubleValue
1.207

@<SCITEGIC>MOL_PROPERTY
Pdih
SciTegic.value.DoubleValue
1.813

@<SCITEGIC>MOL_PROPERTY
Idih
SciTegic.value.DoubleValue
0.000

@<SCITEGIC>MOL_PROPERTY
Tether
SciTegic.value.DoubleValue
0.000

@<TRIPOS>MOLECULE
guest-s9_confgen4.mol2 : confsearch ligand conformer 666
          20          19           1
SMALL
USER_CHARGES
 
@<TRIPOS>ATOM
       1    C1      18.354046   17.215209   24.211257 C.3        1 MOL1        -0.2224
       2    H1      19.204376   16.881476   24.820139 H          1 MOL1         0.1052
       3    H2      17.521502   17.439067   24.890804 H          1 MOL1         0.1052
       4    H3      18.047008   16.380987   23.567069 H          1 MOL1         0.1052
       5    C2      18.723730   18.458337   23.373285 C.3        1 MOL1        -0.1209
       6    H4      18.992467   19.285274   24.045823 H          1 MOL1         0.1041
       7    H5      17.844243   18.788663   22.802550 H          1 MOL1         0.1041
       8    C3      19.894047   18.172363   22.406673 C.3        1 MOL1        -0.1274
       9    H6      20.773276   17.845805   22.977885 H          1 MOL1         0.1041
      10    H7      19.623521   17.348395   21.732983 H          1 MOL1         0.1041
      11    C4      20.256557   19.416562   21.574726 C.3        1 MOL1         0.0313
      12    H8      20.541317   20.234106   22.241827 H          1 MOL1         0.1015
      13    H9      19.387944   19.734987   20.992828 H          1 MOL1         0.1015
      14    N1      21.402516   19.182780   20.609932 N.4        1 MOL1        -0.4809
      15    H10     21.174415   18.409968   19.965813 H          1 MOL1         0.3726
      16    H11     22.242287   18.872143   21.122224 H          1 MOL1         0.3726
      17    C5      21.694245   20.458306   19.830763 C.3        1 MOL1        -0.0677
      18    H12     21.966540   21.252467   20.529312 H          1 MOL1         0.1026
      19    H13     22.520813   20.275936   19.140447 H          1 MOL1         0.1026
      20    H14     20.803469   20.749019   19.269679 H          1 MOL1         0.1026
@<TRIPOS>BOND
    1     1     2    1
    2     1     3    1
    3     1     4    1
    4     1     5    1
    5     5     6    1
    6     5     7    1
    7     5     8    1
    8     8     9    1
    9     8    10    1
   10     8    11    1
   11    11    12    1
   12    11    13    1
   13    11    14    1
   14    14    15    1
   15    14    16    1
   16    14    17    1
   17    17    18    1
   18    17    19    1
   19    17    20    1
@<TRIPOS>SUBSTRUCTURE
       1 MOL1            1 RESIDUE      1      MOL     
@<SCITEGIC>MOL_PROPERTY
VConf Rank
SciTegic.value.IntegerValue
666

@<SCITEGIC>MOL_PROPERTY
Conf_Id
SciTegic.value.IntegerValue
67

@<SCITEGIC>MOL_PROPERTY
Delta U+W
SciTegic.value.DoubleValue
0.000

@<SCITEGIC>MOL_PROPERTY
U+W
SciTegic.value.DoubleValue
15.338

@<SCITEGIC>MOL_PROPERTY
Grad RMS
SciTegic.value.DoubleValue
0.000000

@<SCITEGIC>MOL_PROPERTY
U
SciTegic.value.DoubleValue
69.277

@<SCITEGIC>MOL_PROPERTY
W
SciTegic.value.DoubleValue
-53.939

@<SCITEGIC>MOL_PROPERTY
W(PB)
SciTegic.value.DoubleValue
-55.889

@<SCITEGIC>MOL_PROPERTY
W(SA)
SciTegic.value.DoubleValue
1.950

@<SCITEGIC>MOL_PROPERTY
Valence
SciTegic.value.DoubleValue
0.846

@<SCITEGIC>MOL_PROPERTY
Coulomb
SciTegic.value.DoubleValue
68.557

@<SCITEGIC>MOL_PROPERTY
VdW
SciTegic.value.DoubleValue
-0.127

@<SCITEGIC>MOL_PROPERTY
VdW6
SciTegic.value.DoubleValue
-3.008

@<SCITEGIC>MOL_PROPERTY
VdW12
SciTegic.value.DoubleValue
2.882

@<SCITEGIC>MOL_PROPERTY
Bond
SciTegic.value.DoubleValue
0.088

@<SCITEGIC>MOL_PROPERTY
Angle
SciTegic.value.DoubleValue
0.332

@<SCITEGIC>MOL_PROPERTY
Pdih
SciTegic.value.DoubleValue
0.426

@<SCITEGIC>MOL_PROPERTY
Idih
SciTegic.value.DoubleValue
0.000

@<SCITEGIC>MOL_PROPERTY
Tether
SciTegic.value.DoubleValue
0.000

@<TRIPOS>MOLECULE
guest-s9_confgen4.mol2 : confsearch ligand conformer 667
          20          19           1
SMALL
USER_CHARGES
 
@<TRIPOS>ATOM
       1    C1      19.460980   15.944001   22.161616 C.3        1 MOL1        -0.2224
       2    H1      19.076587   16.079895   23.180902 H          1 MOL1         0.1052
       3    H2      18.865314   15.157778   21.679894 H          1 MOL1         0.1052
       4    H3      20.496283   15.585722   22.231986 H          1 MOL1         0.1052
       5    C2      19.381029   17.259405   21.356885 C.3        1 MOL1        -0.1209
       6    H4      18.330952   17.573863   21.274546 H          1 MOL1         0.1041
       7    H5      19.739102   17.083106   20.332673 H          1 MOL1         0.1041
       8    C3      20.211155   18.385195   22.012002 C.3        1 MOL1        -0.1274
       9    H6      19.850226   18.557621   23.034134 H          1 MOL1         0.1041
      10    H7      21.260692   18.072122   22.089971 H          1 MOL1         0.1041
      11    C4      20.126208   19.694317   21.200240 C.3        1 MOL1         0.0313
      12    H8      19.089910   20.038956   21.159091 H          1 MOL1         0.1015
      13    H9      20.458422   19.499429   20.177337 H          1 MOL1         0.1015
      14    N1      20.976809   20.831597   21.742307 N.4        1 MOL1        -0.4809
      15    H10     20.993190   21.605784   21.059919 H          1 MOL1         0.3726
      16    H11     21.960556   20.533407   21.826570 H          1 MOL1         0.3726
      17    C5      20.445004   21.333053   23.080679 C.3        1 MOL1        -0.0677
      18    H12     20.492923   20.526779   23.815194 H          1 MOL1         0.1026
      19    H13     21.058125   22.171874   23.417477 H          1 MOL1         0.1026
      20    H14     19.410466   21.660244   22.956637 H          1 MOL1         0.1026
@<TRIPOS>BOND
    1     1     2    1
    2     1     3    1
    3     1     4    1
    4     1     5    1
    5     5     6    1
    6     5     7    1
    7     5     8    1
    8     8     9    1
    9     8    10    1
   10     8    11    1
   11    11    12    1
   12    11    13    1
   13    11    14    1
   14    14    15    1
   15    14    16    1
   16    14    17    1
   17    17    18    1
   18    17    19    1
   19    17    20    1
@<TRIPOS>SUBSTRUCTURE
       1 MOL1            1 RESIDUE      1      MOL     
@<SCITEGIC>MOL_PROPERTY
VConf Rank
SciTegic.value.IntegerValue
667

@<SCITEGIC>MOL_PROPERTY
Conf_Id
SciTegic.value.IntegerValue
37

@<SCITEGIC>MOL_PROPERTY
Delta U+W
SciTegic.value.DoubleValue
-0.021

@<SCITEGIC>MOL_PROPERTY
U+W
SciTegic.value.DoubleValue
15.318

@<SCITEGIC>MOL_PROPERTY
Grad RMS
SciTegic.value.DoubleValue
0.000000

@<SCITEGIC>MOL_PROPERTY
U
SciTegic.value.DoubleValue
69.657

@<SCITEGIC>MOL_PROPERTY
W
SciTegic.value.DoubleValue
-54.340

@<SCITEGIC>MOL_PROPERTY
W(PB)
SciTegic.value.DoubleValue
-56.238

@<SCITEGIC>MOL_PROPERTY
W(SA)
SciTegic.value.DoubleValue
1.899

@<SCITEGIC>MOL_PROPERTY
Valence
SciTegic.value.DoubleValue
1.137

@<SCITEGIC>MOL_PROPERTY
Coulomb
SciTegic.value.DoubleValue
68.383

@<SCITEGIC>MOL_PROPERTY
VdW
SciTegic.value.DoubleValue
0.138

@<SCITEGIC>MOL_PROPERTY
VdW6
SciTegic.value.DoubleValue
-3.703

@<SCITEGIC>MOL_PROPERTY
VdW12
SciTegic.value.DoubleValue
3.841

@<SCITEGIC>MOL_PROPERTY
Bond
SciTegic.value.DoubleValue
0.125

@<SCITEGIC>MOL_PROPERTY
Angle
SciTegic.value.DoubleValue
0.468

@<SCITEGIC>MOL_PROPERTY
Pdih
SciTegic.value.DoubleValue
0.543

@<SCITEGIC>MOL_PROPERTY
Idih
SciTegic.value.DoubleValue
0.000

@<SCITEGIC>MOL_PROPERTY
Tether
SciTegic.value.DoubleValue
0.000

@<TRIPOS>MOLECULE
guest-s9_confgen4.mol2 : confsearch ligand conformer 668
          20          19           1
SMALL
USER_CHARGES
 
@<TRIPOS>ATOM
       1    C1      17.731321   20.769533   22.034027 C.3        1 MOL1        -0.2224
       2    H1      16.907769   21.125531   22.666519 H          1 MOL1         0.1052
       3    H2      18.446420   21.594314   21.917677 H          1 MOL1         0.1052
       4    H3      17.317707   20.534021   21.044771 H          1 MOL1         0.1052
       5    C2      18.407009   19.531979   22.663450 C.3        1 MOL1        -0.1209
       6    H4      17.659561   18.737525   22.799366 H          1 MOL1         0.1041
       7    H5      18.779964   19.789346   23.664945 H          1 MOL1         0.1041
       8    C3      19.571076   19.008256   21.793767 C.3        1 MOL1        -0.1274
       9    H6      19.197017   18.747336   20.794956 H          1 MOL1         0.1041
      10    H7      20.314623   19.804628   21.660786 H          1 MOL1         0.1041
      11    C4      20.238502   17.771376   22.429880 C.3        1 MOL1         0.0313
      12    H8      19.480119   16.999726   22.585084 H          1 MOL1         0.1015
      13    H9      20.656501   18.035251   23.404574 H          1 MOL1         0.1015
      14    N1      21.348687   17.152217   21.596280 N.4        1 MOL1        -0.4809
      15    H10     21.000171   16.918154   20.654195 H          1 MOL1         0.3726
      16    H11     21.625305   16.247009   22.007823 H          1 MOL1         0.3726
      17    C5      22.560366   18.074419   21.513247 C.3        1 MOL1        -0.0677
      18    H12     22.919194   18.288283   22.522312 H          1 MOL1         0.1026
      19    H13     23.347640   17.579754   20.940116 H          1 MOL1         0.1026
      20    H14     22.275440   19.004008   21.016692 H          1 MOL1         0.1026
@<TRIPOS>BOND
    1     1     2    1
    2     1     3    1
    3     1     4    1
    4     1     5    1
    5     5     6    1
    6     5     7    1
    7     5     8    1
    8     8     9    1
    9     8    10    1
   10     8    11    1
   11    11    12    1
   12    11    13    1
   13    11    14    1
   14    14    15    1
   15    14    16    1
   16    14    17    1
   17    17    18    1
   18    17    19    1
   19    17    20    1
@<TRIPOS>SUBSTRUCTURE
       1 MOL1            1 RESIDUE      1      MOL     
@<SCITEGIC>MOL_PROPERTY
VConf Rank
SciTegic.value.IntegerValue
668

@<SCITEGIC>MOL_PROPERTY
Conf_Id
SciTegic.value.IntegerValue
2

@<SCITEGIC>MOL_PROPERTY
Delta U+W
SciTegic.value.DoubleValue
0.069

@<SCITEGIC>MOL_PROPERTY
U+W
SciTegic.value.DoubleValue
15.407

@<SCITEGIC>MOL_PROPERTY
Grad RMS
SciTegic.value.DoubleValue
0.000000

@<SCITEGIC>MOL_PROPERTY
U
SciTegic.value.DoubleValue
69.657

@<SCITEGIC>MOL_PROPERTY
W
SciTegic.value.DoubleValue
-54.250

@<SCITEGIC>MOL_PROPERTY
W(PB)
SciTegic.value.DoubleValue
-56.176

@<SCITEGIC>MOL_PROPERTY
W(SA)
SciTegic.value.DoubleValue
1.926

@<SCITEGIC>MOL_PROPERTY
Valence
SciTegic.value.DoubleValue
1.137

@<SCITEGIC>MOL_PROPERTY
Coulomb
SciTegic.value.DoubleValue
68.383

@<SCITEGIC>MOL_PROPERTY
VdW
SciTegic.value.DoubleValue
0.138

@<SCITEGIC>MOL_PROPERTY
VdW6
SciTegic.value.DoubleValue
-3.703

@<SCITEGIC>MOL_PROPERTY
VdW12
SciTegic.value.DoubleValue
3.841

@<SCITEGIC>MOL_PROPERTY
Bond
SciTegic.value.DoubleValue
0.125

@<SCITEGIC>MOL_PROPERTY
Angle
SciTegic.value.DoubleValue
0.468

@<SCITEGIC>MOL_PROPERTY
Pdih
SciTegic.value.DoubleValue
0.543

@<SCITEGIC>MOL_PROPERTY
Idih
SciTegic.value.DoubleValue
0.000

@<SCITEGIC>MOL_PROPERTY
Tether
SciTegic.value.DoubleValue
0.000

@<TRIPOS>MOLECULE
guest-s9_confgen4.mol2 : confsearch ligand conformer 669
          20          19           1
SMALL
USER_CHARGES
 
@<TRIPOS>ATOM
       1    C1      20.443640   16.614159   20.479975 C.3        1 MOL1        -0.2224
       2    H1      20.142143   16.319602   21.493088 H          1 MOL1         0.1052
       3    H2      19.536871   16.728421   19.871853 H          1 MOL1         0.1052
       4    H3      21.028802   15.787865   20.055929 H          1 MOL1         0.1052
       5    C2      21.274925   17.917672   20.490292 C.3        1 MOL1        -0.1209
       6    H4      21.632521   18.122813   19.471441 H          1 MOL1         0.1041
       7    H5      22.172054   17.778391   21.109942 H          1 MOL1         0.1041
       8    C3      20.475620   19.140628   20.997901 C.3        1 MOL1        -0.1274
       9    H6      21.100070   20.039126   20.905052 H          1 MOL1         0.1041
      10    H7      19.598599   19.299142   20.356362 H          1 MOL1         0.1041
      11    C4      20.024137   18.988176   22.463564 C.3        1 MOL1         0.0313
      12    H8      20.897294   18.832833   23.102187 H          1 MOL1         0.1015
      13    H9      19.369539   18.118579   22.558802 H          1 MOL1         0.1015
      14    N1      19.270838   20.194024   22.989815 N.4        1 MOL1        -0.4809
      15    H10     18.441518   20.379396   22.405045 H          1 MOL1         0.3726
      16    H11     19.854483   21.041026   22.912035 H          1 MOL1         0.3726
      17    C5      18.861226   19.959354   24.437655 C.3        1 MOL1        -0.0677
      18    H12     19.755845   19.799686   25.043432 H          1 MOL1         0.1026
      19    H13     18.320190   20.834691   24.803810 H          1 MOL1         0.1026
      20    H14     18.216666   19.079314   24.491251 H          1 MOL1         0.1026
@<TRIPOS>BOND
    1     1     2    1
    2     1     3    1
    3     1     4    1
    4     1     5    1
    5     5     6    1
    6     5     7    1
    7     5     8    1
    8     8     9    1
    9     8    10    1
   10     8    11    1
   11    11    12    1
   12    11    13    1
   13    11    14    1
   14    14    15    1
   15    14    16    1
   16    14    17    1
   17    17    18    1
   18    17    19    1
   19    17    20    1
@<TRIPOS>SUBSTRUCTURE
       1 MOL1            1 RESIDUE      1      MOL     
@<SCITEGIC>MOL_PROPERTY
VConf Rank
SciTegic.value.IntegerValue
669

@<SCITEGIC>MOL_PROPERTY
Conf_Id
SciTegic.value.IntegerValue
34

@<SCITEGIC>MOL_PROPERTY
Delta U+W
SciTegic.value.DoubleValue
0.276

@<SCITEGIC>MOL_PROPERTY
U+W
SciTegic.value.DoubleValue
15.615

@<SCITEGIC>MOL_PROPERTY
Grad RMS
SciTegic.value.DoubleValue
0.000000

@<SCITEGIC>MOL_PROPERTY
U
SciTegic.value.DoubleValue
69.798

@<SCITEGIC>MOL_PROPERTY
W
SciTegic.value.DoubleValue
-54.184

@<SCITEGIC>MOL_PROPERTY
W(PB)
SciTegic.value.DoubleValue
-56.116

@<SCITEGIC>MOL_PROPERTY
W(SA)
SciTegic.value.DoubleValue
1.933

@<SCITEGIC>MOL_PROPERTY
Valence
SciTegic.value.DoubleValue
1.134

@<SCITEGIC>MOL_PROPERTY
Coulomb
SciTegic.value.DoubleValue
68.735

@<SCITEGIC>MOL_PROPERTY
VdW
SciTegic.value.DoubleValue
-0.070

@<SCITEGIC>MOL_PROPERTY
VdW6
SciTegic.value.DoubleValue
-3.565

@<SCITEGIC>MOL_PROPERTY
VdW12
SciTegic.value.DoubleValue
3.494

@<SCITEGIC>MOL_PROPERTY
Bond
SciTegic.value.DoubleValue
0.108

@<SCITEGIC>MOL_PROPERTY
Angle
SciTegic.value.DoubleValue
0.456

@<SCITEGIC>MOL_PROPERTY
Pdih
SciTegic.value.DoubleValue
0.569

@<SCITEGIC>MOL_PROPERTY
Idih
SciTegic.value.DoubleValue
0.000

@<SCITEGIC>MOL_PROPERTY
Tether
SciTegic.value.DoubleValue
0.000

@<TRIPOS>MOLECULE
guest-s9_confgen4.mol2 : confsearch ligand conformer 670
          20          19           1
SMALL
USER_CHARGES
 
@<TRIPOS>ATOM
       1    C1      20.721990   20.737877   19.774917 C.3        1 MOL1        -0.2224
       2    H1      20.633576   21.764020   20.154895 H          1 MOL1         0.1052
       3    H2      21.625512   20.686581   19.153595 H          1 MOL1         0.1052
       4    H3      19.857664   20.537490   19.128413 H          1 MOL1         0.1052
       5    C2      20.797807   19.719873   20.933339 C.3        1 MOL1        -0.1209
       6    H4      21.689084   19.927102   21.542443 H          1 MOL1         0.1041
       7    H5      20.925924   18.711611   20.516817 H          1 MOL1         0.1041
       8    C3      19.534466   19.771898   21.824658 C.3        1 MOL1        -0.1274
       9    H6      19.398349   20.794313   22.201516 H          1 MOL1         0.1041
      10    H7      18.642558   19.537987   21.228301 H          1 MOL1         0.1041
      11    C4      19.613666   18.814905   23.031071 C.3        1 MOL1         0.0313
      12    H8      18.737292   18.962505   23.667311 H          1 MOL1         0.1015
      13    H9      20.504699   19.041610   23.621919 H          1 MOL1         0.1015
      14    N1      19.662436   17.346187   22.653746 N.4        1 MOL1        -0.4809
      15    H10     20.478585   17.160637   22.052144 H          1 MOL1         0.3726
      16    H11     18.838927   17.097939   22.084314 H          1 MOL1         0.3726
      17    C5      19.720992   16.488445   23.910603 C.3        1 MOL1        -0.0677
      18    H12     20.616852   16.745133   24.480108 H          1 MOL1         0.1026
      19    H13     18.831741   16.676346   24.516171 H          1 MOL1         0.1026
      20    H14     19.755728   15.434835   23.624790 H          1 MOL1         0.1026
@<TRIPOS>BOND
    1     1     2    1
    2     1     3    1
    3     1     4    1
    4     1     5    1
    5     5     6    1
    6     5     7    1
    7     5     8    1
    8     8     9    1
    9     8    10    1
   10     8    11    1
   11    11    12    1
   12    11    13    1
   13    11    14    1
   14    14    15    1
   15    14    16    1
   16    14    17    1
   17    17    18    1
   18    17    19    1
   19    17    20    1
@<TRIPOS>SUBSTRUCTURE
       1 MOL1            1 RESIDUE      1      MOL     
@<SCITEGIC>MOL_PROPERTY
VConf Rank
SciTegic.value.IntegerValue
670

@<SCITEGIC>MOL_PROPERTY
Conf_Id
SciTegic.value.IntegerValue
50

@<SCITEGIC>MOL_PROPERTY
Delta U+W
SciTegic.value.DoubleValue
0.319

@<SCITEGIC>MOL_PROPERTY
U+W
SciTegic.value.DoubleValue
15.657

@<SCITEGIC>MOL_PROPERTY
Grad RMS
SciTegic.value.DoubleValue
0.000000

@<SCITEGIC>MOL_PROPERTY
U
SciTegic.value.DoubleValue
69.962

@<SCITEGIC>MOL_PROPERTY
W
SciTegic.value.DoubleValue
-54.305

@<SCITEGIC>MOL_PROPERTY
W(PB)
SciTegic.value.DoubleValue
-56.223

@<SCITEGIC>MOL_PROPERTY
W(SA)
SciTegic.value.DoubleValue
1.918

@<SCITEGIC>MOL_PROPERTY
Valence
SciTegic.value.DoubleValue
0.982

@<SCITEGIC>MOL_PROPERTY
Coulomb
SciTegic.value.DoubleValue
69.058

@<SCITEGIC>MOL_PROPERTY
VdW
SciTegic.value.DoubleValue
-0.078

@<SCITEGIC>MOL_PROPERTY
VdW6
SciTegic.value.DoubleValue
-3.548

@<SCITEGIC>MOL_PROPERTY
VdW12
SciTegic.value.DoubleValue
3.471

@<SCITEGIC>MOL_PROPERTY
Bond
SciTegic.value.DoubleValue
0.105

@<SCITEGIC>MOL_PROPERTY
Angle
SciTegic.value.DoubleValue
0.408

@<SCITEGIC>MOL_PROPERTY
Pdih
SciTegic.value.DoubleValue
0.469

@<SCITEGIC>MOL_PROPERTY
Idih
SciTegic.value.DoubleValue
0.000

@<SCITEGIC>MOL_PROPERTY
Tether
SciTegic.value.DoubleValue
0.000

@<TRIPOS>MOLECULE
guest-s9_confgen4.mol2 : confsearch ligand conformer 671
          20          19           1
SMALL
USER_CHARGES
 
@<TRIPOS>ATOM
       1    C1      21.117365   21.545804   21.115690 C.3        1 MOL1        -0.2224
       2    H1      21.715636   21.723480   20.212623 H          1 MOL1         0.1052
       3    H2      20.288980   22.266184   21.116805 H          1 MOL1         0.1052
       4    H3      21.752701   21.754673   21.986266 H          1 MOL1         0.1052
       5    C2      20.592631   20.093986   21.145744 C.3        1 MOL1        -0.1209
       6    H4      21.445744   19.403431   21.103007 H          1 MOL1         0.1041
       7    H5      19.987649   19.906799   20.247256 H          1 MOL1         0.1041
       8    C3      19.745804   19.817492   22.410506 C.3        1 MOL1        -0.1274
       9    H6      20.352405   19.975280   23.312168 H          1 MOL1         0.1041
      10    H7      18.920440   20.540168   22.459467 H          1 MOL1         0.1041
      11    C4      19.149777   18.395584   22.432310 C.3        1 MOL1         0.0313
      12    H8      18.551348   18.234286   21.532142 H          1 MOL1         0.1015
      13    H9      18.493183   18.292450   23.299989 H          1 MOL1         0.1015
      14    N1      20.186899   17.290947   22.510043 N.4        1 MOL1        -0.4809
      15    H10     20.778980   17.417383   23.345210 H          1 MOL1         0.3726
      16    H11     20.829469   17.349453   21.706218 H          1 MOL1         0.3726
      17    C5      19.498353   15.933158   22.543999 C.3        1 MOL1        -0.0677
      18    H12     20.255614   15.148019   22.599703 H          1 MOL1         0.1026
      19    H13     18.848919   15.880908   23.420521 H          1 MOL1         0.1026
      20    H14     18.904387   15.808005   21.636071 H          1 MOL1         0.1026
@<TRIPOS>BOND
    1     1     2    1
    2     1     3    1
    3     1     4    1
    4     1     5    1
    5     5     6    1
    6     5     7    1
    7     5     8    1
    8     8     9    1
    9     8    10    1
   10     8    11    1
   11    11    12    1
   12    11    13    1
   13    11    14    1
   14    14    15    1
   15    14    16    1
   16    14    17    1
   17    17    18    1
   18    17    19    1
   19    17    20    1
@<TRIPOS>SUBSTRUCTURE
       1 MOL1            1 RESIDUE      1      MOL     
@<SCITEGIC>MOL_PROPERTY
VConf Rank
SciTegic.value.IntegerValue
671

@<SCITEGIC>MOL_PROPERTY
Conf_Id
SciTegic.value.IntegerValue
35

@<SCITEGIC>MOL_PROPERTY
Delta U+W
SciTegic.value.DoubleValue
0.360

@<SCITEGIC>MOL_PROPERTY
U+W
SciTegic.value.DoubleValue
15.698

@<SCITEGIC>MOL_PROPERTY
Grad RMS
SciTegic.value.DoubleValue
0.000000

@<SCITEGIC>MOL_PROPERTY
U
SciTegic.value.DoubleValue
69.962

@<SCITEGIC>MOL_PROPERTY
W
SciTegic.value.DoubleValue
-54.264

@<SCITEGIC>MOL_PROPERTY
W(PB)
SciTegic.value.DoubleValue
-56.166

@<SCITEGIC>MOL_PROPERTY
W(SA)
SciTegic.value.DoubleValue
1.902

@<SCITEGIC>MOL_PROPERTY
Valence
SciTegic.value.DoubleValue
0.982

@<SCITEGIC>MOL_PROPERTY
Coulomb
SciTegic.value.DoubleValue
69.058

@<SCITEGIC>MOL_PROPERTY
VdW
SciTegic.value.DoubleValue
-0.078

@<SCITEGIC>MOL_PROPERTY
VdW6
SciTegic.value.DoubleValue
-3.548

@<SCITEGIC>MOL_PROPERTY
VdW12
SciTegic.value.DoubleValue
3.471

@<SCITEGIC>MOL_PROPERTY
Bond
SciTegic.value.DoubleValue
0.105

@<SCITEGIC>MOL_PROPERTY
Angle
SciTegic.value.DoubleValue
0.408

@<SCITEGIC>MOL_PROPERTY
Pdih
SciTegic.value.DoubleValue
0.469

@<SCITEGIC>MOL_PROPERTY
Idih
SciTegic.value.DoubleValue
0.000

@<SCITEGIC>MOL_PROPERTY
Tether
SciTegic.value.DoubleValue
0.000

@<TRIPOS>MOLECULE
guest-s9_confgen4.mol2 : confsearch ligand conformer 672
          20          19           1
SMALL
USER_CHARGES
 
@<TRIPOS>ATOM
       1    C1      19.270642   18.129147   24.377965 C.3        1 MOL1        -0.2224
       2    H1      18.469787   17.752319   23.729349 H          1 MOL1         0.1052
       3    H2      19.187648   17.609982   25.341580 H          1 MOL1         0.1052
       4    H3      19.092589   19.197475   24.557035 H          1 MOL1         0.1052
       5    C2      20.665502   17.894382   23.753897 C.3        1 MOL1        -0.1209
       6    H4      20.816189   16.819515   23.580341 H          1 MOL1         0.1041
       7    H5      21.436895   18.201837   24.473904 H          1 MOL1         0.1041
       8    C3      20.873781   18.670167   22.432287 C.3        1 MOL1        -0.1274
       9    H6      20.759037   19.745556   22.619591 H          1 MOL1         0.1041
      10    H7      21.905307   18.519141   22.087814 H          1 MOL1         0.1041
      11    C4      19.899564   18.221343   21.321916 C.3        1 MOL1         0.0313
      12    H8      18.870201   18.428174   21.624222 H          1 MOL1         0.1015
      13    H9      19.999737   17.142634   21.177273 H          1 MOL1         0.1015
      14    N1      20.130572   18.882416   19.972837 N.4        1 MOL1        -0.4809
      15    H10     19.555390   18.413617   19.255480 H          1 MOL1         0.3726
      16    H11     21.104586   18.737894   19.666030 H          1 MOL1         0.3726
      17    C5      19.790648   20.368249   20.018852 C.3        1 MOL1        -0.0677
      18    H12     20.448151   20.868797   20.732315 H          1 MOL1         0.1026
      19    H13     19.933311   20.798707   19.025214 H          1 MOL1         0.1026
      20    H14     18.749725   20.489528   20.326207 H          1 MOL1         0.1026
@<TRIPOS>BOND
    1     1     2    1
    2     1     3    1
    3     1     4    1
    4     1     5    1
    5     5     6    1
    6     5     7    1
    7     5     8    1
    8     8     9    1
    9     8    10    1
   10     8    11    1
   11    11    12    1
   12    11    13    1
   13    11    14    1
   14    14    15    1
   15    14    16    1
   16    14    17    1
   17    17    18    1
   18    17    19    1
   19    17    20    1
@<TRIPOS>SUBSTRUCTURE
       1 MOL1            1 RESIDUE      1      MOL     
@<SCITEGIC>MOL_PROPERTY
VConf Rank
SciTegic.value.IntegerValue
672

@<SCITEGIC>MOL_PROPERTY
Conf_Id
SciTegic.value.IntegerValue
33

@<SCITEGIC>MOL_PROPERTY
Delta U+W
SciTegic.value.DoubleValue
0.372

@<SCITEGIC>MOL_PROPERTY
U+W
SciTegic.value.DoubleValue
15.711

@<SCITEGIC>MOL_PROPERTY
Grad RMS
SciTegic.value.DoubleValue
0.000000

@<SCITEGIC>MOL_PROPERTY
U
SciTegic.value.DoubleValue
70.163

@<SCITEGIC>MOL_PROPERTY
W
SciTegic.value.DoubleValue
-54.452

@<SCITEGIC>MOL_PROPERTY
W(PB)
SciTegic.value.DoubleValue
-56.363

@<SCITEGIC>MOL_PROPERTY
W(SA)
SciTegic.value.DoubleValue
1.911

@<SCITEGIC>MOL_PROPERTY
Valence
SciTegic.value.DoubleValue
1.420

@<SCITEGIC>MOL_PROPERTY
Coulomb
SciTegic.value.DoubleValue
68.566

@<SCITEGIC>MOL_PROPERTY
VdW
SciTegic.value.DoubleValue
0.177

@<SCITEGIC>MOL_PROPERTY
VdW6
SciTegic.value.DoubleValue
-4.267

@<SCITEGIC>MOL_PROPERTY
VdW12
SciTegic.value.DoubleValue
4.445

@<SCITEGIC>MOL_PROPERTY
Bond
SciTegic.value.DoubleValue
0.146

@<SCITEGIC>MOL_PROPERTY
Angle
SciTegic.value.DoubleValue
0.581

@<SCITEGIC>MOL_PROPERTY
Pdih
SciTegic.value.DoubleValue
0.693

@<SCITEGIC>MOL_PROPERTY
Idih
SciTegic.value.DoubleValue
0.000

@<SCITEGIC>MOL_PROPERTY
Tether
SciTegic.value.DoubleValue
0.000

@<TRIPOS>MOLECULE
guest-s9_confgen4.mol2 : confsearch ligand conformer 673
          20          19           1
SMALL
USER_CHARGES
 
@<TRIPOS>ATOM
       1    C1      20.842134   16.555907   22.996442 C.3        1 MOL1        -0.2224
       2    H1      20.930348   15.473469   23.156196 H          1 MOL1         0.1052
       3    H2      21.708460   16.874187   22.402938 H          1 MOL1         0.1052
       4    H3      20.900521   17.044803   23.977597 H          1 MOL1         0.1052
       5    C2      19.511235   16.892398   22.285322 C.3        1 MOL1        -0.1209
       6    H4      18.677782   16.476200   22.868521 H          1 MOL1         0.1041
       7    H5      19.480424   16.395742   21.305245 H          1 MOL1         0.1041
       8    C3      19.289877   18.412586   22.106689 C.3        1 MOL1        -0.1274
       9    H6      18.297539   18.580250   21.667749 H          1 MOL1         0.1041
      10    H7      19.284303   18.897701   23.091241 H          1 MOL1         0.1041
      11    C4      20.358560   19.064853   21.203403 C.3        1 MOL1         0.0313
      12    H8      20.376664   18.543782   20.242817 H          1 MOL1         0.1015
      13    H9      21.345138   18.963873   21.661902 H          1 MOL1         0.1015
      14    N1      20.127950   20.539206   20.914429 N.4        1 MOL1        -0.4809
      15    H10     19.190168   20.681716   20.509492 H          1 MOL1         0.3726
      16    H11     20.782772   20.854039   20.181425 H          1 MOL1         0.3726
      17    C5      20.311378   21.384852   22.170058 C.3        1 MOL1        -0.0677
      18    H12     20.174629   22.438054   21.915055 H          1 MOL1         0.1026
      19    H13     19.571710   21.090203   22.917026 H          1 MOL1         0.1026
      20    H14     21.317989   21.229570   22.564166 H          1 MOL1         0.1026
@<TRIPOS>BOND
    1     1     2    1
    2     1     3    1
    3     1     4    1
    4     1     5    1
    5     5     6    1
    6     5     7    1
    7     5     8    1
    8     8     9    1
    9     8    10    1
   10     8    11    1
   11    11    12    1
   12    11    13    1
   13    11    14    1
   14    14    15    1
   15    14    16    1
   16    14    17    1
   17    17    18    1
   18    17    19    1
   19    17    20    1
@<TRIPOS>SUBSTRUCTURE
       1 MOL1            1 RESIDUE      1      MOL     
@<SCITEGIC>MOL_PROPERTY
VConf Rank
SciTegic.value.IntegerValue
673

@<SCITEGIC>MOL_PROPERTY
Conf_Id
SciTegic.value.IntegerValue
53

@<SCITEGIC>MOL_PROPERTY
Delta U+W
SciTegic.value.DoubleValue
0.379

@<SCITEGIC>MOL_PROPERTY
U+W
SciTegic.value.DoubleValue
15.717

@<SCITEGIC>MOL_PROPERTY
Grad RMS
SciTegic.value.DoubleValue
0.000000

@<SCITEGIC>MOL_PROPERTY
U
SciTegic.value.DoubleValue
70.163

@<SCITEGIC>MOL_PROPERTY
W
SciTegic.value.DoubleValue
-54.446

@<SCITEGIC>MOL_PROPERTY
W(PB)
SciTegic.value.DoubleValue
-56.322

@<SCITEGIC>MOL_PROPERTY
W(SA)
SciTegic.value.DoubleValue
1.876

@<SCITEGIC>MOL_PROPERTY
Valence
SciTegic.value.DoubleValue
1.420

@<SCITEGIC>MOL_PROPERTY
Coulomb
SciTegic.value.DoubleValue
68.566

@<SCITEGIC>MOL_PROPERTY
VdW
SciTegic.value.DoubleValue
0.177

@<SCITEGIC>MOL_PROPERTY
VdW6
SciTegic.value.DoubleValue
-4.267

@<SCITEGIC>MOL_PROPERTY
VdW12
SciTegic.value.DoubleValue
4.445

@<SCITEGIC>MOL_PROPERTY
Bond
SciTegic.value.DoubleValue
0.146

@<SCITEGIC>MOL_PROPERTY
Angle
SciTegic.value.DoubleValue
0.581

@<SCITEGIC>MOL_PROPERTY
Pdih
SciTegic.value.DoubleValue
0.693

@<SCITEGIC>MOL_PROPERTY
Idih
SciTegic.value.DoubleValue
0.000

@<SCITEGIC>MOL_PROPERTY
Tether
SciTegic.value.DoubleValue
0.000

@<TRIPOS>MOLECULE
guest-s9_confgen4.mol2 : confsearch ligand conformer 674
          20          19           1
SMALL
USER_CHARGES
 
@<TRIPOS>ATOM
       1    C1      19.609385   21.003953   23.686398 C.3        1 MOL1        -0.2224
       2    H1      19.567241   22.070285   23.429179 H          1 MOL1         0.1052
       3    H2      18.783324   20.792316   24.377758 H          1 MOL1         0.1052
       4    H3      20.553444   20.823129   24.216698 H          1 MOL1         0.1052
       5    C2      19.509492   20.131884   22.416170 C.3        1 MOL1        -0.1209
       6    H4      20.327678   20.398166   21.733292 H          1 MOL1         0.1041
       7    H5      18.570564   20.358282   21.891442 H          1 MOL1         0.1041
       8    C3      19.568623   18.622974   22.751459 C.3        1 MOL1        -0.1274
       9    H6      20.516552   18.386184   23.251562 H          1 MOL1         0.1041
      10    H7      18.773375   18.379217   23.468264 H          1 MOL1         0.1041
      11    C4      19.392614   17.723911   21.507527 C.3        1 MOL1         0.0313
      12    H8      18.419647   17.931339   21.054826 H          1 MOL1         0.1015
      13    H9      19.402844   16.674362   21.812217 H          1 MOL1         0.1015
      14    N1      20.445097   17.898090   20.422828 N.4        1 MOL1        -0.4809
      15    H10     20.471782   18.878735   20.107149 H          1 MOL1         0.3726
      16    H11     20.171786   17.357606   19.587123 H          1 MOL1         0.3726
      17    C5      21.819117   17.446531   20.905631 C.3        1 MOL1        -0.0677
      18    H12     21.765547   16.400481   21.214771 H          1 MOL1         0.1026
      19    H13     22.537772   17.552836   20.090054 H          1 MOL1         0.1026
      20    H14     22.128163   18.066820   21.749281 H          1 MOL1         0.1026
@<TRIPOS>BOND
    1     1     2    1
    2     1     3    1
    3     1     4    1
    4     1     5    1
    5     5     6    1
    6     5     7    1
    7     5     8    1
    8     8     9    1
    9     8    10    1
   10     8    11    1
   11    11    12    1
   12    11    13    1
   13    11    14    1
   14    14    15    1
   15    14    16    1
   16    14    17    1
   17    17    18    1
   18    17    19    1
   19    17    20    1
@<TRIPOS>SUBSTRUCTURE
       1 MOL1            1 RESIDUE      1      MOL     
@<SCITEGIC>MOL_PROPERTY
VConf Rank
SciTegic.value.IntegerValue
674

@<SCITEGIC>MOL_PROPERTY
Conf_Id
SciTegic.value.IntegerValue
49

@<SCITEGIC>MOL_PROPERTY
Delta U+W
SciTegic.value.DoubleValue
0.268

@<SCITEGIC>MOL_PROPERTY
U+W
SciTegic.value.DoubleValue
15.607

@<SCITEGIC>MOL_PROPERTY
Grad RMS
SciTegic.value.DoubleValue
0.000000

@<SCITEGIC>MOL_PROPERTY
U
SciTegic.value.DoubleValue
70.298

@<SCITEGIC>MOL_PROPERTY
W
SciTegic.value.DoubleValue
-54.692

@<SCITEGIC>MOL_PROPERTY
W(PB)
SciTegic.value.DoubleValue
-56.576

@<SCITEGIC>MOL_PROPERTY
W(SA)
SciTegic.value.DoubleValue
1.885

@<SCITEGIC>MOL_PROPERTY
Valence
SciTegic.value.DoubleValue
1.245

@<SCITEGIC>MOL_PROPERTY
Coulomb
SciTegic.value.DoubleValue
68.933

@<SCITEGIC>MOL_PROPERTY
VdW
SciTegic.value.DoubleValue
0.120

@<SCITEGIC>MOL_PROPERTY
VdW6
SciTegic.value.DoubleValue
-4.430

@<SCITEGIC>MOL_PROPERTY
VdW12
SciTegic.value.DoubleValue
4.550

@<SCITEGIC>MOL_PROPERTY
Bond
SciTegic.value.DoubleValue
0.148

@<SCITEGIC>MOL_PROPERTY
Angle
SciTegic.value.DoubleValue
0.587

@<SCITEGIC>MOL_PROPERTY
Pdih
SciTegic.value.DoubleValue
0.509

@<SCITEGIC>MOL_PROPERTY
Idih
SciTegic.value.DoubleValue
0.000

@<SCITEGIC>MOL_PROPERTY
Tether
SciTegic.value.DoubleValue
0.000

@<TRIPOS>MOLECULE
guest-s9_confgen4.mol2 : confsearch ligand conformer 675
          20          19           1
SMALL
USER_CHARGES
 
@<TRIPOS>ATOM
       1    C1      17.742567   18.905057   20.438966 C.3        1 MOL1        -0.2224
       2    H1      16.963245   18.763306   21.199054 H          1 MOL1         0.1052
       3    H2      17.627492   19.911223   20.015258 H          1 MOL1         0.1052
       4    H3      17.563605   18.179746   19.634668 H          1 MOL1         0.1052
       5    C2      19.150338   18.712843   21.043586 C.3        1 MOL1        -0.1209
       6    H4      19.906199   18.832873   20.254754 H          1 MOL1         0.1041
       7    H5      19.236981   17.684759   21.419196 H          1 MOL1         0.1041
       8    C3      19.424101   19.716503   22.187851 C.3        1 MOL1        -0.1274
       9    H6      19.220246   20.733869   21.828455 H          1 MOL1         0.1041
      10    H7      18.724768   19.536551   23.014958 H          1 MOL1         0.1041
      11    C4      20.873160   19.683407   22.724474 C.3        1 MOL1         0.0313
      12    H8      20.971513   20.469952   23.477081 H          1 MOL1         0.1015
      13    H9      21.580970   19.903565   21.921459 H          1 MOL1         0.1015
      14    N1      21.297917   18.384316   23.391712 N.4        1 MOL1        -0.4809
      15    H10     20.494813   17.943126   23.864169 H          1 MOL1         0.3726
      16    H11     21.966906   18.593703   24.149087 H          1 MOL1         0.3726
      17    C5      21.951292   17.432902   22.394436 C.3        1 MOL1        -0.0677
      18    H12     22.261097   16.525396   22.917322 H          1 MOL1         0.1026
      19    H13     21.240677   17.176915   21.607793 H          1 MOL1         0.1026
      20    H14     22.825347   17.919215   21.956013 H          1 MOL1         0.1026
@<TRIPOS>BOND
    1     1     2    1
    2     1     3    1
    3     1     4    1
    4     1     5    1
    5     5     6    1
    6     5     7    1
    7     5     8    1
    8     8     9    1
    9     8    10    1
   10     8    11    1
   11    11    12    1
   12    11    13    1
   13    11    14    1
   14    14    15    1
   15    14    16    1
   16    14    17    1
   17    17    18    1
   18    17    19    1
   19    17    20    1
@<TRIPOS>SUBSTRUCTURE
       1 MOL1            1 RESIDUE      1      MOL     
@<SCITEGIC>MOL_PROPERTY
VConf Rank
SciTegic.value.IntegerValue
675

@<SCITEGIC>MOL_PROPERTY
Conf_Id
SciTegic.value.IntegerValue
65

@<SCITEGIC>MOL_PROPERTY
Delta U+W
SciTegic.value.DoubleValue
1.775

@<SCITEGIC>MOL_PROPERTY
U+W
SciTegic.value.DoubleValue
17.114

@<SCITEGIC>MOL_PROPERTY
Grad RMS
SciTegic.value.DoubleValue
0.000000

@<SCITEGIC>MOL_PROPERTY
U
SciTegic.value.DoubleValue
71.726

@<SCITEGIC>MOL_PROPERTY
W
SciTegic.value.DoubleValue
-54.613

@<SCITEGIC>MOL_PROPERTY
W(PB)
SciTegic.value.DoubleValue
-56.495

@<SCITEGIC>MOL_PROPERTY
W(SA)
SciTegic.value.DoubleValue
1.883

@<SCITEGIC>MOL_PROPERTY
Valence
SciTegic.value.DoubleValue
2.885

@<SCITEGIC>MOL_PROPERTY
Coulomb
SciTegic.value.DoubleValue
68.822

@<SCITEGIC>MOL_PROPERTY
VdW
SciTegic.value.DoubleValue
0.019

@<SCITEGIC>MOL_PROPERTY
VdW6
SciTegic.value.DoubleValue
-4.600

@<SCITEGIC>MOL_PROPERTY
VdW12
SciTegic.value.DoubleValue
4.619

@<SCITEGIC>MOL_PROPERTY
Bond
SciTegic.value.DoubleValue
0.152

@<SCITEGIC>MOL_PROPERTY
Angle
SciTegic.value.DoubleValue
0.862

@<SCITEGIC>MOL_PROPERTY
Pdih
SciTegic.value.DoubleValue
1.871

@<SCITEGIC>MOL_PROPERTY
Idih
SciTegic.value.DoubleValue
0.000

@<SCITEGIC>MOL_PROPERTY
Tether
SciTegic.value.DoubleValue
0.000

@<TRIPOS>MOLECULE
guest-s9_confgen4.mol2 : confsearch ligand conformer 676
          20          19           1
SMALL
USER_CHARGES
 
@<TRIPOS>ATOM
       1    C1      19.416556   17.738274   19.982922 C.3        1 MOL1        -0.2224
       2    H1      18.624218   17.988954   20.699416 H          1 MOL1         0.1052
       3    H2      19.049905   17.996169   18.980905 H          1 MOL1         0.1052
       4    H3      19.573718   16.652217   20.012082 H          1 MOL1         0.1052
       5    C2      20.726814   18.498028   20.293034 C.3        1 MOL1        -0.1209
       6    H4      20.543946   19.580557   20.257006 H          1 MOL1         0.1041
       7    H5      21.457538   18.288263   19.499279 H          1 MOL1         0.1041
       8    C3      21.347258   18.106770   21.657572 C.3        1 MOL1        -0.1274
       9    H6      21.618826   17.042975   21.638711 H          1 MOL1         0.1041
      10    H7      22.285200   18.658775   21.803520 H          1 MOL1         0.1041
      11    C4      20.418525   18.356597   22.864223 C.3        1 MOL1         0.0313
      12    H8      20.916828   18.026604   23.779285 H          1 MOL1         0.1015
      13    H9      19.501281   17.774152   22.749378 H          1 MOL1         0.1015
      14    N1      20.029069   19.810516   23.051430 N.4        1 MOL1        -0.4809
      15    H10     19.560833   20.161955   22.203057 H          1 MOL1         0.3726
      16    H11     20.872919   20.393220   23.162210 H          1 MOL1         0.3726
      17    C5      19.117356   19.953085   24.262615 C.3        1 MOL1        -0.0677
      18    H12     19.644970   19.604358   25.152995 H          1 MOL1         0.1026
      19    H13     18.844157   21.003551   24.384495 H          1 MOL1         0.1026
      20    H14     18.217303   19.354093   24.108103 H          1 MOL1         0.1026
@<TRIPOS>BOND
    1     1     2    1
    2     1     3    1
    3     1     4    1
    4     1     5    1
    5     5     6    1
    6     5     7    1
    7     5     8    1
    8     8     9    1
    9     8    10    1
   10     8    11    1
   11    11    12    1
   12    11    13    1
   13    11    14    1
   14    14    15    1
   15    14    16    1
   16    14    17    1
   17    17    18    1
   18    17    19    1
   19    17    20    1
@<TRIPOS>SUBSTRUCTURE
       1 MOL1            1 RESIDUE      1      MOL     
@<SCITEGIC>MOL_PROPERTY
VConf Rank
SciTegic.value.IntegerValue
676

@<SCITEGIC>MOL_PROPERTY
Conf_Id
SciTegic.value.IntegerValue
23

@<SCITEGIC>MOL_PROPERTY
Delta U+W
SciTegic.value.DoubleValue
0.896

@<SCITEGIC>MOL_PROPERTY
U+W
SciTegic.value.DoubleValue
16.234

@<SCITEGIC>MOL_PROPERTY
Grad RMS
SciTegic.value.DoubleValue
0.000000

@<SCITEGIC>MOL_PROPERTY
U
SciTegic.value.DoubleValue
70.374

@<SCITEGIC>MOL_PROPERTY
W
SciTegic.value.DoubleValue
-54.140

@<SCITEGIC>MOL_PROPERTY
W(PB)
SciTegic.value.DoubleValue
-56.046

@<SCITEGIC>MOL_PROPERTY
W(SA)
SciTegic.value.DoubleValue
1.907

@<SCITEGIC>MOL_PROPERTY
Valence
SciTegic.value.DoubleValue
1.257

@<SCITEGIC>MOL_PROPERTY
Coulomb
SciTegic.value.DoubleValue
69.240

@<SCITEGIC>MOL_PROPERTY
VdW
SciTegic.value.DoubleValue
-0.123

@<SCITEGIC>MOL_PROPERTY
VdW6
SciTegic.value.DoubleValue
-4.336

@<SCITEGIC>MOL_PROPERTY
VdW12
SciTegic.value.DoubleValue
4.213

@<SCITEGIC>MOL_PROPERTY
Bond
SciTegic.value.DoubleValue
0.128

@<SCITEGIC>MOL_PROPERTY
Angle
SciTegic.value.DoubleValue
0.603

@<SCITEGIC>MOL_PROPERTY
Pdih
SciTegic.value.DoubleValue
0.526

@<SCITEGIC>MOL_PROPERTY
Idih
SciTegic.value.DoubleValue
0.000

@<SCITEGIC>MOL_PROPERTY
Tether
SciTegic.value.DoubleValue
0.000

@<TRIPOS>MOLECULE
guest-s9_confgen4.mol2 : confsearch ligand conformer 677
          20          19           1
SMALL
USER_CHARGES
 
@<TRIPOS>ATOM
       1    C1      20.471207   19.105764   19.700204 C.3        1 MOL1        -0.2224
       2    H1      19.744392   19.818518   19.289361 H          1 MOL1         0.1052
       3    H2      21.160027   18.827538   18.892059 H          1 MOL1         0.1052
       4    H3      19.930148   18.199452   19.999968 H          1 MOL1         0.1052
       5    C2      21.247526   19.724489   20.885395 C.3        1 MOL1        -0.1209
       6    H4      21.845304   20.570427   20.517896 H          1 MOL1         0.1041
       7    H5      21.967538   18.993547   21.277718 H          1 MOL1         0.1041
       8    C3      20.322021   20.225063   22.022436 C.3        1 MOL1        -0.1274
       9    H6      20.931338   20.675970   22.816891 H          1 MOL1         0.1041
      10    H7      19.679465   21.028015   21.637524 H          1 MOL1         0.1041
      11    C4      19.425888   19.126681   22.631921 C.3        1 MOL1         0.0313
      12    H8      18.782581   18.704259   21.856369 H          1 MOL1         0.1015
      13    H9      18.785436   19.566801   23.400461 H          1 MOL1         0.1015
      14    N1      20.196283   17.987781   23.272236 N.4        1 MOL1        -0.4809
      15    H10     20.817655   18.350183   24.011465 H          1 MOL1         0.3726
      16    H11     20.819919   17.550018   22.578023 H          1 MOL1         0.3726
      17    C5      19.227832   16.960694   23.842954 C.3        1 MOL1        -0.0677
      18    H12     18.603791   16.567862   23.037340 H          1 MOL1         0.1026
      19    H13     19.795616   16.146795   24.299199 H          1 MOL1         0.1026
      20    H14     18.599503   17.439103   24.597337 H          1 MOL1         0.1026
@<TRIPOS>BOND
    1     1     2    1
    2     1     3    1
    3     1     4    1
    4     1     5    1
    5     5     6    1
    6     5     7    1
    7     5     8    1
    8     8     9    1
    9     8    10    1
   10     8    11    1
   11    11    12    1
   12    11    13    1
   13    11    14    1
   14    14    15    1
   15    14    16    1
   16    14    17    1
   17    17    18    1
   18    17    19    1
   19    17    20    1
@<TRIPOS>SUBSTRUCTURE
       1 MOL1            1 RESIDUE      1      MOL     
@<SCITEGIC>MOL_PROPERTY
VConf Rank
SciTegic.value.IntegerValue
677

@<SCITEGIC>MOL_PROPERTY
Conf_Id
SciTegic.value.IntegerValue
24

@<SCITEGIC>MOL_PROPERTY
Delta U+W
SciTegic.value.DoubleValue
0.792

@<SCITEGIC>MOL_PROPERTY
U+W
SciTegic.value.DoubleValue
16.130

@<SCITEGIC>MOL_PROPERTY
Grad RMS
SciTegic.value.DoubleValue
0.000000

@<SCITEGIC>MOL_PROPERTY
U
SciTegic.value.DoubleValue
70.374

@<SCITEGIC>MOL_PROPERTY
W
SciTegic.value.DoubleValue
-54.243

@<SCITEGIC>MOL_PROPERTY
W(PB)
SciTegic.value.DoubleValue
-56.130

@<SCITEGIC>MOL_PROPERTY
W(SA)
SciTegic.value.DoubleValue
1.887

@<SCITEGIC>MOL_PROPERTY
Valence
SciTegic.value.DoubleValue
1.257

@<SCITEGIC>MOL_PROPERTY
Coulomb
SciTegic.value.DoubleValue
69.240

@<SCITEGIC>MOL_PROPERTY
VdW
SciTegic.value.DoubleValue
-0.123

@<SCITEGIC>MOL_PROPERTY
VdW6
SciTegic.value.DoubleValue
-4.336

@<SCITEGIC>MOL_PROPERTY
VdW12
SciTegic.value.DoubleValue
4.213

@<SCITEGIC>MOL_PROPERTY
Bond
SciTegic.value.DoubleValue
0.128

@<SCITEGIC>MOL_PROPERTY
Angle
SciTegic.value.DoubleValue
0.603

@<SCITEGIC>MOL_PROPERTY
Pdih
SciTegic.value.DoubleValue
0.526

@<SCITEGIC>MOL_PROPERTY
Idih
SciTegic.value.DoubleValue
0.000

@<SCITEGIC>MOL_PROPERTY
Tether
SciTegic.value.DoubleValue
0.000

@<TRIPOS>MOLECULE
guest-s9_confgen4.mol2 : confsearch ligand conformer 678
          20          19           1
SMALL
USER_CHARGES
 
@<TRIPOS>ATOM
       1    C1      20.340405   18.404937   19.925581 C.3        1 MOL1        -0.2224
       2    H1      20.640604   17.926149   18.984378 H          1 MOL1         0.1052
       3    H2      19.602867   17.746472   20.399405 H          1 MOL1         0.1052
       4    H3      19.857167   19.357952   19.673774 H          1 MOL1         0.1052
       5    C2      21.573448   18.622049   20.832184 C.3        1 MOL1        -0.1209
       6    H4      22.364559   19.101923   20.238945 H          1 MOL1         0.1041
       7    H5      21.975621   17.647142   21.141889 H          1 MOL1         0.1041
       8    C3      21.304053   19.495556   22.084082 C.3        1 MOL1        -0.1274
       9    H6      22.258130   19.637234   22.608947 H          1 MOL1         0.1041
      10    H7      20.972728   20.499046   21.785862 H          1 MOL1         0.1041
      11    C4      20.301385   18.883989   23.085546 C.3        1 MOL1         0.0313
      12    H8      20.448275   19.345869   24.065155 H          1 MOL1         0.1015
      13    H9      20.486658   17.811606   23.185309 H          1 MOL1         0.1015
      14    N1      18.844494   19.087512   22.715352 N.4        1 MOL1        -0.4809
      15    H10     18.665163   18.714804   21.772194 H          1 MOL1         0.3726
      16    H11     18.630894   20.094998   22.657414 H          1 MOL1         0.3726
      17    C5      17.946493   18.408653   23.740611 C.3        1 MOL1        -0.0677
      18    H12     18.167683   17.339338   23.760852 H          1 MOL1         0.1026
      19    H13     18.132514   18.843066   24.725216 H          1 MOL1         0.1026
      20    H14     16.901952   18.563476   23.461445 H          1 MOL1         0.1026
@<TRIPOS>BOND
    1     1     2    1
    2     1     3    1
    3     1     4    1
    4     1     5    1
    5     5     6    1
    6     5     7    1
    7     5     8    1
    8     8     9    1
    9     8    10    1
   10     8    11    1
   11    11    12    1
   12    11    13    1
   13    11    14    1
   14    14    15    1
   15    14    16    1
   16    14    17    1
   17    17    18    1
   18    17    19    1
   19    17    20    1
@<TRIPOS>SUBSTRUCTURE
       1 MOL1            1 RESIDUE      1      MOL     
@<SCITEGIC>MOL_PROPERTY
VConf Rank
SciTegic.value.IntegerValue
678

@<SCITEGIC>MOL_PROPERTY
Conf_Id
SciTegic.value.IntegerValue
26

@<SCITEGIC>MOL_PROPERTY
Delta U+W
SciTegic.value.DoubleValue
2.888

@<SCITEGIC>MOL_PROPERTY
U+W
SciTegic.value.DoubleValue
18.226

@<SCITEGIC>MOL_PROPERTY
Grad RMS
SciTegic.value.DoubleValue
0.000000

@<SCITEGIC>MOL_PROPERTY
U
SciTegic.value.DoubleValue
72.042

@<SCITEGIC>MOL_PROPERTY
W
SciTegic.value.DoubleValue
-53.816

@<SCITEGIC>MOL_PROPERTY
W(PB)
SciTegic.value.DoubleValue
-55.689

@<SCITEGIC>MOL_PROPERTY
W(SA)
SciTegic.value.DoubleValue
1.873

@<SCITEGIC>MOL_PROPERTY
Valence
SciTegic.value.DoubleValue
2.428

@<SCITEGIC>MOL_PROPERTY
Coulomb
SciTegic.value.DoubleValue
69.829

@<SCITEGIC>MOL_PROPERTY
VdW
SciTegic.value.DoubleValue
-0.215

@<SCITEGIC>MOL_PROPERTY
VdW6
SciTegic.value.DoubleValue
-4.563

@<SCITEGIC>MOL_PROPERTY
VdW12
SciTegic.value.DoubleValue
4.348

@<SCITEGIC>MOL_PROPERTY
Bond
SciTegic.value.DoubleValue
0.137

@<SCITEGIC>MOL_PROPERTY
Angle
SciTegic.value.DoubleValue
0.936

@<SCITEGIC>MOL_PROPERTY
Pdih
SciTegic.value.DoubleValue
1.356

@<SCITEGIC>MOL_PROPERTY
Idih
SciTegic.value.DoubleValue
0.000

@<SCITEGIC>MOL_PROPERTY
Tether
SciTegic.value.DoubleValue
0.000

@<TRIPOS>MOLECULE
guest-s9_confgen4.mol2 : confsearch ligand conformer 679
          20          19           1
SMALL
USER_CHARGES
 
@<TRIPOS>ATOM
       1    C1      18.153547   19.557808   22.797317 C.3        1 MOL1        -0.2224
       2    H1      17.071305   19.676709   22.938146 H          1 MOL1         0.1052
       3    H2      18.655219   20.275779   23.459138 H          1 MOL1         0.1052
       4    H3      18.372301   19.821230   21.755777 H          1 MOL1         0.1052
       5    C2      18.578206   18.106362   23.117367 C.3        1 MOL1        -0.1209
       6    H4      18.133756   17.424229   22.378946 H          1 MOL1         0.1041
       7    H5      18.150264   17.822109   24.089031 H          1 MOL1         0.1041
       8    C3      20.111172   17.883850   23.175148 C.3        1 MOL1        -0.1274
       9    H6      20.558270   18.505721   23.961968 H          1 MOL1         0.1041
      10    H7      20.290464   16.843063   23.475873 H          1 MOL1         0.1041
      11    C4      20.841506   18.120106   21.836088 C.3        1 MOL1         0.0313
      12    H8      20.250330   17.706872   21.015094 H          1 MOL1         0.1015
      13    H9      21.802626   17.600144   21.856852 H          1 MOL1         0.1015
      14    N1      21.134114   19.577057   21.531661 N.4        1 MOL1        -0.4809
      15    H10     21.729129   19.981100   22.271060 H          1 MOL1         0.3726
      16    H11     20.261544   20.123671   21.553016 H          1 MOL1         0.3726
      17    C5      21.811490   19.699868   20.173541 C.3        1 MOL1        -0.0677
      18    H12     21.150324   19.296101   19.403737 H          1 MOL1         0.1026
      19    H13     22.015867   20.752973   19.968185 H          1 MOL1         0.1026
      20    H14     22.748511   19.138999   20.187032 H          1 MOL1         0.1026
@<TRIPOS>BOND
    1     1     2    1
    2     1     3    1
    3     1     4    1
    4     1     5    1
    5     5     6    1
    6     5     7    1
    7     5     8    1
    8     8     9    1
    9     8    10    1
   10     8    11    1
   11    11    12    1
   12    11    13    1
   13    11    14    1
   14    14    15    1
   15    14    16    1
   16    14    17    1
   17    17    18    1
   18    17    19    1
   19    17    20    1
@<TRIPOS>SUBSTRUCTURE
       1 MOL1            1 RESIDUE      1      MOL     
@<SCITEGIC>MOL_PROPERTY
VConf Rank
SciTegic.value.IntegerValue
679

@<SCITEGIC>MOL_PROPERTY
Conf_Id
SciTegic.value.IntegerValue
5

@<SCITEGIC>MOL_PROPERTY
Delta U+W
SciTegic.value.DoubleValue
2.950

@<SCITEGIC>MOL_PROPERTY
U+W
SciTegic.value.DoubleValue
18.289

@<SCITEGIC>MOL_PROPERTY
Grad RMS
SciTegic.value.DoubleValue
0.000000

@<SCITEGIC>MOL_PROPERTY
U
SciTegic.value.DoubleValue
72.042

@<SCITEGIC>MOL_PROPERTY
W
SciTegic.value.DoubleValue
-53.753

@<SCITEGIC>MOL_PROPERTY
W(PB)
SciTegic.value.DoubleValue
-55.644

@<SCITEGIC>MOL_PROPERTY
W(SA)
SciTegic.value.DoubleValue
1.891

@<SCITEGIC>MOL_PROPERTY
Valence
SciTegic.value.DoubleValue
2.428

@<SCITEGIC>MOL_PROPERTY
Coulomb
SciTegic.value.DoubleValue
69.829

@<SCITEGIC>MOL_PROPERTY
VdW
SciTegic.value.DoubleValue
-0.215

@<SCITEGIC>MOL_PROPERTY
VdW6
SciTegic.value.DoubleValue
-4.563

@<SCITEGIC>MOL_PROPERTY
VdW12
SciTegic.value.DoubleValue
4.348

@<SCITEGIC>MOL_PROPERTY
Bond
SciTegic.value.DoubleValue
0.137

@<SCITEGIC>MOL_PROPERTY
Angle
SciTegic.value.DoubleValue
0.936

@<SCITEGIC>MOL_PROPERTY
Pdih
SciTegic.value.DoubleValue
1.356

@<SCITEGIC>MOL_PROPERTY
Idih
SciTegic.value.DoubleValue
0.000

@<SCITEGIC>MOL_PROPERTY
Tether
SciTegic.value.DoubleValue
0.000

@<TRIPOS>MOLECULE
guest-s9_confgen4.mol2 : confsearch ligand conformer 680
          20          19           1
SMALL
USER_CHARGES
 
@<TRIPOS>ATOM
       1    C1      22.255514   19.908924   21.693404 C.3        1 MOL1        -0.2224
       2    H1      22.223615   20.762301   21.003630 H          1 MOL1         0.1052
       3    H2      21.873580   20.241374   22.666739 H          1 MOL1         0.1052
       4    H3      23.307983   19.628189   21.829284 H          1 MOL1         0.1052
       5    C2      21.443317   18.715964   21.139039 C.3        1 MOL1        -0.1209
       6    H4      21.492930   17.874283   21.843223 H          1 MOL1         0.1041
       7    H5      21.915440   18.362817   20.211525 H          1 MOL1         0.1041
       8    C3      19.965749   19.073257   20.841663 C.3        1 MOL1        -0.1274
       9    H6      19.931366   19.849787   20.066193 H          1 MOL1         0.1041
      10    H7      19.458339   18.198568   20.414809 H          1 MOL1         0.1041
      11    C4      19.179681   19.574746   22.074601 C.3        1 MOL1         0.0313
      12    H8      18.150874   19.802092   21.784276 H          1 MOL1         0.1015
      13    H9      19.636545   20.499441   22.435563 H          1 MOL1         0.1015
      14    N1      19.126018   18.606318   23.246177 N.4        1 MOL1        -0.4809
      15    H10     18.707271   19.075812   24.064274 H          1 MOL1         0.3726
      16    H11     20.081345   18.356493   23.541205 H          1 MOL1         0.3726
      17    C5      18.322989   17.358346   22.896417 C.3        1 MOL1        -0.0677
      18    H12     18.808477   16.835533   22.070005 H          1 MOL1         0.1026
      19    H13     18.280211   16.703792   23.769708 H          1 MOL1         0.1026
      20    H14     17.311740   17.651394   22.606362 H          1 MOL1         0.1026
@<TRIPOS>BOND
    1     1     2    1
    2     1     3    1
    3     1     4    1
    4     1     5    1
    5     5     6    1
    6     5     7    1
    7     5     8    1
    8     8     9    1
    9     8    10    1
   10     8    11    1
   11    11    12    1
   12    11    13    1
   13    11    14    1
   14    14    15    1
   15    14    16    1
   16    14    17    1
   17    17    18    1
   18    17    19    1
   19    17    20    1
@<TRIPOS>SUBSTRUCTURE
       1 MOL1            1 RESIDUE      1      MOL     
@<SCITEGIC>MOL_PROPERTY
VConf Rank
SciTegic.value.IntegerValue
680

@<SCITEGIC>MOL_PROPERTY
Conf_Id
SciTegic.value.IntegerValue
52

@<SCITEGIC>MOL_PROPERTY
Delta U+W
SciTegic.value.DoubleValue
0.784

@<SCITEGIC>MOL_PROPERTY
U+W
SciTegic.value.DoubleValue
16.122

@<SCITEGIC>MOL_PROPERTY
Grad RMS
SciTegic.value.DoubleValue
0.000000

@<SCITEGIC>MOL_PROPERTY
U
SciTegic.value.DoubleValue
70.777

@<SCITEGIC>MOL_PROPERTY
W
SciTegic.value.DoubleValue
-54.655

@<SCITEGIC>MOL_PROPERTY
W(PB)
SciTegic.value.DoubleValue
-56.491

@<SCITEGIC>MOL_PROPERTY
W(SA)
SciTegic.value.DoubleValue
1.836

@<SCITEGIC>MOL_PROPERTY
Valence
SciTegic.value.DoubleValue
1.529

@<SCITEGIC>MOL_PROPERTY
Coulomb
SciTegic.value.DoubleValue
69.166

@<SCITEGIC>MOL_PROPERTY
VdW
SciTegic.value.DoubleValue
0.082

@<SCITEGIC>MOL_PROPERTY
VdW6
SciTegic.value.DoubleValue
-5.166

@<SCITEGIC>MOL_PROPERTY
VdW12
SciTegic.value.DoubleValue
5.248

@<SCITEGIC>MOL_PROPERTY
Bond
SciTegic.value.DoubleValue
0.171

@<SCITEGIC>MOL_PROPERTY
Angle
SciTegic.value.DoubleValue
0.752

@<SCITEGIC>MOL_PROPERTY
Pdih
SciTegic.value.DoubleValue
0.605

@<SCITEGIC>MOL_PROPERTY
Idih
SciTegic.value.DoubleValue
0.000

@<SCITEGIC>MOL_PROPERTY
Tether
SciTegic.value.DoubleValue
0.000

@<TRIPOS>MOLECULE
guest-s9_confgen4.mol2 : confsearch ligand conformer 681
          20          19           1
SMALL
USER_CHARGES
 
@<TRIPOS>ATOM
       1    C1      18.410223   17.625438   21.687044 C.3        1 MOL1        -0.2224
       2    H1      17.498040   17.014895   21.668933 H          1 MOL1         0.1052
       3    H2      18.216255   18.509221   21.068613 H          1 MOL1         0.1052
       4    H3      19.213417   17.037333   21.224097 H          1 MOL1         0.1052
       5    C2      18.764829   18.014671   23.140356 C.3        1 MOL1        -0.1209
       6    H4      18.718491   17.111159   23.764490 H          1 MOL1         0.1041
       7    H5      17.998298   18.695952   23.535710 H          1 MOL1         0.1041
       8    C3      20.168112   18.650923   23.310073 C.3        1 MOL1        -0.1274
       9    H6      20.343717   18.795846   24.384199 H          1 MOL1         0.1041
      10    H7      20.944806   17.952505   22.974124 H          1 MOL1         0.1041
      11    C4      20.339500   20.024164   22.619864 C.3        1 MOL1         0.0313
      12    H8      21.199758   20.539893   23.053917 H          1 MOL1         0.1015
      13    H9      19.453246   20.633651   22.813640 H          1 MOL1         0.1015
      14    N1      20.559148   19.984840   21.115630 N.4        1 MOL1        -0.4809
      15    H10     20.470465   20.937462   20.728583 H          1 MOL1         0.3726
      16    H11     19.812484   19.438693   20.663902 H          1 MOL1         0.3726
      17    C5      21.929996   19.412808   20.771715 C.3        1 MOL1        -0.0677
      18    H12     22.702381   20.018691   21.250224 H          1 MOL1         0.1026
      19    H13     21.993705   18.382952   21.128021 H          1 MOL1         0.1026
      20    H14     22.064848   19.434193   19.688078 H          1 MOL1         0.1026
@<TRIPOS>BOND
    1     1     2    1
    2     1     3    1
    3     1     4    1
    4     1     5    1
    5     5     6    1
    6     5     7    1
    7     5     8    1
    8     8     9    1
    9     8    10    1
   10     8    11    1
   11    11    12    1
   12    11    13    1
   13    11    14    1
   14    14    15    1
   15    14    16    1
   16    14    17    1
   17    17    18    1
   18    17    19    1
   19    17    20    1
@<TRIPOS>SUBSTRUCTURE
       1 MOL1            1 RESIDUE      1      MOL     
@<SCITEGIC>MOL_PROPERTY
VConf Rank
SciTegic.value.IntegerValue
681

@<SCITEGIC>MOL_PROPERTY
Conf_Id
SciTegic.value.IntegerValue
55

@<SCITEGIC>MOL_PROPERTY
Delta U+W
SciTegic.value.DoubleValue
2.745

@<SCITEGIC>MOL_PROPERTY
U+W
SciTegic.value.DoubleValue
18.083

@<SCITEGIC>MOL_PROPERTY
Grad RMS
SciTegic.value.DoubleValue
0.000000

@<SCITEGIC>MOL_PROPERTY
U
SciTegic.value.DoubleValue
72.490

@<SCITEGIC>MOL_PROPERTY
W
SciTegic.value.DoubleValue
-54.407

@<SCITEGIC>MOL_PROPERTY
W(PB)
SciTegic.value.DoubleValue
-56.269

@<SCITEGIC>MOL_PROPERTY
W(SA)
SciTegic.value.DoubleValue
1.861

@<SCITEGIC>MOL_PROPERTY
Valence
SciTegic.value.DoubleValue
2.738

@<SCITEGIC>MOL_PROPERTY
Coulomb
SciTegic.value.DoubleValue
69.795

@<SCITEGIC>MOL_PROPERTY
VdW
SciTegic.value.DoubleValue
-0.043

@<SCITEGIC>MOL_PROPERTY
VdW6
SciTegic.value.DoubleValue
-5.333

@<SCITEGIC>MOL_PROPERTY
VdW12
SciTegic.value.DoubleValue
5.290

@<SCITEGIC>MOL_PROPERTY
Bond
SciTegic.value.DoubleValue
0.182

@<SCITEGIC>MOL_PROPERTY
Angle
SciTegic.value.DoubleValue
1.135

@<SCITEGIC>MOL_PROPERTY
Pdih
SciTegic.value.DoubleValue
1.422

@<SCITEGIC>MOL_PROPERTY
Idih
SciTegic.value.DoubleValue
0.000

@<SCITEGIC>MOL_PROPERTY
Tether
SciTegic.value.DoubleValue
0.000

@<TRIPOS>MOLECULE
guest-s9_confgen4.mol2 : confsearch ligand conformer 682
          20          19           1
SMALL
USER_CHARGES
 
@<TRIPOS>ATOM
       1    C1      19.578803   17.185833   20.767230 C.3        1 MOL1        -0.2224
       2    H1      19.534386   16.378627   20.024523 H          1 MOL1         0.1052
       3    H2      19.200916   16.785204   21.716970 H          1 MOL1         0.1052
       4    H3      18.902729   17.976247   20.421804 H          1 MOL1         0.1052
       5    C2      21.029114   17.700654   20.911903 C.3        1 MOL1        -0.1209
       6    H4      21.336969   18.198071   19.981409 H          1 MOL1         0.1041
       7    H5      21.696388   16.835050   21.028101 H          1 MOL1         0.1041
       8    C3      21.255081   18.653041   22.113872 C.3        1 MOL1        -0.1274
       9    H6      21.007757   18.143609   23.053665 H          1 MOL1         0.1041
      10    H7      22.329064   18.874401   22.169969 H          1 MOL1         0.1041
      11    C4      20.505225   20.001970   22.015587 C.3        1 MOL1         0.0313
      12    H8      20.608792   20.394319   21.000794 H          1 MOL1         0.1015
      13    H9      20.965728   20.719971   22.698839 H          1 MOL1         0.1015
      14    N1      19.022493   19.959699   22.350590 N.4        1 MOL1        -0.4809
      15    H10     18.553320   19.238067   21.785823 H          1 MOL1         0.3726
      16    H11     18.580391   20.850376   22.074186 H          1 MOL1         0.3726
      17    C5      18.798502   19.711290   23.838152 C.3        1 MOL1        -0.0677
      18    H12     19.212424   18.738579   24.110405 H          1 MOL1         0.1026
      19    H13     19.292870   20.497925   24.412125 H          1 MOL1         0.1026
      20    H14     17.726200   19.723720   24.045337 H          1 MOL1         0.1026
@<TRIPOS>BOND
    1     1     2    1
    2     1     3    1
    3     1     4    1
    4     1     5    1
    5     5     6    1
    6     5     7    1
    7     5     8    1
    8     8     9    1
    9     8    10    1
   10     8    11    1
   11    11    12    1
   12    11    13    1
   13    11    14    1
   14    14    15    1
   15    14    16    1
   16    14    17    1
   17    17    18    1
   18    17    19    1
   19    17    20    1
@<TRIPOS>SUBSTRUCTURE
       1 MOL1            1 RESIDUE      1      MOL     
@<SCITEGIC>MOL_PROPERTY
VConf Rank
SciTegic.value.IntegerValue
682

@<SCITEGIC>MOL_PROPERTY
Conf_Id
SciTegic.value.IntegerValue
76

@<SCITEGIC>MOL_PROPERTY
Delta U+W
SciTegic.value.DoubleValue
2.799

@<SCITEGIC>MOL_PROPERTY
U+W
SciTegic.value.DoubleValue
18.137

@<SCITEGIC>MOL_PROPERTY
Grad RMS
SciTegic.value.DoubleValue
0.000000

@<SCITEGIC>MOL_PROPERTY
U
SciTegic.value.DoubleValue
72.490

@<SCITEGIC>MOL_PROPERTY
W
SciTegic.value.DoubleValue
-54.353

@<SCITEGIC>MOL_PROPERTY
W(PB)
SciTegic.value.DoubleValue
-56.201

@<SCITEGIC>MOL_PROPERTY
W(SA)
SciTegic.value.DoubleValue
1.848

@<SCITEGIC>MOL_PROPERTY
Valence
SciTegic.value.DoubleValue
2.738

@<SCITEGIC>MOL_PROPERTY
Coulomb
SciTegic.value.DoubleValue
69.795

@<SCITEGIC>MOL_PROPERTY
VdW
SciTegic.value.DoubleValue
-0.043

@<SCITEGIC>MOL_PROPERTY
VdW6
SciTegic.value.DoubleValue
-5.334

@<SCITEGIC>MOL_PROPERTY
VdW12
SciTegic.value.DoubleValue
5.290

@<SCITEGIC>MOL_PROPERTY
Bond
SciTegic.value.DoubleValue
0.182

@<SCITEGIC>MOL_PROPERTY
Angle
SciTegic.value.DoubleValue
1.135

@<SCITEGIC>MOL_PROPERTY
Pdih
SciTegic.value.DoubleValue
1.421

@<SCITEGIC>MOL_PROPERTY
Idih
SciTegic.value.DoubleValue
0.000

@<SCITEGIC>MOL_PROPERTY
Tether
SciTegic.value.DoubleValue
0.000

@<TRIPOS>MOLECULE
guest-s9_confgen4.mol2 : confsearch ligand conformer 683
          20          19           1
SMALL
USER_CHARGES
 
@<TRIPOS>ATOM
       1    C1      18.145896   17.821811   21.790717 C.3        1 MOL1        -0.2224
       2    H1      18.454225   18.455762   20.950426 H          1 MOL1         0.1052
       3    H2      18.130783   16.780297   21.444345 H          1 MOL1         0.1052
       4    H3      17.118121   18.100647   22.056750 H          1 MOL1         0.1052
       5    C2      19.085324   17.988023   23.007438 C.3        1 MOL1        -0.1209
       6    H4      18.693090   17.389801   23.841773 H          1 MOL1         0.1041
       7    H5      19.071998   19.028872   23.355601 H          1 MOL1         0.1041
       8    C3      20.539061   17.540487   22.717950 C.3        1 MOL1        -0.1274
       9    H6      21.139599   17.643275   23.631294 H          1 MOL1         0.1041
      10    H7      20.535262   16.468586   22.479915 H          1 MOL1         0.1041
      11    C4      21.244691   18.288625   21.562504 C.3        1 MOL1         0.0313
      12    H8      20.662178   18.210017   20.641599 H          1 MOL1         0.1015
      13    H9      22.206392   17.799862   21.386693 H          1 MOL1         0.1015
      14    N1      21.547338   19.757646   21.818090 N.4        1 MOL1        -0.4809
      15    H10     22.408643   20.019209   21.313572 H          1 MOL1         0.3726
      16    H11     21.769116   19.910701   22.813094 H          1 MOL1         0.3726
      17    C5      20.405617   20.657661   21.357988 C.3        1 MOL1        -0.0677
      18    H12     20.680262   21.700142   21.533291 H          1 MOL1         0.1026
      19    H13     20.232280   20.498924   20.291523 H          1 MOL1         0.1026
      20    H14     19.500094   20.419743   21.916955 H          1 MOL1         0.1026
@<TRIPOS>BOND
    1     1     2    1
    2     1     3    1
    3     1     4    1
    4     1     5    1
    5     5     6    1
    6     5     7    1
    7     5     8    1
    8     8     9    1
    9     8    10    1
   10     8    11    1
   11    11    12    1
   12    11    13    1
   13    11    14    1
   14    14    15    1
   15    14    16    1
   16    14    17    1
   17    17    18    1
   18    17    19    1
   19    17    20    1
@<TRIPOS>SUBSTRUCTURE
       1 MOL1            1 RESIDUE      1      MOL     
@<SCITEGIC>MOL_PROPERTY
VConf Rank
SciTegic.value.IntegerValue
683

@<SCITEGIC>MOL_PROPERTY
Conf_Id
SciTegic.value.IntegerValue
60

@<SCITEGIC>MOL_PROPERTY
Delta U+W
SciTegic.value.DoubleValue
1.788

@<SCITEGIC>MOL_PROPERTY
U+W
SciTegic.value.DoubleValue
17.127

@<SCITEGIC>MOL_PROPERTY
Grad RMS
SciTegic.value.DoubleValue
0.000000

@<SCITEGIC>MOL_PROPERTY
U
SciTegic.value.DoubleValue
72.122

@<SCITEGIC>MOL_PROPERTY
W
SciTegic.value.DoubleValue
-54.995

@<SCITEGIC>MOL_PROPERTY
W(PB)
SciTegic.value.DoubleValue
-56.810

@<SCITEGIC>MOL_PROPERTY
W(SA)
SciTegic.value.DoubleValue
1.815

@<SCITEGIC>MOL_PROPERTY
Valence
SciTegic.value.DoubleValue
3.197

@<SCITEGIC>MOL_PROPERTY
Coulomb
SciTegic.value.DoubleValue
69.115

@<SCITEGIC>MOL_PROPERTY
VdW
SciTegic.value.DoubleValue
-0.190

@<SCITEGIC>MOL_PROPERTY
VdW6
SciTegic.value.DoubleValue
-5.585

@<SCITEGIC>MOL_PROPERTY
VdW12
SciTegic.value.DoubleValue
5.395

@<SCITEGIC>MOL_PROPERTY
Bond
SciTegic.value.DoubleValue
0.177

@<SCITEGIC>MOL_PROPERTY
Angle
SciTegic.value.DoubleValue
1.207

@<SCITEGIC>MOL_PROPERTY
Pdih
SciTegic.value.DoubleValue
1.813

@<SCITEGIC>MOL_PROPERTY
Idih
SciTegic.value.DoubleValue
0.000

@<SCITEGIC>MOL_PROPERTY
Tether
SciTegic.value.DoubleValue
0.000

@<TRIPOS>MOLECULE
guest-s9_confgen4.mol2 : confsearch ligand conformer 684
          20          19           1
SMALL
USER_CHARGES
 
@<TRIPOS>ATOM
       1    C1      19.445965   16.964614   22.877409 C.3        1 MOL1        -0.2224
       2    H1      18.987654   16.679727   23.833252 H          1 MOL1         0.1052
       3    H2      19.409851   16.089771   22.215370 H          1 MOL1         0.1052
       4    H3      20.499141   17.200967   23.072366 H          1 MOL1         0.1052
       5    C2      18.696710   18.164150   22.252677 C.3        1 MOL1        -0.1209
       6    H4      18.722435   19.022921   22.935769 H          1 MOL1         0.1041
       7    H5      17.635119   17.901071   22.144763 H          1 MOL1         0.1041
       8    C3      19.249827   18.569479   20.864434 C.3        1 MOL1        -0.1274
       9    H6      19.110171   17.728749   20.172109 H          1 MOL1         0.1041
      10    H7      18.648467   19.394431   20.460420 H          1 MOL1         0.1041
      11    C4      20.742927   18.972782   20.838399 C.3        1 MOL1         0.0313
      12    H8      21.031601   19.116288   19.794014 H          1 MOL1         0.1015
      13    H9      21.364441   18.171384   21.244659 H          1 MOL1         0.1015
      14    N1      21.087735   20.265371   21.563148 N.4        1 MOL1        -0.4809
      15    H10     20.314935   20.942189   21.477451 H          1 MOL1         0.3726
      16    H11     21.886102   20.716748   21.090212 H          1 MOL1         0.3726
      17    C5      21.448275   20.014945   23.023470 C.3        1 MOL1        -0.0677
      18    H12     22.297834   19.330348   23.070017 H          1 MOL1         0.1026
      19    H13     21.716556   20.964114   23.492544 H          1 MOL1         0.1026
      20    H14     20.595534   19.578457   23.544366 H          1 MOL1         0.1026
@<TRIPOS>BOND
    1     1     2    1
    2     1     3    1
    3     1     4    1
    4     1     5    1
    5     5     6    1
    6     5     7    1
    7     5     8    1
    8     8     9    1
    9     8    10    1
   10     8    11    1
   11    11    12    1
   12    11    13    1
   13    11    14    1
   14    14    15    1
   15    14    16    1
   16    14    17    1
   17    17    18    1
   18    17    19    1
   19    17    20    1
@<TRIPOS>SUBSTRUCTURE
       1 MOL1            1 RESIDUE      1      MOL     
@<SCITEGIC>MOL_PROPERTY
VConf Rank
SciTegic.value.IntegerValue
684

@<SCITEGIC>MOL_PROPERTY
Conf_Id
SciTegic.value.IntegerValue
54

@<SCITEGIC>MOL_PROPERTY
Delta U+W
SciTegic.value.DoubleValue
1.880

@<SCITEGIC>MOL_PROPERTY
U+W
SciTegic.value.DoubleValue
17.218

@<SCITEGIC>MOL_PROPERTY
Grad RMS
SciTegic.value.DoubleValue
0.000000

@<SCITEGIC>MOL_PROPERTY
U
SciTegic.value.DoubleValue
72.122

@<SCITEGIC>MOL_PROPERTY
W
SciTegic.value.DoubleValue
-54.903

@<SCITEGIC>MOL_PROPERTY
W(PB)
SciTegic.value.DoubleValue
-56.724

@<SCITEGIC>MOL_PROPERTY
W(SA)
SciTegic.value.DoubleValue
1.821

@<SCITEGIC>MOL_PROPERTY
Valence
SciTegic.value.DoubleValue
3.197

@<SCITEGIC>MOL_PROPERTY
Coulomb
SciTegic.value.DoubleValue
69.115

@<SCITEGIC>MOL_PROPERTY
VdW
SciTegic.value.DoubleValue
-0.190

@<SCITEGIC>MOL_PROPERTY
VdW6
SciTegic.value.DoubleValue
-5.585

@<SCITEGIC>MOL_PROPERTY
VdW12
SciTegic.value.DoubleValue
5.395

@<SCITEGIC>MOL_PROPERTY
Bond
SciTegic.value.DoubleValue
0.177

@<SCITEGIC>MOL_PROPERTY
Angle
SciTegic.value.DoubleValue
1.207

@<SCITEGIC>MOL_PROPERTY
Pdih
SciTegic.value.DoubleValue
1.813

@<SCITEGIC>MOL_PROPERTY
Idih
SciTegic.value.DoubleValue
0.000

@<SCITEGIC>MOL_PROPERTY
Tether
SciTegic.value.DoubleValue
0.000

@<TRIPOS>MOLECULE
guest-s9_confgen4.mol2 : confsearch ligand conformer 685
          20          19           1
SMALL
USER_CHARGES
 
@<TRIPOS>ATOM
       1    C1      20.675377   16.292538   23.884442 C.3        1 MOL1        -0.2224
       2    H1      21.509685   16.739623   24.440519 H          1 MOL1         0.1052
       3    H2      20.108642   15.659990   24.579942 H          1 MOL1         0.1052
       4    H3      21.093857   15.643163   23.104465 H          1 MOL1         0.1052
       5    C2      19.767008   17.381494   23.273482 C.3        1 MOL1        -0.1209
       6    H4      19.336351   17.992254   24.079620 H          1 MOL1         0.1041
       7    H5      18.923857   16.904426   22.754008 H          1 MOL1         0.1041
       8    C3      20.538883   18.287941   22.289448 C.3        1 MOL1        -0.1274
       9    H6      21.378891   18.766851   22.810024 H          1 MOL1         0.1041
      10    H7      20.965962   17.677494   21.482650 H          1 MOL1         0.1041
      11    C4      19.626349   19.370949   21.684504 C.3        1 MOL1         0.0313
      12    H8      19.211726   19.990218   22.483930 H          1 MOL1         0.1015
      13    H9      18.797590   18.897371   21.152177 H          1 MOL1         0.1015
      14    N1      20.342227   20.286344   20.710710 N.4        1 MOL1        -0.4809
      15    H10     20.755774   19.736188   19.942293 H          1 MOL1         0.3726
      16    H11     21.139163   20.748052   21.175333 H          1 MOL1         0.3726
      17    C5      19.370877   21.322983   20.162046 C.3        1 MOL1        -0.0677
      18    H12     18.972252   21.915550   20.988344 H          1 MOL1         0.1026
      19    H13     19.899120   21.974965   19.462841 H          1 MOL1         0.1026
      20    H14     18.554724   20.813455   19.645242 H          1 MOL1         0.1026
@<TRIPOS>BOND
    1     1     2    1
    2     1     3    1
    3     1     4    1
    4     1     5    1
    5     5     6    1
    6     5     7    1
    7     5     8    1
    8     8     9    1
    9     8    10    1
   10     8    11    1
   11    11    12    1
   12    11    13    1
   13    11    14    1
   14    14    15    1
   15    14    16    1
   16    14    17    1
   17    17    18    1
   18    17    19    1
   19    17    20    1
@<TRIPOS>SUBSTRUCTURE
       1 MOL1            1 RESIDUE      1      MOL     
@<SCITEGIC>MOL_PROPERTY
VConf Rank
SciTegic.value.IntegerValue
685

@<SCITEGIC>MOL_PROPERTY
Conf_Id
SciTegic.value.IntegerValue
67

@<SCITEGIC>MOL_PROPERTY
Delta U+W
SciTegic.value.DoubleValue
0.000

@<SCITEGIC>MOL_PROPERTY
U+W
SciTegic.value.DoubleValue
15.338

@<SCITEGIC>MOL_PROPERTY
Grad RMS
SciTegic.value.DoubleValue
0.000000

@<SCITEGIC>MOL_PROPERTY
U
SciTegic.value.DoubleValue
69.277

@<SCITEGIC>MOL_PROPERTY
W
SciTegic.value.DoubleValue
-53.939

@<SCITEGIC>MOL_PROPERTY
W(PB)
SciTegic.value.DoubleValue
-55.889

@<SCITEGIC>MOL_PROPERTY
W(SA)
SciTegic.value.DoubleValue
1.950

@<SCITEGIC>MOL_PROPERTY
Valence
SciTegic.value.DoubleValue
0.846

@<SCITEGIC>MOL_PROPERTY
Coulomb
SciTegic.value.DoubleValue
68.557

@<SCITEGIC>MOL_PROPERTY
VdW
SciTegic.value.DoubleValue
-0.127

@<SCITEGIC>MOL_PROPERTY
VdW6
SciTegic.value.DoubleValue
-3.008

@<SCITEGIC>MOL_PROPERTY
VdW12
SciTegic.value.DoubleValue
2.882

@<SCITEGIC>MOL_PROPERTY
Bond
SciTegic.value.DoubleValue
0.088

@<SCITEGIC>MOL_PROPERTY
Angle
SciTegic.value.DoubleValue
0.332

@<SCITEGIC>MOL_PROPERTY
Pdih
SciTegic.value.DoubleValue
0.426

@<SCITEGIC>MOL_PROPERTY
Idih
SciTegic.value.DoubleValue
0.000

@<SCITEGIC>MOL_PROPERTY
Tether
SciTegic.value.DoubleValue
0.000

@<TRIPOS>MOLECULE
guest-s9_confgen4.mol2 : confsearch ligand conformer 686
          20          19           1
SMALL
USER_CHARGES
 
@<TRIPOS>ATOM
       1    C1      17.940680   20.881650   21.330750 C.3        1 MOL1        -0.2224
       2    H1      17.192273   20.252684   21.830209 H          1 MOL1         0.1052
       3    H2      17.659501   21.930492   21.491652 H          1 MOL1         0.1052
       4    H3      17.890038   20.681762   20.252489 H          1 MOL1         0.1052
       5    C2      19.356466   20.605637   21.881783 C.3        1 MOL1        -0.1209
       6    H4      19.384590   20.847185   22.953785 H          1 MOL1         0.1041
       7    H5      20.076790   21.273614   21.388578 H          1 MOL1         0.1041
       8    C3      19.779508   19.135492   21.668713 C.3        1 MOL1        -0.1274
       9    H6      19.057602   18.472457   22.162668 H          1 MOL1         0.1041
      10    H7      19.755365   18.896186   20.597372 H          1 MOL1         0.1041
      11    C4      21.195336   18.870082   22.220947 C.3        1 MOL1         0.0313
      12    H8      21.215534   19.059502   23.297095 H          1 MOL1         0.1015
      13    H9      21.897049   19.558693   21.743358 H          1 MOL1         0.1015
      14    N1      21.713448   17.460820   21.983663 N.4        1 MOL1        -0.4809
      15    H10     22.714401   17.414957   22.231202 H          1 MOL1         0.3726
      16    H11     21.679560   17.232061   20.978528 H          1 MOL1         0.3726
      17    C5      20.931396   16.437357   22.800016 C.3        1 MOL1        -0.0677
      18    H12     19.885873   16.445088   22.485836 H          1 MOL1         0.1026
      19    H13     21.356722   15.445477   22.631959 H          1 MOL1         0.1026
      20    H14     21.001801   16.692951   23.859460 H          1 MOL1         0.1026
@<TRIPOS>BOND
    1     1     2    1
    2     1     3    1
    3     1     4    1
    4     1     5    1
    5     5     6    1
    6     5     7    1
    7     5     8    1
    8     8     9    1
    9     8    10    1
   10     8    11    1
   11    11    12    1
   12    11    13    1
   13    11    14    1
   14    14    15    1
   15    14    16    1
   16    14    17    1
   17    17    18    1
   18    17    19    1
   19    17    20    1
@<TRIPOS>SUBSTRUCTURE
       1 MOL1            1 RESIDUE      1      MOL     
@<SCITEGIC>MOL_PROPERTY
VConf Rank
SciTegic.value.IntegerValue
686

@<SCITEGIC>MOL_PROPERTY
Conf_Id
SciTegic.value.IntegerValue
37

@<SCITEGIC>MOL_PROPERTY
Delta U+W
SciTegic.value.DoubleValue
-0.021

@<SCITEGIC>MOL_PROPERTY
U+W
SciTegic.value.DoubleValue
15.318

@<SCITEGIC>MOL_PROPERTY
Grad RMS
SciTegic.value.DoubleValue
0.000000

@<SCITEGIC>MOL_PROPERTY
U
SciTegic.value.DoubleValue
69.657

@<SCITEGIC>MOL_PROPERTY
W
SciTegic.value.DoubleValue
-54.340

@<SCITEGIC>MOL_PROPERTY
W(PB)
SciTegic.value.DoubleValue
-56.238

@<SCITEGIC>MOL_PROPERTY
W(SA)
SciTegic.value.DoubleValue
1.899

@<SCITEGIC>MOL_PROPERTY
Valence
SciTegic.value.DoubleValue
1.137

@<SCITEGIC>MOL_PROPERTY
Coulomb
SciTegic.value.DoubleValue
68.383

@<SCITEGIC>MOL_PROPERTY
VdW
SciTegic.value.DoubleValue
0.138

@<SCITEGIC>MOL_PROPERTY
VdW6
SciTegic.value.DoubleValue
-3.703

@<SCITEGIC>MOL_PROPERTY
VdW12
SciTegic.value.DoubleValue
3.841

@<SCITEGIC>MOL_PROPERTY
Bond
SciTegic.value.DoubleValue
0.125

@<SCITEGIC>MOL_PROPERTY
Angle
SciTegic.value.DoubleValue
0.468

@<SCITEGIC>MOL_PROPERTY
Pdih
SciTegic.value.DoubleValue
0.543

@<SCITEGIC>MOL_PROPERTY
Idih
SciTegic.value.DoubleValue
0.000

@<SCITEGIC>MOL_PROPERTY
Tether
SciTegic.value.DoubleValue
0.000

@<TRIPOS>MOLECULE
guest-s9_confgen4.mol2 : confsearch ligand conformer 687
          20          19           1
SMALL
USER_CHARGES
 
@<TRIPOS>ATOM
       1    C1      17.714022   20.407082   23.094891 C.3        1 MOL1        -0.2224
       2    H1      16.912221   20.370939   23.843776 H          1 MOL1         0.1052
       3    H2      18.415196   21.198110   23.391200 H          1 MOL1         0.1052
       4    H3      17.264386   20.691391   22.134597 H          1 MOL1         0.1052
       5    C2      18.427027   19.041275   22.992602 C.3        1 MOL1        -0.1209
       6    H4      17.693978   18.265592   22.729423 H          1 MOL1         0.1041
       7    H5      18.836287   18.768461   23.975661 H          1 MOL1         0.1041
       8    C3      19.561523   19.062369   21.944671 C.3        1 MOL1        -0.1274
       9    H6      19.151304   19.330731   20.962162 H          1 MOL1         0.1041
      10    H7      20.290769   19.838112   22.211463 H          1 MOL1         0.1041
      11    C4      20.266529   17.693526   21.848728 C.3        1 MOL1         0.0313
      12    H8      19.523069   16.927459   21.614022 H          1 MOL1         0.1015
      13    H9      20.719673   17.441166   22.810682 H          1 MOL1         0.1015
      14    N1      21.349620   17.612506   20.785192 N.4        1 MOL1        -0.4809
      15    H10     20.966864   17.876136   19.864447 H          1 MOL1         0.3726
      16    H11     21.651794   16.631835   20.674462 H          1 MOL1         0.3726
      17    C5      22.547236   18.485168   21.145321 C.3        1 MOL1        -0.0677
      18    H12     22.943140   18.170593   22.113313 H          1 MOL1         0.1026
      19    H13     23.316594   18.370661   20.378543 H          1 MOL1         0.1026
      20    H14     22.233161   19.529555   21.195313 H          1 MOL1         0.1026
@<TRIPOS>BOND
    1     1     2    1
    2     1     3    1
    3     1     4    1
    4     1     5    1
    5     5     6    1
    6     5     7    1
    7     5     8    1
    8     8     9    1
    9     8    10    1
   10     8    11    1
   11    11    12    1
   12    11    13    1
   13    11    14    1
   14    14    15    1
   15    14    16    1
   16    14    17    1
   17    17    18    1
   18    17    19    1
   19    17    20    1
@<TRIPOS>SUBSTRUCTURE
       1 MOL1            1 RESIDUE      1      MOL     
@<SCITEGIC>MOL_PROPERTY
VConf Rank
SciTegic.value.IntegerValue
687

@<SCITEGIC>MOL_PROPERTY
Conf_Id
SciTegic.value.IntegerValue
2

@<SCITEGIC>MOL_PROPERTY
Delta U+W
SciTegic.value.DoubleValue
0.069

@<SCITEGIC>MOL_PROPERTY
U+W
SciTegic.value.DoubleValue
15.407

@<SCITEGIC>MOL_PROPERTY
Grad RMS
SciTegic.value.DoubleValue
0.000000

@<SCITEGIC>MOL_PROPERTY
U
SciTegic.value.DoubleValue
69.657

@<SCITEGIC>MOL_PROPERTY
W
SciTegic.value.DoubleValue
-54.250

@<SCITEGIC>MOL_PROPERTY
W(PB)
SciTegic.value.DoubleValue
-56.176

@<SCITEGIC>MOL_PROPERTY
W(SA)
SciTegic.value.DoubleValue
1.926

@<SCITEGIC>MOL_PROPERTY
Valence
SciTegic.value.DoubleValue
1.137

@<SCITEGIC>MOL_PROPERTY
Coulomb
SciTegic.value.DoubleValue
68.383

@<SCITEGIC>MOL_PROPERTY
VdW
SciTegic.value.DoubleValue
0.138

@<SCITEGIC>MOL_PROPERTY
VdW6
SciTegic.value.DoubleValue
-3.703

@<SCITEGIC>MOL_PROPERTY
VdW12
SciTegic.value.DoubleValue
3.841

@<SCITEGIC>MOL_PROPERTY
Bond
SciTegic.value.DoubleValue
0.125

@<SCITEGIC>MOL_PROPERTY
Angle
SciTegic.value.DoubleValue
0.468

@<SCITEGIC>MOL_PROPERTY
Pdih
SciTegic.value.DoubleValue
0.543

@<SCITEGIC>MOL_PROPERTY
Idih
SciTegic.value.DoubleValue
0.000

@<SCITEGIC>MOL_PROPERTY
Tether
SciTegic.value.DoubleValue
0.000

@<TRIPOS>MOLECULE
guest-s9_confgen4.mol2 : confsearch ligand conformer 688
          20          19           1
SMALL
USER_CHARGES
 
@<TRIPOS>ATOM
       1    C1      18.317142   16.697375   22.069189 C.3        1 MOL1        -0.2224
       2    H1      17.819521   17.620402   21.745991 H          1 MOL1         0.1052
       3    H2      18.716852   16.193594   21.179507 H          1 MOL1         0.1052
       4    H3      17.550841   16.044718   22.507151 H          1 MOL1         0.1052
       5    C2      19.436378   16.984288   23.096458 C.3        1 MOL1        -0.1209
       6    H4      19.841803   16.029860   23.460753 H          1 MOL1         0.1041
       7    H5      19.011233   17.493508   23.972901 H          1 MOL1         0.1041
       8    C3      20.591580   17.830279   22.511661 C.3        1 MOL1        -0.1274
       9    H6      21.381195   17.928358   23.268460 H          1 MOL1         0.1041
      10    H7      21.037756   17.303524   21.657658 H          1 MOL1         0.1041
      11    C4      20.135277   19.235276   22.072325 C.3        1 MOL1         0.0313
      12    H8      19.693451   19.760245   22.922954 H          1 MOL1         0.1015
      13    H9      19.377099   19.148592   21.290392 H          1 MOL1         0.1015
      14    N1      21.262544   20.092188   21.530622 N.4        1 MOL1        -0.4809
      15    H10     21.712698   19.624127   20.729142 H          1 MOL1         0.3726
      16    H11     22.005135   20.194367   22.239297 H          1 MOL1         0.3726
      17    C5      20.726133   21.456779   21.119227 C.3        1 MOL1        -0.0677
      18    H12     20.285465   21.947629   21.989675 H          1 MOL1         0.1026
      19    H13     21.547654   22.063152   20.731387 H          1 MOL1         0.1026
      20    H14     19.967223   21.326635   20.344683 H          1 MOL1         0.1026
@<TRIPOS>BOND
    1     1     2    1
    2     1     3    1
    3     1     4    1
    4     1     5    1
    5     5     6    1
    6     5     7    1
    7     5     8    1
    8     8     9    1
    9     8    10    1
   10     8    11    1
   11    11    12    1
   12    11    13    1
   13    11    14    1
   14    14    15    1
   15    14    16    1
   16    14    17    1
   17    17    18    1
   18    17    19    1
   19    17    20    1
@<TRIPOS>SUBSTRUCTURE
       1 MOL1            1 RESIDUE      1      MOL     
@<SCITEGIC>MOL_PROPERTY
VConf Rank
SciTegic.value.IntegerValue
688

@<SCITEGIC>MOL_PROPERTY
Conf_Id
SciTegic.value.IntegerValue
34

@<SCITEGIC>MOL_PROPERTY
Delta U+W
SciTegic.value.DoubleValue
0.276

@<SCITEGIC>MOL_PROPERTY
U+W
SciTegic.value.DoubleValue
15.615

@<SCITEGIC>MOL_PROPERTY
Grad RMS
SciTegic.value.DoubleValue
0.000000

@<SCITEGIC>MOL_PROPERTY
U
SciTegic.value.DoubleValue
69.798

@<SCITEGIC>MOL_PROPERTY
W
SciTegic.value.DoubleValue
-54.184

@<SCITEGIC>MOL_PROPERTY
W(PB)
SciTegic.value.DoubleValue
-56.116

@<SCITEGIC>MOL_PROPERTY
W(SA)
SciTegic.value.DoubleValue
1.933

@<SCITEGIC>MOL_PROPERTY
Valence
SciTegic.value.DoubleValue
1.134

@<SCITEGIC>MOL_PROPERTY
Coulomb
SciTegic.value.DoubleValue
68.735

@<SCITEGIC>MOL_PROPERTY
VdW
SciTegic.value.DoubleValue
-0.070

@<SCITEGIC>MOL_PROPERTY
VdW6
SciTegic.value.DoubleValue
-3.565

@<SCITEGIC>MOL_PROPERTY
VdW12
SciTegic.value.DoubleValue
3.494

@<SCITEGIC>MOL_PROPERTY
Bond
SciTegic.value.DoubleValue
0.108

@<SCITEGIC>MOL_PROPERTY
Angle
SciTegic.value.DoubleValue
0.456

@<SCITEGIC>MOL_PROPERTY
Pdih
SciTegic.value.DoubleValue
0.569

@<SCITEGIC>MOL_PROPERTY
Idih
SciTegic.value.DoubleValue
0.000

@<SCITEGIC>MOL_PROPERTY
Tether
SciTegic.value.DoubleValue
0.000

@<TRIPOS>MOLECULE
guest-s9_confgen4.mol2 : confsearch ligand conformer 689
          20          19           1
SMALL
USER_CHARGES
 
@<TRIPOS>ATOM
       1    C1      19.729553   18.092924   24.942741 C.3        1 MOL1        -0.2224
       2    H1      19.275069   17.097070   25.025731 H          1 MOL1         0.1052
       3    H2      20.529553   18.160358   25.691392 H          1 MOL1         0.1052
       4    H3      18.966047   18.839113   25.198554 H          1 MOL1         0.1052
       5    C2      20.288515   18.333256   23.523647 C.3        1 MOL1        -0.1209
       6    H4      21.071134   17.591479   23.310108 H          1 MOL1         0.1041
       7    H5      20.769530   19.320169   23.490129 H          1 MOL1         0.1041
       8    C3      19.179407   18.243999   22.448892 C.3        1 MOL1        -0.1274
       9    H6      18.682428   17.267413   22.520829 H          1 MOL1         0.1041
      10    H7      18.407672   19.001501   22.639869 H          1 MOL1         0.1041
      11    C4      19.721232   18.410030   21.014877 C.3        1 MOL1         0.0313
      12    H8      18.909454   18.248362   20.301084 H          1 MOL1         0.1015
      13    H9      20.494566   17.661372   20.825401 H          1 MOL1         0.1015
      14    N1      20.313364   19.777875   20.731567 N.4        1 MOL1        -0.4809
      15    H10     21.087534   19.972115   21.383782 H          1 MOL1         0.3726
      16    H11     19.612027   20.512821   20.910535 H          1 MOL1         0.3726
      17    C5      20.801208   19.844611   19.290598 C.3        1 MOL1        -0.0677
      18    H12     21.565540   19.080448   19.133624 H          1 MOL1         0.1026
      19    H13     19.959430   19.669040   18.617270 H          1 MOL1         0.1026
      20    H14     21.224583   20.833340   19.100443 H          1 MOL1         0.1026
@<TRIPOS>BOND
    1     1     2    1
    2     1     3    1
    3     1     4    1
    4     1     5    1
    5     5     6    1
    6     5     7    1
    7     5     8    1
    8     8     9    1
    9     8    10    1
   10     8    11    1
   11    11    12    1
   12    11    13    1
   13    11    14    1
   14    14    15    1
   15    14    16    1
   16    14    17    1
   17    17    18    1
   18    17    19    1
   19    17    20    1
@<TRIPOS>SUBSTRUCTURE
       1 MOL1            1 RESIDUE      1      MOL     
@<SCITEGIC>MOL_PROPERTY
VConf Rank
SciTegic.value.IntegerValue
689

@<SCITEGIC>MOL_PROPERTY
Conf_Id
SciTegic.value.IntegerValue
50

@<SCITEGIC>MOL_PROPERTY
Delta U+W
SciTegic.value.DoubleValue
0.319

@<SCITEGIC>MOL_PROPERTY
U+W
SciTegic.value.DoubleValue
15.657

@<SCITEGIC>MOL_PROPERTY
Grad RMS
SciTegic.value.DoubleValue
0.000000

@<SCITEGIC>MOL_PROPERTY
U
SciTegic.value.DoubleValue
69.962

@<SCITEGIC>MOL_PROPERTY
W
SciTegic.value.DoubleValue
-54.305

@<SCITEGIC>MOL_PROPERTY
W(PB)
SciTegic.value.DoubleValue
-56.223

@<SCITEGIC>MOL_PROPERTY
W(SA)
SciTegic.value.DoubleValue
1.918

@<SCITEGIC>MOL_PROPERTY
Valence
SciTegic.value.DoubleValue
0.982

@<SCITEGIC>MOL_PROPERTY
Coulomb
SciTegic.value.DoubleValue
69.058

@<SCITEGIC>MOL_PROPERTY
VdW
SciTegic.value.DoubleValue
-0.078

@<SCITEGIC>MOL_PROPERTY
VdW6
SciTegic.value.DoubleValue
-3.548

@<SCITEGIC>MOL_PROPERTY
VdW12
SciTegic.value.DoubleValue
3.471

@<SCITEGIC>MOL_PROPERTY
Bond
SciTegic.value.DoubleValue
0.105

@<SCITEGIC>MOL_PROPERTY
Angle
SciTegic.value.DoubleValue
0.408

@<SCITEGIC>MOL_PROPERTY
Pdih
SciTegic.value.DoubleValue
0.469

@<SCITEGIC>MOL_PROPERTY
Idih
SciTegic.value.DoubleValue
0.000

@<SCITEGIC>MOL_PROPERTY
Tether
SciTegic.value.DoubleValue
0.000

@<TRIPOS>MOLECULE
guest-s9_confgen4.mol2 : confsearch ligand conformer 690
          20          19           1
SMALL
USER_CHARGES
 
@<TRIPOS>ATOM
       1    C1      18.395477   21.348539   22.340877 C.3        1 MOL1        -0.2224
       2    H1      18.731913   22.366367   22.104519 H          1 MOL1         0.1052
       3    H2      17.422918   21.195105   21.855329 H          1 MOL1         0.1052
       4    H3      18.248386   21.286872   23.427036 H          1 MOL1         0.1052
       5    C2      19.428498   20.306783   21.859592 C.3        1 MOL1        -0.1209
       6    H4      20.396585   20.515905   22.334535 H          1 MOL1         0.1041
       7    H5      19.576893   20.414961   20.775802 H          1 MOL1         0.1041
       8    C3      18.977586   18.862455   22.181744 C.3        1 MOL1        -0.1274
       9    H6      18.854552   18.738991   23.265938 H          1 MOL1         0.1041
      10    H7      17.991567   18.681831   21.733388 H          1 MOL1         0.1041
      11    C4      19.956990   17.797178   21.649300 C.3        1 MOL1         0.0313
      12    H8      20.086095   17.922952   20.571363 H          1 MOL1         0.1015
      13    H9      19.540832   16.802448   21.828027 H          1 MOL1         0.1015
      14    N1      21.329601   17.841043   22.294207 N.4        1 MOL1        -0.4809
      15    H10     21.245407   17.735439   23.316855 H          1 MOL1         0.3726
      16    H11     21.761650   18.765391   22.148030 H          1 MOL1         0.3726
      17    C5      22.211369   16.743124   21.714638 C.3        1 MOL1        -0.0677
      18    H12     23.195271   16.786212   22.186943 H          1 MOL1         0.1026
      19    H13     21.751671   15.771862   21.909863 H          1 MOL1         0.1026
      20    H14     22.313022   16.894035   20.637752 H          1 MOL1         0.1026
@<TRIPOS>BOND
    1     1     2    1
    2     1     3    1
    3     1     4    1
    4     1     5    1
    5     5     6    1
    6     5     7    1
    7     5     8    1
    8     8     9    1
    9     8    10    1
   10     8    11    1
   11    11    12    1
   12    11    13    1
   13    11    14    1
   14    14    15    1
   15    14    16    1
   16    14    17    1
   17    17    18    1
   18    17    19    1
   19    17    20    1
@<TRIPOS>SUBSTRUCTURE
       1 MOL1            1 RESIDUE      1      MOL     
@<SCITEGIC>MOL_PROPERTY
VConf Rank
SciTegic.value.IntegerValue
690

@<SCITEGIC>MOL_PROPERTY
Conf_Id
SciTegic.value.IntegerValue
35

@<SCITEGIC>MOL_PROPERTY
Delta U+W
SciTegic.value.DoubleValue
0.360

@<SCITEGIC>MOL_PROPERTY
U+W
SciTegic.value.DoubleValue
15.698

@<SCITEGIC>MOL_PROPERTY
Grad RMS
SciTegic.value.DoubleValue
0.000000

@<SCITEGIC>MOL_PROPERTY
U
SciTegic.value.DoubleValue
69.962

@<SCITEGIC>MOL_PROPERTY
W
SciTegic.value.DoubleValue
-54.264

@<SCITEGIC>MOL_PROPERTY
W(PB)
SciTegic.value.DoubleValue
-56.166

@<SCITEGIC>MOL_PROPERTY
W(SA)
SciTegic.value.DoubleValue
1.902

@<SCITEGIC>MOL_PROPERTY
Valence
SciTegic.value.DoubleValue
0.982

@<SCITEGIC>MOL_PROPERTY
Coulomb
SciTegic.value.DoubleValue
69.058

@<SCITEGIC>MOL_PROPERTY
VdW
SciTegic.value.DoubleValue
-0.078

@<SCITEGIC>MOL_PROPERTY
VdW6
SciTegic.value.DoubleValue
-3.548

@<SCITEGIC>MOL_PROPERTY
VdW12
SciTegic.value.DoubleValue
3.471

@<SCITEGIC>MOL_PROPERTY
Bond
SciTegic.value.DoubleValue
0.105

@<SCITEGIC>MOL_PROPERTY
Angle
SciTegic.value.DoubleValue
0.408

@<SCITEGIC>MOL_PROPERTY
Pdih
SciTegic.value.DoubleValue
0.469

@<SCITEGIC>MOL_PROPERTY
Idih
SciTegic.value.DoubleValue
0.000

@<SCITEGIC>MOL_PROPERTY
Tether
SciTegic.value.DoubleValue
0.000

@<TRIPOS>MOLECULE
guest-s9_confgen4.mol2 : confsearch ligand conformer 691
          20          19           1
SMALL
USER_CHARGES
 
@<TRIPOS>ATOM
       1    C1      20.678049   20.178142   24.045234 C.3        1 MOL1        -0.2224
       2    H1      19.727088   19.711089   24.330898 H          1 MOL1         0.1052
       3    H2      21.172174   20.512632   24.966608 H          1 MOL1         0.1052
       4    H3      20.455361   21.068417   23.442810 H          1 MOL1         0.1052
       5    C2      21.584478   19.194261   23.270266 C.3        1 MOL1        -0.1209
       6    H4      21.787675   18.311209   23.892438 H          1 MOL1         0.1041
       7    H5      22.556907   19.672034   23.085604 H          1 MOL1         0.1041
       8    C3      20.977424   18.751219   21.918574 C.3        1 MOL1        -0.1274
       9    H6      20.811638   19.633728   21.287382 H          1 MOL1         0.1041
      10    H7      21.703368   18.118821   21.390754 H          1 MOL1         0.1041
      11    C4      19.657048   17.969704   22.089770 C.3        1 MOL1         0.0313
      12    H8      18.903226   18.610086   22.553902 H          1 MOL1         0.1015
      13    H9      19.832472   17.118318   22.752295 H          1 MOL1         0.1015
      14    N1      19.072817   17.424397   20.796824 N.4        1 MOL1        -0.4809
      15    H10     18.292933   16.783980   21.013281 H          1 MOL1         0.3726
      16    H11     19.767889   16.838598   20.309552 H          1 MOL1         0.3726
      17    C5      18.582225   18.550164   19.892757 C.3        1 MOL1        -0.0677
      18    H12     19.425319   19.185641   19.614818 H          1 MOL1         0.1026
      19    H13     18.137101   18.118530   18.993580 H          1 MOL1         0.1026
      20    H14     17.834069   19.139908   20.426762 H          1 MOL1         0.1026
@<TRIPOS>BOND
    1     1     2    1
    2     1     3    1
    3     1     4    1
    4     1     5    1
    5     5     6    1
    6     5     7    1
    7     5     8    1
    8     8     9    1
    9     8    10    1
   10     8    11    1
   11    11    12    1
   12    11    13    1
   13    11    14    1
   14    14    15    1
   15    14    16    1
   16    14    17    1
   17    17    18    1
   18    17    19    1
   19    17    20    1
@<TRIPOS>SUBSTRUCTURE
       1 MOL1            1 RESIDUE      1      MOL     
@<SCITEGIC>MOL_PROPERTY
VConf Rank
SciTegic.value.IntegerValue
691

@<SCITEGIC>MOL_PROPERTY
Conf_Id
SciTegic.value.IntegerValue
33

@<SCITEGIC>MOL_PROPERTY
Delta U+W
SciTegic.value.DoubleValue
0.372

@<SCITEGIC>MOL_PROPERTY
U+W
SciTegic.value.DoubleValue
15.711

@<SCITEGIC>MOL_PROPERTY
Grad RMS
SciTegic.value.DoubleValue
0.000000

@<SCITEGIC>MOL_PROPERTY
U
SciTegic.value.DoubleValue
70.163

@<SCITEGIC>MOL_PROPERTY
W
SciTegic.value.DoubleValue
-54.452

@<SCITEGIC>MOL_PROPERTY
W(PB)
SciTegic.value.DoubleValue
-56.363

@<SCITEGIC>MOL_PROPERTY
W(SA)
SciTegic.value.DoubleValue
1.911

@<SCITEGIC>MOL_PROPERTY
Valence
SciTegic.value.DoubleValue
1.420

@<SCITEGIC>MOL_PROPERTY
Coulomb
SciTegic.value.DoubleValue
68.566

@<SCITEGIC>MOL_PROPERTY
VdW
SciTegic.value.DoubleValue
0.177

@<SCITEGIC>MOL_PROPERTY
VdW6
SciTegic.value.DoubleValue
-4.267

@<SCITEGIC>MOL_PROPERTY
VdW12
SciTegic.value.DoubleValue
4.445

@<SCITEGIC>MOL_PROPERTY
Bond
SciTegic.value.DoubleValue
0.146

@<SCITEGIC>MOL_PROPERTY
Angle
SciTegic.value.DoubleValue
0.581

@<SCITEGIC>MOL_PROPERTY
Pdih
SciTegic.value.DoubleValue
0.693

@<SCITEGIC>MOL_PROPERTY
Idih
SciTegic.value.DoubleValue
0.000

@<SCITEGIC>MOL_PROPERTY
Tether
SciTegic.value.DoubleValue
0.000

@<TRIPOS>MOLECULE
guest-s9_confgen4.mol2 : confsearch ligand conformer 692
          20          19           1
SMALL
USER_CHARGES
 
@<TRIPOS>ATOM
       1    C1      18.731318   16.832891   22.862921 C.3        1 MOL1        -0.2224
       2    H1      18.084554   16.216050   23.500241 H          1 MOL1         0.1052
       3    H2      18.097278   17.290826   22.093272 H          1 MOL1         0.1052
       4    H3      19.446086   16.164688   22.365220 H          1 MOL1         0.1052
       5    C2      19.463346   17.901891   23.706476 C.3        1 MOL1        -0.1209
       6    H4      20.011501   17.404217   24.518776 H          1 MOL1         0.1041
       7    H5      18.726632   18.559598   24.189011 H          1 MOL1         0.1041
       8    C3      20.455262   18.750243   22.876848 C.3        1 MOL1        -0.1274
       9    H6      20.992117   19.432088   23.549449 H          1 MOL1         0.1041
      10    H7      21.210296   18.092024   22.428095 H          1 MOL1         0.1041
      11    C4      19.753447   19.574869   21.776435 C.3        1 MOL1         0.0313
      12    H8      18.979375   20.194037   22.236883 H          1 MOL1         0.1015
      13    H9      19.270201   18.905296   21.060963 H          1 MOL1         0.1015
      14    N1      20.672312   20.502837   20.998640 N.4        1 MOL1        -0.4809
      15    H10     21.174430   21.131810   21.643612 H          1 MOL1         0.3726
      16    H11     20.107481   21.129897   20.404529 H          1 MOL1         0.3726
      17    C5      21.652230   19.715746   20.135149 C.3        1 MOL1        -0.0677
      18    H12     22.268276   20.414901   19.565383 H          1 MOL1         0.1026
      19    H13     22.290291   19.104258   20.776122 H          1 MOL1         0.1026
      20    H14     21.093146   19.075223   19.449690 H          1 MOL1         0.1026
@<TRIPOS>BOND
    1     1     2    1
    2     1     3    1
    3     1     4    1
    4     1     5    1
    5     5     6    1
    6     5     7    1
    7     5     8    1
    8     8     9    1
    9     8    10    1
   10     8    11    1
   11    11    12    1
   12    11    13    1
   13    11    14    1
   14    14    15    1
   15    14    16    1
   16    14    17    1
   17    17    18    1
   18    17    19    1
   19    17    20    1
@<TRIPOS>SUBSTRUCTURE
       1 MOL1            1 RESIDUE      1      MOL     
@<SCITEGIC>MOL_PROPERTY
VConf Rank
SciTegic.value.IntegerValue
692

@<SCITEGIC>MOL_PROPERTY
Conf_Id
SciTegic.value.IntegerValue
53

@<SCITEGIC>MOL_PROPERTY
Delta U+W
SciTegic.value.DoubleValue
0.379

@<SCITEGIC>MOL_PROPERTY
U+W
SciTegic.value.DoubleValue
15.717

@<SCITEGIC>MOL_PROPERTY
Grad RMS
SciTegic.value.DoubleValue
0.000000

@<SCITEGIC>MOL_PROPERTY
U
SciTegic.value.DoubleValue
70.163

@<SCITEGIC>MOL_PROPERTY
W
SciTegic.value.DoubleValue
-54.446

@<SCITEGIC>MOL_PROPERTY
W(PB)
SciTegic.value.DoubleValue
-56.322

@<SCITEGIC>MOL_PROPERTY
W(SA)
SciTegic.value.DoubleValue
1.876

@<SCITEGIC>MOL_PROPERTY
Valence
SciTegic.value.DoubleValue
1.420

@<SCITEGIC>MOL_PROPERTY
Coulomb
SciTegic.value.DoubleValue
68.566

@<SCITEGIC>MOL_PROPERTY
VdW
SciTegic.value.DoubleValue
0.177

@<SCITEGIC>MOL_PROPERTY
VdW6
SciTegic.value.DoubleValue
-4.267

@<SCITEGIC>MOL_PROPERTY
VdW12
SciTegic.value.DoubleValue
4.445

@<SCITEGIC>MOL_PROPERTY
Bond
SciTegic.value.DoubleValue
0.146

@<SCITEGIC>MOL_PROPERTY
Angle
SciTegic.value.DoubleValue
0.581

@<SCITEGIC>MOL_PROPERTY
Pdih
SciTegic.value.DoubleValue
0.693

@<SCITEGIC>MOL_PROPERTY
Idih
SciTegic.value.DoubleValue
0.000

@<SCITEGIC>MOL_PROPERTY
Tether
SciTegic.value.DoubleValue
0.000

@<TRIPOS>MOLECULE
guest-s9_confgen4.mol2 : confsearch ligand conformer 693
          20          19           1
SMALL
USER_CHARGES
 
@<TRIPOS>ATOM
       1    C1      19.754524   16.529209   23.508453 C.3        1 MOL1        -0.2224
       2    H1      19.964998   15.491430   23.219114 H          1 MOL1         0.1052
       3    H2      20.095405   16.665153   24.543086 H          1 MOL1         0.1052
       4    H3      18.666052   16.670249   23.486138 H          1 MOL1         0.1052
       5    C2      20.462532   17.515831   22.554900 C.3        1 MOL1        -0.1209
       6    H4      20.126128   17.324597   21.526834 H          1 MOL1         0.1041
       7    H5      21.545510   17.328957   22.575351 H          1 MOL1         0.1041
       8    C3      20.179960   18.987034   22.940179 C.3        1 MOL1        -0.1274
       9    H6      19.101608   19.186677   22.895010 H          1 MOL1         0.1041
      10    H7      20.480089   19.152915   23.983277 H          1 MOL1         0.1041
      11    C4      20.938422   19.997165   22.050780 C.3        1 MOL1         0.0313
      12    H8      22.012544   19.821994   22.151798 H          1 MOL1         0.1015
      13    H9      20.731357   21.013394   22.395595 H          1 MOL1         0.1015
      14    N1      20.605744   19.938196   20.567379 N.4        1 MOL1        -0.4809
      15    H10     20.784237   18.992025   20.200050 H          1 MOL1         0.3726
      16    H11     21.250379   20.551781   20.044708 H          1 MOL1         0.3726
      17    C5      19.163587   20.358228   20.305291 C.3        1 MOL1        -0.0677
      18    H12     19.008920   21.369812   20.686649 H          1 MOL1         0.1026
      19    H13     18.974661   20.337591   19.229739 H          1 MOL1         0.1026
      20    H14     18.487390   19.664865   20.809296 H          1 MOL1         0.1026
@<TRIPOS>BOND
    1     1     2    1
    2     1     3    1
    3     1     4    1
    4     1     5    1
    5     5     6    1
    6     5     7    1
    7     5     8    1
    8     8     9    1
    9     8    10    1
   10     8    11    1
   11    11    12    1
   12    11    13    1
   13    11    14    1
   14    14    15    1
   15    14    16    1
   16    14    17    1
   17    17    18    1
   18    17    19    1
   19    17    20    1
@<TRIPOS>SUBSTRUCTURE
       1 MOL1            1 RESIDUE      1      MOL     
@<SCITEGIC>MOL_PROPERTY
VConf Rank
SciTegic.value.IntegerValue
693

@<SCITEGIC>MOL_PROPERTY
Conf_Id
SciTegic.value.IntegerValue
49

@<SCITEGIC>MOL_PROPERTY
Delta U+W
SciTegic.value.DoubleValue
0.268

@<SCITEGIC>MOL_PROPERTY
U+W
SciTegic.value.DoubleValue
15.607

@<SCITEGIC>MOL_PROPERTY
Grad RMS
SciTegic.value.DoubleValue
0.000000

@<SCITEGIC>MOL_PROPERTY
U
SciTegic.value.DoubleValue
70.298

@<SCITEGIC>MOL_PROPERTY
W
SciTegic.value.DoubleValue
-54.692

@<SCITEGIC>MOL_PROPERTY
W(PB)
SciTegic.value.DoubleValue
-56.576

@<SCITEGIC>MOL_PROPERTY
W(SA)
SciTegic.value.DoubleValue
1.885

@<SCITEGIC>MOL_PROPERTY
Valence
SciTegic.value.DoubleValue
1.245

@<SCITEGIC>MOL_PROPERTY
Coulomb
SciTegic.value.DoubleValue
68.933

@<SCITEGIC>MOL_PROPERTY
VdW
SciTegic.value.DoubleValue
0.120

@<SCITEGIC>MOL_PROPERTY
VdW6
SciTegic.value.DoubleValue
-4.430

@<SCITEGIC>MOL_PROPERTY
VdW12
SciTegic.value.DoubleValue
4.550

@<SCITEGIC>MOL_PROPERTY
Bond
SciTegic.value.DoubleValue
0.148

@<SCITEGIC>MOL_PROPERTY
Angle
SciTegic.value.DoubleValue
0.587

@<SCITEGIC>MOL_PROPERTY
Pdih
SciTegic.value.DoubleValue
0.509

@<SCITEGIC>MOL_PROPERTY
Idih
SciTegic.value.DoubleValue
0.000

@<SCITEGIC>MOL_PROPERTY
Tether
SciTegic.value.DoubleValue
0.000

@<TRIPOS>MOLECULE
guest-s9_confgen4.mol2 : confsearch ligand conformer 694
          20          19           1
SMALL
USER_CHARGES
 
@<TRIPOS>ATOM
       1    C1      21.712536   20.809343   21.132617 C.3        1 MOL1        -0.2224
       2    H1      21.999956   21.264683   22.089291 H          1 MOL1         0.1052
       3    H2      22.617942   20.406316   20.660443 H          1 MOL1         0.1052
       4    H3      21.322345   21.605343   20.485211 H          1 MOL1         0.1052
       5    C2      20.652956   19.705167   21.338564 C.3        1 MOL1        -0.1209
       6    H4      20.365226   19.288484   20.363076 H          1 MOL1         0.1041
       7    H5      19.751905   20.156087   21.774829 H          1 MOL1         0.1041
       8    C3      21.174161   18.575440   22.257087 C.3        1 MOL1        -0.1274
       9    H6      22.136040   18.213999   21.869910 H          1 MOL1         0.1041
      10    H7      21.376726   18.975385   23.259368 H          1 MOL1         0.1041
      11    C4      20.221909   17.363379   22.370902 C.3        1 MOL1         0.0313
      12    H8      20.714115   16.605055   22.985250 H          1 MOL1         0.1015
      13    H9      20.043771   16.926109   21.385326 H          1 MOL1         0.1015
      14    N1      18.874730   17.643924   23.018716 N.4        1 MOL1        -0.4809
      15    H10     18.966616   18.378066   23.736652 H          1 MOL1         0.3726
      16    H11     18.565002   16.806449   23.536125 H          1 MOL1         0.3726
      17    C5      17.820783   18.008661   21.978136 C.3        1 MOL1        -0.0677
      18    H12     16.866446   18.179019   22.481303 H          1 MOL1         0.1026
      19    H13     18.121544   18.913522   21.448910 H          1 MOL1         0.1026
      20    H14     17.718526   17.184792   21.268578 H          1 MOL1         0.1026
@<TRIPOS>BOND
    1     1     2    1
    2     1     3    1
    3     1     4    1
    4     1     5    1
    5     5     6    1
    6     5     7    1
    7     5     8    1
    8     8     9    1
    9     8    10    1
   10     8    11    1
   11    11    12    1
   12    11    13    1
   13    11    14    1
   14    14    15    1
   15    14    16    1
   16    14    17    1
   17    17    18    1
   18    17    19    1
   19    17    20    1
@<TRIPOS>SUBSTRUCTURE
       1 MOL1            1 RESIDUE      1      MOL     
@<SCITEGIC>MOL_PROPERTY
VConf Rank
SciTegic.value.IntegerValue
694

@<SCITEGIC>MOL_PROPERTY
Conf_Id
SciTegic.value.IntegerValue
65

@<SCITEGIC>MOL_PROPERTY
Delta U+W
SciTegic.value.DoubleValue
1.775

@<SCITEGIC>MOL_PROPERTY
U+W
SciTegic.value.DoubleValue
17.114

@<SCITEGIC>MOL_PROPERTY
Grad RMS
SciTegic.value.DoubleValue
0.000000

@<SCITEGIC>MOL_PROPERTY
U
SciTegic.value.DoubleValue
71.726

@<SCITEGIC>MOL_PROPERTY
W
SciTegic.value.DoubleValue
-54.613

@<SCITEGIC>MOL_PROPERTY
W(PB)
SciTegic.value.DoubleValue
-56.495

@<SCITEGIC>MOL_PROPERTY
W(SA)
SciTegic.value.DoubleValue
1.883

@<SCITEGIC>MOL_PROPERTY
Valence
SciTegic.value.DoubleValue
2.885

@<SCITEGIC>MOL_PROPERTY
Coulomb
SciTegic.value.DoubleValue
68.822

@<SCITEGIC>MOL_PROPERTY
VdW
SciTegic.value.DoubleValue
0.019

@<SCITEGIC>MOL_PROPERTY
VdW6
SciTegic.value.DoubleValue
-4.600

@<SCITEGIC>MOL_PROPERTY
VdW12
SciTegic.value.DoubleValue
4.619

@<SCITEGIC>MOL_PROPERTY
Bond
SciTegic.value.DoubleValue
0.152

@<SCITEGIC>MOL_PROPERTY
Angle
SciTegic.value.DoubleValue
0.862

@<SCITEGIC>MOL_PROPERTY
Pdih
SciTegic.value.DoubleValue
1.871

@<SCITEGIC>MOL_PROPERTY
Idih
SciTegic.value.DoubleValue
0.000

@<SCITEGIC>MOL_PROPERTY
Tether
SciTegic.value.DoubleValue
0.000

@<TRIPOS>MOLECULE
guest-s9_confgen4.mol2 : confsearch ligand conformer 695
          20          19           1
SMALL
USER_CHARGES
 
@<TRIPOS>ATOM
       1    C1      22.064519   19.288745   20.820261 C.3        1 MOL1        -0.2224
       2    H1      21.108372   19.579044   20.366927 H          1 MOL1         0.1052
       3    H2      22.770537   20.113827   20.659767 H          1 MOL1         0.1052
       4    H3      22.446893   18.412035   20.281521 H          1 MOL1         0.1052
       5    C2      21.912641   18.990927   22.329700 C.3        1 MOL1        -0.1209
       6    H4      21.530148   19.881988   22.845760 H          1 MOL1         0.1041
       7    H5      22.906525   18.797297   22.757143 H          1 MOL1         0.1041
       8    C3      20.999721   17.773330   22.619588 C.3        1 MOL1        -0.1274
       9    H6      21.450908   16.872161   22.183595 H          1 MOL1         0.1041
      10    H7      20.956473   17.599562   23.702953 H          1 MOL1         0.1041
      11    C4      19.564740   17.920034   22.071618 C.3        1 MOL1         0.0313
      12    H8      18.998985   17.010699   22.289727 H          1 MOL1         0.1015
      13    H9      19.596273   18.047077   20.986891 H          1 MOL1         0.1015
      14    N1      18.798020   19.090252   22.657564 N.4        1 MOL1        -0.4809
      15    H10     19.305527   19.969321   22.478219 H          1 MOL1         0.3726
      16    H11     18.748754   19.004732   23.684287 H          1 MOL1         0.3726
      17    C5      17.399753   19.148834   22.057620 C.3        1 MOL1        -0.0677
      18    H12     16.870895   18.221168   22.286768 H          1 MOL1         0.1026
      19    H13     16.860165   19.995822   22.487069 H          1 MOL1         0.1026
      20    H14     17.477374   19.272262   20.975261 H          1 MOL1         0.1026
@<TRIPOS>BOND
    1     1     2    1
    2     1     3    1
    3     1     4    1
    4     1     5    1
    5     5     6    1
    6     5     7    1
    7     5     8    1
    8     8     9    1
    9     8    10    1
   10     8    11    1
   11    11    12    1
   12    11    13    1
   13    11    14    1
   14    14    15    1
   15    14    16    1
   16    14    17    1
   17    17    18    1
   18    17    19    1
   19    17    20    1
@<TRIPOS>SUBSTRUCTURE
       1 MOL1            1 RESIDUE      1      MOL     
@<SCITEGIC>MOL_PROPERTY
VConf Rank
SciTegic.value.IntegerValue
695

@<SCITEGIC>MOL_PROPERTY
Conf_Id
SciTegic.value.IntegerValue
23

@<SCITEGIC>MOL_PROPERTY
Delta U+W
SciTegic.value.DoubleValue
0.896

@<SCITEGIC>MOL_PROPERTY
U+W
SciTegic.value.DoubleValue
16.234

@<SCITEGIC>MOL_PROPERTY
Grad RMS
SciTegic.value.DoubleValue
0.000000

@<SCITEGIC>MOL_PROPERTY
U
SciTegic.value.DoubleValue
70.374

@<SCITEGIC>MOL_PROPERTY
W
SciTegic.value.DoubleValue
-54.140

@<SCITEGIC>MOL_PROPERTY
W(PB)
SciTegic.value.DoubleValue
-56.046

@<SCITEGIC>MOL_PROPERTY
W(SA)
SciTegic.value.DoubleValue
1.907

@<SCITEGIC>MOL_PROPERTY
Valence
SciTegic.value.DoubleValue
1.257

@<SCITEGIC>MOL_PROPERTY
Coulomb
SciTegic.value.DoubleValue
69.240

@<SCITEGIC>MOL_PROPERTY
VdW
SciTegic.value.DoubleValue
-0.123

@<SCITEGIC>MOL_PROPERTY
VdW6
SciTegic.value.DoubleValue
-4.336

@<SCITEGIC>MOL_PROPERTY
VdW12
SciTegic.value.DoubleValue
4.213

@<SCITEGIC>MOL_PROPERTY
Bond
SciTegic.value.DoubleValue
0.128

@<SCITEGIC>MOL_PROPERTY
Angle
SciTegic.value.DoubleValue
0.603

@<SCITEGIC>MOL_PROPERTY
Pdih
SciTegic.value.DoubleValue
0.526

@<SCITEGIC>MOL_PROPERTY
Idih
SciTegic.value.DoubleValue
0.000

@<SCITEGIC>MOL_PROPERTY
Tether
SciTegic.value.DoubleValue
0.000

@<TRIPOS>MOLECULE
guest-s9_confgen4.mol2 : confsearch ligand conformer 696
          20          19           1
SMALL
USER_CHARGES
 
@<TRIPOS>ATOM
       1    C1      21.163526   20.901523   22.254334 C.3        1 MOL1        -0.2224
       2    H1      21.901639   21.062091   21.457792 H          1 MOL1         0.1052
       3    H2      21.120198   21.816480   22.859277 H          1 MOL1         0.1052
       4    H3      21.528526   20.094266   22.901725 H          1 MOL1         0.1052
       5    C2      19.772074   20.574692   21.665089 C.3        1 MOL1        -0.1209
       6    H4      19.408673   21.446491   21.103029 H          1 MOL1         0.1041
       7    H5      19.052456   20.419393   22.480345 H          1 MOL1         0.1041
       8    C3      19.785090   19.344730   20.723270 C.3        1 MOL1        -0.1274
       9    H6      18.776880   19.184219   20.318930 H          1 MOL1         0.1041
      10    H7      20.429773   19.557893   19.860304 H          1 MOL1         0.1041
      11    C4      20.275213   18.044877   21.394934 C.3        1 MOL1         0.0313
      12    H8      21.296125   18.181372   21.759450 H          1 MOL1         0.1015
      13    H9      20.283794   17.237496   20.658319 H          1 MOL1         0.1015
      14    N1      19.418214   17.593344   22.562100 N.4        1 MOL1        -0.4809
      15    H10     18.443356   17.454993   22.254841 H          1 MOL1         0.3726
      16    H11     19.379143   18.334018   23.277897 H          1 MOL1         0.3726
      17    C5      19.980494   16.307923   23.153757 C.3        1 MOL1        -0.0677
      18    H12     21.000121   16.487586   23.501380 H          1 MOL1         0.1026
      19    H13     19.355051   15.995456   23.992897 H          1 MOL1         0.1026
      20    H14     19.983124   15.530120   22.387089 H          1 MOL1         0.1026
@<TRIPOS>BOND
    1     1     2    1
    2     1     3    1
    3     1     4    1
    4     1     5    1
    5     5     6    1
    6     5     7    1
    7     5     8    1
    8     8     9    1
    9     8    10    1
   10     8    11    1
   11    11    12    1
   12    11    13    1
   13    11    14    1
   14    14    15    1
   15    14    16    1
   16    14    17    1
   17    17    18    1
   18    17    19    1
   19    17    20    1
@<TRIPOS>SUBSTRUCTURE
       1 MOL1            1 RESIDUE      1      MOL     
@<SCITEGIC>MOL_PROPERTY
VConf Rank
SciTegic.value.IntegerValue
696

@<SCITEGIC>MOL_PROPERTY
Conf_Id
SciTegic.value.IntegerValue
24

@<SCITEGIC>MOL_PROPERTY
Delta U+W
SciTegic.value.DoubleValue
0.792

@<SCITEGIC>MOL_PROPERTY
U+W
SciTegic.value.DoubleValue
16.130

@<SCITEGIC>MOL_PROPERTY
Grad RMS
SciTegic.value.DoubleValue
0.000000

@<SCITEGIC>MOL_PROPERTY
U
SciTegic.value.DoubleValue
70.374

@<SCITEGIC>MOL_PROPERTY
W
SciTegic.value.DoubleValue
-54.243

@<SCITEGIC>MOL_PROPERTY
W(PB)
SciTegic.value.DoubleValue
-56.130

@<SCITEGIC>MOL_PROPERTY
W(SA)
SciTegic.value.DoubleValue
1.887

@<SCITEGIC>MOL_PROPERTY
Valence
SciTegic.value.DoubleValue
1.257

@<SCITEGIC>MOL_PROPERTY
Coulomb
SciTegic.value.DoubleValue
69.240

@<SCITEGIC>MOL_PROPERTY
VdW
SciTegic.value.DoubleValue
-0.123

@<SCITEGIC>MOL_PROPERTY
VdW6
SciTegic.value.DoubleValue
-4.336

@<SCITEGIC>MOL_PROPERTY
VdW12
SciTegic.value.DoubleValue
4.213

@<SCITEGIC>MOL_PROPERTY
Bond
SciTegic.value.DoubleValue
0.128

@<SCITEGIC>MOL_PROPERTY
Angle
SciTegic.value.DoubleValue
0.603

@<SCITEGIC>MOL_PROPERTY
Pdih
SciTegic.value.DoubleValue
0.526

@<SCITEGIC>MOL_PROPERTY
Idih
SciTegic.value.DoubleValue
0.000

@<SCITEGIC>MOL_PROPERTY
Tether
SciTegic.value.DoubleValue
0.000

@<TRIPOS>MOLECULE
guest-s9_confgen4.mol2 : confsearch ligand conformer 697
          20          19           1
SMALL
USER_CHARGES
 
@<TRIPOS>ATOM
       1    C1      18.164898   19.291046   20.933564 C.3        1 MOL1        -0.2224
       2    H1      17.258718   19.217953   20.318166 H          1 MOL1         0.1052
       3    H2      18.016783   18.637658   21.801432 H          1 MOL1         0.1052
       4    H3      18.248139   20.329511   21.279720 H          1 MOL1         0.1052
       5    C2      19.404875   18.871293   20.111539 C.3        1 MOL1        -0.1209
       6    H4      19.388007   19.408355   19.152714 H          1 MOL1         0.1041
       7    H5      19.333684   17.803173   19.862227 H          1 MOL1         0.1041
       8    C3      20.761486   19.154502   20.805972 C.3        1 MOL1        -0.1274
       9    H6      21.562681   18.882359   20.106084 H          1 MOL1         0.1041
      10    H7      20.877867   20.230210   20.993086 H          1 MOL1         0.1041
      11    C4      20.987587   18.363555   22.111946 C.3        1 MOL1         0.0313
      12    H8      22.058857   18.324638   22.325041 H          1 MOL1         0.1015
      13    H9      20.628943   17.338514   21.989671 H          1 MOL1         0.1015
      14    N1      20.316236   18.965203   23.331908 N.4        1 MOL1        -0.4809
      15    H10     19.306392   19.073188   23.161111 H          1 MOL1         0.3726
      16    H11     20.670266   19.919949   23.496620 H          1 MOL1         0.3726
      17    C5      20.563714   18.085635   24.549909 C.3        1 MOL1        -0.0677
      18    H12     20.152117   17.091023   24.365238 H          1 MOL1         0.1026
      19    H13     21.638677   18.013221   24.728727 H          1 MOL1         0.1026
      20    H14     20.075163   18.530784   25.419467 H          1 MOL1         0.1026
@<TRIPOS>BOND
    1     1     2    1
    2     1     3    1
    3     1     4    1
    4     1     5    1
    5     5     6    1
    6     5     7    1
    7     5     8    1
    8     8     9    1
    9     8    10    1
   10     8    11    1
   11    11    12    1
   12    11    13    1
   13    11    14    1
   14    14    15    1
   15    14    16    1
   16    14    17    1
   17    17    18    1
   18    17    19    1
   19    17    20    1
@<TRIPOS>SUBSTRUCTURE
       1 MOL1            1 RESIDUE      1      MOL     
@<SCITEGIC>MOL_PROPERTY
VConf Rank
SciTegic.value.IntegerValue
697

@<SCITEGIC>MOL_PROPERTY
Conf_Id
SciTegic.value.IntegerValue
26

@<SCITEGIC>MOL_PROPERTY
Delta U+W
SciTegic.value.DoubleValue
2.888

@<SCITEGIC>MOL_PROPERTY
U+W
SciTegic.value.DoubleValue
18.226

@<SCITEGIC>MOL_PROPERTY
Grad RMS
SciTegic.value.DoubleValue
0.000000

@<SCITEGIC>MOL_PROPERTY
U
SciTegic.value.DoubleValue
72.042

@<SCITEGIC>MOL_PROPERTY
W
SciTegic.value.DoubleValue
-53.816

@<SCITEGIC>MOL_PROPERTY
W(PB)
SciTegic.value.DoubleValue
-55.689

@<SCITEGIC>MOL_PROPERTY
W(SA)
SciTegic.value.DoubleValue
1.873

@<SCITEGIC>MOL_PROPERTY
Valence
SciTegic.value.DoubleValue
2.428

@<SCITEGIC>MOL_PROPERTY
Coulomb
SciTegic.value.DoubleValue
69.829

@<SCITEGIC>MOL_PROPERTY
VdW
SciTegic.value.DoubleValue
-0.215

@<SCITEGIC>MOL_PROPERTY
VdW6
SciTegic.value.DoubleValue
-4.563

@<SCITEGIC>MOL_PROPERTY
VdW12
SciTegic.value.DoubleValue
4.348

@<SCITEGIC>MOL_PROPERTY
Bond
SciTegic.value.DoubleValue
0.137

@<SCITEGIC>MOL_PROPERTY
Angle
SciTegic.value.DoubleValue
0.936

@<SCITEGIC>MOL_PROPERTY
Pdih
SciTegic.value.DoubleValue
1.356

@<SCITEGIC>MOL_PROPERTY
Idih
SciTegic.value.DoubleValue
0.000

@<SCITEGIC>MOL_PROPERTY
Tether
SciTegic.value.DoubleValue
0.000

@<TRIPOS>MOLECULE
guest-s9_confgen4.mol2 : confsearch ligand conformer 698
          20          19           1
SMALL
USER_CHARGES
 
@<TRIPOS>ATOM
       1    C1      18.181907   19.617869   22.814417 C.3        1 MOL1        -0.2224
       2    H1      17.164390   20.026052   22.871556 H          1 MOL1         0.1052
       3    H2      18.548565   19.495402   23.841904 H          1 MOL1         0.1052
       4    H3      18.799324   20.365906   22.303256 H          1 MOL1         0.1052
       5    C2      18.176093   18.271346   22.055270 C.3        1 MOL1        -0.1209
       6    H4      17.895719   18.444154   21.006636 H          1 MOL1         0.1041
       7    H5      17.387580   17.633511   22.478921 H          1 MOL1         0.1041
       8    C3      19.516495   17.495050   22.114629 C.3        1 MOL1        -0.1274
       9    H6      19.770573   17.250055   23.154402 H          1 MOL1         0.1041
      10    H7      19.372626   16.532931   21.605269 H          1 MOL1         0.1041
      11    C4      20.701662   18.214778   21.436652 C.3        1 MOL1         0.0313
      12    H8      20.368216   18.677829   20.504621 H          1 MOL1         0.1015
      13    H9      21.473478   17.480288   21.192997 H          1 MOL1         0.1015
      14    N1      21.359974   19.279428   22.293476 N.4        1 MOL1        -0.4809
      15    H10     21.723809   18.859907   23.162746 H          1 MOL1         0.3726
      16    H11     20.659648   19.971467   22.595546 H          1 MOL1         0.3726
      17    C5      22.481268   19.954707   21.515588 C.3        1 MOL1        -0.0677
      18    H12     22.067582   20.418939   20.617747 H          1 MOL1         0.1026
      19    H13     22.945422   20.717769   22.144292 H          1 MOL1         0.1026
      20    H14     23.225611   19.206363   21.235051 H          1 MOL1         0.1026
@<TRIPOS>BOND
    1     1     2    1
    2     1     3    1
    3     1     4    1
    4     1     5    1
    5     5     6    1
    6     5     7    1
    7     5     8    1
    8     8     9    1
    9     8    10    1
   10     8    11    1
   11    11    12    1
   12    11    13    1
   13    11    14    1
   14    14    15    1
   15    14    16    1
   16    14    17    1
   17    17    18    1
   18    17    19    1
   19    17    20    1
@<TRIPOS>SUBSTRUCTURE
       1 MOL1            1 RESIDUE      1      MOL     
@<SCITEGIC>MOL_PROPERTY
VConf Rank
SciTegic.value.IntegerValue
698

@<SCITEGIC>MOL_PROPERTY
Conf_Id
SciTegic.value.IntegerValue
5

@<SCITEGIC>MOL_PROPERTY
Delta U+W
SciTegic.value.DoubleValue
2.950

@<SCITEGIC>MOL_PROPERTY
U+W
SciTegic.value.DoubleValue
18.289

@<SCITEGIC>MOL_PROPERTY
Grad RMS
SciTegic.value.DoubleValue
0.000000

@<SCITEGIC>MOL_PROPERTY
U
SciTegic.value.DoubleValue
72.042

@<SCITEGIC>MOL_PROPERTY
W
SciTegic.value.DoubleValue
-53.753

@<SCITEGIC>MOL_PROPERTY
W(PB)
SciTegic.value.DoubleValue
-55.644

@<SCITEGIC>MOL_PROPERTY
W(SA)
SciTegic.value.DoubleValue
1.891

@<SCITEGIC>MOL_PROPERTY
Valence
SciTegic.value.DoubleValue
2.428

@<SCITEGIC>MOL_PROPERTY
Coulomb
SciTegic.value.DoubleValue
69.829

@<SCITEGIC>MOL_PROPERTY
VdW
SciTegic.value.DoubleValue
-0.215

@<SCITEGIC>MOL_PROPERTY
VdW6
SciTegic.value.DoubleValue
-4.563

@<SCITEGIC>MOL_PROPERTY
VdW12
SciTegic.value.DoubleValue
4.348

@<SCITEGIC>MOL_PROPERTY
Bond
SciTegic.value.DoubleValue
0.137

@<SCITEGIC>MOL_PROPERTY
Angle
SciTegic.value.DoubleValue
0.936

@<SCITEGIC>MOL_PROPERTY
Pdih
SciTegic.value.DoubleValue
1.356

@<SCITEGIC>MOL_PROPERTY
Idih
SciTegic.value.DoubleValue
0.000

@<SCITEGIC>MOL_PROPERTY
Tether
SciTegic.value.DoubleValue
0.000

@<TRIPOS>MOLECULE
guest-s9_confgen4.mol2 : confsearch ligand conformer 699
          20          19           1
SMALL
USER_CHARGES
 
@<TRIPOS>ATOM
       1    C1      21.414590   18.147185   20.092625 C.3        1 MOL1        -0.2224
       2    H1      21.510790   18.926494   19.325500 H          1 MOL1         0.1052
       3    H2      22.112056   18.380660   20.906755 H          1 MOL1         0.1052
       4    H3      21.734033   17.196898   19.645548 H          1 MOL1         0.1052
       5    C2      19.958100   18.044845   20.600861 C.3        1 MOL1        -0.1209
       6    H4      19.885838   17.257477   21.363483 H          1 MOL1         0.1041
       7    H5      19.312360   17.723275   19.771700 H          1 MOL1         0.1041
       8    C3      19.416498   19.381917   21.164953 C.3        1 MOL1        -0.1274
       9    H6      19.406077   20.133372   20.364490 H          1 MOL1         0.1041
      10    H7      18.370041   19.251526   21.469384 H          1 MOL1         0.1041
      11    C4      20.233384   19.940212   22.352613 C.3        1 MOL1         0.0313
      12    H8      19.788314   20.878466   22.693216 H          1 MOL1         0.1015
      13    H9      21.249800   20.156454   22.014652 H          1 MOL1         0.1015
      14    N1      20.340973   19.016111   23.555853 N.4        1 MOL1        -0.4809
      15    H10     21.012580   19.408187   24.234290 H          1 MOL1         0.3726
      16    H11     20.745523   18.112041   23.271074 H          1 MOL1         0.3726
      17    C5      18.984926   18.816779   24.223705 C.3        1 MOL1        -0.0677
      18    H12     18.299456   18.344852   23.517021 H          1 MOL1         0.1026
      19    H13     19.107889   18.175385   25.099149 H          1 MOL1         0.1026
      20    H14     18.589753   19.787297   24.531225 H          1 MOL1         0.1026
@<TRIPOS>BOND
    1     1     2    1
    2     1     3    1
    3     1     4    1
    4     1     5    1
    5     5     6    1
    6     5     7    1
    7     5     8    1
    8     8     9    1
    9     8    10    1
   10     8    11    1
   11    11    12    1
   12    11    13    1
   13    11    14    1
   14    14    15    1
   15    14    16    1
   16    14    17    1
   17    17    18    1
   18    17    19    1
   19    17    20    1
@<TRIPOS>SUBSTRUCTURE
       1 MOL1            1 RESIDUE      1      MOL     
@<SCITEGIC>MOL_PROPERTY
VConf Rank
SciTegic.value.IntegerValue
699

@<SCITEGIC>MOL_PROPERTY
Conf_Id
SciTegic.value.IntegerValue
52

@<SCITEGIC>MOL_PROPERTY
Delta U+W
SciTegic.value.DoubleValue
0.784

@<SCITEGIC>MOL_PROPERTY
U+W
SciTegic.value.DoubleValue
16.122

@<SCITEGIC>MOL_PROPERTY
Grad RMS
SciTegic.value.DoubleValue
0.000000

@<SCITEGIC>MOL_PROPERTY
U
SciTegic.value.DoubleValue
70.777

@<SCITEGIC>MOL_PROPERTY
W
SciTegic.value.DoubleValue
-54.655

@<SCITEGIC>MOL_PROPERTY
W(PB)
SciTegic.value.DoubleValue
-56.491

@<SCITEGIC>MOL_PROPERTY
W(SA)
SciTegic.value.DoubleValue
1.836

@<SCITEGIC>MOL_PROPERTY
Valence
SciTegic.value.DoubleValue
1.529

@<SCITEGIC>MOL_PROPERTY
Coulomb
SciTegic.value.DoubleValue
69.166

@<SCITEGIC>MOL_PROPERTY
VdW
SciTegic.value.DoubleValue
0.082

@<SCITEGIC>MOL_PROPERTY
VdW6
SciTegic.value.DoubleValue
-5.166

@<SCITEGIC>MOL_PROPERTY
VdW12
SciTegic.value.DoubleValue
5.248

@<SCITEGIC>MOL_PROPERTY
Bond
SciTegic.value.DoubleValue
0.171

@<SCITEGIC>MOL_PROPERTY
Angle
SciTegic.value.DoubleValue
0.752

@<SCITEGIC>MOL_PROPERTY
Pdih
SciTegic.value.DoubleValue
0.605

@<SCITEGIC>MOL_PROPERTY
Idih
SciTegic.value.DoubleValue
0.000

@<SCITEGIC>MOL_PROPERTY
Tether
SciTegic.value.DoubleValue
0.000

@<TRIPOS>MOLECULE
guest-s9_confgen4.mol2 : confsearch ligand conformer 700
          20          19           1
SMALL
USER_CHARGES
 
@<TRIPOS>ATOM
       1    C1      18.643283   17.624816   22.935713 C.3        1 MOL1        -0.2224
       2    H1      17.789791   17.074525   23.352726 H          1 MOL1         0.1052
       3    H2      18.890609   17.153775   21.977537 H          1 MOL1         0.1052
       4    H3      19.489578   17.496931   23.623272 H          1 MOL1         0.1052
       5    C2      18.282999   19.117648   22.759611 C.3        1 MOL1        -0.1209
       6    H4      17.823311   19.477585   23.690824 H          1 MOL1         0.1041
       7    H5      17.513174   19.220557   21.981925 H          1 MOL1         0.1041
       8    C3      19.488389   20.033791   22.427131 C.3        1 MOL1        -0.1274
       9    H6      19.129742   21.071529   22.419546 H          1 MOL1         0.1041
      10    H7      20.235624   19.984067   23.229047 H          1 MOL1         0.1041
      11    C4      20.147024   19.757761   21.055432 C.3        1 MOL1         0.0313
      12    H8      20.739424   20.627201   20.759531 H          1 MOL1         0.1015
      13    H9      19.364158   19.617436   20.305833 H          1 MOL1         0.1015
      14    N1      21.070949   18.551343   20.996861 N.4        1 MOL1        -0.4809
      15    H10     21.303853   18.342059   20.013441 H          1 MOL1         0.3726
      16    H11     20.581332   17.714471   21.342925 H          1 MOL1         0.3726
      17    C5      22.349927   18.795276   21.790231 C.3        1 MOL1        -0.0677
      18    H12     22.856009   19.677881   21.393328 H          1 MOL1         0.1026
      19    H13     22.100965   18.952674   22.841354 H          1 MOL1         0.1026
      20    H14     23.001578   17.923964   21.694943 H          1 MOL1         0.1026
@<TRIPOS>BOND
    1     1     2    1
    2     1     3    1
    3     1     4    1
    4     1     5    1
    5     5     6    1
    6     5     7    1
    7     5     8    1
    8     8     9    1
    9     8    10    1
   10     8    11    1
   11    11    12    1
   12    11    13    1
   13    11    14    1
   14    14    15    1
   15    14    16    1
   16    14    17    1
   17    17    18    1
   18    17    19    1
   19    17    20    1
@<TRIPOS>SUBSTRUCTURE
       1 MOL1            1 RESIDUE      1      MOL     
@<SCITEGIC>MOL_PROPERTY
VConf Rank
SciTegic.value.IntegerValue
700

@<SCITEGIC>MOL_PROPERTY
Conf_Id
SciTegic.value.IntegerValue
55

@<SCITEGIC>MOL_PROPERTY
Delta U+W
SciTegic.value.DoubleValue
2.745

@<SCITEGIC>MOL_PROPERTY
U+W
SciTegic.value.DoubleValue
18.083

@<SCITEGIC>MOL_PROPERTY
Grad RMS
SciTegic.value.DoubleValue
0.000000

@<SCITEGIC>MOL_PROPERTY
U
SciTegic.value.DoubleValue
72.490

@<SCITEGIC>MOL_PROPERTY
W
SciTegic.value.DoubleValue
-54.407

@<SCITEGIC>MOL_PROPERTY
W(PB)
SciTegic.value.DoubleValue
-56.269

@<SCITEGIC>MOL_PROPERTY
W(SA)
SciTegic.value.DoubleValue
1.861

@<SCITEGIC>MOL_PROPERTY
Valence
SciTegic.value.DoubleValue
2.738

@<SCITEGIC>MOL_PROPERTY
Coulomb
SciTegic.value.DoubleValue
69.795

@<SCITEGIC>MOL_PROPERTY
VdW
SciTegic.value.DoubleValue
-0.043

@<SCITEGIC>MOL_PROPERTY
VdW6
SciTegic.value.DoubleValue
-5.333

@<SCITEGIC>MOL_PROPERTY
VdW12
SciTegic.value.DoubleValue
5.290

@<SCITEGIC>MOL_PROPERTY
Bond
SciTegic.value.DoubleValue
0.182

@<SCITEGIC>MOL_PROPERTY
Angle
SciTegic.value.DoubleValue
1.135

@<SCITEGIC>MOL_PROPERTY
Pdih
SciTegic.value.DoubleValue
1.422

@<SCITEGIC>MOL_PROPERTY
Idih
SciTegic.value.DoubleValue
0.000

@<SCITEGIC>MOL_PROPERTY
Tether
SciTegic.value.DoubleValue
0.000

@<TRIPOS>MOLECULE
guest-s9_confgen4.mol2 : confsearch ligand conformer 701
          20          19           1
SMALL
USER_CHARGES
 
@<TRIPOS>ATOM
       1    C1      21.503319   19.858242   21.039587 C.3        1 MOL1        -0.2224
       2    H1      22.398320   20.236111   20.528356 H          1 MOL1         0.1052
       3    H2      20.632519   20.366328   20.605003 H          1 MOL1         0.1052
       4    H3      21.591633   20.145082   22.093662 H          1 MOL1         0.1052
       5    C2      21.399743   18.324877   20.873952 C.3        1 MOL1        -0.1209
       6    H4      22.223033   17.840173   21.417342 H          1 MOL1         0.1041
       7    H5      21.549444   18.077846   19.813484 H          1 MOL1         0.1041
       8    C3      20.046192   17.720456   21.327171 C.3        1 MOL1        -0.1274
       9    H6      19.222877   18.155090   20.746526 H          1 MOL1         0.1041
      10    H7      20.054557   16.651588   21.076099 H          1 MOL1         0.1041
      11    C4      19.762900   17.841507   22.842640 C.3        1 MOL1         0.0313
      12    H8      20.669986   17.586478   23.396376 H          1 MOL1         0.1015
      13    H9      18.988792   17.122497   23.122293 H          1 MOL1         0.1015
      14    N1      19.292929   19.206687   23.320047 N.4        1 MOL1        -0.4809
      15    H10     19.952093   19.934816   23.011552 H          1 MOL1         0.3726
      16    H11     19.316422   19.238892   24.351342 H          1 MOL1         0.3726
      17    C5      17.882978   19.510261   22.825477 C.3        1 MOL1        -0.0677
      18    H12     17.878835   19.537814   21.734220 H          1 MOL1         0.1026
      19    H13     17.203046   18.732161   23.178877 H          1 MOL1         0.1026
      20    H14     17.567535   20.479746   23.217275 H          1 MOL1         0.1026
@<TRIPOS>BOND
    1     1     2    1
    2     1     3    1
    3     1     4    1
    4     1     5    1
    5     5     6    1
    6     5     7    1
    7     5     8    1
    8     8     9    1
    9     8    10    1
   10     8    11    1
   11    11    12    1
   12    11    13    1
   13    11    14    1
   14    14    15    1
   15    14    16    1
   16    14    17    1
   17    17    18    1
   18    17    19    1
   19    17    20    1
@<TRIPOS>SUBSTRUCTURE
       1 MOL1            1 RESIDUE      1      MOL     
@<SCITEGIC>MOL_PROPERTY
VConf Rank
SciTegic.value.IntegerValue
701

@<SCITEGIC>MOL_PROPERTY
Conf_Id
SciTegic.value.IntegerValue
76

@<SCITEGIC>MOL_PROPERTY
Delta U+W
SciTegic.value.DoubleValue
2.799

@<SCITEGIC>MOL_PROPERTY
U+W
SciTegic.value.DoubleValue
18.137

@<SCITEGIC>MOL_PROPERTY
Grad RMS
SciTegic.value.DoubleValue
0.000000

@<SCITEGIC>MOL_PROPERTY
U
SciTegic.value.DoubleValue
72.490

@<SCITEGIC>MOL_PROPERTY
W
SciTegic.value.DoubleValue
-54.353

@<SCITEGIC>MOL_PROPERTY
W(PB)
SciTegic.value.DoubleValue
-56.201

@<SCITEGIC>MOL_PROPERTY
W(SA)
SciTegic.value.DoubleValue
1.848

@<SCITEGIC>MOL_PROPERTY
Valence
SciTegic.value.DoubleValue
2.738

@<SCITEGIC>MOL_PROPERTY
Coulomb
SciTegic.value.DoubleValue
69.795

@<SCITEGIC>MOL_PROPERTY
VdW
SciTegic.value.DoubleValue
-0.043

@<SCITEGIC>MOL_PROPERTY
VdW6
SciTegic.value.DoubleValue
-5.334

@<SCITEGIC>MOL_PROPERTY
VdW12
SciTegic.value.DoubleValue
5.290

@<SCITEGIC>MOL_PROPERTY
Bond
SciTegic.value.DoubleValue
0.182

@<SCITEGIC>MOL_PROPERTY
Angle
SciTegic.value.DoubleValue
1.135

@<SCITEGIC>MOL_PROPERTY
Pdih
SciTegic.value.DoubleValue
1.421

@<SCITEGIC>MOL_PROPERTY
Idih
SciTegic.value.DoubleValue
0.000

@<SCITEGIC>MOL_PROPERTY
Tether
SciTegic.value.DoubleValue
0.000

@<TRIPOS>MOLECULE
guest-s9_confgen4.mol2 : confsearch ligand conformer 702
          20          19           1
SMALL
USER_CHARGES
 
@<TRIPOS>ATOM
       1    C1      20.217183   19.395666   24.025480 C.3        1 MOL1        -0.2224
       2    H1      19.195888   19.290543   23.639531 H          1 MOL1         0.1052
       3    H2      20.376614   18.618394   24.784020 H          1 MOL1         0.1052
       4    H3      20.283734   20.370182   24.526215 H          1 MOL1         0.1052
       5    C2      21.268667   19.292852   22.896599 C.3        1 MOL1        -0.1209
       6    H4      22.264876   19.475957   23.323063 H          1 MOL1         0.1041
       7    H5      21.109883   20.089761   22.158706 H          1 MOL1         0.1041
       8    C3      21.275871   17.911430   22.197266 C.3        1 MOL1        -0.1274
       9    H6      22.070479   17.891712   21.439890 H          1 MOL1         0.1041
      10    H7      21.546097   17.145586   22.936256 H          1 MOL1         0.1041
      11    C4      19.939552   17.495665   21.538425 C.3        1 MOL1         0.0313
      12    H8      19.128104   17.515806   22.269665 H          1 MOL1         0.1015
      13    H9      20.045088   16.464464   21.191794 H          1 MOL1         0.1015
      14    N1      19.519282   18.316950   20.328546 N.4        1 MOL1        -0.4809
      15    H10     18.989399   17.716023   19.678230 H          1 MOL1         0.3726
      16    H11     20.347446   18.617054   19.793077 H          1 MOL1         0.3726
      17    C5      18.653548   19.507235   20.727262 C.3        1 MOL1        -0.0677
      18    H12     18.352520   20.046998   19.826727 H          1 MOL1         0.1026
      19    H13     17.766342   19.144999   21.250943 H          1 MOL1         0.1026
      20    H14     19.219398   20.172817   21.379823 H          1 MOL1         0.1026
@<TRIPOS>BOND
    1     1     2    1
    2     1     3    1
    3     1     4    1
    4     1     5    1
    5     5     6    1
    6     5     7    1
    7     5     8    1
    8     8     9    1
    9     8    10    1
   10     8    11    1
   11    11    12    1
   12    11    13    1
   13    11    14    1
   14    14    15    1
   15    14    16    1
   16    14    17    1
   17    17    18    1
   18    17    19    1
   19    17    20    1
@<TRIPOS>SUBSTRUCTURE
       1 MOL1            1 RESIDUE      1      MOL     
@<SCITEGIC>MOL_PROPERTY
VConf Rank
SciTegic.value.IntegerValue
702

@<SCITEGIC>MOL_PROPERTY
Conf_Id
SciTegic.value.IntegerValue
60

@<SCITEGIC>MOL_PROPERTY
Delta U+W
SciTegic.value.DoubleValue
1.788

@<SCITEGIC>MOL_PROPERTY
U+W
SciTegic.value.DoubleValue
17.127

@<SCITEGIC>MOL_PROPERTY
Grad RMS
SciTegic.value.DoubleValue
0.000000

@<SCITEGIC>MOL_PROPERTY
U
SciTegic.value.DoubleValue
72.122

@<SCITEGIC>MOL_PROPERTY
W
SciTegic.value.DoubleValue
-54.995

@<SCITEGIC>MOL_PROPERTY
W(PB)
SciTegic.value.DoubleValue
-56.810

@<SCITEGIC>MOL_PROPERTY
W(SA)
SciTegic.value.DoubleValue
1.815

@<SCITEGIC>MOL_PROPERTY
Valence
SciTegic.value.DoubleValue
3.197

@<SCITEGIC>MOL_PROPERTY
Coulomb
SciTegic.value.DoubleValue
69.115

@<SCITEGIC>MOL_PROPERTY
VdW
SciTegic.value.DoubleValue
-0.190

@<SCITEGIC>MOL_PROPERTY
VdW6
SciTegic.value.DoubleValue
-5.585

@<SCITEGIC>MOL_PROPERTY
VdW12
SciTegic.value.DoubleValue
5.395

@<SCITEGIC>MOL_PROPERTY
Bond
SciTegic.value.DoubleValue
0.177

@<SCITEGIC>MOL_PROPERTY
Angle
SciTegic.value.DoubleValue
1.207

@<SCITEGIC>MOL_PROPERTY
Pdih
SciTegic.value.DoubleValue
1.813

@<SCITEGIC>MOL_PROPERTY
Idih
SciTegic.value.DoubleValue
0.000

@<SCITEGIC>MOL_PROPERTY
Tether
SciTegic.value.DoubleValue
0.000

@<TRIPOS>MOLECULE
guest-s9_confgen4.mol2 : confsearch ligand conformer 703
          20          19           1
SMALL
USER_CHARGES
 
@<TRIPOS>ATOM
       1    C1      21.851644   19.258431   23.205259 C.3        1 MOL1        -0.2224
       2    H1      22.915164   18.986902   23.198733 H          1 MOL1         0.1052
       3    H2      21.711509   20.043105   23.959977 H          1 MOL1         0.1052
       4    H3      21.285952   18.374414   23.523940 H          1 MOL1         0.1052
       5    C2      21.408136   19.747985   21.807332 C.3        1 MOL1        -0.1209
       6    H4      21.575416   18.960923   21.060797 H          1 MOL1         0.1041
       7    H5      22.051315   20.586442   21.505433 H          1 MOL1         0.1041
       8    C3      19.932899   20.216550   21.767706 C.3        1 MOL1        -0.1274
       9    H6      19.819594   21.075888   22.441758 H          1 MOL1         0.1041
      10    H7      19.697144   20.590030   20.762550 H          1 MOL1         0.1041
      11    C4      18.887840   19.148646   22.167847 C.3        1 MOL1         0.0313
      12    H8      17.911567   19.637980   22.213793 H          1 MOL1         0.1015
      13    H9      19.104809   18.752661   23.162676 H          1 MOL1         0.1015
      14    N1      18.740068   17.979889   21.204981 N.4        1 MOL1        -0.4809
      15    H10     18.888855   18.293372   20.234292 H          1 MOL1         0.3726
      16    H11     17.764505   17.644290   21.226195 H          1 MOL1         0.3726
      17    C5      19.672621   16.828944   21.566801 C.3        1 MOL1        -0.0677
      18    H12     19.453122   16.496614   22.583643 H          1 MOL1         0.1026
      19    H13     19.509637   16.004793   20.868848 H          1 MOL1         0.1026
      20    H14     20.709483   17.160649   21.504290 H          1 MOL1         0.1026
@<TRIPOS>BOND
    1     1     2    1
    2     1     3    1
    3     1     4    1
    4     1     5    1
    5     5     6    1
    6     5     7    1
    7     5     8    1
    8     8     9    1
    9     8    10    1
   10     8    11    1
   11    11    12    1
   12    11    13    1
   13    11    14    1
   14    14    15    1
   15    14    16    1
   16    14    17    1
   17    17    18    1
   18    17    19    1
   19    17    20    1
@<TRIPOS>SUBSTRUCTURE
       1 MOL1            1 RESIDUE      1      MOL     
@<SCITEGIC>MOL_PROPERTY
VConf Rank
SciTegic.value.IntegerValue
703

@<SCITEGIC>MOL_PROPERTY
Conf_Id
SciTegic.value.IntegerValue
54

@<SCITEGIC>MOL_PROPERTY
Delta U+W
SciTegic.value.DoubleValue
1.880

@<SCITEGIC>MOL_PROPERTY
U+W
SciTegic.value.DoubleValue
17.218

@<SCITEGIC>MOL_PROPERTY
Grad RMS
SciTegic.value.DoubleValue
0.000000

@<SCITEGIC>MOL_PROPERTY
U
SciTegic.value.DoubleValue
72.122

@<SCITEGIC>MOL_PROPERTY
W
SciTegic.value.DoubleValue
-54.903

@<SCITEGIC>MOL_PROPERTY
W(PB)
SciTegic.value.DoubleValue
-56.724

@<SCITEGIC>MOL_PROPERTY
W(SA)
SciTegic.value.DoubleValue
1.821

@<SCITEGIC>MOL_PROPERTY
Valence
SciTegic.value.DoubleValue
3.197

@<SCITEGIC>MOL_PROPERTY
Coulomb
SciTegic.value.DoubleValue
69.115

@<SCITEGIC>MOL_PROPERTY
VdW
SciTegic.value.DoubleValue
-0.190

@<SCITEGIC>MOL_PROPERTY
VdW6
SciTegic.value.DoubleValue
-5.585

@<SCITEGIC>MOL_PROPERTY
VdW12
SciTegic.value.DoubleValue
5.395

@<SCITEGIC>MOL_PROPERTY
Bond
SciTegic.value.DoubleValue
0.177

@<SCITEGIC>MOL_PROPERTY
Angle
SciTegic.value.DoubleValue
1.207

@<SCITEGIC>MOL_PROPERTY
Pdih
SciTegic.value.DoubleValue
1.813

@<SCITEGIC>MOL_PROPERTY
Idih
SciTegic.value.DoubleValue
0.000

@<SCITEGIC>MOL_PROPERTY
Tether
SciTegic.value.DoubleValue
0.000

@<TRIPOS>MOLECULE
guest-s9_confgen4.mol2 : confsearch ligand conformer 704
          20          19           1
SMALL
USER_CHARGES
 
@<TRIPOS>ATOM
       1    C1      17.605401   16.753762   22.278694 C.3        1 MOL1        -0.2224
       2    H1      17.623198   16.384013   21.245182 H          1 MOL1         0.1052
       3    H2      17.347718   15.910688   22.932797 H          1 MOL1         0.1052
       4    H3      16.804259   17.499829   22.360741 H          1 MOL1         0.1052
       5    C2      18.969906   17.356527   22.677485 C.3        1 MOL1        -0.1209
       6    H4      19.743984   16.578240   22.618957 H          1 MOL1         0.1041
       7    H5      18.931460   17.685356   23.725695 H          1 MOL1         0.1041
       8    C3      19.358852   18.546433   21.772717 C.3        1 MOL1        -0.1274
       9    H6      19.400458   18.216295   20.726178 H          1 MOL1         0.1041
      10    H7      18.586726   19.324888   21.834327 H          1 MOL1         0.1041
      11    C4      20.720357   19.141954   22.176748 C.3        1 MOL1         0.0313
      12    H8      21.494003   18.373632   22.101634 H          1 MOL1         0.1015
      13    H9      20.677605   19.485917   23.213256 H          1 MOL1         0.1015
      14    N1      21.144244   20.314800   21.314508 N.4        1 MOL1        -0.4809
      15    H10     20.433069   21.061067   21.352875 H          1 MOL1         0.3726
      16    H11     21.188997   20.031223   20.323682 H          1 MOL1         0.3726
      17    C5      22.495299   20.840817   21.780482 C.3        1 MOL1        -0.0677
      18    H12     23.238954   20.045132   21.698819 H          1 MOL1         0.1026
      19    H13     22.788235   21.684353   21.151479 H          1 MOL1         0.1026
      20    H14     22.415591   21.166925   22.819765 H          1 MOL1         0.1026
@<TRIPOS>BOND
    1     1     2    1
    2     1     3    1
    3     1     4    1
    4     1     5    1
    5     5     6    1
    6     5     7    1
    7     5     8    1
    8     8     9    1
    9     8    10    1
   10     8    11    1
   11    11    12    1
   12    11    13    1
   13    11    14    1
   14    14    15    1
   15    14    16    1
   16    14    17    1
   17    17    18    1
   18    17    19    1
   19    17    20    1
@<TRIPOS>SUBSTRUCTURE
       1 MOL1            1 RESIDUE      1      MOL     
@<SCITEGIC>MOL_PROPERTY
VConf Rank
SciTegic.value.IntegerValue
704

@<SCITEGIC>MOL_PROPERTY
Conf_Id
SciTegic.value.IntegerValue
67

@<SCITEGIC>MOL_PROPERTY
Delta U+W
SciTegic.value.DoubleValue
0.000

@<SCITEGIC>MOL_PROPERTY
U+W
SciTegic.value.DoubleValue
15.338

@<SCITEGIC>MOL_PROPERTY
Grad RMS
SciTegic.value.DoubleValue
0.000000

@<SCITEGIC>MOL_PROPERTY
U
SciTegic.value.DoubleValue
69.277

@<SCITEGIC>MOL_PROPERTY
W
SciTegic.value.DoubleValue
-53.939

@<SCITEGIC>MOL_PROPERTY
W(PB)
SciTegic.value.DoubleValue
-55.889

@<SCITEGIC>MOL_PROPERTY
W(SA)
SciTegic.value.DoubleValue
1.950

@<SCITEGIC>MOL_PROPERTY
Valence
SciTegic.value.DoubleValue
0.846

@<SCITEGIC>MOL_PROPERTY
Coulomb
SciTegic.value.DoubleValue
68.557

@<SCITEGIC>MOL_PROPERTY
VdW
SciTegic.value.DoubleValue
-0.127

@<SCITEGIC>MOL_PROPERTY
VdW6
SciTegic.value.DoubleValue
-3.008

@<SCITEGIC>MOL_PROPERTY
VdW12
SciTegic.value.DoubleValue
2.882

@<SCITEGIC>MOL_PROPERTY
Bond
SciTegic.value.DoubleValue
0.088

@<SCITEGIC>MOL_PROPERTY
Angle
SciTegic.value.DoubleValue
0.332

@<SCITEGIC>MOL_PROPERTY
Pdih
SciTegic.value.DoubleValue
0.426

@<SCITEGIC>MOL_PROPERTY
Idih
SciTegic.value.DoubleValue
0.000

@<SCITEGIC>MOL_PROPERTY
Tether
SciTegic.value.DoubleValue
0.000

@<TRIPOS>MOLECULE
guest-s9_confgen4.mol2 : confsearch ligand conformer 705
          20          19           1
SMALL
USER_CHARGES
 
@<TRIPOS>ATOM
       1    C1      22.503761   17.647928   23.279784 C.3        1 MOL1        -0.2224
       2    H1      22.861139   18.643740   23.572718 H          1 MOL1         0.1052
       3    H2      22.797386   16.940734   24.066346 H          1 MOL1         0.1052
       4    H3      23.021340   17.357339   22.356292 H          1 MOL1         0.1052
       5    C2      20.972057   17.641727   23.084555 C.3        1 MOL1        -0.1209
       6    H4      20.481952   17.902499   24.033302 H          1 MOL1         0.1041
       7    H5      20.640995   16.625684   22.826943 H          1 MOL1         0.1041
       8    C3      20.529291   18.628703   21.982046 C.3        1 MOL1        -0.1274
       9    H6      20.861966   19.641498   22.243443 H          1 MOL1         0.1041
      10    H7      21.015842   18.365012   21.033702 H          1 MOL1         0.1041
      11    C4      18.998210   18.614192   21.793482 C.3        1 MOL1         0.0313
      12    H8      18.507214   18.922847   22.719785 H          1 MOL1         0.1015
      13    H9      18.678717   17.594126   21.565297 H          1 MOL1         0.1015
      14    N1      18.489829   19.507742   20.673715 N.4        1 MOL1        -0.4809
      15    H10     17.489323   19.316676   20.507081 H          1 MOL1         0.3726
      16    H11     18.955723   19.267672   19.785410 H          1 MOL1         0.3726
      17    C5      18.685964   20.982559   21.008323 C.3        1 MOL1        -0.0677
      18    H12     19.752001   21.191116   21.117673 H          1 MOL1         0.1026
      19    H13     18.275214   21.590516   20.199222 H          1 MOL1         0.1026
      20    H14     18.166010   21.211840   21.940945 H          1 MOL1         0.1026
@<TRIPOS>BOND
    1     1     2    1
    2     1     3    1
    3     1     4    1
    4     1     5    1
    5     5     6    1
    6     5     7    1
    7     5     8    1
    8     8     9    1
    9     8    10    1
   10     8    11    1
   11    11    12    1
   12    11    13    1
   13    11    14    1
   14    14    15    1
   15    14    16    1
   16    14    17    1
   17    17    18    1
   18    17    19    1
   19    17    20    1
@<TRIPOS>SUBSTRUCTURE
       1 MOL1            1 RESIDUE      1      MOL     
@<SCITEGIC>MOL_PROPERTY
VConf Rank
SciTegic.value.IntegerValue
705

@<SCITEGIC>MOL_PROPERTY
Conf_Id
SciTegic.value.IntegerValue
37

@<SCITEGIC>MOL_PROPERTY
Delta U+W
SciTegic.value.DoubleValue
-0.021

@<SCITEGIC>MOL_PROPERTY
U+W
SciTegic.value.DoubleValue
15.318

@<SCITEGIC>MOL_PROPERTY
Grad RMS
SciTegic.value.DoubleValue
0.000000

@<SCITEGIC>MOL_PROPERTY
U
SciTegic.value.DoubleValue
69.657

@<SCITEGIC>MOL_PROPERTY
W
SciTegic.value.DoubleValue
-54.340

@<SCITEGIC>MOL_PROPERTY
W(PB)
SciTegic.value.DoubleValue
-56.238

@<SCITEGIC>MOL_PROPERTY
W(SA)
SciTegic.value.DoubleValue
1.899

@<SCITEGIC>MOL_PROPERTY
Valence
SciTegic.value.DoubleValue
1.137

@<SCITEGIC>MOL_PROPERTY
Coulomb
SciTegic.value.DoubleValue
68.383

@<SCITEGIC>MOL_PROPERTY
VdW
SciTegic.value.DoubleValue
0.138

@<SCITEGIC>MOL_PROPERTY
VdW6
SciTegic.value.DoubleValue
-3.703

@<SCITEGIC>MOL_PROPERTY
VdW12
SciTegic.value.DoubleValue
3.841

@<SCITEGIC>MOL_PROPERTY
Bond
SciTegic.value.DoubleValue
0.125

@<SCITEGIC>MOL_PROPERTY
Angle
SciTegic.value.DoubleValue
0.468

@<SCITEGIC>MOL_PROPERTY
Pdih
SciTegic.value.DoubleValue
0.543

@<SCITEGIC>MOL_PROPERTY
Idih
SciTegic.value.DoubleValue
0.000

@<SCITEGIC>MOL_PROPERTY
Tether
SciTegic.value.DoubleValue
0.000

@<TRIPOS>MOLECULE
guest-s9_confgen4.mol2 : confsearch ligand conformer 706
          20          19           1
SMALL
USER_CHARGES
 
@<TRIPOS>ATOM
       1    C1      21.357529   21.285858   22.940993 C.3        1 MOL1        -0.2224
       2    H1      22.353778   21.721388   23.092059 H          1 MOL1         0.1052
       3    H2      20.851271   21.867840   22.159860 H          1 MOL1         0.1052
       4    H3      20.793496   21.404965   23.875258 H          1 MOL1         0.1052
       5    C2      21.467156   19.797895   22.543230 C.3        1 MOL1        -0.1209
       6    H4      22.008362   19.249379   23.327153 H          1 MOL1         0.1041
       7    H5      22.064975   19.708423   21.625115 H          1 MOL1         0.1041
       8    C3      20.078622   19.157868   22.324085 C.3        1 MOL1        -0.1274
       9    H6      19.483605   19.243773   23.242887 H          1 MOL1         0.1041
      10    H7      19.542088   19.708677   21.540825 H          1 MOL1         0.1041
      11    C4      20.198505   17.671504   21.928714 C.3        1 MOL1         0.0313
      12    H8      20.761900   17.143206   22.702125 H          1 MOL1         0.1015
      13    H9      20.748329   17.580674   20.988594 H          1 MOL1         0.1015
      14    N1      18.870100   16.950684   21.765875 N.4        1 MOL1        -0.4809
      15    H10     18.306446   17.041642   22.624825 H          1 MOL1         0.3726
      16    H11     19.037477   15.937119   21.666097 H          1 MOL1         0.3726
      17    C5      18.102003   17.469683   20.555015 C.3        1 MOL1        -0.0677
      18    H12     18.713934   17.342251   19.659466 H          1 MOL1         0.1026
      19    H13     17.174259   16.902868   20.450205 H          1 MOL1         0.1026
      20    H14     17.870558   18.526968   20.698088 H          1 MOL1         0.1026
@<TRIPOS>BOND
    1     1     2    1
    2     1     3    1
    3     1     4    1
    4     1     5    1
    5     5     6    1
    6     5     7    1
    7     5     8    1
    8     8     9    1
    9     8    10    1
   10     8    11    1
   11    11    12    1
   12    11    13    1
   13    11    14    1
   14    14    15    1
   15    14    16    1
   16    14    17    1
   17    17    18    1
   18    17    19    1
   19    17    20    1
@<TRIPOS>SUBSTRUCTURE
       1 MOL1            1 RESIDUE      1      MOL     
@<SCITEGIC>MOL_PROPERTY
VConf Rank
SciTegic.value.IntegerValue
706

@<SCITEGIC>MOL_PROPERTY
Conf_Id
SciTegic.value.IntegerValue
2

@<SCITEGIC>MOL_PROPERTY
Delta U+W
SciTegic.value.DoubleValue
0.069

@<SCITEGIC>MOL_PROPERTY
U+W
SciTegic.value.DoubleValue
15.407

@<SCITEGIC>MOL_PROPERTY
Grad RMS
SciTegic.value.DoubleValue
0.000000

@<SCITEGIC>MOL_PROPERTY
U
SciTegic.value.DoubleValue
69.657

@<SCITEGIC>MOL_PROPERTY
W
SciTegic.value.DoubleValue
-54.250

@<SCITEGIC>MOL_PROPERTY
W(PB)
SciTegic.value.DoubleValue
-56.176

@<SCITEGIC>MOL_PROPERTY
W(SA)
SciTegic.value.DoubleValue
1.926

@<SCITEGIC>MOL_PROPERTY
Valence
SciTegic.value.DoubleValue
1.137

@<SCITEGIC>MOL_PROPERTY
Coulomb
SciTegic.value.DoubleValue
68.383

@<SCITEGIC>MOL_PROPERTY
VdW
SciTegic.value.DoubleValue
0.138

@<SCITEGIC>MOL_PROPERTY
VdW6
SciTegic.value.DoubleValue
-3.703

@<SCITEGIC>MOL_PROPERTY
VdW12
SciTegic.value.DoubleValue
3.841

@<SCITEGIC>MOL_PROPERTY
Bond
SciTegic.value.DoubleValue
0.125

@<SCITEGIC>MOL_PROPERTY
Angle
SciTegic.value.DoubleValue
0.468

@<SCITEGIC>MOL_PROPERTY
Pdih
SciTegic.value.DoubleValue
0.543

@<SCITEGIC>MOL_PROPERTY
Idih
SciTegic.value.DoubleValue
0.000

@<SCITEGIC>MOL_PROPERTY
Tether
SciTegic.value.DoubleValue
0.000

@<TRIPOS>MOLECULE
guest-s9_confgen4.mol2 : confsearch ligand conformer 707
          20          19           1
SMALL
USER_CHARGES
 
@<TRIPOS>ATOM
       1    C1      22.317049   17.466459   21.579060 C.3        1 MOL1        -0.2224
       2    H1      21.896733   17.863324   20.646379 H          1 MOL1         0.1052
       3    H2      22.966286   18.235585   22.017279 H          1 MOL1         0.1052
       4    H3      22.946917   16.606177   21.317965 H          1 MOL1         0.1052
       5    C2      21.206951   17.044860   22.569123 C.3        1 MOL1        -0.1209
       6    H4      21.669786   16.569399   23.445327 H          1 MOL1         0.1041
       7    H5      20.568766   16.280125   22.104252 H          1 MOL1         0.1041
       8    C3      20.336519   18.232244   23.043093 C.3        1 MOL1        -0.1274
       9    H6      19.624190   17.874023   23.798157 H          1 MOL1         0.1041
      10    H7      20.971128   18.979150   23.538339 H          1 MOL1         0.1041
      11    C4      19.559216   18.896274   21.889788 C.3        1 MOL1         0.0313
      12    H8      18.925892   18.153324   21.398566 H          1 MOL1         0.1015
      13    H9      20.261375   19.291319   21.151765 H          1 MOL1         0.1015
      14    N1      18.671567   20.039176   22.341810 N.4        1 MOL1        -0.4809
      15    H10     19.233806   20.759432   22.820568 H          1 MOL1         0.3726
      16    H11     17.994910   19.708078   23.046517 H          1 MOL1         0.3726
      17    C5      17.945304   20.637679   21.144552 C.3        1 MOL1        -0.0677
      18    H12     17.330603   19.867027   20.674401 H          1 MOL1         0.1026
      19    H13     17.310112   21.458830   21.484032 H          1 MOL1         0.1026
      20    H14     18.679870   21.012411   20.428460 H          1 MOL1         0.1026
@<TRIPOS>BOND
    1     1     2    1
    2     1     3    1
    3     1     4    1
    4     1     5    1
    5     5     6    1
    6     5     7    1
    7     5     8    1
    8     8     9    1
    9     8    10    1
   10     8    11    1
   11    11    12    1
   12    11    13    1
   13    11    14    1
   14    14    15    1
   15    14    16    1
   16    14    17    1
   17    17    18    1
   18    17    19    1
   19    17    20    1
@<TRIPOS>SUBSTRUCTURE
       1 MOL1            1 RESIDUE      1      MOL     
@<SCITEGIC>MOL_PROPERTY
VConf Rank
SciTegic.value.IntegerValue
707

@<SCITEGIC>MOL_PROPERTY
Conf_Id
SciTegic.value.IntegerValue
34

@<SCITEGIC>MOL_PROPERTY
Delta U+W
SciTegic.value.DoubleValue
0.276

@<SCITEGIC>MOL_PROPERTY
U+W
SciTegic.value.DoubleValue
15.615

@<SCITEGIC>MOL_PROPERTY
Grad RMS
SciTegic.value.DoubleValue
0.000000

@<SCITEGIC>MOL_PROPERTY
U
SciTegic.value.DoubleValue
69.798

@<SCITEGIC>MOL_PROPERTY
W
SciTegic.value.DoubleValue
-54.184

@<SCITEGIC>MOL_PROPERTY
W(PB)
SciTegic.value.DoubleValue
-56.116

@<SCITEGIC>MOL_PROPERTY
W(SA)
SciTegic.value.DoubleValue
1.933

@<SCITEGIC>MOL_PROPERTY
Valence
SciTegic.value.DoubleValue
1.134

@<SCITEGIC>MOL_PROPERTY
Coulomb
SciTegic.value.DoubleValue
68.735

@<SCITEGIC>MOL_PROPERTY
VdW
SciTegic.value.DoubleValue
-0.070

@<SCITEGIC>MOL_PROPERTY
VdW6
SciTegic.value.DoubleValue
-3.565

@<SCITEGIC>MOL_PROPERTY
VdW12
SciTegic.value.DoubleValue
3.494

@<SCITEGIC>MOL_PROPERTY
Bond
SciTegic.value.DoubleValue
0.108

@<SCITEGIC>MOL_PROPERTY
Angle
SciTegic.value.DoubleValue
0.456

@<SCITEGIC>MOL_PROPERTY
Pdih
SciTegic.value.DoubleValue
0.569

@<SCITEGIC>MOL_PROPERTY
Idih
SciTegic.value.DoubleValue
0.000

@<SCITEGIC>MOL_PROPERTY
Tether
SciTegic.value.DoubleValue
0.000

@<TRIPOS>MOLECULE
guest-s9_confgen4.mol2 : confsearch ligand conformer 708
          20          19           1
SMALL
USER_CHARGES
 
@<TRIPOS>ATOM
       1    C1      18.116503   20.968676   21.085662 C.3        1 MOL1        -0.2224
       2    H1      17.440002   21.221231   21.912543 H          1 MOL1         0.1052
       3    H2      18.414859   21.905684   20.597783 H          1 MOL1         0.1052
       4    H3      17.554530   20.373114   20.354448 H          1 MOL1         0.1052
       5    C2      19.355091   20.200018   21.594668 C.3        1 MOL1        -0.1209
       6    H4      19.912625   20.833463   22.299102 H          1 MOL1         0.1041
       7    H5      20.026131   20.000567   20.748251 H          1 MOL1         0.1041
       8    C3      18.961140   18.873710   22.286691 C.3        1 MOL1        -0.1274
       9    H6      18.260291   19.085849   23.105038 H          1 MOL1         0.1041
      10    H7      18.428058   18.223763   21.580116 H          1 MOL1         0.1041
      11    C4      20.173705   18.118871   22.867591 C.3        1 MOL1         0.0313
      12    H8      19.823410   17.242010   23.418070 H          1 MOL1         0.1015
      13    H9      20.709661   18.766736   23.565774 H          1 MOL1         0.1015
      14    N1      21.161872   17.637366   21.821855 N.4        1 MOL1        -0.4809
      15    H10     21.520804   18.435787   21.277662 H          1 MOL1         0.3726
      16    H11     20.686871   17.029268   21.137283 H          1 MOL1         0.3726
      17    C5      22.307535   16.892332   22.493583 C.3        1 MOL1        -0.0677
      18    H12     22.815632   17.564499   23.188434 H          1 MOL1         0.1026
      19    H13     21.908506   16.032634   23.036243 H          1 MOL1         0.1026
      20    H14     23.010620   16.551717   21.730272 H          1 MOL1         0.1026
@<TRIPOS>BOND
    1     1     2    1
    2     1     3    1
    3     1     4    1
    4     1     5    1
    5     5     6    1
    6     5     7    1
    7     5     8    1
    8     8     9    1
    9     8    10    1
   10     8    11    1
   11    11    12    1
   12    11    13    1
   13    11    14    1
   14    14    15    1
   15    14    16    1
   16    14    17    1
   17    17    18    1
   18    17    19    1
   19    17    20    1
@<TRIPOS>SUBSTRUCTURE
       1 MOL1            1 RESIDUE      1      MOL     
@<SCITEGIC>MOL_PROPERTY
VConf Rank
SciTegic.value.IntegerValue
708

@<SCITEGIC>MOL_PROPERTY
Conf_Id
SciTegic.value.IntegerValue
50

@<SCITEGIC>MOL_PROPERTY
Delta U+W
SciTegic.value.DoubleValue
0.319

@<SCITEGIC>MOL_PROPERTY
U+W
SciTegic.value.DoubleValue
15.657

@<SCITEGIC>MOL_PROPERTY
Grad RMS
SciTegic.value.DoubleValue
0.000000

@<SCITEGIC>MOL_PROPERTY
U
SciTegic.value.DoubleValue
69.962

@<SCITEGIC>MOL_PROPERTY
W
SciTegic.value.DoubleValue
-54.305

@<SCITEGIC>MOL_PROPERTY
W(PB)
SciTegic.value.DoubleValue
-56.223

@<SCITEGIC>MOL_PROPERTY
W(SA)
SciTegic.value.DoubleValue
1.918

@<SCITEGIC>MOL_PROPERTY
Valence
SciTegic.value.DoubleValue
0.982

@<SCITEGIC>MOL_PROPERTY
Coulomb
SciTegic.value.DoubleValue
69.058

@<SCITEGIC>MOL_PROPERTY
VdW
SciTegic.value.DoubleValue
-0.078

@<SCITEGIC>MOL_PROPERTY
VdW6
SciTegic.value.DoubleValue
-3.548

@<SCITEGIC>MOL_PROPERTY
VdW12
SciTegic.value.DoubleValue
3.471

@<SCITEGIC>MOL_PROPERTY
Bond
SciTegic.value.DoubleValue
0.105

@<SCITEGIC>MOL_PROPERTY
Angle
SciTegic.value.DoubleValue
0.408

@<SCITEGIC>MOL_PROPERTY
Pdih
SciTegic.value.DoubleValue
0.469

@<SCITEGIC>MOL_PROPERTY
Idih
SciTegic.value.DoubleValue
0.000

@<SCITEGIC>MOL_PROPERTY
Tether
SciTegic.value.DoubleValue
0.000

@<TRIPOS>MOLECULE
guest-s9_confgen4.mol2 : confsearch ligand conformer 709
          20          19           1
SMALL
USER_CHARGES
 
@<TRIPOS>ATOM
       1    C1      19.106253   21.464162   20.825991 C.3        1 MOL1        -0.2224
       2    H1      19.136806   22.434268   21.338814 H          1 MOL1         0.1052
       3    H2      19.555857   21.594925   19.833053 H          1 MOL1         0.1052
       4    H3      18.052252   21.188890   20.690019 H          1 MOL1         0.1052
       5    C2      19.860290   20.391733   21.641681 C.3        1 MOL1        -0.1209
       6    H4      19.408755   20.317523   22.640231 H          1 MOL1         0.1041
       7    H5      20.902028   20.710859   21.787499 H          1 MOL1         0.1041
       8    C3      19.831393   19.013444   20.939774 C.3        1 MOL1        -0.1274
       9    H6      18.794036   18.675138   20.816090 H          1 MOL1         0.1041
      10    H7      20.249822   19.112200   19.929306 H          1 MOL1         0.1041
      11    C4      20.637239   17.939208   21.697516 C.3        1 MOL1         0.0313
      12    H8      21.668352   18.277277   21.827706 H          1 MOL1         0.1015
      13    H9      20.653227   17.018007   21.109509 H          1 MOL1         0.1015
      14    N1      20.079275   17.598016   23.066514 N.4        1 MOL1        -0.4809
      15    H10     19.100325   17.283760   22.983149 H          1 MOL1         0.3726
      16    H11     20.047662   18.441690   23.657842 H          1 MOL1         0.3726
      17    C5      20.932394   16.520013   23.721446 C.3        1 MOL1        -0.0677
      18    H12     20.520154   16.284379   24.705075 H          1 MOL1         0.1026
      19    H13     20.924700   15.625251   23.095245 H          1 MOL1         0.1026
      20    H14     21.955462   16.886751   23.829277 H          1 MOL1         0.1026
@<TRIPOS>BOND
    1     1     2    1
    2     1     3    1
    3     1     4    1
    4     1     5    1
    5     5     6    1
    6     5     7    1
    7     5     8    1
    8     8     9    1
    9     8    10    1
   10     8    11    1
   11    11    12    1
   12    11    13    1
   13    11    14    1
   14    14    15    1
   15    14    16    1
   16    14    17    1
   17    17    18    1
   18    17    19    1
   19    17    20    1
@<TRIPOS>SUBSTRUCTURE
       1 MOL1            1 RESIDUE      1      MOL     
@<SCITEGIC>MOL_PROPERTY
VConf Rank
SciTegic.value.IntegerValue
709

@<SCITEGIC>MOL_PROPERTY
Conf_Id
SciTegic.value.IntegerValue
35

@<SCITEGIC>MOL_PROPERTY
Delta U+W
SciTegic.value.DoubleValue
0.360

@<SCITEGIC>MOL_PROPERTY
U+W
SciTegic.value.DoubleValue
15.698

@<SCITEGIC>MOL_PROPERTY
Grad RMS
SciTegic.value.DoubleValue
0.000000

@<SCITEGIC>MOL_PROPERTY
U
SciTegic.value.DoubleValue
69.962

@<SCITEGIC>MOL_PROPERTY
W
SciTegic.value.DoubleValue
-54.264

@<SCITEGIC>MOL_PROPERTY
W(PB)
SciTegic.value.DoubleValue
-56.166

@<SCITEGIC>MOL_PROPERTY
W(SA)
SciTegic.value.DoubleValue
1.902

@<SCITEGIC>MOL_PROPERTY
Valence
SciTegic.value.DoubleValue
0.982

@<SCITEGIC>MOL_PROPERTY
Coulomb
SciTegic.value.DoubleValue
69.058

@<SCITEGIC>MOL_PROPERTY
VdW
SciTegic.value.DoubleValue
-0.078

@<SCITEGIC>MOL_PROPERTY
VdW6
SciTegic.value.DoubleValue
-3.548

@<SCITEGIC>MOL_PROPERTY
VdW12
SciTegic.value.DoubleValue
3.471

@<SCITEGIC>MOL_PROPERTY
Bond
SciTegic.value.DoubleValue
0.105

@<SCITEGIC>MOL_PROPERTY
Angle
SciTegic.value.DoubleValue
0.408

@<SCITEGIC>MOL_PROPERTY
Pdih
SciTegic.value.DoubleValue
0.469

@<SCITEGIC>MOL_PROPERTY
Idih
SciTegic.value.DoubleValue
0.000

@<SCITEGIC>MOL_PROPERTY
Tether
SciTegic.value.DoubleValue
0.000

@<TRIPOS>MOLECULE
guest-s9_confgen4.mol2 : confsearch ligand conformer 710
          20          19           1
SMALL
USER_CHARGES
 
@<TRIPOS>ATOM
       1    C1      17.862769   18.563374   20.657543 C.3        1 MOL1        -0.2224
       2    H1      17.932707   19.628976   20.909874 H          1 MOL1         0.1052
       3    H2      17.168392   18.468438   19.812675 H          1 MOL1         0.1052
       4    H3      17.421908   18.036571   21.513821 H          1 MOL1         0.1052
       5    C2      19.244552   17.973651   20.292696 C.3        1 MOL1        -0.1209
       6    H4      19.665475   18.521029   19.437496 H          1 MOL1         0.1041
       7    H5      19.114377   16.934256   19.959979 H          1 MOL1         0.1041
       8    C3      20.243679   18.002186   21.472867 C.3        1 MOL1        -0.1274
       9    H6      19.834346   17.422682   22.310323 H          1 MOL1         0.1041
      10    H7      21.171884   17.501369   21.167689 H          1 MOL1         0.1041
      11    C4      20.572899   19.437686   21.935921 C.3        1 MOL1         0.0313
      12    H8      19.668168   19.925943   22.305816 H          1 MOL1         0.1015
      13    H9      20.941192   20.010212   21.080851 H          1 MOL1         0.1015
      14    N1      21.627901   19.523911   23.026762 N.4        1 MOL1        -0.4809
      15    H10     21.906534   20.508607   23.160719 H          1 MOL1         0.3726
      16    H11     22.490577   19.043752   22.728505 H          1 MOL1         0.3726
      17    C5      21.113092   18.948353   24.341703 C.3        1 MOL1        -0.0677
      18    H12     20.882531   17.889573   24.208599 H          1 MOL1         0.1026
      19    H13     21.883398   19.061786   25.107683 H          1 MOL1         0.1026
      20    H14     20.212881   19.488524   24.642585 H          1 MOL1         0.1026
@<TRIPOS>BOND
    1     1     2    1
    2     1     3    1
    3     1     4    1
    4     1     5    1
    5     5     6    1
    6     5     7    1
    7     5     8    1
    8     8     9    1
    9     8    10    1
   10     8    11    1
   11    11    12    1
   12    11    13    1
   13    11    14    1
   14    14    15    1
   15    14    16    1
   16    14    17    1
   17    17    18    1
   18    17    19    1
   19    17    20    1
@<TRIPOS>SUBSTRUCTURE
       1 MOL1            1 RESIDUE      1      MOL     
@<SCITEGIC>MOL_PROPERTY
VConf Rank
SciTegic.value.IntegerValue
710

@<SCITEGIC>MOL_PROPERTY
Conf_Id
SciTegic.value.IntegerValue
33

@<SCITEGIC>MOL_PROPERTY
Delta U+W
SciTegic.value.DoubleValue
0.372

@<SCITEGIC>MOL_PROPERTY
U+W
SciTegic.value.DoubleValue
15.711

@<SCITEGIC>MOL_PROPERTY
Grad RMS
SciTegic.value.DoubleValue
0.000000

@<SCITEGIC>MOL_PROPERTY
U
SciTegic.value.DoubleValue
70.163

@<SCITEGIC>MOL_PROPERTY
W
SciTegic.value.DoubleValue
-54.452

@<SCITEGIC>MOL_PROPERTY
W(PB)
SciTegic.value.DoubleValue
-56.363

@<SCITEGIC>MOL_PROPERTY
W(SA)
SciTegic.value.DoubleValue
1.911

@<SCITEGIC>MOL_PROPERTY
Valence
SciTegic.value.DoubleValue
1.420

@<SCITEGIC>MOL_PROPERTY
Coulomb
SciTegic.value.DoubleValue
68.566

@<SCITEGIC>MOL_PROPERTY
VdW
SciTegic.value.DoubleValue
0.177

@<SCITEGIC>MOL_PROPERTY
VdW6
SciTegic.value.DoubleValue
-4.267

@<SCITEGIC>MOL_PROPERTY
VdW12
SciTegic.value.DoubleValue
4.445

@<SCITEGIC>MOL_PROPERTY
Bond
SciTegic.value.DoubleValue
0.146

@<SCITEGIC>MOL_PROPERTY
Angle
SciTegic.value.DoubleValue
0.581

@<SCITEGIC>MOL_PROPERTY
Pdih
SciTegic.value.DoubleValue
0.693

@<SCITEGIC>MOL_PROPERTY
Idih
SciTegic.value.DoubleValue
0.000

@<SCITEGIC>MOL_PROPERTY
Tether
SciTegic.value.DoubleValue
0.000

@<TRIPOS>MOLECULE
guest-s9_confgen4.mol2 : confsearch ligand conformer 711
          20          19           1
SMALL
USER_CHARGES
 
@<TRIPOS>ATOM
       1    C1      20.215826   18.698126   24.575228 C.3        1 MOL1        -0.2224
       2    H1      19.905378   18.573445   25.620718 H          1 MOL1         0.1052
       3    H2      20.661620   17.750542   24.247477 H          1 MOL1         0.1052
       4    H3      20.994771   19.471149   24.547391 H          1 MOL1         0.1052
       5    C2      19.008185   19.093004   23.694384 C.3        1 MOL1        -0.1209
       6    H4      18.539077   19.994805   24.112329 H          1 MOL1         0.1041
       7    H5      18.246572   18.301546   23.735694 H          1 MOL1         0.1041
       8    C3      19.397930   19.365270   22.222701 C.3        1 MOL1        -0.1274
       9    H6      18.511238   19.713049   21.676492 H          1 MOL1         0.1041
      10    H7      20.130582   20.181685   22.185330 H          1 MOL1         0.1041
      11    C4      19.966166   18.114092   21.519051 C.3        1 MOL1         0.0313
      12    H8      19.240231   17.301129   21.600774 H          1 MOL1         0.1015
      13    H9      20.887579   17.795990   22.012572 H          1 MOL1         0.1015
      14    N1      20.270248   18.302737   20.041773 N.4        1 MOL1        -0.4809
      15    H10     19.430840   18.635975   19.543712 H          1 MOL1         0.3726
      16    H11     20.485636   17.388507   19.613990 H          1 MOL1         0.3726
      17    C5      21.439768   19.259190   19.834922 C.3        1 MOL1        -0.0677
      18    H12     21.651180   19.339786   18.766385 H          1 MOL1         0.1026
      19    H13     21.178790   20.242315   20.231461 H          1 MOL1         0.1026
      20    H14     22.317962   18.871050   20.355328 H          1 MOL1         0.1026
@<TRIPOS>BOND
    1     1     2    1
    2     1     3    1
    3     1     4    1
    4     1     5    1
    5     5     6    1
    6     5     7    1
    7     5     8    1
    8     8     9    1
    9     8    10    1
   10     8    11    1
   11    11    12    1
   12    11    13    1
   13    11    14    1
   14    14    15    1
   15    14    16    1
   16    14    17    1
   17    17    18    1
   18    17    19    1
   19    17    20    1
@<TRIPOS>SUBSTRUCTURE
       1 MOL1            1 RESIDUE      1      MOL     
@<SCITEGIC>MOL_PROPERTY
VConf Rank
SciTegic.value.IntegerValue
711

@<SCITEGIC>MOL_PROPERTY
Conf_Id
SciTegic.value.IntegerValue
53

@<SCITEGIC>MOL_PROPERTY
Delta U+W
SciTegic.value.DoubleValue
0.379

@<SCITEGIC>MOL_PROPERTY
U+W
SciTegic.value.DoubleValue
15.717

@<SCITEGIC>MOL_PROPERTY
Grad RMS
SciTegic.value.DoubleValue
0.000000

@<SCITEGIC>MOL_PROPERTY
U
SciTegic.value.DoubleValue
70.163

@<SCITEGIC>MOL_PROPERTY
W
SciTegic.value.DoubleValue
-54.446

@<SCITEGIC>MOL_PROPERTY
W(PB)
SciTegic.value.DoubleValue
-56.322

@<SCITEGIC>MOL_PROPERTY
W(SA)
SciTegic.value.DoubleValue
1.876

@<SCITEGIC>MOL_PROPERTY
Valence
SciTegic.value.DoubleValue
1.420

@<SCITEGIC>MOL_PROPERTY
Coulomb
SciTegic.value.DoubleValue
68.566

@<SCITEGIC>MOL_PROPERTY
VdW
SciTegic.value.DoubleValue
0.177

@<SCITEGIC>MOL_PROPERTY
VdW6
SciTegic.value.DoubleValue
-4.267

@<SCITEGIC>MOL_PROPERTY
VdW12
SciTegic.value.DoubleValue
4.445

@<SCITEGIC>MOL_PROPERTY
Bond
SciTegic.value.DoubleValue
0.146

@<SCITEGIC>MOL_PROPERTY
Angle
SciTegic.value.DoubleValue
0.581

@<SCITEGIC>MOL_PROPERTY
Pdih
SciTegic.value.DoubleValue
0.693

@<SCITEGIC>MOL_PROPERTY
Idih
SciTegic.value.DoubleValue
0.000

@<SCITEGIC>MOL_PROPERTY
Tether
SciTegic.value.DoubleValue
0.000

@<TRIPOS>MOLECULE
guest-s9_confgen4.mol2 : confsearch ligand conformer 712
          20          19           1
SMALL
USER_CHARGES
 
@<TRIPOS>ATOM
       1    C1      17.868589   20.466193   22.351875 C.3        1 MOL1        -0.2224
       2    H1      17.808242   21.424965   22.883022 H          1 MOL1         0.1052
       3    H2      17.274082   20.553213   21.433106 H          1 MOL1         0.1052
       4    H3      17.405249   19.700171   22.987239 H          1 MOL1         0.1052
       5    C2      19.336866   20.110396   22.033235 C.3        1 MOL1        -0.1209
       6    H4      19.907580   20.070224   22.970961 H          1 MOL1         0.1041
       7    H5      19.781708   20.909790   21.423920 H          1 MOL1         0.1041
       8    C3      19.449737   18.760901   21.285675 C.3        1 MOL1        -0.1274
       9    H6      19.031396   17.954284   21.901388 H          1 MOL1         0.1041
      10    H7      18.839864   18.799442   20.373416 H          1 MOL1         0.1041
      11    C4      20.901215   18.416039   20.884500 C.3        1 MOL1         0.0313
      12    H8      21.282817   19.200065   20.225477 H          1 MOL1         0.1015
      13    H9      20.911527   17.476071   20.326962 H          1 MOL1         0.1015
      14    N1      21.881360   18.276245   22.039664 N.4        1 MOL1        -0.4809
      15    H10     21.901114   19.143227   22.596423 H          1 MOL1         0.3726
      16    H11     22.839454   18.177024   21.668939 H          1 MOL1         0.3726
      17    C5      21.538003   17.076848   22.916299 C.3        1 MOL1        -0.0677
      18    H12     21.543558   16.171736   22.305235 H          1 MOL1         0.1026
      19    H13     22.282650   16.989188   23.710496 H          1 MOL1         0.1026
      20    H14     20.549038   17.221082   23.355798 H          1 MOL1         0.1026
@<TRIPOS>BOND
    1     1     2    1
    2     1     3    1
    3     1     4    1
    4     1     5    1
    5     5     6    1
    6     5     7    1
    7     5     8    1
    8     8     9    1
    9     8    10    1
   10     8    11    1
   11    11    12    1
   12    11    13    1
   13    11    14    1
   14    14    15    1
   15    14    16    1
   16    14    17    1
   17    17    18    1
   18    17    19    1
   19    17    20    1
@<TRIPOS>SUBSTRUCTURE
       1 MOL1            1 RESIDUE      1      MOL     
@<SCITEGIC>MOL_PROPERTY
VConf Rank
SciTegic.value.IntegerValue
712

@<SCITEGIC>MOL_PROPERTY
Conf_Id
SciTegic.value.IntegerValue
49

@<SCITEGIC>MOL_PROPERTY
Delta U+W
SciTegic.value.DoubleValue
0.268

@<SCITEGIC>MOL_PROPERTY
U+W
SciTegic.value.DoubleValue
15.607

@<SCITEGIC>MOL_PROPERTY
Grad RMS
SciTegic.value.DoubleValue
0.000000

@<SCITEGIC>MOL_PROPERTY
U
SciTegic.value.DoubleValue
70.298

@<SCITEGIC>MOL_PROPERTY
W
SciTegic.value.DoubleValue
-54.692

@<SCITEGIC>MOL_PROPERTY
W(PB)
SciTegic.value.DoubleValue
-56.576

@<SCITEGIC>MOL_PROPERTY
W(SA)
SciTegic.value.DoubleValue
1.885

@<SCITEGIC>MOL_PROPERTY
Valence
SciTegic.value.DoubleValue
1.245

@<SCITEGIC>MOL_PROPERTY
Coulomb
SciTegic.value.DoubleValue
68.933

@<SCITEGIC>MOL_PROPERTY
VdW
SciTegic.value.DoubleValue
0.120

@<SCITEGIC>MOL_PROPERTY
VdW6
SciTegic.value.DoubleValue
-4.430

@<SCITEGIC>MOL_PROPERTY
VdW12
SciTegic.value.DoubleValue
4.550

@<SCITEGIC>MOL_PROPERTY
Bond
SciTegic.value.DoubleValue
0.148

@<SCITEGIC>MOL_PROPERTY
Angle
SciTegic.value.DoubleValue
0.587

@<SCITEGIC>MOL_PROPERTY
Pdih
SciTegic.value.DoubleValue
0.509

@<SCITEGIC>MOL_PROPERTY
Idih
SciTegic.value.DoubleValue
0.000

@<SCITEGIC>MOL_PROPERTY
Tether
SciTegic.value.DoubleValue
0.000

@<TRIPOS>MOLECULE
guest-s9_confgen4.mol2 : confsearch ligand conformer 713
          20          19           1
SMALL
USER_CHARGES
 
@<TRIPOS>ATOM
       1    C1      19.024236   20.070272   24.187251 C.3        1 MOL1        -0.2224
       2    H1      19.903737   20.623520   24.541602 H          1 MOL1         0.1052
       3    H2      18.261919   20.799240   23.882919 H          1 MOL1         0.1052
       4    H3      18.622888   19.498770   25.034189 H          1 MOL1         0.1052
       5    C2      19.392675   19.129202   23.019788 C.3        1 MOL1        -0.1209
       6    H4      18.500207   18.569738   22.705954 H          1 MOL1         0.1041
       7    H5      20.125593   18.393335   23.375988 H          1 MOL1         0.1041
       8    C3      19.971518   19.909100   21.816326 C.3        1 MOL1        -0.1274
       9    H6      19.278437   20.716763   21.546001 H          1 MOL1         0.1041
      10    H7      20.912219   20.395288   22.106596 H          1 MOL1         0.1041
      11    C4      20.207863   19.044304   20.557319 C.3        1 MOL1         0.0313
      12    H8      20.552701   19.703132   19.756208 H          1 MOL1         0.1015
      13    H9      19.271242   18.586733   20.229190 H          1 MOL1         0.1015
      14    N1      21.250734   17.946406   20.699802 N.4        1 MOL1        -0.4809
      15    H10     21.995509   18.239707   21.349513 H          1 MOL1         0.3726
      16    H11     21.728300   17.811262   19.794996 H          1 MOL1         0.3726
      17    C5      20.617238   16.628573   21.134135 C.3        1 MOL1        -0.0677
      18    H12     21.394460   15.864174   21.201798 H          1 MOL1         0.1026
      19    H13     20.139424   16.751035   22.106764 H          1 MOL1         0.1026
      20    H14     19.872337   16.328670   20.393953 H          1 MOL1         0.1026
@<TRIPOS>BOND
    1     1     2    1
    2     1     3    1
    3     1     4    1
    4     1     5    1
    5     5     6    1
    6     5     7    1
    7     5     8    1
    8     8     9    1
    9     8    10    1
   10     8    11    1
   11    11    12    1
   12    11    13    1
   13    11    14    1
   14    14    15    1
   15    14    16    1
   16    14    17    1
   17    17    18    1
   18    17    19    1
   19    17    20    1
@<TRIPOS>SUBSTRUCTURE
       1 MOL1            1 RESIDUE      1      MOL     
@<SCITEGIC>MOL_PROPERTY
VConf Rank
SciTegic.value.IntegerValue
713

@<SCITEGIC>MOL_PROPERTY
Conf_Id
SciTegic.value.IntegerValue
65

@<SCITEGIC>MOL_PROPERTY
Delta U+W
SciTegic.value.DoubleValue
1.775

@<SCITEGIC>MOL_PROPERTY
U+W
SciTegic.value.DoubleValue
17.114

@<SCITEGIC>MOL_PROPERTY
Grad RMS
SciTegic.value.DoubleValue
0.000000

@<SCITEGIC>MOL_PROPERTY
U
SciTegic.value.DoubleValue
71.726

@<SCITEGIC>MOL_PROPERTY
W
SciTegic.value.DoubleValue
-54.613

@<SCITEGIC>MOL_PROPERTY
W(PB)
SciTegic.value.DoubleValue
-56.495

@<SCITEGIC>MOL_PROPERTY
W(SA)
SciTegic.value.DoubleValue
1.883

@<SCITEGIC>MOL_PROPERTY
Valence
SciTegic.value.DoubleValue
2.885

@<SCITEGIC>MOL_PROPERTY
Coulomb
SciTegic.value.DoubleValue
68.822

@<SCITEGIC>MOL_PROPERTY
VdW
SciTegic.value.DoubleValue
0.019

@<SCITEGIC>MOL_PROPERTY
VdW6
SciTegic.value.DoubleValue
-4.600

@<SCITEGIC>MOL_PROPERTY
VdW12
SciTegic.value.DoubleValue
4.619

@<SCITEGIC>MOL_PROPERTY
Bond
SciTegic.value.DoubleValue
0.152

@<SCITEGIC>MOL_PROPERTY
Angle
SciTegic.value.DoubleValue
0.862

@<SCITEGIC>MOL_PROPERTY
Pdih
SciTegic.value.DoubleValue
1.871

@<SCITEGIC>MOL_PROPERTY
Idih
SciTegic.value.DoubleValue
0.000

@<SCITEGIC>MOL_PROPERTY
Tether
SciTegic.value.DoubleValue
0.000

@<TRIPOS>MOLECULE
guest-s9_confgen4.mol2 : confsearch ligand conformer 714
          20          19           1
SMALL
USER_CHARGES
 
@<TRIPOS>ATOM
       1    C1      19.148132   20.618142   23.156936 C.3        1 MOL1        -0.2224
       2    H1      18.493556   19.752695   22.994045 H          1 MOL1         0.1052
       3    H2      18.951290   20.995778   24.168679 H          1 MOL1         0.1052
       4    H3      18.861315   21.403323   22.445390 H          1 MOL1         0.1052
       5    C2      20.639513   20.242649   22.998950 C.3        1 MOL1        -0.1209
       6    H4      20.901605   19.457377   23.720937 H          1 MOL1         0.1041
       7    H5      21.256644   21.113291   23.261892 H          1 MOL1         0.1041
       8    C3      21.002868   19.789835   21.562660 C.3        1 MOL1        -0.1274
       9    H6      20.831632   20.622535   20.867639 H          1 MOL1         0.1041
      10    H7      22.076532   19.565376   21.511586 H          1 MOL1         0.1041
      11    C4      20.204467   18.564861   21.069748 C.3        1 MOL1         0.0313
      12    H8      20.496820   18.331241   20.042864 H          1 MOL1         0.1015
      13    H9      19.136581   18.795886   21.073431 H          1 MOL1         0.1015
      14    N1      20.415673   17.315518   21.903497 N.4        1 MOL1        -0.4809
      15    H10     20.156904   17.498509   22.884334 H          1 MOL1         0.3726
      16    H11     21.416472   17.066766   21.924067 H          1 MOL1         0.3726
      17    C5      19.590260   16.167412   21.338639 C.3        1 MOL1        -0.0677
      18    H12     19.903014   15.971237   20.310795 H          1 MOL1         0.1026
      19    H13     19.750868   15.275813   21.948742 H          1 MOL1         0.1026
      20    H14     18.533080   16.440871   21.357404 H          1 MOL1         0.1026
@<TRIPOS>BOND
    1     1     2    1
    2     1     3    1
    3     1     4    1
    4     1     5    1
    5     5     6    1
    6     5     7    1
    7     5     8    1
    8     8     9    1
    9     8    10    1
   10     8    11    1
   11    11    12    1
   12    11    13    1
   13    11    14    1
   14    14    15    1
   15    14    16    1
   16    14    17    1
   17    17    18    1
   18    17    19    1
   19    17    20    1
@<TRIPOS>SUBSTRUCTURE
       1 MOL1            1 RESIDUE      1      MOL     
@<SCITEGIC>MOL_PROPERTY
VConf Rank
SciTegic.value.IntegerValue
714

@<SCITEGIC>MOL_PROPERTY
Conf_Id
SciTegic.value.IntegerValue
23

@<SCITEGIC>MOL_PROPERTY
Delta U+W
SciTegic.value.DoubleValue
0.896

@<SCITEGIC>MOL_PROPERTY
U+W
SciTegic.value.DoubleValue
16.234

@<SCITEGIC>MOL_PROPERTY
Grad RMS
SciTegic.value.DoubleValue
0.000000

@<SCITEGIC>MOL_PROPERTY
U
SciTegic.value.DoubleValue
70.374

@<SCITEGIC>MOL_PROPERTY
W
SciTegic.value.DoubleValue
-54.140

@<SCITEGIC>MOL_PROPERTY
W(PB)
SciTegic.value.DoubleValue
-56.046

@<SCITEGIC>MOL_PROPERTY
W(SA)
SciTegic.value.DoubleValue
1.907

@<SCITEGIC>MOL_PROPERTY
Valence
SciTegic.value.DoubleValue
1.257

@<SCITEGIC>MOL_PROPERTY
Coulomb
SciTegic.value.DoubleValue
69.240

@<SCITEGIC>MOL_PROPERTY
VdW
SciTegic.value.DoubleValue
-0.123

@<SCITEGIC>MOL_PROPERTY
VdW6
SciTegic.value.DoubleValue
-4.336

@<SCITEGIC>MOL_PROPERTY
VdW12
SciTegic.value.DoubleValue
4.213

@<SCITEGIC>MOL_PROPERTY
Bond
SciTegic.value.DoubleValue
0.128

@<SCITEGIC>MOL_PROPERTY
Angle
SciTegic.value.DoubleValue
0.603

@<SCITEGIC>MOL_PROPERTY
Pdih
SciTegic.value.DoubleValue
0.526

@<SCITEGIC>MOL_PROPERTY
Idih
SciTegic.value.DoubleValue
0.000

@<SCITEGIC>MOL_PROPERTY
Tether
SciTegic.value.DoubleValue
0.000

@<TRIPOS>MOLECULE
guest-s9_confgen4.mol2 : confsearch ligand conformer 715
          20          19           1
SMALL
USER_CHARGES
 
@<TRIPOS>ATOM
       1    C1      18.532546   17.006661   22.049963 C.3        1 MOL1        -0.2224
       2    H1      18.900710   16.158000   22.640979 H          1 MOL1         0.1052
       3    H2      17.516386   16.763708   21.713253 H          1 MOL1         0.1052
       4    H3      19.162939   17.101059   21.156825 H          1 MOL1         0.1052
       5    C2      18.530303   18.307012   22.886175 C.3        1 MOL1        -0.1209
       6    H4      17.816152   18.197588   23.714438 H          1 MOL1         0.1041
       7    H5      18.157862   19.139624   22.274083 H          1 MOL1         0.1041
       8    C3      19.921963   18.655373   23.470918 C.3        1 MOL1        -0.1274
       9    H6      19.845769   19.569937   24.073837 H          1 MOL1         0.1041
      10    H7      20.232827   17.859784   24.160968 H          1 MOL1         0.1041
      11    C4      21.022293   18.840544   22.405106 C.3        1 MOL1         0.0313
      12    H8      21.136824   17.918386   21.830412 H          1 MOL1         0.1015
      13    H9      21.973792   19.051672   22.899689 H          1 MOL1         0.1015
      14    N1      20.751007   19.969389   21.429034 N.4        1 MOL1        -0.4809
      15    H10     20.635623   20.859239   21.937709 H          1 MOL1         0.3726
      16    H11     19.854528   19.809764   20.945986 H          1 MOL1         0.3726
      17    C5      21.889129   20.071793   20.422696 C.3        1 MOL1        -0.0677
      18    H12     21.970549   19.130767   19.874425 H          1 MOL1         0.1026
      19    H13     21.680149   20.886829   19.726267 H          1 MOL1         0.1026
      20    H14     22.822120   20.271832   20.953994 H          1 MOL1         0.1026
@<TRIPOS>BOND
    1     1     2    1
    2     1     3    1
    3     1     4    1
    4     1     5    1
    5     5     6    1
    6     5     7    1
    7     5     8    1
    8     8     9    1
    9     8    10    1
   10     8    11    1
   11    11    12    1
   12    11    13    1
   13    11    14    1
   14    14    15    1
   15    14    16    1
   16    14    17    1
   17    17    18    1
   18    17    19    1
   19    17    20    1
@<TRIPOS>SUBSTRUCTURE
       1 MOL1            1 RESIDUE      1      MOL     
@<SCITEGIC>MOL_PROPERTY
VConf Rank
SciTegic.value.IntegerValue
715

@<SCITEGIC>MOL_PROPERTY
Conf_Id
SciTegic.value.IntegerValue
24

@<SCITEGIC>MOL_PROPERTY
Delta U+W
SciTegic.value.DoubleValue
0.792

@<SCITEGIC>MOL_PROPERTY
U+W
SciTegic.value.DoubleValue
16.130

@<SCITEGIC>MOL_PROPERTY
Grad RMS
SciTegic.value.DoubleValue
0.000000

@<SCITEGIC>MOL_PROPERTY
U
SciTegic.value.DoubleValue
70.374

@<SCITEGIC>MOL_PROPERTY
W
SciTegic.value.DoubleValue
-54.243

@<SCITEGIC>MOL_PROPERTY
W(PB)
SciTegic.value.DoubleValue
-56.130

@<SCITEGIC>MOL_PROPERTY
W(SA)
SciTegic.value.DoubleValue
1.887

@<SCITEGIC>MOL_PROPERTY
Valence
SciTegic.value.DoubleValue
1.257

@<SCITEGIC>MOL_PROPERTY
Coulomb
SciTegic.value.DoubleValue
69.240

@<SCITEGIC>MOL_PROPERTY
VdW
SciTegic.value.DoubleValue
-0.123

@<SCITEGIC>MOL_PROPERTY
VdW6
SciTegic.value.DoubleValue
-4.336

@<SCITEGIC>MOL_PROPERTY
VdW12
SciTegic.value.DoubleValue
4.213

@<SCITEGIC>MOL_PROPERTY
Bond
SciTegic.value.DoubleValue
0.128

@<SCITEGIC>MOL_PROPERTY
Angle
SciTegic.value.DoubleValue
0.603

@<SCITEGIC>MOL_PROPERTY
Pdih
SciTegic.value.DoubleValue
0.526

@<SCITEGIC>MOL_PROPERTY
Idih
SciTegic.value.DoubleValue
0.000

@<SCITEGIC>MOL_PROPERTY
Tether
SciTegic.value.DoubleValue
0.000

@<TRIPOS>MOLECULE
guest-s9_confgen4.mol2 : confsearch ligand conformer 716
          20          19           1
SMALL
USER_CHARGES
 
@<TRIPOS>ATOM
       1    C1      21.027144   16.944967   22.575195 C.3        1 MOL1        -0.2224
       2    H1      21.818309   16.237688   22.856328 H          1 MOL1         0.1052
       3    H2      20.993848   17.715352   23.354585 H          1 MOL1         0.1052
       4    H3      20.076149   16.396541   22.575711 H          1 MOL1         0.1052
       5    C2      21.323795   17.554714   21.186070 C.3        1 MOL1        -0.1209
       6    H4      21.557980   16.738776   20.487880 H          1 MOL1         0.1041
       7    H5      22.230332   18.173486   21.244530 H          1 MOL1         0.1041
       8    C3      20.161507   18.389125   20.589679 C.3        1 MOL1        -0.1274
       9    H6      20.457934   18.709624   19.582093 H          1 MOL1         0.1041
      10    H7      19.270157   17.761979   20.455936 H          1 MOL1         0.1041
      11    C4      19.801721   19.652837   21.399538 C.3        1 MOL1         0.0313
      12    H8      19.268811   20.352909   20.751116 H          1 MOL1         0.1015
      13    H9      20.715455   20.141274   21.747106 H          1 MOL1         0.1015
      14    N1      18.909110   19.394430   22.598483 N.4        1 MOL1        -0.4809
      15    H10     19.344557   18.696534   23.218116 H          1 MOL1         0.3726
      16    H11     18.018698   18.972610   22.293127 H          1 MOL1         0.3726
      17    C5      18.655160   20.694650   23.349050 C.3        1 MOL1        -0.0677
      18    H12     19.607908   21.105232   23.690315 H          1 MOL1         0.1026
      19    H13     18.164639   21.405701   22.680797 H          1 MOL1         0.1026
      20    H14     18.011875   20.493340   24.208485 H          1 MOL1         0.1026
@<TRIPOS>BOND
    1     1     2    1
    2     1     3    1
    3     1     4    1
    4     1     5    1
    5     5     6    1
    6     5     7    1
    7     5     8    1
    8     8     9    1
    9     8    10    1
   10     8    11    1
   11    11    12    1
   12    11    13    1
   13    11    14    1
   14    14    15    1
   15    14    16    1
   16    14    17    1
   17    17    18    1
   18    17    19    1
   19    17    20    1
@<TRIPOS>SUBSTRUCTURE
       1 MOL1            1 RESIDUE      1      MOL     
@<SCITEGIC>MOL_PROPERTY
VConf Rank
SciTegic.value.IntegerValue
716

@<SCITEGIC>MOL_PROPERTY
Conf_Id
SciTegic.value.IntegerValue
26

@<SCITEGIC>MOL_PROPERTY
Delta U+W
SciTegic.value.DoubleValue
2.888

@<SCITEGIC>MOL_PROPERTY
U+W
SciTegic.value.DoubleValue
18.226

@<SCITEGIC>MOL_PROPERTY
Grad RMS
SciTegic.value.DoubleValue
0.000000

@<SCITEGIC>MOL_PROPERTY
U
SciTegic.value.DoubleValue
72.042

@<SCITEGIC>MOL_PROPERTY
W
SciTegic.value.DoubleValue
-53.816

@<SCITEGIC>MOL_PROPERTY
W(PB)
SciTegic.value.DoubleValue
-55.689

@<SCITEGIC>MOL_PROPERTY
W(SA)
SciTegic.value.DoubleValue
1.873

@<SCITEGIC>MOL_PROPERTY
Valence
SciTegic.value.DoubleValue
2.428

@<SCITEGIC>MOL_PROPERTY
Coulomb
SciTegic.value.DoubleValue
69.829

@<SCITEGIC>MOL_PROPERTY
VdW
SciTegic.value.DoubleValue
-0.215

@<SCITEGIC>MOL_PROPERTY
VdW6
SciTegic.value.DoubleValue
-4.563

@<SCITEGIC>MOL_PROPERTY
VdW12
SciTegic.value.DoubleValue
4.348

@<SCITEGIC>MOL_PROPERTY
Bond
SciTegic.value.DoubleValue
0.137

@<SCITEGIC>MOL_PROPERTY
Angle
SciTegic.value.DoubleValue
0.936

@<SCITEGIC>MOL_PROPERTY
Pdih
SciTegic.value.DoubleValue
1.356

@<SCITEGIC>MOL_PROPERTY
Idih
SciTegic.value.DoubleValue
0.000

@<SCITEGIC>MOL_PROPERTY
Tether
SciTegic.value.DoubleValue
0.000

@<TRIPOS>MOLECULE
guest-s9_confgen4.mol2 : confsearch ligand conformer 717
          20          19           1
SMALL
USER_CHARGES
 
@<TRIPOS>ATOM
       1    C1      18.998916   20.075010   20.573724 C.3        1 MOL1        -0.2224
       2    H1      18.254838   20.393552   19.832038 H          1 MOL1         0.1052
       3    H2      19.771224   20.853549   20.624553 H          1 MOL1         0.1052
       4    H3      19.450926   19.149673   20.197573 H          1 MOL1         0.1052
       5    C2      18.325644   19.860315   21.948523 C.3        1 MOL1        -0.1209
       6    H4      17.628062   19.013247   21.885592 H          1 MOL1         0.1041
       7    H5      17.711803   20.742244   22.179751 H          1 MOL1         0.1041
       8    C3      19.315448   19.633692   23.119747 C.3        1 MOL1        -0.1274
       9    H6      19.970008   20.506882   23.241393 H          1 MOL1         0.1041
      10    H7      18.731422   19.563858   24.047030 H          1 MOL1         0.1041
      11    C4      20.163953   18.350024   22.999250 C.3        1 MOL1         0.0313
      12    H8      19.542972   17.530227   22.629657 H          1 MOL1         0.1015
      13    H9      20.536136   18.073664   23.989022 H          1 MOL1         0.1015
      14    N1      21.373682   18.482468   22.093702 N.4        1 MOL1        -0.4809
      15    H10     22.000554   19.222213   22.445573 H          1 MOL1         0.3726
      16    H11     21.080333   18.794594   21.157142 H          1 MOL1         0.3726
      17    C5      22.110258   17.152475   22.010132 C.3        1 MOL1        -0.0677
      18    H12     21.437646   16.393360   21.605033 H          1 MOL1         0.1026
      19    H13     22.977724   17.262981   21.355715 H          1 MOL1         0.1026
      20    H14     22.438396   16.859723   23.009825 H          1 MOL1         0.1026
@<TRIPOS>BOND
    1     1     2    1
    2     1     3    1
    3     1     4    1
    4     1     5    1
    5     5     6    1
    6     5     7    1
    7     5     8    1
    8     8     9    1
    9     8    10    1
   10     8    11    1
   11    11    12    1
   12    11    13    1
   13    11    14    1
   14    14    15    1
   15    14    16    1
   16    14    17    1
   17    17    18    1
   18    17    19    1
   19    17    20    1
@<TRIPOS>SUBSTRUCTURE
       1 MOL1            1 RESIDUE      1      MOL     
@<SCITEGIC>MOL_PROPERTY
VConf Rank
SciTegic.value.IntegerValue
717

@<SCITEGIC>MOL_PROPERTY
Conf_Id
SciTegic.value.IntegerValue
5

@<SCITEGIC>MOL_PROPERTY
Delta U+W
SciTegic.value.DoubleValue
2.950

@<SCITEGIC>MOL_PROPERTY
U+W
SciTegic.value.DoubleValue
18.289

@<SCITEGIC>MOL_PROPERTY
Grad RMS
SciTegic.value.DoubleValue
0.000000

@<SCITEGIC>MOL_PROPERTY
U
SciTegic.value.DoubleValue
72.042

@<SCITEGIC>MOL_PROPERTY
W
SciTegic.value.DoubleValue
-53.753

@<SCITEGIC>MOL_PROPERTY
W(PB)
SciTegic.value.DoubleValue
-55.644

@<SCITEGIC>MOL_PROPERTY
W(SA)
SciTegic.value.DoubleValue
1.891

@<SCITEGIC>MOL_PROPERTY
Valence
SciTegic.value.DoubleValue
2.428

@<SCITEGIC>MOL_PROPERTY
Coulomb
SciTegic.value.DoubleValue
69.829

@<SCITEGIC>MOL_PROPERTY
VdW
SciTegic.value.DoubleValue
-0.215

@<SCITEGIC>MOL_PROPERTY
VdW6
SciTegic.value.DoubleValue
-4.563

@<SCITEGIC>MOL_PROPERTY
VdW12
SciTegic.value.DoubleValue
4.348

@<SCITEGIC>MOL_PROPERTY
Bond
SciTegic.value.DoubleValue
0.137

@<SCITEGIC>MOL_PROPERTY
Angle
SciTegic.value.DoubleValue
0.936

@<SCITEGIC>MOL_PROPERTY
Pdih
SciTegic.value.DoubleValue
1.356

@<SCITEGIC>MOL_PROPERTY
Idih
SciTegic.value.DoubleValue
0.000

@<SCITEGIC>MOL_PROPERTY
Tether
SciTegic.value.DoubleValue
0.000

@<TRIPOS>MOLECULE
guest-s9_confgen4.mol2 : confsearch ligand conformer 718
          20          19           1
SMALL
USER_CHARGES
 
@<TRIPOS>ATOM
       1    C1      22.146212   17.656882   22.504973 C.3        1 MOL1        -0.2224
       2    H1      22.813158   17.576262   21.636790 H          1 MOL1         0.1052
       3    H2      22.248237   18.666522   22.922099 H          1 MOL1         0.1052
       4    H3      22.499440   16.947708   23.264755 H          1 MOL1         0.1052
       5    C2      20.683375   17.346925   22.112319 C.3        1 MOL1        -0.1209
       6    H4      20.036498   17.430036   22.996291 H          1 MOL1         0.1041
       7    H5      20.615695   16.299907   21.785111 H          1 MOL1         0.1041
       8    C3      20.152825   18.258961   20.978298 C.3        1 MOL1        -0.1274
       9    H6      20.751220   18.093763   20.072668 H          1 MOL1         0.1041
      10    H7      19.128202   17.961311   20.720805 H          1 MOL1         0.1041
      11    C4      20.181862   19.766624   21.318359 C.3        1 MOL1         0.0313
      12    H8      19.791492   20.339337   20.473356 H          1 MOL1         0.1015
      13    H9      21.217703   20.074750   21.480135 H          1 MOL1         0.1015
      14    N1      19.389869   20.167232   22.553504 N.4        1 MOL1        -0.4809
      15    H10     19.579817   21.155839   22.780729 H          1 MOL1         0.3726
      16    H11     19.721081   19.636245   23.372318 H          1 MOL1         0.3726
      17    C5      17.893964   19.961123   22.342774 C.3        1 MOL1        -0.0677
      18    H12     17.696218   18.902329   22.164329 H          1 MOL1         0.1026
      19    H13     17.358112   20.288631   23.236366 H          1 MOL1         0.1026
      20    H14     17.568004   20.549047   21.482117 H          1 MOL1         0.1026
@<TRIPOS>BOND
    1     1     2    1
    2     1     3    1
    3     1     4    1
    4     1     5    1
    5     5     6    1
    6     5     7    1
    7     5     8    1
    8     8     9    1
    9     8    10    1
   10     8    11    1
   11    11    12    1
   12    11    13    1
   13    11    14    1
   14    14    15    1
   15    14    16    1
   16    14    17    1
   17    17    18    1
   18    17    19    1
   19    17    20    1
@<TRIPOS>SUBSTRUCTURE
       1 MOL1            1 RESIDUE      1      MOL     
@<SCITEGIC>MOL_PROPERTY
VConf Rank
SciTegic.value.IntegerValue
718

@<SCITEGIC>MOL_PROPERTY
Conf_Id
SciTegic.value.IntegerValue
52

@<SCITEGIC>MOL_PROPERTY
Delta U+W
SciTegic.value.DoubleValue
0.784

@<SCITEGIC>MOL_PROPERTY
U+W
SciTegic.value.DoubleValue
16.122

@<SCITEGIC>MOL_PROPERTY
Grad RMS
SciTegic.value.DoubleValue
0.000000

@<SCITEGIC>MOL_PROPERTY
U
SciTegic.value.DoubleValue
70.777

@<SCITEGIC>MOL_PROPERTY
W
SciTegic.value.DoubleValue
-54.655

@<SCITEGIC>MOL_PROPERTY
W(PB)
SciTegic.value.DoubleValue
-56.491

@<SCITEGIC>MOL_PROPERTY
W(SA)
SciTegic.value.DoubleValue
1.836

@<SCITEGIC>MOL_PROPERTY
Valence
SciTegic.value.DoubleValue
1.529

@<SCITEGIC>MOL_PROPERTY
Coulomb
SciTegic.value.DoubleValue
69.166

@<SCITEGIC>MOL_PROPERTY
VdW
SciTegic.value.DoubleValue
0.082

@<SCITEGIC>MOL_PROPERTY
VdW6
SciTegic.value.DoubleValue
-5.166

@<SCITEGIC>MOL_PROPERTY
VdW12
SciTegic.value.DoubleValue
5.248

@<SCITEGIC>MOL_PROPERTY
Bond
SciTegic.value.DoubleValue
0.171

@<SCITEGIC>MOL_PROPERTY
Angle
SciTegic.value.DoubleValue
0.752

@<SCITEGIC>MOL_PROPERTY
Pdih
SciTegic.value.DoubleValue
0.605

@<SCITEGIC>MOL_PROPERTY
Idih
SciTegic.value.DoubleValue
0.000

@<SCITEGIC>MOL_PROPERTY
Tether
SciTegic.value.DoubleValue
0.000

@<TRIPOS>MOLECULE
guest-s9_confgen4.mol2 : confsearch ligand conformer 719
          20          19           1
SMALL
USER_CHARGES
 
@<TRIPOS>ATOM
       1    C1      20.936550   18.126970   20.295244 C.3        1 MOL1        -0.2224
       2    H1      21.238332   17.732210   19.316336 H          1 MOL1         0.1052
       3    H2      21.223812   19.184413   20.316398 H          1 MOL1         0.1052
       4    H3      21.508520   17.588146   21.061943 H          1 MOL1         0.1052
       5    C2      19.414937   17.946568   20.498991 C.3        1 MOL1        -0.1209
       6    H4      19.148481   16.912512   20.238695 H          1 MOL1         0.1041
       7    H5      18.870902   18.587311   19.790831 H          1 MOL1         0.1041
       8    C3      18.923114   18.226406   21.942122 C.3        1 MOL1        -0.1274
       9    H6      17.854927   17.976402   21.987530 H          1 MOL1         0.1041
      10    H7      19.416752   17.548436   22.649639 H          1 MOL1         0.1041
      11    C4      19.078485   19.694953   22.401230 C.3        1 MOL1         0.0313
      12    H8      18.425002   19.874711   23.258591 H          1 MOL1         0.1015
      13    H9      18.757338   20.356994   21.593124 H          1 MOL1         0.1015
      14    N1      20.480301   20.112388   22.817370 N.4        1 MOL1        -0.4809
      15    H10     20.519003   21.138627   22.919805 H          1 MOL1         0.3726
      16    H11     21.151722   19.889647   22.069425 H          1 MOL1         0.3726
      17    C5      20.889864   19.446528   24.126420 C.3        1 MOL1        -0.0677
      18    H12     20.170646   19.711197   24.904442 H          1 MOL1         0.1026
      19    H13     20.908664   18.363302   23.992681 H          1 MOL1         0.1026
      20    H14     21.884369   19.797569   24.410397 H          1 MOL1         0.1026
@<TRIPOS>BOND
    1     1     2    1
    2     1     3    1
    3     1     4    1
    4     1     5    1
    5     5     6    1
    6     5     7    1
    7     5     8    1
    8     8     9    1
    9     8    10    1
   10     8    11    1
   11    11    12    1
   12    11    13    1
   13    11    14    1
   14    14    15    1
   15    14    16    1
   16    14    17    1
   17    17    18    1
   18    17    19    1
   19    17    20    1
@<TRIPOS>SUBSTRUCTURE
       1 MOL1            1 RESIDUE      1      MOL     
@<SCITEGIC>MOL_PROPERTY
VConf Rank
SciTegic.value.IntegerValue
719

@<SCITEGIC>MOL_PROPERTY
Conf_Id
SciTegic.value.IntegerValue
55

@<SCITEGIC>MOL_PROPERTY
Delta U+W
SciTegic.value.DoubleValue
2.745

@<SCITEGIC>MOL_PROPERTY
U+W
SciTegic.value.DoubleValue
18.083

@<SCITEGIC>MOL_PROPERTY
Grad RMS
SciTegic.value.DoubleValue
0.000000

@<SCITEGIC>MOL_PROPERTY
U
SciTegic.value.DoubleValue
72.490

@<SCITEGIC>MOL_PROPERTY
W
SciTegic.value.DoubleValue
-54.407

@<SCITEGIC>MOL_PROPERTY
W(PB)
SciTegic.value.DoubleValue
-56.269

@<SCITEGIC>MOL_PROPERTY
W(SA)
SciTegic.value.DoubleValue
1.861

@<SCITEGIC>MOL_PROPERTY
Valence
SciTegic.value.DoubleValue
2.738

@<SCITEGIC>MOL_PROPERTY
Coulomb
SciTegic.value.DoubleValue
69.795

@<SCITEGIC>MOL_PROPERTY
VdW
SciTegic.value.DoubleValue
-0.043

@<SCITEGIC>MOL_PROPERTY
VdW6
SciTegic.value.DoubleValue
-5.333

@<SCITEGIC>MOL_PROPERTY
VdW12
SciTegic.value.DoubleValue
5.290

@<SCITEGIC>MOL_PROPERTY
Bond
SciTegic.value.DoubleValue
0.182

@<SCITEGIC>MOL_PROPERTY
Angle
SciTegic.value.DoubleValue
1.135

@<SCITEGIC>MOL_PROPERTY
Pdih
SciTegic.value.DoubleValue
1.422

@<SCITEGIC>MOL_PROPERTY
Idih
SciTegic.value.DoubleValue
0.000

@<SCITEGIC>MOL_PROPERTY
Tether
SciTegic.value.DoubleValue
0.000

@<TRIPOS>MOLECULE
guest-s9_confgen4.mol2 : confsearch ligand conformer 720
          20          19           1
SMALL
USER_CHARGES
 
@<TRIPOS>ATOM
       1    C1      21.761444   18.975881   23.097087 C.3        1 MOL1        -0.2224
       2    H1      22.638481   19.213406   23.713168 H          1 MOL1         0.1052
       3    H2      21.592930   17.892952   23.161709 H          1 MOL1         0.1052
       4    H3      22.017223   19.233816   22.063067 H          1 MOL1         0.1052
       5    C2      20.529313   19.766848   23.592664 C.3        1 MOL1        -0.1209
       6    H4      20.682822   20.839463   23.408412 H          1 MOL1         0.1041
       7    H5      20.458093   19.653739   24.683608 H          1 MOL1         0.1041
       8    C3      19.183875   19.316021   22.968657 C.3        1 MOL1        -0.1274
       9    H6      18.992909   18.260553   23.199789 H          1 MOL1         0.1041
      10    H7      18.379718   19.878034   23.461665 H          1 MOL1         0.1041
      11    C4      19.064016   19.567469   21.447485 C.3        1 MOL1         0.0313
      12    H8      19.446564   20.565633   21.219902 H          1 MOL1         0.1015
      13    H9      18.009734   19.541509   21.160713 H          1 MOL1         0.1015
      14    N1      19.790764   18.574241   20.554264 N.4        1 MOL1        -0.4809
      15    H10     20.778116   18.502075   20.836692 H          1 MOL1         0.3726
      16    H11     19.811008   18.930956   19.586016 H          1 MOL1         0.3726
      17    C5      19.118490   17.206143   20.587070 C.3        1 MOL1        -0.0677
      18    H12     19.157435   16.806471   21.602138 H          1 MOL1         0.1026
      19    H13     18.078771   17.309110   20.269232 H          1 MOL1         0.1026
      20    H14     19.645447   16.532335   19.907945 H          1 MOL1         0.1026
@<TRIPOS>BOND
    1     1     2    1
    2     1     3    1
    3     1     4    1
    4     1     5    1
    5     5     6    1
    6     5     7    1
    7     5     8    1
    8     8     9    1
    9     8    10    1
   10     8    11    1
   11    11    12    1
   12    11    13    1
   13    11    14    1
   14    14    15    1
   15    14    16    1
   16    14    17    1
   17    17    18    1
   18    17    19    1
   19    17    20    1
@<TRIPOS>SUBSTRUCTURE
       1 MOL1            1 RESIDUE      1      MOL     
@<SCITEGIC>MOL_PROPERTY
VConf Rank
SciTegic.value.IntegerValue
720

@<SCITEGIC>MOL_PROPERTY
Conf_Id
SciTegic.value.IntegerValue
76

@<SCITEGIC>MOL_PROPERTY
Delta U+W
SciTegic.value.DoubleValue
2.799

@<SCITEGIC>MOL_PROPERTY
U+W
SciTegic.value.DoubleValue
18.137

@<SCITEGIC>MOL_PROPERTY
Grad RMS
SciTegic.value.DoubleValue
0.000000

@<SCITEGIC>MOL_PROPERTY
U
SciTegic.value.DoubleValue
72.490

@<SCITEGIC>MOL_PROPERTY
W
SciTegic.value.DoubleValue
-54.353

@<SCITEGIC>MOL_PROPERTY
W(PB)
SciTegic.value.DoubleValue
-56.201

@<SCITEGIC>MOL_PROPERTY
W(SA)
SciTegic.value.DoubleValue
1.848

@<SCITEGIC>MOL_PROPERTY
Valence
SciTegic.value.DoubleValue
2.738

@<SCITEGIC>MOL_PROPERTY
Coulomb
SciTegic.value.DoubleValue
69.795

@<SCITEGIC>MOL_PROPERTY
VdW
SciTegic.value.DoubleValue
-0.043

@<SCITEGIC>MOL_PROPERTY
VdW6
SciTegic.value.DoubleValue
-5.334

@<SCITEGIC>MOL_PROPERTY
VdW12
SciTegic.value.DoubleValue
5.290

@<SCITEGIC>MOL_PROPERTY
Bond
SciTegic.value.DoubleValue
0.182

@<SCITEGIC>MOL_PROPERTY
Angle
SciTegic.value.DoubleValue
1.135

@<SCITEGIC>MOL_PROPERTY
Pdih
SciTegic.value.DoubleValue
1.421

@<SCITEGIC>MOL_PROPERTY
Idih
SciTegic.value.DoubleValue
0.000

@<SCITEGIC>MOL_PROPERTY
Tether
SciTegic.value.DoubleValue
0.000

@<TRIPOS>MOLECULE
guest-s9_confgen4.mol2 : confsearch ligand conformer 721
          20          19           1
SMALL
USER_CHARGES
 
@<TRIPOS>ATOM
       1    C1      19.400250   18.246658   23.971175 C.3        1 MOL1        -0.2224
       2    H1      19.154292   19.258732   23.627282 H          1 MOL1         0.1052
       3    H2      18.466662   17.673212   24.038433 H          1 MOL1         0.1052
       4    H3      19.813889   18.332105   24.984313 H          1 MOL1         0.1052
       5    C2      20.410918   17.552356   23.029339 C.3        1 MOL1        -0.1209
       6    H4      20.677768   16.574963   23.455164 H          1 MOL1         0.1041
       7    H5      21.346305   18.125336   22.990522 H          1 MOL1         0.1041
       8    C3      19.858231   17.335058   21.599386 C.3        1 MOL1        -0.1274
       9    H6      20.605923   16.801452   20.998031 H          1 MOL1         0.1041
      10    H7      18.987789   16.668261   21.657343 H          1 MOL1         0.1041
      11    C4      19.432238   18.620360   20.851584 C.3        1 MOL1         0.0313
      12    H8      18.693738   19.176567   21.433664 H          1 MOL1         0.1015
      13    H9      18.954918   18.319116   19.915590 H          1 MOL1         0.1015
      14    N1      20.562134   19.567109   20.474827 N.4        1 MOL1        -0.4809
      15    H10     20.317743   20.055306   19.599192 H          1 MOL1         0.3726
      16    H11     21.416012   19.035366   20.249470 H          1 MOL1         0.3726
      17    C5      20.821725   20.599212   21.566900 C.3        1 MOL1        -0.0677
      18    H12     21.617100   21.272456   21.239718 H          1 MOL1         0.1026
      19    H13     19.908001   21.170506   21.743885 H          1 MOL1         0.1026
      20    H14     21.124335   20.095963   22.485697 H          1 MOL1         0.1026
@<TRIPOS>BOND
    1     1     2    1
    2     1     3    1
    3     1     4    1
    4     1     5    1
    5     5     6    1
    6     5     7    1
    7     5     8    1
    8     8     9    1
    9     8    10    1
   10     8    11    1
   11    11    12    1
   12    11    13    1
   13    11    14    1
   14    14    15    1
   15    14    16    1
   16    14    17    1
   17    17    18    1
   18    17    19    1
   19    17    20    1
@<TRIPOS>SUBSTRUCTURE
       1 MOL1            1 RESIDUE      1      MOL     
@<SCITEGIC>MOL_PROPERTY
VConf Rank
SciTegic.value.IntegerValue
721

@<SCITEGIC>MOL_PROPERTY
Conf_Id
SciTegic.value.IntegerValue
60

@<SCITEGIC>MOL_PROPERTY
Delta U+W
SciTegic.value.DoubleValue
1.788

@<SCITEGIC>MOL_PROPERTY
U+W
SciTegic.value.DoubleValue
17.127

@<SCITEGIC>MOL_PROPERTY
Grad RMS
SciTegic.value.DoubleValue
0.000000

@<SCITEGIC>MOL_PROPERTY
U
SciTegic.value.DoubleValue
72.122

@<SCITEGIC>MOL_PROPERTY
W
SciTegic.value.DoubleValue
-54.995

@<SCITEGIC>MOL_PROPERTY
W(PB)
SciTegic.value.DoubleValue
-56.810

@<SCITEGIC>MOL_PROPERTY
W(SA)
SciTegic.value.DoubleValue
1.815

@<SCITEGIC>MOL_PROPERTY
Valence
SciTegic.value.DoubleValue
3.197

@<SCITEGIC>MOL_PROPERTY
Coulomb
SciTegic.value.DoubleValue
69.115

@<SCITEGIC>MOL_PROPERTY
VdW
SciTegic.value.DoubleValue
-0.190

@<SCITEGIC>MOL_PROPERTY
VdW6
SciTegic.value.DoubleValue
-5.585

@<SCITEGIC>MOL_PROPERTY
VdW12
SciTegic.value.DoubleValue
5.395

@<SCITEGIC>MOL_PROPERTY
Bond
SciTegic.value.DoubleValue
0.177

@<SCITEGIC>MOL_PROPERTY
Angle
SciTegic.value.DoubleValue
1.207

@<SCITEGIC>MOL_PROPERTY
Pdih
SciTegic.value.DoubleValue
1.813

@<SCITEGIC>MOL_PROPERTY
Idih
SciTegic.value.DoubleValue
0.000

@<SCITEGIC>MOL_PROPERTY
Tether
SciTegic.value.DoubleValue
0.000

@<TRIPOS>MOLECULE
guest-s9_confgen4.mol2 : confsearch ligand conformer 722
          20          19           1
SMALL
USER_CHARGES
 
@<TRIPOS>ATOM
       1    C1      21.891830   18.278665   20.868334 C.3        1 MOL1        -0.2224
       2    H1      22.171285   18.293092   19.806947 H          1 MOL1         0.1052
       3    H2      22.794258   18.046513   21.448576 H          1 MOL1         0.1052
       4    H3      21.175246   17.460647   21.011178 H          1 MOL1         0.1052
       5    C2      21.296029   19.641349   21.291032 C.3        1 MOL1        -0.1209
       6    H4      20.408451   19.869322   20.686883 H          1 MOL1         0.1041
       7    H5      22.023743   20.432302   21.061555 H          1 MOL1         0.1041
       8    C3      20.948190   19.710868   22.798223 C.3        1 MOL1        -0.1274
       9    H6      21.873004   19.589620   23.377587 H          1 MOL1         0.1041
      10    H7      20.572486   20.714115   23.038534 H          1 MOL1         0.1041
      11    C4      19.928303   18.657831   23.291803 C.3        1 MOL1         0.0313
      12    H8      19.865047   18.739041   24.379953 H          1 MOL1         0.1015
      13    H9      20.273938   17.648509   23.056495 H          1 MOL1         0.1015
      14    N1      18.510344   18.817629   22.763790 N.4        1 MOL1        -0.4809
      15    H10     18.282711   19.815694   22.642565 H          1 MOL1         0.3726
      16    H11     17.843474   18.480494   23.475426 H          1 MOL1         0.3726
      17    C5      18.298190   18.037806   21.470689 C.3        1 MOL1        -0.0677
      18    H12     18.505260   16.981003   21.652016 H          1 MOL1         0.1026
      19    H13     17.261780   18.157841   21.147624 H          1 MOL1         0.1026
      20    H14     18.967711   18.416165   20.697639 H          1 MOL1         0.1026
@<TRIPOS>BOND
    1     1     2    1
    2     1     3    1
    3     1     4    1
    4     1     5    1
    5     5     6    1
    6     5     7    1
    7     5     8    1
    8     8     9    1
    9     8    10    1
   10     8    11    1
   11    11    12    1
   12    11    13    1
   13    11    14    1
   14    14    15    1
   15    14    16    1
   16    14    17    1
   17    17    18    1
   18    17    19    1
   19    17    20    1
@<TRIPOS>SUBSTRUCTURE
       1 MOL1            1 RESIDUE      1      MOL     
@<SCITEGIC>MOL_PROPERTY
VConf Rank
SciTegic.value.IntegerValue
722

@<SCITEGIC>MOL_PROPERTY
Conf_Id
SciTegic.value.IntegerValue
54

@<SCITEGIC>MOL_PROPERTY
Delta U+W
SciTegic.value.DoubleValue
1.880

@<SCITEGIC>MOL_PROPERTY
U+W
SciTegic.value.DoubleValue
17.218

@<SCITEGIC>MOL_PROPERTY
Grad RMS
SciTegic.value.DoubleValue
0.000000

@<SCITEGIC>MOL_PROPERTY
U
SciTegic.value.DoubleValue
72.122

@<SCITEGIC>MOL_PROPERTY
W
SciTegic.value.DoubleValue
-54.903

@<SCITEGIC>MOL_PROPERTY
W(PB)
SciTegic.value.DoubleValue
-56.724

@<SCITEGIC>MOL_PROPERTY
W(SA)
SciTegic.value.DoubleValue
1.821

@<SCITEGIC>MOL_PROPERTY
Valence
SciTegic.value.DoubleValue
3.197

@<SCITEGIC>MOL_PROPERTY
Coulomb
SciTegic.value.DoubleValue
69.115

@<SCITEGIC>MOL_PROPERTY
VdW
SciTegic.value.DoubleValue
-0.190

@<SCITEGIC>MOL_PROPERTY
VdW6
SciTegic.value.DoubleValue
-5.585

@<SCITEGIC>MOL_PROPERTY
VdW12
SciTegic.value.DoubleValue
5.395

@<SCITEGIC>MOL_PROPERTY
Bond
SciTegic.value.DoubleValue
0.177

@<SCITEGIC>MOL_PROPERTY
Angle
SciTegic.value.DoubleValue
1.207

@<SCITEGIC>MOL_PROPERTY
Pdih
SciTegic.value.DoubleValue
1.813

@<SCITEGIC>MOL_PROPERTY
Idih
SciTegic.value.DoubleValue
0.000

@<SCITEGIC>MOL_PROPERTY
Tether
SciTegic.value.DoubleValue
0.000

@<TRIPOS>MOLECULE
guest-s9_confgen4.mol2 : confsearch ligand conformer 723
          20          19           1
SMALL
USER_CHARGES
 
@<TRIPOS>ATOM
       1    C1      16.978272   19.585704   22.553792 C.3        1 MOL1        -0.2224
       2    H1      16.755250   19.979888   21.553763 H          1 MOL1         0.1052
       3    H2      16.082698   19.065245   22.917240 H          1 MOL1         0.1052
       4    H3      17.167031   20.436162   23.221824 H          1 MOL1         0.1052
       5    C2      18.188779   18.627815   22.516984 C.3        1 MOL1        -0.1209
       6    H4      17.956637   17.770801   21.868918 H          1 MOL1         0.1041
       7    H5      18.365232   18.223563   23.523858 H          1 MOL1         0.1041
       8    C3      19.464993   19.333988   22.008694 C.3        1 MOL1        -0.1274
       9    H6      19.289017   19.734485   21.001421 H          1 MOL1         0.1041
      10    H7      19.698095   20.187976   22.658566 H          1 MOL1         0.1041
      11    C4      20.667410   18.372406   21.975024 C.3        1 MOL1         0.0313
      12    H8      20.444647   17.528888   21.316737 H          1 MOL1         0.1015
      13    H9      20.855127   17.983976   22.979202 H          1 MOL1         0.1015
      14    N1      21.944915   19.022900   21.481522 N.4        1 MOL1        -0.4809
      15    H10     22.185562   19.831700   22.074892 H          1 MOL1         0.3726
      16    H11     21.805524   19.410293   20.535662 H          1 MOL1         0.3726
      17    C5      23.078708   18.006196   21.479934 C.3        1 MOL1        -0.0677
      18    H12     22.817324   17.176625   20.819405 H          1 MOL1         0.1026
      19    H13     23.991760   18.487547   21.122656 H          1 MOL1         0.1026
      20    H14     23.231334   17.635691   22.495926 H          1 MOL1         0.1026
@<TRIPOS>BOND
    1     1     2    1
    2     1     3    1
    3     1     4    1
    4     1     5    1
    5     5     6    1
    6     5     7    1
    7     5     8    1
    8     8     9    1
    9     8    10    1
   10     8    11    1
   11    11    12    1
   12    11    13    1
   13    11    14    1
   14    14    15    1
   15    14    16    1
   16    14    17    1
   17    17    18    1
   18    17    19    1
   19    17    20    1
@<TRIPOS>SUBSTRUCTURE
       1 MOL1            1 RESIDUE      1      MOL     
@<SCITEGIC>MOL_PROPERTY
VConf Rank
SciTegic.value.IntegerValue
723

@<SCITEGIC>MOL_PROPERTY
Conf_Id
SciTegic.value.IntegerValue
67

@<SCITEGIC>MOL_PROPERTY
Delta U+W
SciTegic.value.DoubleValue
0.000

@<SCITEGIC>MOL_PROPERTY
U+W
SciTegic.value.DoubleValue
15.338

@<SCITEGIC>MOL_PROPERTY
Grad RMS
SciTegic.value.DoubleValue
0.000000

@<SCITEGIC>MOL_PROPERTY
U
SciTegic.value.DoubleValue
69.277

@<SCITEGIC>MOL_PROPERTY
W
SciTegic.value.DoubleValue
-53.939

@<SCITEGIC>MOL_PROPERTY
W(PB)
SciTegic.value.DoubleValue
-55.889

@<SCITEGIC>MOL_PROPERTY
W(SA)
SciTegic.value.DoubleValue
1.950

@<SCITEGIC>MOL_PROPERTY
Valence
SciTegic.value.DoubleValue
0.846

@<SCITEGIC>MOL_PROPERTY
Coulomb
SciTegic.value.DoubleValue
68.557

@<SCITEGIC>MOL_PROPERTY
VdW
SciTegic.value.DoubleValue
-0.127

@<SCITEGIC>MOL_PROPERTY
VdW6
SciTegic.value.DoubleValue
-3.008

@<SCITEGIC>MOL_PROPERTY
VdW12
SciTegic.value.DoubleValue
2.882

@<SCITEGIC>MOL_PROPERTY
Bond
SciTegic.value.DoubleValue
0.088

@<SCITEGIC>MOL_PROPERTY
Angle
SciTegic.value.DoubleValue
0.332

@<SCITEGIC>MOL_PROPERTY
Pdih
SciTegic.value.DoubleValue
0.426

@<SCITEGIC>MOL_PROPERTY
Idih
SciTegic.value.DoubleValue
0.000

@<SCITEGIC>MOL_PROPERTY
Tether
SciTegic.value.DoubleValue
0.000

@<TRIPOS>MOLECULE
guest-s9_confgen4.mol2 : confsearch ligand conformer 724
          20          19           1
SMALL
USER_CHARGES
 
@<TRIPOS>ATOM
       1    C1      20.719350   20.697655   19.681248 C.3        1 MOL1        -0.2224
       2    H1      20.339216   19.945730   18.977490 H          1 MOL1         0.1052
       3    H2      20.484748   21.689175   19.272751 H          1 MOL1         0.1052
       4    H3      21.812114   20.602391   19.725522 H          1 MOL1         0.1052
       5    C2      20.088404   20.520337   21.079367 C.3        1 MOL1        -0.1209
       6    H4      18.999757   20.655039   21.008460 H          1 MOL1         0.1041
       7    H5      20.460906   21.307235   21.750442 H          1 MOL1         0.1041
       8    C3      20.402636   19.132372   21.679787 C.3        1 MOL1        -0.1274
       9    H6      20.029057   18.350119   21.006532 H          1 MOL1         0.1041
      10    H7      21.490113   19.000246   21.754343 H          1 MOL1         0.1041
      11    C4      19.769518   18.965427   23.076664 C.3        1 MOL1         0.0313
      12    H8      18.682167   19.047302   23.003540 H          1 MOL1         0.1015
      13    H9      20.126055   19.769194   23.725909 H          1 MOL1         0.1015
      14    N1      20.094842   17.650246   23.766029 N.4        1 MOL1        -0.4809
      15    H10     19.776030   17.686766   24.747004 H          1 MOL1         0.3726
      16    H11     21.116374   17.520890   23.825319 H          1 MOL1         0.3726
      17    C5      19.439033   16.472771   23.052599 C.3        1 MOL1        -0.0677
      18    H12     19.830956   16.400446   22.036207 H          1 MOL1         0.1026
      19    H13     19.664363   15.553676   23.598001 H          1 MOL1         0.1026
      20    H14     18.358295   16.627130   23.022847 H          1 MOL1         0.1026
@<TRIPOS>BOND
    1     1     2    1
    2     1     3    1
    3     1     4    1
    4     1     5    1
    5     5     6    1
    6     5     7    1
    7     5     8    1
    8     8     9    1
    9     8    10    1
   10     8    11    1
   11    11    12    1
   12    11    13    1
   13    11    14    1
   14    14    15    1
   15    14    16    1
   16    14    17    1
   17    17    18    1
   18    17    19    1
   19    17    20    1
@<TRIPOS>SUBSTRUCTURE
       1 MOL1            1 RESIDUE      1      MOL     
@<SCITEGIC>MOL_PROPERTY
VConf Rank
SciTegic.value.IntegerValue
724

@<SCITEGIC>MOL_PROPERTY
Conf_Id
SciTegic.value.IntegerValue
37

@<SCITEGIC>MOL_PROPERTY
Delta U+W
SciTegic.value.DoubleValue
-0.021

@<SCITEGIC>MOL_PROPERTY
U+W
SciTegic.value.DoubleValue
15.318

@<SCITEGIC>MOL_PROPERTY
Grad RMS
SciTegic.value.DoubleValue
0.000000

@<SCITEGIC>MOL_PROPERTY
U
SciTegic.value.DoubleValue
69.657

@<SCITEGIC>MOL_PROPERTY
W
SciTegic.value.DoubleValue
-54.340

@<SCITEGIC>MOL_PROPERTY
W(PB)
SciTegic.value.DoubleValue
-56.238

@<SCITEGIC>MOL_PROPERTY
W(SA)
SciTegic.value.DoubleValue
1.899

@<SCITEGIC>MOL_PROPERTY
Valence
SciTegic.value.DoubleValue
1.137

@<SCITEGIC>MOL_PROPERTY
Coulomb
SciTegic.value.DoubleValue
68.383

@<SCITEGIC>MOL_PROPERTY
VdW
SciTegic.value.DoubleValue
0.138

@<SCITEGIC>MOL_PROPERTY
VdW6
SciTegic.value.DoubleValue
-3.703

@<SCITEGIC>MOL_PROPERTY
VdW12
SciTegic.value.DoubleValue
3.841

@<SCITEGIC>MOL_PROPERTY
Bond
SciTegic.value.DoubleValue
0.125

@<SCITEGIC>MOL_PROPERTY
Angle
SciTegic.value.DoubleValue
0.468

@<SCITEGIC>MOL_PROPERTY
Pdih
SciTegic.value.DoubleValue
0.543

@<SCITEGIC>MOL_PROPERTY
Idih
SciTegic.value.DoubleValue
0.000

@<SCITEGIC>MOL_PROPERTY
Tether
SciTegic.value.DoubleValue
0.000

@<TRIPOS>MOLECULE
guest-s9_confgen4.mol2 : confsearch ligand conformer 725
          20          19           1
SMALL
USER_CHARGES
 
@<TRIPOS>ATOM
       1    C1      20.998191   16.078276   21.155758 C.3        1 MOL1        -0.2224
       2    H1      20.704174   15.181526   20.595032 H          1 MOL1         0.1052
       3    H2      21.835948   16.547628   20.623742 H          1 MOL1         0.1052
       4    H3      21.357562   15.755428   22.141552 H          1 MOL1         0.1052
       5    C2      19.807978   17.052860   21.289351 C.3        1 MOL1        -0.1209
       6    H4      18.974284   16.543971   21.793629 H          1 MOL1         0.1041
       7    H5      19.449211   17.330530   20.288096 H          1 MOL1         0.1041
       8    C3      20.192861   18.325585   22.075306 C.3        1 MOL1        -0.1274
       9    H6      20.547049   18.047770   23.076801 H          1 MOL1         0.1041
      10    H7      21.025375   18.830164   21.568280 H          1 MOL1         0.1041
      11    C4      18.997301   19.291944   22.204747 C.3        1 MOL1         0.0313
      12    H8      18.166490   18.766167   22.682228 H          1 MOL1         0.1015
      13    H9      18.669291   19.611601   21.212472 H          1 MOL1         0.1015
      14    N1      19.276879   20.537879   23.029515 N.4        1 MOL1        -0.4809
      15    H10     19.620880   20.276757   23.966133 H          1 MOL1         0.3726
      16    H11     18.393124   21.041717   23.203904 H          1 MOL1         0.3726
      17    C5      20.267017   21.459084   22.324871 C.3        1 MOL1        -0.0677
      18    H12     19.867912   21.734705   21.346375 H          1 MOL1         0.1026
      19    H13     20.412136   22.357292   22.929135 H          1 MOL1         0.1026
      20    H14     21.220729   20.941782   22.203541 H          1 MOL1         0.1026
@<TRIPOS>BOND
    1     1     2    1
    2     1     3    1
    3     1     4    1
    4     1     5    1
    5     5     6    1
    6     5     7    1
    7     5     8    1
    8     8     9    1
    9     8    10    1
   10     8    11    1
   11    11    12    1
   12    11    13    1
   13    11    14    1
   14    14    15    1
   15    14    16    1
   16    14    17    1
   17    17    18    1
   18    17    19    1
   19    17    20    1
@<TRIPOS>SUBSTRUCTURE
       1 MOL1            1 RESIDUE      1      MOL     
@<SCITEGIC>MOL_PROPERTY
VConf Rank
SciTegic.value.IntegerValue
725

@<SCITEGIC>MOL_PROPERTY
Conf_Id
SciTegic.value.IntegerValue
2

@<SCITEGIC>MOL_PROPERTY
Delta U+W
SciTegic.value.DoubleValue
0.069

@<SCITEGIC>MOL_PROPERTY
U+W
SciTegic.value.DoubleValue
15.407

@<SCITEGIC>MOL_PROPERTY
Grad RMS
SciTegic.value.DoubleValue
0.000000

@<SCITEGIC>MOL_PROPERTY
U
SciTegic.value.DoubleValue
69.657

@<SCITEGIC>MOL_PROPERTY
W
SciTegic.value.DoubleValue
-54.250

@<SCITEGIC>MOL_PROPERTY
W(PB)
SciTegic.value.DoubleValue
-56.176

@<SCITEGIC>MOL_PROPERTY
W(SA)
SciTegic.value.DoubleValue
1.926

@<SCITEGIC>MOL_PROPERTY
Valence
SciTegic.value.DoubleValue
1.137

@<SCITEGIC>MOL_PROPERTY
Coulomb
SciTegic.value.DoubleValue
68.383

@<SCITEGIC>MOL_PROPERTY
VdW
SciTegic.value.DoubleValue
0.138

@<SCITEGIC>MOL_PROPERTY
VdW6
SciTegic.value.DoubleValue
-3.703

@<SCITEGIC>MOL_PROPERTY
VdW12
SciTegic.value.DoubleValue
3.841

@<SCITEGIC>MOL_PROPERTY
Bond
SciTegic.value.DoubleValue
0.125

@<SCITEGIC>MOL_PROPERTY
Angle
SciTegic.value.DoubleValue
0.468

@<SCITEGIC>MOL_PROPERTY
Pdih
SciTegic.value.DoubleValue
0.543

@<SCITEGIC>MOL_PROPERTY
Idih
SciTegic.value.DoubleValue
0.000

@<SCITEGIC>MOL_PROPERTY
Tether
SciTegic.value.DoubleValue
0.000

@<TRIPOS>MOLECULE
guest-s9_confgen4.mol2 : confsearch ligand conformer 726
          20          19           1
SMALL
USER_CHARGES
 
@<TRIPOS>ATOM
       1    C1      20.840351   20.099480   19.873276 C.3        1 MOL1        -0.2224
       2    H1      19.772784   19.854842   19.806079 H          1 MOL1         0.1052
       3    H2      20.938790   21.070128   20.376518 H          1 MOL1         0.1052
       4    H3      21.218284   20.213926   18.849040 H          1 MOL1         0.1052
       5    C2      21.629466   19.001315   20.622689 C.3        1 MOL1        -0.1209
       6    H4      22.701457   19.240863   20.584388 H          1 MOL1         0.1041
       7    H5      21.509281   18.040440   20.102611 H          1 MOL1         0.1041
       8    C3      21.200850   18.850905   22.101149 C.3        1 MOL1        -0.1274
       9    H6      21.851688   18.112819   22.588486 H          1 MOL1         0.1041
      10    H7      21.354567   19.802316   22.627507 H          1 MOL1         0.1041
      11    C4      19.732541   18.407406   22.251553 C.3        1 MOL1         0.0313
      12    H8      19.580330   17.459326   21.729682 H          1 MOL1         0.1015
      13    H9      19.074054   19.155679   21.804061 H          1 MOL1         0.1015
      14    N1      19.305517   18.218849   23.693971 N.4        1 MOL1        -0.4809
      15    H10     19.443718   19.093019   24.223891 H          1 MOL1         0.3726
      16    H11     19.908628   17.521224   24.156226 H          1 MOL1         0.3726
      17    C5      17.846916   17.784942   23.751400 C.3        1 MOL1        -0.0677
      18    H12     17.730707   16.841302   23.213959 H          1 MOL1         0.1026
      19    H13     17.552753   17.652804   24.794958 H          1 MOL1         0.1026
      20    H14     17.224298   18.553313   23.287988 H          1 MOL1         0.1026
@<TRIPOS>BOND
    1     1     2    1
    2     1     3    1
    3     1     4    1
    4     1     5    1
    5     5     6    1
    6     5     7    1
    7     5     8    1
    8     8     9    1
    9     8    10    1
   10     8    11    1
   11    11    12    1
   12    11    13    1
   13    11    14    1
   14    14    15    1
   15    14    16    1
   16    14    17    1
   17    17    18    1
   18    17    19    1
   19    17    20    1
@<TRIPOS>SUBSTRUCTURE
       1 MOL1            1 RESIDUE      1      MOL     
@<SCITEGIC>MOL_PROPERTY
VConf Rank
SciTegic.value.IntegerValue
726

@<SCITEGIC>MOL_PROPERTY
Conf_Id
SciTegic.value.IntegerValue
34

@<SCITEGIC>MOL_PROPERTY
Delta U+W
SciTegic.value.DoubleValue
0.276

@<SCITEGIC>MOL_PROPERTY
U+W
SciTegic.value.DoubleValue
15.615

@<SCITEGIC>MOL_PROPERTY
Grad RMS
SciTegic.value.DoubleValue
0.000000

@<SCITEGIC>MOL_PROPERTY
U
SciTegic.value.DoubleValue
69.798

@<SCITEGIC>MOL_PROPERTY
W
SciTegic.value.DoubleValue
-54.184

@<SCITEGIC>MOL_PROPERTY
W(PB)
SciTegic.value.DoubleValue
-56.116

@<SCITEGIC>MOL_PROPERTY
W(SA)
SciTegic.value.DoubleValue
1.933

@<SCITEGIC>MOL_PROPERTY
Valence
SciTegic.value.DoubleValue
1.134

@<SCITEGIC>MOL_PROPERTY
Coulomb
SciTegic.value.DoubleValue
68.735

@<SCITEGIC>MOL_PROPERTY
VdW
SciTegic.value.DoubleValue
-0.070

@<SCITEGIC>MOL_PROPERTY
VdW6
SciTegic.value.DoubleValue
-3.565

@<SCITEGIC>MOL_PROPERTY
VdW12
SciTegic.value.DoubleValue
3.494

@<SCITEGIC>MOL_PROPERTY
Bond
SciTegic.value.DoubleValue
0.108

@<SCITEGIC>MOL_PROPERTY
Angle
SciTegic.value.DoubleValue
0.456

@<SCITEGIC>MOL_PROPERTY
Pdih
SciTegic.value.DoubleValue
0.569

@<SCITEGIC>MOL_PROPERTY
Idih
SciTegic.value.DoubleValue
0.000

@<SCITEGIC>MOL_PROPERTY
Tether
SciTegic.value.DoubleValue
0.000

@<TRIPOS>MOLECULE
guest-s9_confgen4.mol2 : confsearch ligand conformer 727
          20          19           1
SMALL
USER_CHARGES
 
@<TRIPOS>ATOM
       1    C1      18.968911   17.506624   24.539797 C.3        1 MOL1        -0.2224
       2    H1      19.656438   16.708011   24.847521 H          1 MOL1         0.1052
       3    H2      18.660620   18.050470   25.442135 H          1 MOL1         0.1052
       4    H3      18.074725   17.039431   24.106965 H          1 MOL1         0.1052
       5    C2      19.641369   18.461721   23.530037 C.3        1 MOL1        -0.1209
       6    H4      20.512747   18.936640   24.002770 H          1 MOL1         0.1041
       7    H5      18.939516   19.267809   23.276815 H          1 MOL1         0.1041
       8    C3      20.085152   17.718860   22.247696 C.3        1 MOL1        -0.1274
       9    H6      20.754820   16.892470   22.520654 H          1 MOL1         0.1041
      10    H7      19.215065   17.265356   21.754605 H          1 MOL1         0.1041
      11    C4      20.823438   18.634777   21.250916 C.3        1 MOL1         0.0313
      12    H8      21.188110   18.036180   20.412277 H          1 MOL1         0.1015
      13    H9      21.685754   19.092623   21.742060 H          1 MOL1         0.1015
      14    N1      19.964285   19.746936   20.679213 N.4        1 MOL1        -0.4809
      15    H10     19.598973   20.340163   21.438873 H          1 MOL1         0.3726
      16    H11     19.132433   19.350804   20.215372 H          1 MOL1         0.3726
      17    C5      20.777699   20.579452   19.697320 C.3        1 MOL1        -0.0677
      18    H12     21.633541   21.015068   20.217476 H          1 MOL1         0.1026
      19    H13     21.126340   19.938461   18.884690 H          1 MOL1         0.1026
      20    H14     20.147914   21.375440   19.293880 H          1 MOL1         0.1026
@<TRIPOS>BOND
    1     1     2    1
    2     1     3    1
    3     1     4    1
    4     1     5    1
    5     5     6    1
    6     5     7    1
    7     5     8    1
    8     8     9    1
    9     8    10    1
   10     8    11    1
   11    11    12    1
   12    11    13    1
   13    11    14    1
   14    14    15    1
   15    14    16    1
   16    14    17    1
   17    17    18    1
   18    17    19    1
   19    17    20    1
@<TRIPOS>SUBSTRUCTURE
       1 MOL1            1 RESIDUE      1      MOL     
@<SCITEGIC>MOL_PROPERTY
VConf Rank
SciTegic.value.IntegerValue
727

@<SCITEGIC>MOL_PROPERTY
Conf_Id
SciTegic.value.IntegerValue
50

@<SCITEGIC>MOL_PROPERTY
Delta U+W
SciTegic.value.DoubleValue
0.319

@<SCITEGIC>MOL_PROPERTY
U+W
SciTegic.value.DoubleValue
15.657

@<SCITEGIC>MOL_PROPERTY
Grad RMS
SciTegic.value.DoubleValue
0.000000

@<SCITEGIC>MOL_PROPERTY
U
SciTegic.value.DoubleValue
69.962

@<SCITEGIC>MOL_PROPERTY
W
SciTegic.value.DoubleValue
-54.305

@<SCITEGIC>MOL_PROPERTY
W(PB)
SciTegic.value.DoubleValue
-56.223

@<SCITEGIC>MOL_PROPERTY
W(SA)
SciTegic.value.DoubleValue
1.918

@<SCITEGIC>MOL_PROPERTY
Valence
SciTegic.value.DoubleValue
0.982

@<SCITEGIC>MOL_PROPERTY
Coulomb
SciTegic.value.DoubleValue
69.058

@<SCITEGIC>MOL_PROPERTY
VdW
SciTegic.value.DoubleValue
-0.078

@<SCITEGIC>MOL_PROPERTY
VdW6
SciTegic.value.DoubleValue
-3.548

@<SCITEGIC>MOL_PROPERTY
VdW12
SciTegic.value.DoubleValue
3.471

@<SCITEGIC>MOL_PROPERTY
Bond
SciTegic.value.DoubleValue
0.105

@<SCITEGIC>MOL_PROPERTY
Angle
SciTegic.value.DoubleValue
0.408

@<SCITEGIC>MOL_PROPERTY
Pdih
SciTegic.value.DoubleValue
0.469

@<SCITEGIC>MOL_PROPERTY
Idih
SciTegic.value.DoubleValue
0.000

@<SCITEGIC>MOL_PROPERTY
Tether
SciTegic.value.DoubleValue
0.000

@<TRIPOS>MOLECULE
guest-s9_confgen4.mol2 : confsearch ligand conformer 728
          20          19           1
SMALL
USER_CHARGES
 
@<TRIPOS>ATOM
       1    C1      21.086446   20.524532   24.318461 C.3        1 MOL1        -0.2224
       2    H1      20.547280   20.692652   25.259770 H          1 MOL1         0.1052
       3    H2      22.107698   20.208590   24.568251 H          1 MOL1         0.1052
       4    H3      21.145827   21.484420   23.789055 H          1 MOL1         0.1052
       5    C2      20.368439   19.460036   23.460943 C.3        1 MOL1        -0.1209
       6    H4      19.339650   19.791445   23.265351 H          1 MOL1         0.1041
       7    H5      20.296872   18.522055   24.029620 H          1 MOL1         0.1041
       8    C3      21.109040   19.204889   22.126927 C.3        1 MOL1        -0.1274
       9    H6      21.159515   20.131966   21.540552 H          1 MOL1         0.1041
      10    H7      22.146262   18.912553   22.338100 H          1 MOL1         0.1041
      11    C4      20.452989   18.094936   21.281264 C.3        1 MOL1         0.0313
      12    H8      20.395538   17.173263   21.865776 H          1 MOL1         0.1015
      13    H9      21.069253   17.900551   20.399759 H          1 MOL1         0.1015
      14    N1      19.055033   18.430730   20.796651 N.4        1 MOL1        -0.4809
      15    H10     19.069276   19.303993   20.247781 H          1 MOL1         0.3726
      16    H11     18.436658   18.620595   21.599158 H          1 MOL1         0.3726
      17    C5      18.505329   17.283059   19.960280 C.3        1 MOL1        -0.0677
      18    H12     17.499679   17.537638   19.618448 H          1 MOL1         0.1026
      19    H13     19.156901   17.121382   19.098829 H          1 MOL1         0.1026
      20    H14     18.468598   16.378207   20.570761 H          1 MOL1         0.1026
@<TRIPOS>BOND
    1     1     2    1
    2     1     3    1
    3     1     4    1
    4     1     5    1
    5     5     6    1
    6     5     7    1
    7     5     8    1
    8     8     9    1
    9     8    10    1
   10     8    11    1
   11    11    12    1
   12    11    13    1
   13    11    14    1
   14    14    15    1
   15    14    16    1
   16    14    17    1
   17    17    18    1
   18    17    19    1
   19    17    20    1
@<TRIPOS>SUBSTRUCTURE
       1 MOL1            1 RESIDUE      1      MOL     
@<SCITEGIC>MOL_PROPERTY
VConf Rank
SciTegic.value.IntegerValue
728

@<SCITEGIC>MOL_PROPERTY
Conf_Id
SciTegic.value.IntegerValue
35

@<SCITEGIC>MOL_PROPERTY
Delta U+W
SciTegic.value.DoubleValue
0.360

@<SCITEGIC>MOL_PROPERTY
U+W
SciTegic.value.DoubleValue
15.698

@<SCITEGIC>MOL_PROPERTY
Grad RMS
SciTegic.value.DoubleValue
0.000000

@<SCITEGIC>MOL_PROPERTY
U
SciTegic.value.DoubleValue
69.962

@<SCITEGIC>MOL_PROPERTY
W
SciTegic.value.DoubleValue
-54.264

@<SCITEGIC>MOL_PROPERTY
W(PB)
SciTegic.value.DoubleValue
-56.166

@<SCITEGIC>MOL_PROPERTY
W(SA)
SciTegic.value.DoubleValue
1.902

@<SCITEGIC>MOL_PROPERTY
Valence
SciTegic.value.DoubleValue
0.982

@<SCITEGIC>MOL_PROPERTY
Coulomb
SciTegic.value.DoubleValue
69.058

@<SCITEGIC>MOL_PROPERTY
VdW
SciTegic.value.DoubleValue
-0.078

@<SCITEGIC>MOL_PROPERTY
VdW6
SciTegic.value.DoubleValue
-3.548

@<SCITEGIC>MOL_PROPERTY
VdW12
SciTegic.value.DoubleValue
3.471

@<SCITEGIC>MOL_PROPERTY
Bond
SciTegic.value.DoubleValue
0.105

@<SCITEGIC>MOL_PROPERTY
Angle
SciTegic.value.DoubleValue
0.408

@<SCITEGIC>MOL_PROPERTY
Pdih
SciTegic.value.DoubleValue
0.469

@<SCITEGIC>MOL_PROPERTY
Idih
SciTegic.value.DoubleValue
0.000

@<SCITEGIC>MOL_PROPERTY
Tether
SciTegic.value.DoubleValue
0.000

@<TRIPOS>MOLECULE
guest-s9_confgen4.mol2 : confsearch ligand conformer 729
          20          19           1
SMALL
USER_CHARGES
 
@<TRIPOS>ATOM
       1    C1      22.066618   19.984656   21.000110 C.3        1 MOL1        -0.2224
       2    H1      21.971172   19.084853   20.379374 H          1 MOL1         0.1052
       3    H2      22.661099   20.714495   20.435396 H          1 MOL1         0.1052
       4    H3      22.631806   19.719747   21.903149 H          1 MOL1         0.1052
       5    C2      20.684297   20.574982   21.361930 C.3        1 MOL1        -0.1209
       6    H4      20.137933   20.826476   20.441927 H          1 MOL1         0.1041
       7    H5      20.828683   21.520502   21.903344 H          1 MOL1         0.1041
       8    C3      19.830393   19.623088   22.231768 C.3        1 MOL1        -0.1274
       9    H6      20.364859   19.405549   23.165435 H          1 MOL1         0.1041
      10    H7      18.900247   20.133980   22.513430 H          1 MOL1         0.1041
      11    C4      19.483199   18.306650   21.503816 C.3        1 MOL1         0.0313
      12    H8      20.398313   17.754609   21.276724 H          1 MOL1         0.1015
      13    H9      18.987731   18.544139   20.558999 H          1 MOL1         0.1015
      14    N1      18.560389   17.380053   22.278565 N.4        1 MOL1        -0.4809
      15    H10     18.248317   16.611154   21.664877 H          1 MOL1         0.3726
      16    H11     17.694961   17.875544   22.541706 H          1 MOL1         0.3726
      17    C5      19.255263   16.809538   23.510242 C.3        1 MOL1        -0.0677
      18    H12     19.523633   17.624466   24.185342 H          1 MOL1         0.1026
      19    H13     18.575262   16.122183   24.018282 H          1 MOL1         0.1026
      20    H14     20.155087   16.274214   23.199692 H          1 MOL1         0.1026
@<TRIPOS>BOND
    1     1     2    1
    2     1     3    1
    3     1     4    1
    4     1     5    1
    5     5     6    1
    6     5     7    1
    7     5     8    1
    8     8     9    1
    9     8    10    1
   10     8    11    1
   11    11    12    1
   12    11    13    1
   13    11    14    1
   14    14    15    1
   15    14    16    1
   16    14    17    1
   17    17    18    1
   18    17    19    1
   19    17    20    1
@<TRIPOS>SUBSTRUCTURE
       1 MOL1            1 RESIDUE      1      MOL     
@<SCITEGIC>MOL_PROPERTY
VConf Rank
SciTegic.value.IntegerValue
729

@<SCITEGIC>MOL_PROPERTY
Conf_Id
SciTegic.value.IntegerValue
33

@<SCITEGIC>MOL_PROPERTY
Delta U+W
SciTegic.value.DoubleValue
0.372

@<SCITEGIC>MOL_PROPERTY
U+W
SciTegic.value.DoubleValue
15.711

@<SCITEGIC>MOL_PROPERTY
Grad RMS
SciTegic.value.DoubleValue
0.000000

@<SCITEGIC>MOL_PROPERTY
U
SciTegic.value.DoubleValue
70.163

@<SCITEGIC>MOL_PROPERTY
W
SciTegic.value.DoubleValue
-54.452

@<SCITEGIC>MOL_PROPERTY
W(PB)
SciTegic.value.DoubleValue
-56.363

@<SCITEGIC>MOL_PROPERTY
W(SA)
SciTegic.value.DoubleValue
1.911

@<SCITEGIC>MOL_PROPERTY
Valence
SciTegic.value.DoubleValue
1.420

@<SCITEGIC>MOL_PROPERTY
Coulomb
SciTegic.value.DoubleValue
68.566

@<SCITEGIC>MOL_PROPERTY
VdW
SciTegic.value.DoubleValue
0.177

@<SCITEGIC>MOL_PROPERTY
VdW6
SciTegic.value.DoubleValue
-4.267

@<SCITEGIC>MOL_PROPERTY
VdW12
SciTegic.value.DoubleValue
4.445

@<SCITEGIC>MOL_PROPERTY
Bond
SciTegic.value.DoubleValue
0.146

@<SCITEGIC>MOL_PROPERTY
Angle
SciTegic.value.DoubleValue
0.581

@<SCITEGIC>MOL_PROPERTY
Pdih
SciTegic.value.DoubleValue
0.693

@<SCITEGIC>MOL_PROPERTY
Idih
SciTegic.value.DoubleValue
0.000

@<SCITEGIC>MOL_PROPERTY
Tether
SciTegic.value.DoubleValue
0.000

@<TRIPOS>MOLECULE
guest-s9_confgen4.mol2 : confsearch ligand conformer 730
          20          19           1
SMALL
USER_CHARGES
 
@<TRIPOS>ATOM
       1    C1      17.587049   18.965738   21.604096 C.3        1 MOL1        -0.2224
       2    H1      16.581254   18.743035   21.224947 H          1 MOL1         0.1052
       3    H2      17.673161   18.511885   22.599421 H          1 MOL1         0.1052
       4    H3      17.669051   20.054739   21.715671 H          1 MOL1         0.1052
       5    C2      18.663789   18.422798   20.636595 C.3        1 MOL1        -0.1209
       6    H4      18.483827   18.833088   19.632971 H          1 MOL1         0.1041
       7    H5      18.563092   17.331954   20.546673 H          1 MOL1         0.1041
       8    C3      20.103622   18.779176   21.074497 C.3        1 MOL1        -0.1274
       9    H6      20.807241   18.431455   20.306691 H          1 MOL1         0.1041
      10    H7      20.208665   19.870504   21.126235 H          1 MOL1         0.1041
      11    C4      20.483727   18.147852   22.431114 C.3        1 MOL1         0.0313
      12    H8      20.335322   17.066581   22.372831 H          1 MOL1         0.1015
      13    H9      19.832988   18.536902   23.217838 H          1 MOL1         0.1015
      14    N1      21.923242   18.384923   22.857726 N.4        1 MOL1        -0.4809
      15    H10     22.571567   18.060110   22.124317 H          1 MOL1         0.3726
      16    H11     22.140499   17.800343   23.680084 H          1 MOL1         0.3726
      17    C5      22.168331   19.853442   23.187497 C.3        1 MOL1        -0.0677
      18    H12     23.199929   19.976989   23.524400 H          1 MOL1         0.1026
      19    H13     22.000046   20.458657   22.294589 H          1 MOL1         0.1026
      20    H14     21.483178   20.163223   23.979520 H          1 MOL1         0.1026
@<TRIPOS>BOND
    1     1     2    1
    2     1     3    1
    3     1     4    1
    4     1     5    1
    5     5     6    1
    6     5     7    1
    7     5     8    1
    8     8     9    1
    9     8    10    1
   10     8    11    1
   11    11    12    1
   12    11    13    1
   13    11    14    1
   14    14    15    1
   15    14    16    1
   16    14    17    1
   17    17    18    1
   18    17    19    1
   19    17    20    1
@<TRIPOS>SUBSTRUCTURE
       1 MOL1            1 RESIDUE      1      MOL     
@<SCITEGIC>MOL_PROPERTY
VConf Rank
SciTegic.value.IntegerValue
730

@<SCITEGIC>MOL_PROPERTY
Conf_Id
SciTegic.value.IntegerValue
53

@<SCITEGIC>MOL_PROPERTY
Delta U+W
SciTegic.value.DoubleValue
0.379

@<SCITEGIC>MOL_PROPERTY
U+W
SciTegic.value.DoubleValue
15.717

@<SCITEGIC>MOL_PROPERTY
Grad RMS
SciTegic.value.DoubleValue
0.000000

@<SCITEGIC>MOL_PROPERTY
U
SciTegic.value.DoubleValue
70.163

@<SCITEGIC>MOL_PROPERTY
W
SciTegic.value.DoubleValue
-54.446

@<SCITEGIC>MOL_PROPERTY
W(PB)
SciTegic.value.DoubleValue
-56.322

@<SCITEGIC>MOL_PROPERTY
W(SA)
SciTegic.value.DoubleValue
1.876

@<SCITEGIC>MOL_PROPERTY
Valence
SciTegic.value.DoubleValue
1.420

@<SCITEGIC>MOL_PROPERTY
Coulomb
SciTegic.value.DoubleValue
68.566

@<SCITEGIC>MOL_PROPERTY
VdW
SciTegic.value.DoubleValue
0.177

@<SCITEGIC>MOL_PROPERTY
VdW6
SciTegic.value.DoubleValue
-4.267

@<SCITEGIC>MOL_PROPERTY
VdW12
SciTegic.value.DoubleValue
4.445

@<SCITEGIC>MOL_PROPERTY
Bond
SciTegic.value.DoubleValue
0.146

@<SCITEGIC>MOL_PROPERTY
Angle
SciTegic.value.DoubleValue
0.581

@<SCITEGIC>MOL_PROPERTY
Pdih
SciTegic.value.DoubleValue
0.693

@<SCITEGIC>MOL_PROPERTY
Idih
SciTegic.value.DoubleValue
0.000

@<SCITEGIC>MOL_PROPERTY
Tether
SciTegic.value.DoubleValue
0.000

@<TRIPOS>MOLECULE
guest-s9_confgen4.mol2 : confsearch ligand conformer 731
          20          19           1
SMALL
USER_CHARGES
 
@<TRIPOS>ATOM
       1    C1      17.908790   20.264308   21.020045 C.3        1 MOL1        -0.2224
       2    H1      16.951286   19.862073   20.664524 H          1 MOL1         0.1052
       3    H2      17.694430   21.149552   21.632858 H          1 MOL1         0.1052
       4    H3      18.484193   20.587406   20.142730 H          1 MOL1         0.1052
       5    C2      18.680642   19.200229   21.829947 C.3        1 MOL1        -0.1209
       6    H4      18.842576   18.316502   21.197918 H          1 MOL1         0.1041
       7    H5      18.066931   18.874291   22.681595 H          1 MOL1         0.1041
       8    C3      20.036300   19.741940   22.341281 C.3        1 MOL1        -0.1274
       9    H6      20.664205   20.043757   21.493117 H          1 MOL1         0.1041
      10    H7      19.863727   20.649597   22.934597 H          1 MOL1         0.1041
      11    C4      20.796327   18.724618   23.221097 C.3        1 MOL1         0.0313
      12    H8      20.181403   18.478601   24.090564 H          1 MOL1         0.1015
      13    H9      21.722679   19.177164   23.583820 H          1 MOL1         0.1015
      14    N1      21.161158   17.415467   22.537245 N.4        1 MOL1        -0.4809
      15    H10     20.313296   16.954590   22.175648 H          1 MOL1         0.3726
      16    H11     21.544247   16.757466   23.234024 H          1 MOL1         0.3726
      17    C5      22.175746   17.636887   21.420769 C.3        1 MOL1        -0.0677
      18    H12     23.069585   18.107681   21.835574 H          1 MOL1         0.1026
      19    H13     22.438623   16.672883   20.979722 H          1 MOL1         0.1026
      20    H14     21.737903   18.282090   20.656556 H          1 MOL1         0.1026
@<TRIPOS>BOND
    1     1     2    1
    2     1     3    1
    3     1     4    1
    4     1     5    1
    5     5     6    1
    6     5     7    1
    7     5     8    1
    8     8     9    1
    9     8    10    1
   10     8    11    1
   11    11    12    1
   12    11    13    1
   13    11    14    1
   14    14    15    1
   15    14    16    1
   16    14    17    1
   17    17    18    1
   18    17    19    1
   19    17    20    1
@<TRIPOS>SUBSTRUCTURE
       1 MOL1            1 RESIDUE      1      MOL     
@<SCITEGIC>MOL_PROPERTY
VConf Rank
SciTegic.value.IntegerValue
731

@<SCITEGIC>MOL_PROPERTY
Conf_Id
SciTegic.value.IntegerValue
49

@<SCITEGIC>MOL_PROPERTY
Delta U+W
SciTegic.value.DoubleValue
0.268

@<SCITEGIC>MOL_PROPERTY
U+W
SciTegic.value.DoubleValue
15.607

@<SCITEGIC>MOL_PROPERTY
Grad RMS
SciTegic.value.DoubleValue
0.000000

@<SCITEGIC>MOL_PROPERTY
U
SciTegic.value.DoubleValue
70.298

@<SCITEGIC>MOL_PROPERTY
W
SciTegic.value.DoubleValue
-54.692

@<SCITEGIC>MOL_PROPERTY
W(PB)
SciTegic.value.DoubleValue
-56.576

@<SCITEGIC>MOL_PROPERTY
W(SA)
SciTegic.value.DoubleValue
1.885

@<SCITEGIC>MOL_PROPERTY
Valence
SciTegic.value.DoubleValue
1.245

@<SCITEGIC>MOL_PROPERTY
Coulomb
SciTegic.value.DoubleValue
68.933

@<SCITEGIC>MOL_PROPERTY
VdW
SciTegic.value.DoubleValue
0.120

@<SCITEGIC>MOL_PROPERTY
VdW6
SciTegic.value.DoubleValue
-4.430

@<SCITEGIC>MOL_PROPERTY
VdW12
SciTegic.value.DoubleValue
4.550

@<SCITEGIC>MOL_PROPERTY
Bond
SciTegic.value.DoubleValue
0.148

@<SCITEGIC>MOL_PROPERTY
Angle
SciTegic.value.DoubleValue
0.587

@<SCITEGIC>MOL_PROPERTY
Pdih
SciTegic.value.DoubleValue
0.509

@<SCITEGIC>MOL_PROPERTY
Idih
SciTegic.value.DoubleValue
0.000

@<SCITEGIC>MOL_PROPERTY
Tether
SciTegic.value.DoubleValue
0.000

@<TRIPOS>MOLECULE
guest-s9_confgen4.mol2 : confsearch ligand conformer 732
          20          19           1
SMALL
USER_CHARGES
 
@<TRIPOS>ATOM
       1    C1      22.058791   18.109266   20.165902 C.3        1 MOL1        -0.2224
       2    H1      21.894144   17.032912   20.026172 H          1 MOL1         0.1052
       3    H2      21.886201   18.608964   19.203793 H          1 MOL1         0.1052
       4    H3      23.112639   18.255884   20.435916 H          1 MOL1         0.1052
       5    C2      21.130817   18.675882   21.262324 C.3        1 MOL1        -0.1209
       6    H4      21.337961   19.746614   21.398763 H          1 MOL1         0.1041
       7    H5      21.362385   18.179050   22.213682 H          1 MOL1         0.1041
       8    C3      19.638568   18.472076   20.911215 C.3        1 MOL1        -0.1274
       9    H6      19.449197   18.871701   19.906131 H          1 MOL1         0.1041
      10    H7      19.411497   17.398901   20.863365 H          1 MOL1         0.1041
      11    C4      18.659416   19.160812   21.888833 C.3        1 MOL1         0.0313
      12    H8      17.644691   19.008244   21.512267 H          1 MOL1         0.1015
      13    H9      18.843828   20.237641   21.915809 H          1 MOL1         0.1015
      14    N1      18.679044   18.637699   23.316848 N.4        1 MOL1        -0.4809
      15    H10     18.895873   17.629878   23.327915 H          1 MOL1         0.3726
      16    H11     17.730775   18.707797   23.717948 H          1 MOL1         0.3726
      17    C5      19.651139   19.428068   24.186902 C.3        1 MOL1        -0.0677
      18    H12     19.617432   19.036481   25.205961 H          1 MOL1         0.1026
      19    H13     20.663005   19.331868   23.791703 H          1 MOL1         0.1026
      20    H14     19.355832   20.479485   24.188842 H          1 MOL1         0.1026
@<TRIPOS>BOND
    1     1     2    1
    2     1     3    1
    3     1     4    1
    4     1     5    1
    5     5     6    1
    6     5     7    1
    7     5     8    1
    8     8     9    1
    9     8    10    1
   10     8    11    1
   11    11    12    1
   12    11    13    1
   13    11    14    1
   14    14    15    1
   15    14    16    1
   16    14    17    1
   17    17    18    1
   18    17    19    1
   19    17    20    1
@<TRIPOS>SUBSTRUCTURE
       1 MOL1            1 RESIDUE      1      MOL     
@<SCITEGIC>MOL_PROPERTY
VConf Rank
SciTegic.value.IntegerValue
732

@<SCITEGIC>MOL_PROPERTY
Conf_Id
SciTegic.value.IntegerValue
65

@<SCITEGIC>MOL_PROPERTY
Delta U+W
SciTegic.value.DoubleValue
1.775

@<SCITEGIC>MOL_PROPERTY
U+W
SciTegic.value.DoubleValue
17.114

@<SCITEGIC>MOL_PROPERTY
Grad RMS
SciTegic.value.DoubleValue
0.000000

@<SCITEGIC>MOL_PROPERTY
U
SciTegic.value.DoubleValue
71.726

@<SCITEGIC>MOL_PROPERTY
W
SciTegic.value.DoubleValue
-54.613

@<SCITEGIC>MOL_PROPERTY
W(PB)
SciTegic.value.DoubleValue
-56.495

@<SCITEGIC>MOL_PROPERTY
W(SA)
SciTegic.value.DoubleValue
1.883

@<SCITEGIC>MOL_PROPERTY
Valence
SciTegic.value.DoubleValue
2.885

@<SCITEGIC>MOL_PROPERTY
Coulomb
SciTegic.value.DoubleValue
68.822

@<SCITEGIC>MOL_PROPERTY
VdW
SciTegic.value.DoubleValue
0.019

@<SCITEGIC>MOL_PROPERTY
VdW6
SciTegic.value.DoubleValue
-4.600

@<SCITEGIC>MOL_PROPERTY
VdW12
SciTegic.value.DoubleValue
4.619

@<SCITEGIC>MOL_PROPERTY
Bond
SciTegic.value.DoubleValue
0.152

@<SCITEGIC>MOL_PROPERTY
Angle
SciTegic.value.DoubleValue
0.862

@<SCITEGIC>MOL_PROPERTY
Pdih
SciTegic.value.DoubleValue
1.871

@<SCITEGIC>MOL_PROPERTY
Idih
SciTegic.value.DoubleValue
0.000

@<SCITEGIC>MOL_PROPERTY
Tether
SciTegic.value.DoubleValue
0.000

@<TRIPOS>MOLECULE
guest-s9_confgen4.mol2 : confsearch ligand conformer 733
          20          19           1
SMALL
USER_CHARGES
 
@<TRIPOS>ATOM
       1    C1      18.135055   17.419685   22.289464 C.3        1 MOL1        -0.2224
       2    H1      18.772173   17.204517   21.422408 H          1 MOL1         0.1052
       3    H2      17.803846   16.458324   22.703064 H          1 MOL1         0.1052
       4    H3      17.244853   17.955899   21.935789 H          1 MOL1         0.1052
       5    C2      18.888910   18.240188   23.361214 C.3        1 MOL1        -0.1209
       6    H4      19.773321   17.683124   23.699012 H          1 MOL1         0.1041
       7    H5      18.244942   18.349957   24.245104 H          1 MOL1         0.1041
       8    C3      19.302193   19.649320   22.867713 C.3        1 MOL1        -0.1274
       9    H6      18.399385   20.228224   22.631975 H          1 MOL1         0.1041
      10    H7      19.806178   20.187513   23.681404 H          1 MOL1         0.1041
      11    C4      20.217060   19.636030   21.625213 C.3        1 MOL1         0.0313
      12    H8      20.435060   20.664050   21.324892 H          1 MOL1         0.1015
      13    H9      19.704403   19.142644   20.796044 H          1 MOL1         0.1015
      14    N1      21.541663   18.929865   21.842837 N.4        1 MOL1        -0.4809
      15    H10     21.377510   17.955281   22.135632 H          1 MOL1         0.3726
      16    H11     22.055017   19.369257   22.622133 H          1 MOL1         0.3726
      17    C5      22.369481   18.971585   20.565538 C.3        1 MOL1        -0.0677
      18    H12     22.557085   20.012227   20.292346 H          1 MOL1         0.1026
      19    H13     23.318748   18.459003   20.736190 H          1 MOL1         0.1026
      20    H14     21.820338   18.472422   19.764265 H          1 MOL1         0.1026
@<TRIPOS>BOND
    1     1     2    1
    2     1     3    1
    3     1     4    1
    4     1     5    1
    5     5     6    1
    6     5     7    1
    7     5     8    1
    8     8     9    1
    9     8    10    1
   10     8    11    1
   11    11    12    1
   12    11    13    1
   13    11    14    1
   14    14    15    1
   15    14    16    1
   16    14    17    1
   17    17    18    1
   18    17    19    1
   19    17    20    1
@<TRIPOS>SUBSTRUCTURE
       1 MOL1            1 RESIDUE      1      MOL     
@<SCITEGIC>MOL_PROPERTY
VConf Rank
SciTegic.value.IntegerValue
733

@<SCITEGIC>MOL_PROPERTY
Conf_Id
SciTegic.value.IntegerValue
23

@<SCITEGIC>MOL_PROPERTY
Delta U+W
SciTegic.value.DoubleValue
0.896

@<SCITEGIC>MOL_PROPERTY
U+W
SciTegic.value.DoubleValue
16.234

@<SCITEGIC>MOL_PROPERTY
Grad RMS
SciTegic.value.DoubleValue
0.000000

@<SCITEGIC>MOL_PROPERTY
U
SciTegic.value.DoubleValue
70.374

@<SCITEGIC>MOL_PROPERTY
W
SciTegic.value.DoubleValue
-54.140

@<SCITEGIC>MOL_PROPERTY
W(PB)
SciTegic.value.DoubleValue
-56.046

@<SCITEGIC>MOL_PROPERTY
W(SA)
SciTegic.value.DoubleValue
1.907

@<SCITEGIC>MOL_PROPERTY
Valence
SciTegic.value.DoubleValue
1.257

@<SCITEGIC>MOL_PROPERTY
Coulomb
SciTegic.value.DoubleValue
69.240

@<SCITEGIC>MOL_PROPERTY
VdW
SciTegic.value.DoubleValue
-0.123

@<SCITEGIC>MOL_PROPERTY
VdW6
SciTegic.value.DoubleValue
-4.336

@<SCITEGIC>MOL_PROPERTY
VdW12
SciTegic.value.DoubleValue
4.213

@<SCITEGIC>MOL_PROPERTY
Bond
SciTegic.value.DoubleValue
0.128

@<SCITEGIC>MOL_PROPERTY
Angle
SciTegic.value.DoubleValue
0.603

@<SCITEGIC>MOL_PROPERTY
Pdih
SciTegic.value.DoubleValue
0.526

@<SCITEGIC>MOL_PROPERTY
Idih
SciTegic.value.DoubleValue
0.000

@<SCITEGIC>MOL_PROPERTY
Tether
SciTegic.value.DoubleValue
0.000

@<TRIPOS>MOLECULE
guest-s9_confgen4.mol2 : confsearch ligand conformer 734
          20          19           1
SMALL
USER_CHARGES
 
@<TRIPOS>ATOM
       1    C1      21.056748   18.053634   19.967971 C.3        1 MOL1        -0.2224
       2    H1      20.638140   17.085056   19.665158 H          1 MOL1         0.1052
       3    H2      21.735231   18.387948   19.172437 H          1 MOL1         0.1052
       4    H3      21.658633   17.898862   20.872285 H          1 MOL1         0.1052
       5    C2      19.937660   19.094926   20.199317 C.3        1 MOL1        -0.1209
       6    H4      19.424267   19.284950   19.246257 H          1 MOL1         0.1041
       7    H5      20.381200   20.053807   20.500034 H          1 MOL1         0.1041
       8    C3      18.891191   18.639168   21.246783 C.3        1 MOL1        -0.1274
       9    H6      18.112934   19.407779   21.343200 H          1 MOL1         0.1041
      10    H7      18.384709   17.735973   20.881433 H          1 MOL1         0.1041
      11    C4      19.485395   18.341347   22.639331 C.3        1 MOL1         0.0313
      12    H8      20.228446   17.544306   22.559537 H          1 MOL1         0.1015
      13    H9      18.690653   17.997818   23.306349 H          1 MOL1         0.1015
      14    N1      20.150423   19.537025   23.294080 N.4        1 MOL1        -0.4809
      15    H10     19.476806   20.312799   23.385258 H          1 MOL1         0.3726
      16    H11     20.904070   19.896002   22.689397 H          1 MOL1         0.3726
      17    C5      20.701560   19.143624   24.657901 C.3        1 MOL1        -0.0677
      18    H12     21.435527   18.344643   24.532673 H          1 MOL1         0.1026
      19    H13     21.178051   20.012759   25.116737 H          1 MOL1         0.1026
      20    H14     19.881829   18.796534   25.290621 H          1 MOL1         0.1026
@<TRIPOS>BOND
    1     1     2    1
    2     1     3    1
    3     1     4    1
    4     1     5    1
    5     5     6    1
    6     5     7    1
    7     5     8    1
    8     8     9    1
    9     8    10    1
   10     8    11    1
   11    11    12    1
   12    11    13    1
   13    11    14    1
   14    14    15    1
   15    14    16    1
   16    14    17    1
   17    17    18    1
   18    17    19    1
   19    17    20    1
@<TRIPOS>SUBSTRUCTURE
       1 MOL1            1 RESIDUE      1      MOL     
@<SCITEGIC>MOL_PROPERTY
VConf Rank
SciTegic.value.IntegerValue
734

@<SCITEGIC>MOL_PROPERTY
Conf_Id
SciTegic.value.IntegerValue
24

@<SCITEGIC>MOL_PROPERTY
Delta U+W
SciTegic.value.DoubleValue
0.792

@<SCITEGIC>MOL_PROPERTY
U+W
SciTegic.value.DoubleValue
16.130

@<SCITEGIC>MOL_PROPERTY
Grad RMS
SciTegic.value.DoubleValue
0.000000

@<SCITEGIC>MOL_PROPERTY
U
SciTegic.value.DoubleValue
70.374

@<SCITEGIC>MOL_PROPERTY
W
SciTegic.value.DoubleValue
-54.243

@<SCITEGIC>MOL_PROPERTY
W(PB)
SciTegic.value.DoubleValue
-56.130

@<SCITEGIC>MOL_PROPERTY
W(SA)
SciTegic.value.DoubleValue
1.887

@<SCITEGIC>MOL_PROPERTY
Valence
SciTegic.value.DoubleValue
1.257

@<SCITEGIC>MOL_PROPERTY
Coulomb
SciTegic.value.DoubleValue
69.240

@<SCITEGIC>MOL_PROPERTY
VdW
SciTegic.value.DoubleValue
-0.123

@<SCITEGIC>MOL_PROPERTY
VdW6
SciTegic.value.DoubleValue
-4.336

@<SCITEGIC>MOL_PROPERTY
VdW12
SciTegic.value.DoubleValue
4.213

@<SCITEGIC>MOL_PROPERTY
Bond
SciTegic.value.DoubleValue
0.128

@<SCITEGIC>MOL_PROPERTY
Angle
SciTegic.value.DoubleValue
0.603

@<SCITEGIC>MOL_PROPERTY
Pdih
SciTegic.value.DoubleValue
0.526

@<SCITEGIC>MOL_PROPERTY
Idih
SciTegic.value.DoubleValue
0.000

@<SCITEGIC>MOL_PROPERTY
Tether
SciTegic.value.DoubleValue
0.000

@<TRIPOS>MOLECULE
guest-s9_confgen4.mol2 : confsearch ligand conformer 735
          20          19           1
SMALL
USER_CHARGES
 
@<TRIPOS>ATOM
       1    C1      21.778982   17.735582   21.408574 C.3        1 MOL1        -0.2224
       2    H1      22.474936   17.086004   20.861840 H          1 MOL1         0.1052
       3    H2      21.360259   18.441140   20.681314 H          1 MOL1         0.1052
       4    H3      22.361557   18.294629   22.152372 H          1 MOL1         0.1052
       5    C2      20.673541   16.889451   22.080529 C.3        1 MOL1        -0.1209
       6    H4      21.148737   16.064623   22.629998 H          1 MOL1         0.1041
       7    H5      20.051466   16.419247   21.305910 H          1 MOL1         0.1041
       8    C3      19.771879   17.676699   23.065458 C.3        1 MOL1        -0.1274
       9    H6      19.076184   16.964907   23.529334 H          1 MOL1         0.1041
      10    H7      20.372402   18.089365   23.886909 H          1 MOL1         0.1041
      11    C4      18.934383   18.795080   22.409630 C.3        1 MOL1         0.0313
      12    H8      18.087580   19.034085   23.057971 H          1 MOL1         0.1015
      13    H9      18.540082   18.447584   21.451477 H          1 MOL1         0.1015
      14    N1      19.691353   20.088854   22.176946 N.4        1 MOL1        -0.4809
      15    H10     20.533134   19.907897   21.611899 H          1 MOL1         0.3726
      16    H11     20.037973   20.462905   23.073579 H          1 MOL1         0.3726
      17    C5      18.789595   21.103470   21.487165 C.3        1 MOL1        -0.0677
      18    H12     18.461818   20.699464   20.526899 H          1 MOL1         0.1026
      19    H13     17.921883   21.302092   22.119928 H          1 MOL1         0.1026
      20    H14     19.347346   22.028696   21.326410 H          1 MOL1         0.1026
@<TRIPOS>BOND
    1     1     2    1
    2     1     3    1
    3     1     4    1
    4     1     5    1
    5     5     6    1
    6     5     7    1
    7     5     8    1
    8     8     9    1
    9     8    10    1
   10     8    11    1
   11    11    12    1
   12    11    13    1
   13    11    14    1
   14    14    15    1
   15    14    16    1
   16    14    17    1
   17    17    18    1
   18    17    19    1
   19    17    20    1
@<TRIPOS>SUBSTRUCTURE
       1 MOL1            1 RESIDUE      1      MOL     
@<SCITEGIC>MOL_PROPERTY
VConf Rank
SciTegic.value.IntegerValue
735

@<SCITEGIC>MOL_PROPERTY
Conf_Id
SciTegic.value.IntegerValue
26

@<SCITEGIC>MOL_PROPERTY
Delta U+W
SciTegic.value.DoubleValue
2.888

@<SCITEGIC>MOL_PROPERTY
U+W
SciTegic.value.DoubleValue
18.226

@<SCITEGIC>MOL_PROPERTY
Grad RMS
SciTegic.value.DoubleValue
0.000000

@<SCITEGIC>MOL_PROPERTY
U
SciTegic.value.DoubleValue
72.042

@<SCITEGIC>MOL_PROPERTY
W
SciTegic.value.DoubleValue
-53.816

@<SCITEGIC>MOL_PROPERTY
W(PB)
SciTegic.value.DoubleValue
-55.689

@<SCITEGIC>MOL_PROPERTY
W(SA)
SciTegic.value.DoubleValue
1.873

@<SCITEGIC>MOL_PROPERTY
Valence
SciTegic.value.DoubleValue
2.428

@<SCITEGIC>MOL_PROPERTY
Coulomb
SciTegic.value.DoubleValue
69.829

@<SCITEGIC>MOL_PROPERTY
VdW
SciTegic.value.DoubleValue
-0.215

@<SCITEGIC>MOL_PROPERTY
VdW6
SciTegic.value.DoubleValue
-4.563

@<SCITEGIC>MOL_PROPERTY
VdW12
SciTegic.value.DoubleValue
4.348

@<SCITEGIC>MOL_PROPERTY
Bond
SciTegic.value.DoubleValue
0.137

@<SCITEGIC>MOL_PROPERTY
Angle
SciTegic.value.DoubleValue
0.936

@<SCITEGIC>MOL_PROPERTY
Pdih
SciTegic.value.DoubleValue
1.356

@<SCITEGIC>MOL_PROPERTY
Idih
SciTegic.value.DoubleValue
0.000

@<SCITEGIC>MOL_PROPERTY
Tether
SciTegic.value.DoubleValue
0.000

@<TRIPOS>MOLECULE
guest-s9_confgen4.mol2 : confsearch ligand conformer 736
          20          19           1
SMALL
USER_CHARGES
 
@<TRIPOS>ATOM
       1    C1      20.587380   17.466449   23.617472 C.3        1 MOL1        -0.2224
       2    H1      20.588522   16.911379   24.564633 H          1 MOL1         0.1052
       3    H2      21.424290   17.093136   23.013002 H          1 MOL1         0.1052
       4    H3      20.767821   18.519696   23.862749 H          1 MOL1         0.1052
       5    C2      19.237992   17.276245   22.887790 C.3        1 MOL1        -0.1209
       6    H4      18.435575   17.744173   23.475392 H          1 MOL1         0.1041
       7    H5      19.004618   16.202637   22.856662 H          1 MOL1         0.1041
       8    C3      19.209161   17.824379   21.438117 C.3        1 MOL1        -0.1274
       9    H6      19.957322   17.310420   20.820210 H          1 MOL1         0.1041
      10    H7      18.233699   17.572822   21.001069 H          1 MOL1         0.1041
      11    C4      19.394217   19.352870   21.329712 C.3        1 MOL1         0.0313
      12    H8      18.831207   19.850225   22.123401 H          1 MOL1         0.1015
      13    H9      18.998886   19.693295   20.369312 H          1 MOL1         0.1015
      14    N1      20.837195   19.815011   21.402098 N.4        1 MOL1        -0.4809
      15    H10     21.383283   19.393503   20.635205 H          1 MOL1         0.3726
      16    H11     21.273819   19.472535   22.269675 H          1 MOL1         0.3726
      17    C5      20.901896   21.334657   21.332089 C.3        1 MOL1        -0.0677
      18    H12     20.345002   21.757651   22.170964 H          1 MOL1         0.1026
      19    H13     21.945538   21.652405   21.385184 H          1 MOL1         0.1026
      20    H14     20.462522   21.670263   20.390237 H          1 MOL1         0.1026
@<TRIPOS>BOND
    1     1     2    1
    2     1     3    1
    3     1     4    1
    4     1     5    1
    5     5     6    1
    6     5     7    1
    7     5     8    1
    8     8     9    1
    9     8    10    1
   10     8    11    1
   11    11    12    1
   12    11    13    1
   13    11    14    1
   14    14    15    1
   15    14    16    1
   16    14    17    1
   17    17    18    1
   18    17    19    1
   19    17    20    1
@<TRIPOS>SUBSTRUCTURE
       1 MOL1            1 RESIDUE      1      MOL     
@<SCITEGIC>MOL_PROPERTY
VConf Rank
SciTegic.value.IntegerValue
736

@<SCITEGIC>MOL_PROPERTY
Conf_Id
SciTegic.value.IntegerValue
5

@<SCITEGIC>MOL_PROPERTY
Delta U+W
SciTegic.value.DoubleValue
2.950

@<SCITEGIC>MOL_PROPERTY
U+W
SciTegic.value.DoubleValue
18.289

@<SCITEGIC>MOL_PROPERTY
Grad RMS
SciTegic.value.DoubleValue
0.000000

@<SCITEGIC>MOL_PROPERTY
U
SciTegic.value.DoubleValue
72.042

@<SCITEGIC>MOL_PROPERTY
W
SciTegic.value.DoubleValue
-53.753

@<SCITEGIC>MOL_PROPERTY
W(PB)
SciTegic.value.DoubleValue
-55.644

@<SCITEGIC>MOL_PROPERTY
W(SA)
SciTegic.value.DoubleValue
1.891

@<SCITEGIC>MOL_PROPERTY
Valence
SciTegic.value.DoubleValue
2.428

@<SCITEGIC>MOL_PROPERTY
Coulomb
SciTegic.value.DoubleValue
69.829

@<SCITEGIC>MOL_PROPERTY
VdW
SciTegic.value.DoubleValue
-0.215

@<SCITEGIC>MOL_PROPERTY
VdW6
SciTegic.value.DoubleValue
-4.563

@<SCITEGIC>MOL_PROPERTY
VdW12
SciTegic.value.DoubleValue
4.348

@<SCITEGIC>MOL_PROPERTY
Bond
SciTegic.value.DoubleValue
0.137

@<SCITEGIC>MOL_PROPERTY
Angle
SciTegic.value.DoubleValue
0.936

@<SCITEGIC>MOL_PROPERTY
Pdih
SciTegic.value.DoubleValue
1.356

@<SCITEGIC>MOL_PROPERTY
Idih
SciTegic.value.DoubleValue
0.000

@<SCITEGIC>MOL_PROPERTY
Tether
SciTegic.value.DoubleValue
0.000

@<TRIPOS>MOLECULE
guest-s9_confgen4.mol2 : confsearch ligand conformer 737
          20          19           1
SMALL
USER_CHARGES
 
@<TRIPOS>ATOM
       1    C1      22.135706   19.925954   22.766482 C.3        1 MOL1        -0.2224
       2    H1      22.306932   19.813946   23.844997 H          1 MOL1         0.1052
       3    H2      22.420517   18.986974   22.275590 H          1 MOL1         0.1052
       4    H3      22.812033   20.709183   22.400284 H          1 MOL1         0.1052
       5    C2      20.664390   20.299498   22.473503 C.3        1 MOL1        -0.1209
       6    H4      20.518328   20.409705   21.390321 H          1 MOL1         0.1041
       7    H5      20.452877   21.286006   22.909344 H          1 MOL1         0.1041
       8    C3      19.652605   19.274928   23.044330 C.3        1 MOL1        -0.1274
       9    H6      19.746068   19.246467   24.137943 H          1 MOL1         0.1041
      10    H7      18.630756   19.618536   22.838152 H          1 MOL1         0.1041
      11    C4      19.834416   17.840356   22.497996 C.3        1 MOL1         0.0313
      12    H8      19.085296   17.181679   22.944518 H          1 MOL1         0.1015
      13    H9      20.820328   17.470813   22.790390 H          1 MOL1         0.1015
      14    N1      19.727417   17.704499   20.986897 N.4        1 MOL1        -0.4809
      15    H10     19.998783   16.749456   20.705281 H          1 MOL1         0.3726
      16    H11     20.411884   18.323297   20.527877 H          1 MOL1         0.3726
      17    C5      18.313574   18.006551   20.502713 C.3        1 MOL1        -0.0677
      18    H12     18.058962   19.038826   20.750846 H          1 MOL1         0.1026
      19    H13     18.268624   17.867911   19.420278 H          1 MOL1         0.1026
      20    H14     17.613487   17.324849   20.990355 H          1 MOL1         0.1026
@<TRIPOS>BOND
    1     1     2    1
    2     1     3    1
    3     1     4    1
    4     1     5    1
    5     5     6    1
    6     5     7    1
    7     5     8    1
    8     8     9    1
    9     8    10    1
   10     8    11    1
   11    11    12    1
   12    11    13    1
   13    11    14    1
   14    14    15    1
   15    14    16    1
   16    14    17    1
   17    17    18    1
   18    17    19    1
   19    17    20    1
@<TRIPOS>SUBSTRUCTURE
       1 MOL1            1 RESIDUE      1      MOL     
@<SCITEGIC>MOL_PROPERTY
VConf Rank
SciTegic.value.IntegerValue
737

@<SCITEGIC>MOL_PROPERTY
Conf_Id
SciTegic.value.IntegerValue
52

@<SCITEGIC>MOL_PROPERTY
Delta U+W
SciTegic.value.DoubleValue
0.784

@<SCITEGIC>MOL_PROPERTY
U+W
SciTegic.value.DoubleValue
16.122

@<SCITEGIC>MOL_PROPERTY
Grad RMS
SciTegic.value.DoubleValue
0.000000

@<SCITEGIC>MOL_PROPERTY
U
SciTegic.value.DoubleValue
70.777

@<SCITEGIC>MOL_PROPERTY
W
SciTegic.value.DoubleValue
-54.655

@<SCITEGIC>MOL_PROPERTY
W(PB)
SciTegic.value.DoubleValue
-56.491

@<SCITEGIC>MOL_PROPERTY
W(SA)
SciTegic.value.DoubleValue
1.836

@<SCITEGIC>MOL_PROPERTY
Valence
SciTegic.value.DoubleValue
1.529

@<SCITEGIC>MOL_PROPERTY
Coulomb
SciTegic.value.DoubleValue
69.166

@<SCITEGIC>MOL_PROPERTY
VdW
SciTegic.value.DoubleValue
0.082

@<SCITEGIC>MOL_PROPERTY
VdW6
SciTegic.value.DoubleValue
-5.166

@<SCITEGIC>MOL_PROPERTY
VdW12
SciTegic.value.DoubleValue
5.248

@<SCITEGIC>MOL_PROPERTY
Bond
SciTegic.value.DoubleValue
0.171

@<SCITEGIC>MOL_PROPERTY
Angle
SciTegic.value.DoubleValue
0.752

@<SCITEGIC>MOL_PROPERTY
Pdih
SciTegic.value.DoubleValue
0.605

@<SCITEGIC>MOL_PROPERTY
Idih
SciTegic.value.DoubleValue
0.000

@<SCITEGIC>MOL_PROPERTY
Tether
SciTegic.value.DoubleValue
0.000

@<TRIPOS>MOLECULE
guest-s9_confgen4.mol2 : confsearch ligand conformer 738
          20          19           1
SMALL
USER_CHARGES
 
@<TRIPOS>ATOM
       1    C1      20.386296   17.469763   23.522707 C.3        1 MOL1        -0.2224
       2    H1      20.395082   16.751154   24.352583 H          1 MOL1         0.1052
       3    H2      20.203731   16.897772   22.605838 H          1 MOL1         0.1052
       4    H3      21.384200   17.923850   23.465268 H          1 MOL1         0.1052
       5    C2      19.294538   18.539572   23.752785 C.3        1 MOL1        -0.1209
       6    H4      19.387523   18.917161   24.780796 H          1 MOL1         0.1041
       7    H5      18.302204   18.071171   23.690397 H          1 MOL1         0.1041
       8    C3      19.365016   19.747153   22.783453 C.3        1 MOL1        -0.1274
       9    H6      18.608684   20.477217   23.100557 H          1 MOL1         0.1041
      10    H7      20.330795   20.258248   22.883233 H          1 MOL1         0.1041
      11    C4      19.086470   19.400230   21.302369 C.3        1 MOL1         0.0313
      12    H8      18.826719   20.313850   20.761769 H          1 MOL1         0.1015
      13    H9      18.227636   18.726379   21.249479 H          1 MOL1         0.1015
      14    N1      20.236341   18.750905   20.548257 N.4        1 MOL1        -0.4809
      15    H10     19.895644   18.389162   19.643699 H          1 MOL1         0.3726
      16    H11     20.572613   17.923942   21.060990 H          1 MOL1         0.3726
      17    C5      21.372806   19.740065   20.314305 C.3        1 MOL1        -0.0677
      18    H12     20.992661   20.598577   19.756552 H          1 MOL1         0.1026
      19    H13     21.770910   20.070033   21.275684 H          1 MOL1         0.1026
      20    H14     22.161849   19.249086   19.740491 H          1 MOL1         0.1026
@<TRIPOS>BOND
    1     1     2    1
    2     1     3    1
    3     1     4    1
    4     1     5    1
    5     5     6    1
    6     5     7    1
    7     5     8    1
    8     8     9    1
    9     8    10    1
   10     8    11    1
   11    11    12    1
   12    11    13    1
   13    11    14    1
   14    14    15    1
   15    14    16    1
   16    14    17    1
   17    17    18    1
   18    17    19    1
   19    17    20    1
@<TRIPOS>SUBSTRUCTURE
       1 MOL1            1 RESIDUE      1      MOL     
@<SCITEGIC>MOL_PROPERTY
VConf Rank
SciTegic.value.IntegerValue
738

@<SCITEGIC>MOL_PROPERTY
Conf_Id
SciTegic.value.IntegerValue
55

@<SCITEGIC>MOL_PROPERTY
Delta U+W
SciTegic.value.DoubleValue
2.745

@<SCITEGIC>MOL_PROPERTY
U+W
SciTegic.value.DoubleValue
18.083

@<SCITEGIC>MOL_PROPERTY
Grad RMS
SciTegic.value.DoubleValue
0.000000

@<SCITEGIC>MOL_PROPERTY
U
SciTegic.value.DoubleValue
72.490

@<SCITEGIC>MOL_PROPERTY
W
SciTegic.value.DoubleValue
-54.407

@<SCITEGIC>MOL_PROPERTY
W(PB)
SciTegic.value.DoubleValue
-56.269

@<SCITEGIC>MOL_PROPERTY
W(SA)
SciTegic.value.DoubleValue
1.861

@<SCITEGIC>MOL_PROPERTY
Valence
SciTegic.value.DoubleValue
2.738

@<SCITEGIC>MOL_PROPERTY
Coulomb
SciTegic.value.DoubleValue
69.795

@<SCITEGIC>MOL_PROPERTY
VdW
SciTegic.value.DoubleValue
-0.043

@<SCITEGIC>MOL_PROPERTY
VdW6
SciTegic.value.DoubleValue
-5.333

@<SCITEGIC>MOL_PROPERTY
VdW12
SciTegic.value.DoubleValue
5.290

@<SCITEGIC>MOL_PROPERTY
Bond
SciTegic.value.DoubleValue
0.182

@<SCITEGIC>MOL_PROPERTY
Angle
SciTegic.value.DoubleValue
1.135

@<SCITEGIC>MOL_PROPERTY
Pdih
SciTegic.value.DoubleValue
1.422

@<SCITEGIC>MOL_PROPERTY
Idih
SciTegic.value.DoubleValue
0.000

@<SCITEGIC>MOL_PROPERTY
Tether
SciTegic.value.DoubleValue
0.000

@<TRIPOS>MOLECULE
guest-s9_confgen4.mol2 : confsearch ligand conformer 739
          20          19           1
SMALL
USER_CHARGES
 
@<TRIPOS>ATOM
       1    C1      20.849181   19.629933   20.297889 C.3        1 MOL1        -0.2224
       2    H1      21.441117   19.918956   19.419683 H          1 MOL1         0.1052
       3    H2      19.790508   19.782346   20.050325 H          1 MOL1         0.1052
       4    H3      21.125497   20.313064   21.109143 H          1 MOL1         0.1052
       5    C2      21.132193   18.157302   20.672899 C.3        1 MOL1        -0.1209
       6    H4      22.168681   18.060629   21.025553 H          1 MOL1         0.1041
       7    H5      21.063605   17.546175   19.761941 H          1 MOL1         0.1041
       8    C3      20.163038   17.566286   21.728490 C.3        1 MOL1        -0.1274
       9    H6      19.130636   17.603070   21.358764 H          1 MOL1         0.1041
      10    H7      20.399716   16.500172   21.842379 H          1 MOL1         0.1041
      11    C4      20.260665   18.217899   23.127569 C.3        1 MOL1         0.0313
      12    H8      21.314221   18.347200   23.387896 H          1 MOL1         0.1015
      13    H9      19.814418   17.548965   23.867713 H          1 MOL1         0.1015
      14    N1      19.573860   19.566311   23.277881 N.4        1 MOL1        -0.4809
      15    H10     19.903707   20.213824   22.548659 H          1 MOL1         0.3726
      16    H11     19.854315   19.999050   24.171884 H          1 MOL1         0.3726
      17    C5      18.056777   19.422982   23.226543 C.3        1 MOL1        -0.0677
      18    H12     17.762236   19.024358   22.253937 H          1 MOL1         0.1026
      19    H13     17.733103   18.744171   24.018434 H          1 MOL1         0.1026
      20    H14     17.599679   20.403960   23.373700 H          1 MOL1         0.1026
@<TRIPOS>BOND
    1     1     2    1
    2     1     3    1
    3     1     4    1
    4     1     5    1
    5     5     6    1
    6     5     7    1
    7     5     8    1
    8     8     9    1
    9     8    10    1
   10     8    11    1
   11    11    12    1
   12    11    13    1
   13    11    14    1
   14    14    15    1
   15    14    16    1
   16    14    17    1
   17    17    18    1
   18    17    19    1
   19    17    20    1
@<TRIPOS>SUBSTRUCTURE
       1 MOL1            1 RESIDUE      1      MOL     
@<SCITEGIC>MOL_PROPERTY
VConf Rank
SciTegic.value.IntegerValue
739

@<SCITEGIC>MOL_PROPERTY
Conf_Id
SciTegic.value.IntegerValue
76

@<SCITEGIC>MOL_PROPERTY
Delta U+W
SciTegic.value.DoubleValue
2.799

@<SCITEGIC>MOL_PROPERTY
U+W
SciTegic.value.DoubleValue
18.137

@<SCITEGIC>MOL_PROPERTY
Grad RMS
SciTegic.value.DoubleValue
0.000000

@<SCITEGIC>MOL_PROPERTY
U
SciTegic.value.DoubleValue
72.490

@<SCITEGIC>MOL_PROPERTY
W
SciTegic.value.DoubleValue
-54.353

@<SCITEGIC>MOL_PROPERTY
W(PB)
SciTegic.value.DoubleValue
-56.201

@<SCITEGIC>MOL_PROPERTY
W(SA)
SciTegic.value.DoubleValue
1.848

@<SCITEGIC>MOL_PROPERTY
Valence
SciTegic.value.DoubleValue
2.738

@<SCITEGIC>MOL_PROPERTY
Coulomb
SciTegic.value.DoubleValue
69.795

@<SCITEGIC>MOL_PROPERTY
VdW
SciTegic.value.DoubleValue
-0.043

@<SCITEGIC>MOL_PROPERTY
VdW6
SciTegic.value.DoubleValue
-5.334

@<SCITEGIC>MOL_PROPERTY
VdW12
SciTegic.value.DoubleValue
5.290

@<SCITEGIC>MOL_PROPERTY
Bond
SciTegic.value.DoubleValue
0.182

@<SCITEGIC>MOL_PROPERTY
Angle
SciTegic.value.DoubleValue
1.135

@<SCITEGIC>MOL_PROPERTY
Pdih
SciTegic.value.DoubleValue
1.421

@<SCITEGIC>MOL_PROPERTY
Idih
SciTegic.value.DoubleValue
0.000

@<SCITEGIC>MOL_PROPERTY
Tether
SciTegic.value.DoubleValue
0.000

@<TRIPOS>MOLECULE
guest-s9_confgen4.mol2 : confsearch ligand conformer 740
          20          19           1
SMALL
USER_CHARGES
 
@<TRIPOS>ATOM
       1    C1      19.674866   20.818195   22.201299 C.3        1 MOL1        -0.2224
       2    H1      20.032927   20.508966   21.211744 H          1 MOL1         0.1052
       3    H2      18.624467   21.121805   22.104168 H          1 MOL1         0.1052
       4    H3      20.252073   21.702288   22.501392 H          1 MOL1         0.1052
       5    C2      19.831290   19.688245   23.244999 C.3        1 MOL1        -0.1209
       6    H4      19.527226   20.071018   24.229307 H          1 MOL1         0.1041
       7    H5      20.888634   19.411855   23.346944 H          1 MOL1         0.1041
       8    C3      18.981479   18.436261   22.916667 C.3        1 MOL1        -0.1274
       9    H6      19.104667   17.693662   23.715904 H          1 MOL1         0.1041
      10    H7      17.920581   18.719030   22.930187 H          1 MOL1         0.1041
      11    C4      19.285212   17.768102   21.555054 C.3        1 MOL1         0.0313
      12    H8      19.178874   18.489078   20.741142 H          1 MOL1         0.1015
      13    H9      18.543559   16.980963   21.396849 H          1 MOL1         0.1015
      14    N1      20.649791   17.105496   21.437490 N.4        1 MOL1        -0.4809
      15    H10     20.580198   16.296454   20.800773 H          1 MOL1         0.3726
      16    H11     20.932771   16.703109   22.343388 H          1 MOL1         0.3726
      17    C5      21.702539   18.071615   20.904965 C.3        1 MOL1        -0.0677
      18    H12     22.654505   17.544765   20.809489 H          1 MOL1         0.1026
      19    H13     21.387913   18.439799   19.926169 H          1 MOL1         0.1026
      20    H14     21.816400   18.909384   21.593586 H          1 MOL1         0.1026
@<TRIPOS>BOND
    1     1     2    1
    2     1     3    1
    3     1     4    1
    4     1     5    1
    5     5     6    1
    6     5     7    1
    7     5     8    1
    8     8     9    1
    9     8    10    1
   10     8    11    1
   11    11    12    1
   12    11    13    1
   13    11    14    1
   14    14    15    1
   15    14    16    1
   16    14    17    1
   17    17    18    1
   18    17    19    1
   19    17    20    1
@<TRIPOS>SUBSTRUCTURE
       1 MOL1            1 RESIDUE      1      MOL     
@<SCITEGIC>MOL_PROPERTY
VConf Rank
SciTegic.value.IntegerValue
740

@<SCITEGIC>MOL_PROPERTY
Conf_Id
SciTegic.value.IntegerValue
60

@<SCITEGIC>MOL_PROPERTY
Delta U+W
SciTegic.value.DoubleValue
1.788

@<SCITEGIC>MOL_PROPERTY
U+W
SciTegic.value.DoubleValue
17.127

@<SCITEGIC>MOL_PROPERTY
Grad RMS
SciTegic.value.DoubleValue
0.000000

@<SCITEGIC>MOL_PROPERTY
U
SciTegic.value.DoubleValue
72.122

@<SCITEGIC>MOL_PROPERTY
W
SciTegic.value.DoubleValue
-54.995

@<SCITEGIC>MOL_PROPERTY
W(PB)
SciTegic.value.DoubleValue
-56.810

@<SCITEGIC>MOL_PROPERTY
W(SA)
SciTegic.value.DoubleValue
1.815

@<SCITEGIC>MOL_PROPERTY
Valence
SciTegic.value.DoubleValue
3.197

@<SCITEGIC>MOL_PROPERTY
Coulomb
SciTegic.value.DoubleValue
69.115

@<SCITEGIC>MOL_PROPERTY
VdW
SciTegic.value.DoubleValue
-0.190

@<SCITEGIC>MOL_PROPERTY
VdW6
SciTegic.value.DoubleValue
-5.585

@<SCITEGIC>MOL_PROPERTY
VdW12
SciTegic.value.DoubleValue
5.395

@<SCITEGIC>MOL_PROPERTY
Bond
SciTegic.value.DoubleValue
0.177

@<SCITEGIC>MOL_PROPERTY
Angle
SciTegic.value.DoubleValue
1.207

@<SCITEGIC>MOL_PROPERTY
Pdih
SciTegic.value.DoubleValue
1.813

@<SCITEGIC>MOL_PROPERTY
Idih
SciTegic.value.DoubleValue
0.000

@<SCITEGIC>MOL_PROPERTY
Tether
SciTegic.value.DoubleValue
0.000

@<TRIPOS>MOLECULE
guest-s9_confgen4.mol2 : confsearch ligand conformer 741
          20          19           1
SMALL
USER_CHARGES
 
@<TRIPOS>ATOM
       1    C1      19.738298   19.633918   23.925131 C.3        1 MOL1        -0.2224
       2    H1      19.404945   20.610695   24.298799 H          1 MOL1         0.1052
       3    H2      19.739072   18.934716   24.771338 H          1 MOL1         0.1052
       4    H3      20.771980   19.747772   23.576434 H          1 MOL1         0.1052
       5    C2      18.805305   19.137618   22.796517 C.3        1 MOL1        -0.1209
       6    H4      18.797990   19.857870   21.968299 H          1 MOL1         0.1041
       7    H5      17.774322   19.109766   23.176163 H          1 MOL1         0.1041
       8    C3      19.179064   17.728369   22.275200 C.3        1 MOL1        -0.1274
       9    H6      19.070784   17.009774   23.098328 H          1 MOL1         0.1041
      10    H7      18.454619   17.420064   21.509998 H          1 MOL1         0.1041
      11    C4      20.608968   17.592291   21.701148 C.3        1 MOL1         0.0313
      12    H8      20.782079   16.535168   21.483916 H          1 MOL1         0.1015
      13    H9      21.350932   17.902248   22.440730 H          1 MOL1         0.1015
      14    N1      20.872781   18.347797   20.407102 N.4        1 MOL1        -0.4809
      15    H10     20.024656   18.363763   19.821376 H          1 MOL1         0.3726
      16    H11     21.568629   17.830113   19.847996 H          1 MOL1         0.3726
      17    C5      21.392398   19.756754   20.671832 C.3        1 MOL1        -0.0677
      18    H12     22.313724   19.694749   21.254845 H          1 MOL1         0.1026
      19    H13     21.595213   20.247417   19.717346 H          1 MOL1         0.1026
      20    H14     20.645520   20.327644   21.224352 H          1 MOL1         0.1026
@<TRIPOS>BOND
    1     1     2    1
    2     1     3    1
    3     1     4    1
    4     1     5    1
    5     5     6    1
    6     5     7    1
    7     5     8    1
    8     8     9    1
    9     8    10    1
   10     8    11    1
   11    11    12    1
   12    11    13    1
   13    11    14    1
   14    14    15    1
   15    14    16    1
   16    14    17    1
   17    17    18    1
   18    17    19    1
   19    17    20    1
@<TRIPOS>SUBSTRUCTURE
       1 MOL1            1 RESIDUE      1      MOL     
@<SCITEGIC>MOL_PROPERTY
VConf Rank
SciTegic.value.IntegerValue
741

@<SCITEGIC>MOL_PROPERTY
Conf_Id
SciTegic.value.IntegerValue
54

@<SCITEGIC>MOL_PROPERTY
Delta U+W
SciTegic.value.DoubleValue
1.880

@<SCITEGIC>MOL_PROPERTY
U+W
SciTegic.value.DoubleValue
17.218

@<SCITEGIC>MOL_PROPERTY
Grad RMS
SciTegic.value.DoubleValue
0.000000

@<SCITEGIC>MOL_PROPERTY
U
SciTegic.value.DoubleValue
72.122

@<SCITEGIC>MOL_PROPERTY
W
SciTegic.value.DoubleValue
-54.903

@<SCITEGIC>MOL_PROPERTY
W(PB)
SciTegic.value.DoubleValue
-56.724

@<SCITEGIC>MOL_PROPERTY
W(SA)
SciTegic.value.DoubleValue
1.821

@<SCITEGIC>MOL_PROPERTY
Valence
SciTegic.value.DoubleValue
3.197

@<SCITEGIC>MOL_PROPERTY
Coulomb
SciTegic.value.DoubleValue
69.115

@<SCITEGIC>MOL_PROPERTY
VdW
SciTegic.value.DoubleValue
-0.190

@<SCITEGIC>MOL_PROPERTY
VdW6
SciTegic.value.DoubleValue
-5.585

@<SCITEGIC>MOL_PROPERTY
VdW12
SciTegic.value.DoubleValue
5.395

@<SCITEGIC>MOL_PROPERTY
Bond
SciTegic.value.DoubleValue
0.177

@<SCITEGIC>MOL_PROPERTY
Angle
SciTegic.value.DoubleValue
1.207

@<SCITEGIC>MOL_PROPERTY
Pdih
SciTegic.value.DoubleValue
1.813

@<SCITEGIC>MOL_PROPERTY
Idih
SciTegic.value.DoubleValue
0.000

@<SCITEGIC>MOL_PROPERTY
Tether
SciTegic.value.DoubleValue
0.000

@<TRIPOS>MOLECULE
guest-s9_confgen4.mol2 : confsearch ligand conformer 742
          20          19           1
SMALL
USER_CHARGES
 
@<TRIPOS>ATOM
       1    C1      19.678154   17.317129   24.818980 C.3        1 MOL1        -0.2224
       2    H1      19.953958   18.162639   25.462581 H          1 MOL1         0.1052
       3    H2      18.877816   16.759031   25.321982 H          1 MOL1         0.1052
       4    H3      20.548795   16.653740   24.734866 H          1 MOL1         0.1052
       5    C2      19.213508   17.804159   23.429326 C.3        1 MOL1        -0.1209
       6    H4      18.321561   18.436421   23.543457 H          1 MOL1         0.1041
       7    H5      18.911809   16.939399   22.821445 H          1 MOL1         0.1041
       8    C3      20.320971   18.593822   22.697398 C.3        1 MOL1        -0.1274
       9    H6      20.619326   19.459474   23.303696 H          1 MOL1         0.1041
      10    H7      21.210456   17.960426   22.580819 H          1 MOL1         0.1041
      11    C4      19.850036   19.075849   21.312677 C.3        1 MOL1         0.0313
      12    H8      18.973903   19.719256   21.426287 H          1 MOL1         0.1015
      13    H9      19.567095   18.215409   20.701060 H          1 MOL1         0.1015
      14    N1      20.906125   19.857355   20.555955 N.4        1 MOL1        -0.4809
      15    H10     21.755330   19.284356   20.434795 H          1 MOL1         0.3726
      16    H11     21.206065   20.676736   21.106232 H          1 MOL1         0.3726
      17    C5      20.359678   20.294105   19.203246 C.3        1 MOL1        -0.0677
      18    H12     19.482801   20.926865   19.356570 H          1 MOL1         0.1026
      19    H13     21.129776   20.855369   18.669447 H          1 MOL1         0.1026
      20    H14     20.081150   19.410308   18.625203 H          1 MOL1         0.1026
@<TRIPOS>BOND
    1     1     2    1
    2     1     3    1
    3     1     4    1
    4     1     5    1
    5     5     6    1
    6     5     7    1
    7     5     8    1
    8     8     9    1
    9     8    10    1
   10     8    11    1
   11    11    12    1
   12    11    13    1
   13    11    14    1
   14    14    15    1
   15    14    16    1
   16    14    17    1
   17    17    18    1
   18    17    19    1
   19    17    20    1
@<TRIPOS>SUBSTRUCTURE
       1 MOL1            1 RESIDUE      1      MOL     
@<SCITEGIC>MOL_PROPERTY
VConf Rank
SciTegic.value.IntegerValue
742

@<SCITEGIC>MOL_PROPERTY
Conf_Id
SciTegic.value.IntegerValue
67

@<SCITEGIC>MOL_PROPERTY
Delta U+W
SciTegic.value.DoubleValue
0.000

@<SCITEGIC>MOL_PROPERTY
U+W
SciTegic.value.DoubleValue
15.338

@<SCITEGIC>MOL_PROPERTY
Grad RMS
SciTegic.value.DoubleValue
0.000000

@<SCITEGIC>MOL_PROPERTY
U
SciTegic.value.DoubleValue
69.277

@<SCITEGIC>MOL_PROPERTY
W
SciTegic.value.DoubleValue
-53.939

@<SCITEGIC>MOL_PROPERTY
W(PB)
SciTegic.value.DoubleValue
-55.889

@<SCITEGIC>MOL_PROPERTY
W(SA)
SciTegic.value.DoubleValue
1.950

@<SCITEGIC>MOL_PROPERTY
Valence
SciTegic.value.DoubleValue
0.846

@<SCITEGIC>MOL_PROPERTY
Coulomb
SciTegic.value.DoubleValue
68.557

@<SCITEGIC>MOL_PROPERTY
VdW
SciTegic.value.DoubleValue
-0.127

@<SCITEGIC>MOL_PROPERTY
VdW6
SciTegic.value.DoubleValue
-3.008

@<SCITEGIC>MOL_PROPERTY
VdW12
SciTegic.value.DoubleValue
2.882

@<SCITEGIC>MOL_PROPERTY
Bond
SciTegic.value.DoubleValue
0.088

@<SCITEGIC>MOL_PROPERTY
Angle
SciTegic.value.DoubleValue
0.332

@<SCITEGIC>MOL_PROPERTY
Pdih
SciTegic.value.DoubleValue
0.426

@<SCITEGIC>MOL_PROPERTY
Idih
SciTegic.value.DoubleValue
0.000

@<SCITEGIC>MOL_PROPERTY
Tether
SciTegic.value.DoubleValue
0.000

@<TRIPOS>MOLECULE
guest-s9_confgen4.mol2 : confsearch ligand conformer 743
          20          19           1
SMALL
USER_CHARGES
 
@<TRIPOS>ATOM
       1    C1      20.581539   21.775713   21.355310 C.3        1 MOL1        -0.2224
       2    H1      19.702851   22.061924   21.947898 H          1 MOL1         0.1052
       3    H2      21.333929   22.567325   21.466114 H          1 MOL1         0.1052
       4    H3      20.284305   21.740039   20.299115 H          1 MOL1         0.1052
       5    C2      21.147340   20.416291   21.820189 C.3        1 MOL1        -0.1209
       6    H4      21.467278   20.493340   22.869012 H          1 MOL1         0.1041
       7    H5      22.044740   20.174434   21.233258 H          1 MOL1         0.1041
       8    C3      20.109156   19.281900   21.675202 C.3        1 MOL1        -0.1274
       9    H6      19.215164   19.527705   22.262666 H          1 MOL1         0.1041
      10    H7      19.793273   19.202656   20.626603 H          1 MOL1         0.1041
      11    C4      20.684045   17.928050   22.140571 C.3        1 MOL1         0.0313
      12    H8      20.956181   17.983983   23.197546 H          1 MOL1         0.1015
      13    H9      21.590523   17.712519   21.569150 H          1 MOL1         0.1015
      14    N1      19.745129   16.746181   21.960611 N.4        1 MOL1        -0.4809
      15    H10     20.257777   15.868113   22.138023 H          1 MOL1         0.3726
      16    H11     19.439258   16.679091   20.977901 H          1 MOL1         0.3726
      17    C5      18.545527   16.842940   22.897152 C.3        1 MOL1        -0.0677
      18    H12     17.970885   17.740174   22.659152 H          1 MOL1         0.1026
      19    H13     17.916592   15.959780   22.765084 H          1 MOL1         0.1026
      20    H14     18.898442   16.891989   23.929505 H          1 MOL1         0.1026
@<TRIPOS>BOND
    1     1     2    1
    2     1     3    1
    3     1     4    1
    4     1     5    1
    5     5     6    1
    6     5     7    1
    7     5     8    1
    8     8     9    1
    9     8    10    1
   10     8    11    1
   11    11    12    1
   12    11    13    1
   13    11    14    1
   14    14    15    1
   15    14    16    1
   16    14    17    1
   17    17    18    1
   18    17    19    1
   19    17    20    1
@<TRIPOS>SUBSTRUCTURE
       1 MOL1            1 RESIDUE      1      MOL     
@<SCITEGIC>MOL_PROPERTY
VConf Rank
SciTegic.value.IntegerValue
743

@<SCITEGIC>MOL_PROPERTY
Conf_Id
SciTegic.value.IntegerValue
37

@<SCITEGIC>MOL_PROPERTY
Delta U+W
SciTegic.value.DoubleValue
-0.021

@<SCITEGIC>MOL_PROPERTY
U+W
SciTegic.value.DoubleValue
15.318

@<SCITEGIC>MOL_PROPERTY
Grad RMS
SciTegic.value.DoubleValue
0.000000

@<SCITEGIC>MOL_PROPERTY
U
SciTegic.value.DoubleValue
69.657

@<SCITEGIC>MOL_PROPERTY
W
SciTegic.value.DoubleValue
-54.340

@<SCITEGIC>MOL_PROPERTY
W(PB)
SciTegic.value.DoubleValue
-56.238

@<SCITEGIC>MOL_PROPERTY
W(SA)
SciTegic.value.DoubleValue
1.899

@<SCITEGIC>MOL_PROPERTY
Valence
SciTegic.value.DoubleValue
1.137

@<SCITEGIC>MOL_PROPERTY
Coulomb
SciTegic.value.DoubleValue
68.383

@<SCITEGIC>MOL_PROPERTY
VdW
SciTegic.value.DoubleValue
0.138

@<SCITEGIC>MOL_PROPERTY
VdW6
SciTegic.value.DoubleValue
-3.703

@<SCITEGIC>MOL_PROPERTY
VdW12
SciTegic.value.DoubleValue
3.841

@<SCITEGIC>MOL_PROPERTY
Bond
SciTegic.value.DoubleValue
0.125

@<SCITEGIC>MOL_PROPERTY
Angle
SciTegic.value.DoubleValue
0.468

@<SCITEGIC>MOL_PROPERTY
Pdih
SciTegic.value.DoubleValue
0.543

@<SCITEGIC>MOL_PROPERTY
Idih
SciTegic.value.DoubleValue
0.000

@<SCITEGIC>MOL_PROPERTY
Tether
SciTegic.value.DoubleValue
0.000

@<TRIPOS>MOLECULE
guest-s9_confgen4.mol2 : confsearch ligand conformer 744
          20          19           1
SMALL
USER_CHARGES
 
@<TRIPOS>ATOM
       1    C1      20.690910   19.859174   24.704246 C.3        1 MOL1        -0.2224
       2    H1      20.364202   19.837830   25.752018 H          1 MOL1         0.1052
       3    H2      21.673468   19.372701   24.648638 H          1 MOL1         0.1052
       4    H3      20.813144   20.910191   24.411684 H          1 MOL1         0.1052
       5    C2      19.664555   19.145257   23.798054 C.3        1 MOL1        -0.1209
       6    H4      18.684667   19.632407   23.902052 H          1 MOL1         0.1041
       7    H5      19.538552   18.107027   24.136474 H          1 MOL1         0.1041
       8    C3      20.098527   19.160010   22.315780 C.3        1 MOL1        -0.1274
       9    H6      20.220016   20.197429   21.977218 H          1 MOL1         0.1041
      10    H7      21.077080   18.672770   22.216855 H          1 MOL1         0.1041
      11    C4      19.066424   18.446061   21.418557 C.3        1 MOL1         0.0313
      12    H8      18.091459   18.921831   21.551844 H          1 MOL1         0.1015
      13    H9      18.975305   17.399050   21.718302 H          1 MOL1         0.1015
      14    N1      19.386971   18.481732   19.933049 N.4        1 MOL1        -0.4809
      15    H10     19.512775   19.455685   19.617831 H          1 MOL1         0.3726
      16    H11     18.576843   18.133296   19.396791 H          1 MOL1         0.3726
      17    C5      20.619507   17.643441   19.611118 C.3        1 MOL1        -0.0677
      18    H12     20.449941   16.614983   19.937045 H          1 MOL1         0.1026
      19    H13     20.794055   17.663541   18.533110 H          1 MOL1         0.1026
      20    H14     21.485989   18.058252   20.129797 H          1 MOL1         0.1026
@<TRIPOS>BOND
    1     1     2    1
    2     1     3    1
    3     1     4    1
    4     1     5    1
    5     5     6    1
    6     5     7    1
    7     5     8    1
    8     8     9    1
    9     8    10    1
   10     8    11    1
   11    11    12    1
   12    11    13    1
   13    11    14    1
   14    14    15    1
   15    14    16    1
   16    14    17    1
   17    17    18    1
   18    17    19    1
   19    17    20    1
@<TRIPOS>SUBSTRUCTURE
       1 MOL1            1 RESIDUE      1      MOL     
@<SCITEGIC>MOL_PROPERTY
VConf Rank
SciTegic.value.IntegerValue
744

@<SCITEGIC>MOL_PROPERTY
Conf_Id
SciTegic.value.IntegerValue
2

@<SCITEGIC>MOL_PROPERTY
Delta U+W
SciTegic.value.DoubleValue
0.069

@<SCITEGIC>MOL_PROPERTY
U+W
SciTegic.value.DoubleValue
15.407

@<SCITEGIC>MOL_PROPERTY
Grad RMS
SciTegic.value.DoubleValue
0.000000

@<SCITEGIC>MOL_PROPERTY
U
SciTegic.value.DoubleValue
69.657

@<SCITEGIC>MOL_PROPERTY
W
SciTegic.value.DoubleValue
-54.250

@<SCITEGIC>MOL_PROPERTY
W(PB)
SciTegic.value.DoubleValue
-56.176

@<SCITEGIC>MOL_PROPERTY
W(SA)
SciTegic.value.DoubleValue
1.926

@<SCITEGIC>MOL_PROPERTY
Valence
SciTegic.value.DoubleValue
1.137

@<SCITEGIC>MOL_PROPERTY
Coulomb
SciTegic.value.DoubleValue
68.383

@<SCITEGIC>MOL_PROPERTY
VdW
SciTegic.value.DoubleValue
0.138

@<SCITEGIC>MOL_PROPERTY
VdW6
SciTegic.value.DoubleValue
-3.703

@<SCITEGIC>MOL_PROPERTY
VdW12
SciTegic.value.DoubleValue
3.841

@<SCITEGIC>MOL_PROPERTY
Bond
SciTegic.value.DoubleValue
0.125

@<SCITEGIC>MOL_PROPERTY
Angle
SciTegic.value.DoubleValue
0.468

@<SCITEGIC>MOL_PROPERTY
Pdih
SciTegic.value.DoubleValue
0.543

@<SCITEGIC>MOL_PROPERTY
Idih
SciTegic.value.DoubleValue
0.000

@<SCITEGIC>MOL_PROPERTY
Tether
SciTegic.value.DoubleValue
0.000

@<TRIPOS>MOLECULE
guest-s9_confgen4.mol2 : confsearch ligand conformer 745
          20          19           1
SMALL
USER_CHARGES
 
@<TRIPOS>ATOM
       1    C1      21.847828   18.667810   23.963249 C.3        1 MOL1        -0.2224
       2    H1      21.586567   17.658672   23.620545 H          1 MOL1         0.1052
       3    H2      22.683613   19.032042   23.351778 H          1 MOL1         0.1052
       4    H3      22.202693   18.583682   24.998616 H          1 MOL1         0.1052
       5    C2      20.638349   19.627338   23.881058 C.3        1 MOL1        -0.1209
       6    H4      20.918494   20.595536   24.319379 H          1 MOL1         0.1041
       7    H5      19.815084   19.236959   24.495911 H          1 MOL1         0.1041
       8    C3      20.144686   19.855412   22.433143 C.3        1 MOL1        -0.1274
       9    H6      19.339756   20.602296   22.443602 H          1 MOL1         0.1041
      10    H7      20.958522   20.278146   21.829130 H          1 MOL1         0.1041
      11    C4      19.626615   18.563260   21.771938 C.3        1 MOL1         0.0313
      12    H8      18.815070   18.143997   22.371927 H          1 MOL1         0.1015
      13    H9      20.432248   17.826966   21.721016 H          1 MOL1         0.1015
      14    N1      19.103952   18.775078   20.364662 N.4        1 MOL1        -0.4809
      15    H10     19.841216   19.180324   19.767748 H          1 MOL1         0.3726
      16    H11     18.342350   19.470819   20.367978 H          1 MOL1         0.3726
      17    C5      18.616440   17.453003   19.787131 C.3        1 MOL1        -0.0677
      18    H12     17.813999   17.059984   20.415166 H          1 MOL1         0.1026
      19    H13     18.242999   17.619882   18.774364 H          1 MOL1         0.1026
      20    H14     19.446500   16.743691   19.761093 H          1 MOL1         0.1026
@<TRIPOS>BOND
    1     1     2    1
    2     1     3    1
    3     1     4    1
    4     1     5    1
    5     5     6    1
    6     5     7    1
    7     5     8    1
    8     8     9    1
    9     8    10    1
   10     8    11    1
   11    11    12    1
   12    11    13    1
   13    11    14    1
   14    14    15    1
   15    14    16    1
   16    14    17    1
   17    17    18    1
   18    17    19    1
   19    17    20    1
@<TRIPOS>SUBSTRUCTURE
       1 MOL1            1 RESIDUE      1      MOL     
@<SCITEGIC>MOL_PROPERTY
VConf Rank
SciTegic.value.IntegerValue
745

@<SCITEGIC>MOL_PROPERTY
Conf_Id
SciTegic.value.IntegerValue
34

@<SCITEGIC>MOL_PROPERTY
Delta U+W
SciTegic.value.DoubleValue
0.276

@<SCITEGIC>MOL_PROPERTY
U+W
SciTegic.value.DoubleValue
15.615

@<SCITEGIC>MOL_PROPERTY
Grad RMS
SciTegic.value.DoubleValue
0.000000

@<SCITEGIC>MOL_PROPERTY
U
SciTegic.value.DoubleValue
69.798

@<SCITEGIC>MOL_PROPERTY
W
SciTegic.value.DoubleValue
-54.184

@<SCITEGIC>MOL_PROPERTY
W(PB)
SciTegic.value.DoubleValue
-56.116

@<SCITEGIC>MOL_PROPERTY
W(SA)
SciTegic.value.DoubleValue
1.933

@<SCITEGIC>MOL_PROPERTY
Valence
SciTegic.value.DoubleValue
1.134

@<SCITEGIC>MOL_PROPERTY
Coulomb
SciTegic.value.DoubleValue
68.735

@<SCITEGIC>MOL_PROPERTY
VdW
SciTegic.value.DoubleValue
-0.070

@<SCITEGIC>MOL_PROPERTY
VdW6
SciTegic.value.DoubleValue
-3.565

@<SCITEGIC>MOL_PROPERTY
VdW12
SciTegic.value.DoubleValue
3.494

@<SCITEGIC>MOL_PROPERTY
Bond
SciTegic.value.DoubleValue
0.108

@<SCITEGIC>MOL_PROPERTY
Angle
SciTegic.value.DoubleValue
0.456

@<SCITEGIC>MOL_PROPERTY
Pdih
SciTegic.value.DoubleValue
0.569

@<SCITEGIC>MOL_PROPERTY
Idih
SciTegic.value.DoubleValue
0.000

@<SCITEGIC>MOL_PROPERTY
Tether
SciTegic.value.DoubleValue
0.000

@<TRIPOS>MOLECULE
guest-s9_confgen4.mol2 : confsearch ligand conformer 746
          20          19           1
SMALL
USER_CHARGES
 
@<TRIPOS>ATOM
       1    C1      21.639794   16.317018   22.689785 C.3        1 MOL1        -0.2224
       2    H1      22.707765   16.570940   22.678348 H          1 MOL1         0.1052
       3    H2      21.458316   15.667646   23.556045 H          1 MOL1         0.1052
       4    H3      21.416552   15.738842   21.783663 H          1 MOL1         0.1052
       5    C2      20.766243   17.587781   22.767863 C.3        1 MOL1        -0.1209
       6    H4      20.990091   18.126850   23.699325 H          1 MOL1         0.1041
       7    H5      19.709132   17.293677   22.818016 H          1 MOL1         0.1041
       8    C3      21.003197   18.520557   21.556679 C.3        1 MOL1        -0.1274
       9    H6      22.070040   18.773944   21.497309 H          1 MOL1         0.1041
      10    H7      20.754491   17.997446   20.623750 H          1 MOL1         0.1041
      11    C4      20.195676   19.831216   21.643993 C.3        1 MOL1         0.0313
      12    H8      20.472696   20.482295   20.810941 H          1 MOL1         0.1015
      13    H9      20.436633   20.349794   22.575364 H          1 MOL1         0.1015
      14    N1      18.691974   19.636301   21.591333 N.4        1 MOL1        -0.4809
      15    H10     18.385246   19.026894   22.363987 H          1 MOL1         0.3726
      16    H11     18.428093   19.138644   20.727185 H          1 MOL1         0.3726
      17    C5      17.990147   20.985625   21.666183 C.3        1 MOL1        -0.0677
      18    H12     18.257938   21.479130   22.602949 H          1 MOL1         0.1026
      19    H13     18.304191   21.601888   20.820972 H          1 MOL1         0.1026
      20    H14     16.909631   20.830808   21.627383 H          1 MOL1         0.1026
@<TRIPOS>BOND
    1     1     2    1
    2     1     3    1
    3     1     4    1
    4     1     5    1
    5     5     6    1
    6     5     7    1
    7     5     8    1
    8     8     9    1
    9     8    10    1
   10     8    11    1
   11    11    12    1
   12    11    13    1
   13    11    14    1
   14    14    15    1
   15    14    16    1
   16    14    17    1
   17    17    18    1
   18    17    19    1
   19    17    20    1
@<TRIPOS>SUBSTRUCTURE
       1 MOL1            1 RESIDUE      1      MOL     
@<SCITEGIC>MOL_PROPERTY
VConf Rank
SciTegic.value.IntegerValue
746

@<SCITEGIC>MOL_PROPERTY
Conf_Id
SciTegic.value.IntegerValue
50

@<SCITEGIC>MOL_PROPERTY
Delta U+W
SciTegic.value.DoubleValue
0.319

@<SCITEGIC>MOL_PROPERTY
U+W
SciTegic.value.DoubleValue
15.657

@<SCITEGIC>MOL_PROPERTY
Grad RMS
SciTegic.value.DoubleValue
0.000000

@<SCITEGIC>MOL_PROPERTY
U
SciTegic.value.DoubleValue
69.962

@<SCITEGIC>MOL_PROPERTY
W
SciTegic.value.DoubleValue
-54.305

@<SCITEGIC>MOL_PROPERTY
W(PB)
SciTegic.value.DoubleValue
-56.223

@<SCITEGIC>MOL_PROPERTY
W(SA)
SciTegic.value.DoubleValue
1.918

@<SCITEGIC>MOL_PROPERTY
Valence
SciTegic.value.DoubleValue
0.982

@<SCITEGIC>MOL_PROPERTY
Coulomb
SciTegic.value.DoubleValue
69.058

@<SCITEGIC>MOL_PROPERTY
VdW
SciTegic.value.DoubleValue
-0.078

@<SCITEGIC>MOL_PROPERTY
VdW6
SciTegic.value.DoubleValue
-3.548

@<SCITEGIC>MOL_PROPERTY
VdW12
SciTegic.value.DoubleValue
3.471

@<SCITEGIC>MOL_PROPERTY
Bond
SciTegic.value.DoubleValue
0.105

@<SCITEGIC>MOL_PROPERTY
Angle
SciTegic.value.DoubleValue
0.408

@<SCITEGIC>MOL_PROPERTY
Pdih
SciTegic.value.DoubleValue
0.469

@<SCITEGIC>MOL_PROPERTY
Idih
SciTegic.value.DoubleValue
0.000

@<SCITEGIC>MOL_PROPERTY
Tether
SciTegic.value.DoubleValue
0.000

@<TRIPOS>MOLECULE
guest-s9_confgen4.mol2 : confsearch ligand conformer 747
          20          19           1
SMALL
USER_CHARGES
 
@<TRIPOS>ATOM
       1    C1      17.590515   18.133996   20.404273 C.3        1 MOL1        -0.2224
       2    H1      17.529097   17.329088   19.660380 H          1 MOL1         0.1052
       3    H2      16.742085   18.021316   21.091761 H          1 MOL1         0.1052
       4    H3      17.477184   19.089508   19.875751 H          1 MOL1         0.1052
       5    C2      18.933790   18.074258   21.163265 C.3        1 MOL1        -0.1209
       6    H4      19.757584   18.149624   20.440646 H          1 MOL1         0.1041
       7    H5      19.031239   17.095740   21.654517 H          1 MOL1         0.1041
       8    C3      19.045580   19.199997   22.218445 C.3        1 MOL1        -0.1274
       9    H6      18.977335   20.181622   21.730992 H          1 MOL1         0.1041
      10    H7      18.194653   19.135113   22.909528 H          1 MOL1         0.1041
      11    C4      20.347599   19.122011   23.040764 C.3        1 MOL1         0.0313
      12    H8      20.420645   18.143019   23.521051 H          1 MOL1         0.1015
      13    H9      20.326343   19.884114   23.823941 H          1 MOL1         0.1015
      14    N1      21.608467   19.339523   22.225417 N.4        1 MOL1        -0.4809
      15    H10     21.569733   20.252967   21.747746 H          1 MOL1         0.3726
      16    H11     21.670394   18.638149   21.472627 H          1 MOL1         0.3726
      17    C5      22.831649   19.260703   23.128994 C.3        1 MOL1        -0.0677
      18    H12     23.731179   19.418673   22.529927 H          1 MOL1         0.1026
      19    H13     22.761287   20.033059   23.897955 H          1 MOL1         0.1026
      20    H14     22.869925   18.275011   23.597757 H          1 MOL1         0.1026
@<TRIPOS>BOND
    1     1     2    1
    2     1     3    1
    3     1     4    1
    4     1     5    1
    5     5     6    1
    6     5     7    1
    7     5     8    1
    8     8     9    1
    9     8    10    1
   10     8    11    1
   11    11    12    1
   12    11    13    1
   13    11    14    1
   14    14    15    1
   15    14    16    1
   16    14    17    1
   17    17    18    1
   18    17    19    1
   19    17    20    1
@<TRIPOS>SUBSTRUCTURE
       1 MOL1            1 RESIDUE      1      MOL     
@<SCITEGIC>MOL_PROPERTY
VConf Rank
SciTegic.value.IntegerValue
747

@<SCITEGIC>MOL_PROPERTY
Conf_Id
SciTegic.value.IntegerValue
35

@<SCITEGIC>MOL_PROPERTY
Delta U+W
SciTegic.value.DoubleValue
0.360

@<SCITEGIC>MOL_PROPERTY
U+W
SciTegic.value.DoubleValue
15.698

@<SCITEGIC>MOL_PROPERTY
Grad RMS
SciTegic.value.DoubleValue
0.000000

@<SCITEGIC>MOL_PROPERTY
U
SciTegic.value.DoubleValue
69.962

@<SCITEGIC>MOL_PROPERTY
W
SciTegic.value.DoubleValue
-54.264

@<SCITEGIC>MOL_PROPERTY
W(PB)
SciTegic.value.DoubleValue
-56.166

@<SCITEGIC>MOL_PROPERTY
W(SA)
SciTegic.value.DoubleValue
1.902

@<SCITEGIC>MOL_PROPERTY
Valence
SciTegic.value.DoubleValue
0.982

@<SCITEGIC>MOL_PROPERTY
Coulomb
SciTegic.value.DoubleValue
69.058

@<SCITEGIC>MOL_PROPERTY
VdW
SciTegic.value.DoubleValue
-0.078

@<SCITEGIC>MOL_PROPERTY
VdW6
SciTegic.value.DoubleValue
-3.548

@<SCITEGIC>MOL_PROPERTY
VdW12
SciTegic.value.DoubleValue
3.471

@<SCITEGIC>MOL_PROPERTY
Bond
SciTegic.value.DoubleValue
0.105

@<SCITEGIC>MOL_PROPERTY
Angle
SciTegic.value.DoubleValue
0.408

@<SCITEGIC>MOL_PROPERTY
Pdih
SciTegic.value.DoubleValue
0.469

@<SCITEGIC>MOL_PROPERTY
Idih
SciTegic.value.DoubleValue
0.000

@<SCITEGIC>MOL_PROPERTY
Tether
SciTegic.value.DoubleValue
0.000

@<TRIPOS>MOLECULE
guest-s9_confgen4.mol2 : confsearch ligand conformer 748
          20          19           1
SMALL
USER_CHARGES
 
@<TRIPOS>ATOM
       1    C1      18.058341   20.208415   22.723798 C.3        1 MOL1        -0.2224
       2    H1      18.774398   20.922688   22.298185 H          1 MOL1         0.1052
       3    H2      17.072634   20.691459   22.728768 H          1 MOL1         0.1052
       4    H3      18.342929   20.018018   23.766799 H          1 MOL1         0.1052
       5    C2      18.014227   18.894488   21.910250 C.3        1 MOL1        -0.1209
       6    H4      17.732405   19.113227   20.870588 H          1 MOL1         0.1041
       7    H5      17.222655   18.248373   22.315139 H          1 MOL1         0.1041
       8    C3      19.354602   18.123379   21.935922 C.3        1 MOL1        -0.1274
       9    H6      19.611808   17.875117   22.973670 H          1 MOL1         0.1041
      10    H7      19.228734   17.169885   21.406279 H          1 MOL1         0.1041
      11    C4      20.506849   18.916112   21.282189 C.3        1 MOL1         0.0313
      12    H8      20.688006   19.837667   21.840468 H          1 MOL1         0.1015
      13    H9      20.216830   19.188386   20.264188 H          1 MOL1         0.1015
      14    N1      21.822495   18.160325   21.191311 N.4        1 MOL1        -0.4809
      15    H10     22.484583   18.689093   20.602030 H          1 MOL1         0.3726
      16    H11     21.687012   17.264868   20.697833 H          1 MOL1         0.3726
      17    C5      22.426990   17.932910   22.572700 C.3        1 MOL1        -0.0677
      18    H12     21.749850   17.317328   23.168039 H          1 MOL1         0.1026
      19    H13     23.386042   17.421741   22.463666 H          1 MOL1         0.1026
      20    H14     22.577870   18.897398   23.062287 H          1 MOL1         0.1026
@<TRIPOS>BOND
    1     1     2    1
    2     1     3    1
    3     1     4    1
    4     1     5    1
    5     5     6    1
    6     5     7    1
    7     5     8    1
    8     8     9    1
    9     8    10    1
   10     8    11    1
   11    11    12    1
   12    11    13    1
   13    11    14    1
   14    14    15    1
   15    14    16    1
   16    14    17    1
   17    17    18    1
   18    17    19    1
   19    17    20    1
@<TRIPOS>SUBSTRUCTURE
       1 MOL1            1 RESIDUE      1      MOL     
@<SCITEGIC>MOL_PROPERTY
VConf Rank
SciTegic.value.IntegerValue
748

@<SCITEGIC>MOL_PROPERTY
Conf_Id
SciTegic.value.IntegerValue
33

@<SCITEGIC>MOL_PROPERTY
Delta U+W
SciTegic.value.DoubleValue
0.372

@<SCITEGIC>MOL_PROPERTY
U+W
SciTegic.value.DoubleValue
15.711

@<SCITEGIC>MOL_PROPERTY
Grad RMS
SciTegic.value.DoubleValue
0.000000

@<SCITEGIC>MOL_PROPERTY
U
SciTegic.value.DoubleValue
70.163

@<SCITEGIC>MOL_PROPERTY
W
SciTegic.value.DoubleValue
-54.452

@<SCITEGIC>MOL_PROPERTY
W(PB)
SciTegic.value.DoubleValue
-56.363

@<SCITEGIC>MOL_PROPERTY
W(SA)
SciTegic.value.DoubleValue
1.911

@<SCITEGIC>MOL_PROPERTY
Valence
SciTegic.value.DoubleValue
1.420

@<SCITEGIC>MOL_PROPERTY
Coulomb
SciTegic.value.DoubleValue
68.566

@<SCITEGIC>MOL_PROPERTY
VdW
SciTegic.value.DoubleValue
0.177

@<SCITEGIC>MOL_PROPERTY
VdW6
SciTegic.value.DoubleValue
-4.267

@<SCITEGIC>MOL_PROPERTY
VdW12
SciTegic.value.DoubleValue
4.445

@<SCITEGIC>MOL_PROPERTY
Bond
SciTegic.value.DoubleValue
0.146

@<SCITEGIC>MOL_PROPERTY
Angle
SciTegic.value.DoubleValue
0.581

@<SCITEGIC>MOL_PROPERTY
Pdih
SciTegic.value.DoubleValue
0.693

@<SCITEGIC>MOL_PROPERTY
Idih
SciTegic.value.DoubleValue
0.000

@<SCITEGIC>MOL_PROPERTY
Tether
SciTegic.value.DoubleValue
0.000

@<TRIPOS>MOLECULE
guest-s9_confgen4.mol2 : confsearch ligand conformer 749
          20          19           1
SMALL
USER_CHARGES
 
@<TRIPOS>ATOM
       1    C1      22.568991   19.600186   21.827156 C.3        1 MOL1        -0.2224
       2    H1      23.597780   19.864387   22.104220 H          1 MOL1         0.1052
       3    H2      22.585853   18.577433   21.429965 H          1 MOL1         0.1052
       4    H3      22.255589   20.275939   21.020787 H          1 MOL1         0.1052
       5    C2      21.630400   19.719842   23.049835 C.3        1 MOL1        -0.1209
       6    H4      21.714521   20.732451   23.468800 H          1 MOL1         0.1041
       7    H5      21.962535   19.030718   23.839114 H          1 MOL1         0.1041
       8    C3      20.149212   19.440749   22.703325 C.3        1 MOL1        -0.1274
       9    H6      19.533866   19.617900   23.595223 H          1 MOL1         0.1041
      10    H7      19.812592   20.156001   21.941872 H          1 MOL1         0.1041
      11    C4      19.918314   17.996519   22.209008 C.3        1 MOL1         0.0313
      12    H8      20.295104   17.299690   22.962020 H          1 MOL1         0.1015
      13    H9      20.473210   17.827017   21.283204 H          1 MOL1         0.1015
      14    N1      18.463000   17.641384   21.951435 N.4        1 MOL1        -0.4809
      15    H10     17.896866   17.819490   22.794933 H          1 MOL1         0.3726
      16    H11     18.379210   16.625984   21.786669 H          1 MOL1         0.3726
      17    C5      17.909645   18.407204   20.754487 C.3        1 MOL1        -0.0677
      18    H12     16.876783   18.098489   20.578836 H          1 MOL1         0.1026
      19    H13     17.940925   19.478332   20.963279 H          1 MOL1         0.1026
      20    H14     18.515185   18.183677   19.873546 H          1 MOL1         0.1026
@<TRIPOS>BOND
    1     1     2    1
    2     1     3    1
    3     1     4    1
    4     1     5    1
    5     5     6    1
    6     5     7    1
    7     5     8    1
    8     8     9    1
    9     8    10    1
   10     8    11    1
   11    11    12    1
   12    11    13    1
   13    11    14    1
   14    14    15    1
   15    14    16    1
   16    14    17    1
   17    17    18    1
   18    17    19    1
   19    17    20    1
@<TRIPOS>SUBSTRUCTURE
       1 MOL1            1 RESIDUE      1      MOL     
@<SCITEGIC>MOL_PROPERTY
VConf Rank
SciTegic.value.IntegerValue
749

@<SCITEGIC>MOL_PROPERTY
Conf_Id
SciTegic.value.IntegerValue
53

@<SCITEGIC>MOL_PROPERTY
Delta U+W
SciTegic.value.DoubleValue
0.379

@<SCITEGIC>MOL_PROPERTY
U+W
SciTegic.value.DoubleValue
15.717

@<SCITEGIC>MOL_PROPERTY
Grad RMS
SciTegic.value.DoubleValue
0.000000

@<SCITEGIC>MOL_PROPERTY
U
SciTegic.value.DoubleValue
70.163

@<SCITEGIC>MOL_PROPERTY
W
SciTegic.value.DoubleValue
-54.446

@<SCITEGIC>MOL_PROPERTY
W(PB)
SciTegic.value.DoubleValue
-56.322

@<SCITEGIC>MOL_PROPERTY
W(SA)
SciTegic.value.DoubleValue
1.876

@<SCITEGIC>MOL_PROPERTY
Valence
SciTegic.value.DoubleValue
1.420

@<SCITEGIC>MOL_PROPERTY
Coulomb
SciTegic.value.DoubleValue
68.566

@<SCITEGIC>MOL_PROPERTY
VdW
SciTegic.value.DoubleValue
0.177

@<SCITEGIC>MOL_PROPERTY
VdW6
SciTegic.value.DoubleValue
-4.267

@<SCITEGIC>MOL_PROPERTY
VdW12
SciTegic.value.DoubleValue
4.445

@<SCITEGIC>MOL_PROPERTY
Bond
SciTegic.value.DoubleValue
0.146

@<SCITEGIC>MOL_PROPERTY
Angle
SciTegic.value.DoubleValue
0.581

@<SCITEGIC>MOL_PROPERTY
Pdih
SciTegic.value.DoubleValue
0.693

@<SCITEGIC>MOL_PROPERTY
Idih
SciTegic.value.DoubleValue
0.000

@<SCITEGIC>MOL_PROPERTY
Tether
SciTegic.value.DoubleValue
0.000

@<TRIPOS>MOLECULE
guest-s9_confgen4.mol2 : confsearch ligand conformer 750
          20          19           1
SMALL
USER_CHARGES
 
@<TRIPOS>ATOM
       1    C1      22.506864   17.993657   20.808561 C.3        1 MOL1        -0.2224
       2    H1      22.651165   17.563339   19.809059 H          1 MOL1         0.1052
       3    H2      23.325351   18.702258   20.990529 H          1 MOL1         0.1052
       4    H3      22.590802   17.179638   21.540333 H          1 MOL1         0.1052
       5    C2      21.133421   18.691899   20.908934 C.3        1 MOL1        -0.1209
       6    H4      20.343317   17.962831   20.683427 H          1 MOL1         0.1041
       7    H5      21.067846   19.478950   20.144453 H          1 MOL1         0.1041
       8    C3      20.904187   19.305712   22.310151 C.3        1 MOL1        -0.1274
       9    H6      20.941583   18.519629   23.075276 H          1 MOL1         0.1041
      10    H7      21.723811   19.998940   22.541017 H          1 MOL1         0.1041
      11    C4      19.570784   20.078618   22.416516 C.3        1 MOL1         0.0313
      12    H8      19.573779   20.892977   21.687517 H          1 MOL1         0.1015
      13    H9      19.484683   20.521226   23.412096 H          1 MOL1         0.1015
      14    N1      18.316937   19.252821   22.170436 N.4        1 MOL1        -0.4809
      15    H10     18.357795   18.812696   21.239495 H          1 MOL1         0.3726
      16    H11     17.495180   19.876177   22.133453 H          1 MOL1         0.3726
      17    C5      18.122208   18.202481   23.258462 C.3        1 MOL1        -0.0677
      18    H12     18.062930   18.697988   24.229862 H          1 MOL1         0.1026
      19    H13     17.195994   17.656250   23.066915 H          1 MOL1         0.1026
      20    H14     18.965411   17.509016   23.247136 H          1 MOL1         0.1026
@<TRIPOS>BOND
    1     1     2    1
    2     1     3    1
    3     1     4    1
    4     1     5    1
    5     5     6    1
    6     5     7    1
    7     5     8    1
    8     8     9    1
    9     8    10    1
   10     8    11    1
   11    11    12    1
   12    11    13    1
   13    11    14    1
   14    14    15    1
   15    14    16    1
   16    14    17    1
   17    17    18    1
   18    17    19    1
   19    17    20    1
@<TRIPOS>SUBSTRUCTURE
       1 MOL1            1 RESIDUE      1      MOL     
@<SCITEGIC>MOL_PROPERTY
VConf Rank
SciTegic.value.IntegerValue
750

@<SCITEGIC>MOL_PROPERTY
Conf_Id
SciTegic.value.IntegerValue
49

@<SCITEGIC>MOL_PROPERTY
Delta U+W
SciTegic.value.DoubleValue
0.268

@<SCITEGIC>MOL_PROPERTY
U+W
SciTegic.value.DoubleValue
15.607

@<SCITEGIC>MOL_PROPERTY
Grad RMS
SciTegic.value.DoubleValue
0.000000

@<SCITEGIC>MOL_PROPERTY
U
SciTegic.value.DoubleValue
70.298

@<SCITEGIC>MOL_PROPERTY
W
SciTegic.value.DoubleValue
-54.692

@<SCITEGIC>MOL_PROPERTY
W(PB)
SciTegic.value.DoubleValue
-56.576

@<SCITEGIC>MOL_PROPERTY
W(SA)
SciTegic.value.DoubleValue
1.885

@<SCITEGIC>MOL_PROPERTY
Valence
SciTegic.value.DoubleValue
1.245

@<SCITEGIC>MOL_PROPERTY
Coulomb
SciTegic.value.DoubleValue
68.933

@<SCITEGIC>MOL_PROPERTY
VdW
SciTegic.value.DoubleValue
0.120

@<SCITEGIC>MOL_PROPERTY
VdW6
SciTegic.value.DoubleValue
-4.430

@<SCITEGIC>MOL_PROPERTY
VdW12
SciTegic.value.DoubleValue
4.550

@<SCITEGIC>MOL_PROPERTY
Bond
SciTegic.value.DoubleValue
0.148

@<SCITEGIC>MOL_PROPERTY
Angle
SciTegic.value.DoubleValue
0.587

@<SCITEGIC>MOL_PROPERTY
Pdih
SciTegic.value.DoubleValue
0.509

@<SCITEGIC>MOL_PROPERTY
Idih
SciTegic.value.DoubleValue
0.000

@<SCITEGIC>MOL_PROPERTY
Tether
SciTegic.value.DoubleValue
0.000

@<TRIPOS>MOLECULE
guest-s9_confgen4.mol2 : confsearch ligand conformer 751
          20          19           1
SMALL
USER_CHARGES
 
@<TRIPOS>ATOM
       1    C1      22.462821   18.039087   20.796603 C.3        1 MOL1        -0.2224
       2    H1      22.826561   17.268435   21.488672 H          1 MOL1         0.1052
       3    H2      22.291818   17.567898   19.819936 H          1 MOL1         0.1052
       4    H3      23.259388   18.784490   20.674721 H          1 MOL1         0.1052
       5    C2      21.173374   18.700800   21.329322 C.3        1 MOL1        -0.1209
       6    H4      20.849844   19.485198   20.630725 H          1 MOL1         0.1041
       7    H5      21.396737   19.192687   22.285201 H          1 MOL1         0.1041
       8    C3      20.037211   17.669219   21.520632 C.3        1 MOL1        -0.1274
       9    H6      19.905016   17.104792   20.588053 H          1 MOL1         0.1041
      10    H7      20.325933   16.936289   22.285490 H          1 MOL1         0.1041
      11    C4      18.673799   18.292889   21.896096 C.3        1 MOL1         0.0313
      12    H8      17.936249   17.487473   21.941593 H          1 MOL1         0.1015
      13    H9      18.350655   18.994043   21.122625 H          1 MOL1         0.1015
      14    N1      18.624473   19.007154   23.237981 N.4        1 MOL1        -0.4809
      15    H10     19.258594   18.551950   23.911420 H          1 MOL1         0.3726
      16    H11     17.683273   18.898259   23.646994 H          1 MOL1         0.3726
      17    C5      18.938437   20.492560   23.090868 C.3        1 MOL1        -0.0677
      18    H12     18.869786   20.970575   24.070534 H          1 MOL1         0.1026
      19    H13     19.945403   20.619738   22.691925 H          1 MOL1         0.1026
      20    H14     18.213864   20.945693   22.410903 H          1 MOL1         0.1026
@<TRIPOS>BOND
    1     1     2    1
    2     1     3    1
    3     1     4    1
    4     1     5    1
    5     5     6    1
    6     5     7    1
    7     5     8    1
    8     8     9    1
    9     8    10    1
   10     8    11    1
   11    11    12    1
   12    11    13    1
   13    11    14    1
   14    14    15    1
   15    14    16    1
   16    14    17    1
   17    17    18    1
   18    17    19    1
   19    17    20    1
@<TRIPOS>SUBSTRUCTURE
       1 MOL1            1 RESIDUE      1      MOL     
@<SCITEGIC>MOL_PROPERTY
VConf Rank
SciTegic.value.IntegerValue
751

@<SCITEGIC>MOL_PROPERTY
Conf_Id
SciTegic.value.IntegerValue
65

@<SCITEGIC>MOL_PROPERTY
Delta U+W
SciTegic.value.DoubleValue
1.775

@<SCITEGIC>MOL_PROPERTY
U+W
SciTegic.value.DoubleValue
17.114

@<SCITEGIC>MOL_PROPERTY
Grad RMS
SciTegic.value.DoubleValue
0.000000

@<SCITEGIC>MOL_PROPERTY
U
SciTegic.value.DoubleValue
71.726

@<SCITEGIC>MOL_PROPERTY
W
SciTegic.value.DoubleValue
-54.613

@<SCITEGIC>MOL_PROPERTY
W(PB)
SciTegic.value.DoubleValue
-56.495

@<SCITEGIC>MOL_PROPERTY
W(SA)
SciTegic.value.DoubleValue
1.883

@<SCITEGIC>MOL_PROPERTY
Valence
SciTegic.value.DoubleValue
2.885

@<SCITEGIC>MOL_PROPERTY
Coulomb
SciTegic.value.DoubleValue
68.822

@<SCITEGIC>MOL_PROPERTY
VdW
SciTegic.value.DoubleValue
0.019

@<SCITEGIC>MOL_PROPERTY
VdW6
SciTegic.value.DoubleValue
-4.600

@<SCITEGIC>MOL_PROPERTY
VdW12
SciTegic.value.DoubleValue
4.619

@<SCITEGIC>MOL_PROPERTY
Bond
SciTegic.value.DoubleValue
0.152

@<SCITEGIC>MOL_PROPERTY
Angle
SciTegic.value.DoubleValue
0.862

@<SCITEGIC>MOL_PROPERTY
Pdih
SciTegic.value.DoubleValue
1.871

@<SCITEGIC>MOL_PROPERTY
Idih
SciTegic.value.DoubleValue
0.000

@<SCITEGIC>MOL_PROPERTY
Tether
SciTegic.value.DoubleValue
0.000

@<TRIPOS>MOLECULE
guest-s9_confgen4.mol2 : confsearch ligand conformer 752
          20          19           1
SMALL
USER_CHARGES
 
@<TRIPOS>ATOM
       1    C1      18.842258   18.398216   20.033025 C.3        1 MOL1        -0.2224
       2    H1      18.627180   19.311987   20.601152 H          1 MOL1         0.1052
       3    H2      18.840178   18.663045   18.967736 H          1 MOL1         0.1052
       4    H3      18.022210   17.688405   20.202612 H          1 MOL1         0.1052
       5    C2      20.202132   17.783091   20.436181 C.3        1 MOL1        -0.1209
       6    H4      21.004990   18.510966   20.256666 H          1 MOL1         0.1041
       7    H5      20.416276   16.928541   19.778997 H          1 MOL1         0.1041
       8    C3      20.238130   17.301072   21.908037 C.3        1 MOL1        -0.1274
       9    H6      19.498828   16.500583   22.043741 H          1 MOL1         0.1041
      10    H7      21.217186   16.851753   22.120892 H          1 MOL1         0.1041
      11    C4      19.955069   18.412924   22.939844 C.3        1 MOL1         0.0313
      12    H8      19.967968   17.985497   23.945667 H          1 MOL1         0.1015
      13    H9      18.962467   18.834253   22.763807 H          1 MOL1         0.1015
      14    N1      20.957980   19.550432   22.910736 N.4        1 MOL1        -0.4809
      15    H10     20.980578   19.976382   21.972362 H          1 MOL1         0.3726
      16    H11     21.910374   19.188981   23.072591 H          1 MOL1         0.3726
      17    C5      20.594782   20.591241   23.961127 C.3        1 MOL1        -0.0677
      18    H12     20.607765   20.125231   24.948766 H          1 MOL1         0.1026
      19    H13     21.323681   21.404003   23.928060 H          1 MOL1         0.1026
      20    H14     19.597189   20.982515   23.750239 H          1 MOL1         0.1026
@<TRIPOS>BOND
    1     1     2    1
    2     1     3    1
    3     1     4    1
    4     1     5    1
    5     5     6    1
    6     5     7    1
    7     5     8    1
    8     8     9    1
    9     8    10    1
   10     8    11    1
   11    11    12    1
   12    11    13    1
   13    11    14    1
   14    14    15    1
   15    14    16    1
   16    14    17    1
   17    17    18    1
   18    17    19    1
   19    17    20    1
@<TRIPOS>SUBSTRUCTURE
       1 MOL1            1 RESIDUE      1      MOL     
@<SCITEGIC>MOL_PROPERTY
VConf Rank
SciTegic.value.IntegerValue
752

@<SCITEGIC>MOL_PROPERTY
Conf_Id
SciTegic.value.IntegerValue
23

@<SCITEGIC>MOL_PROPERTY
Delta U+W
SciTegic.value.DoubleValue
0.896

@<SCITEGIC>MOL_PROPERTY
U+W
SciTegic.value.DoubleValue
16.234

@<SCITEGIC>MOL_PROPERTY
Grad RMS
SciTegic.value.DoubleValue
0.000000

@<SCITEGIC>MOL_PROPERTY
U
SciTegic.value.DoubleValue
70.374

@<SCITEGIC>MOL_PROPERTY
W
SciTegic.value.DoubleValue
-54.140

@<SCITEGIC>MOL_PROPERTY
W(PB)
SciTegic.value.DoubleValue
-56.046

@<SCITEGIC>MOL_PROPERTY
W(SA)
SciTegic.value.DoubleValue
1.907

@<SCITEGIC>MOL_PROPERTY
Valence
SciTegic.value.DoubleValue
1.257

@<SCITEGIC>MOL_PROPERTY
Coulomb
SciTegic.value.DoubleValue
69.240

@<SCITEGIC>MOL_PROPERTY
VdW
SciTegic.value.DoubleValue
-0.123

@<SCITEGIC>MOL_PROPERTY
VdW6
SciTegic.value.DoubleValue
-4.336

@<SCITEGIC>MOL_PROPERTY
VdW12
SciTegic.value.DoubleValue
4.213

@<SCITEGIC>MOL_PROPERTY
Bond
SciTegic.value.DoubleValue
0.128

@<SCITEGIC>MOL_PROPERTY
Angle
SciTegic.value.DoubleValue
0.603

@<SCITEGIC>MOL_PROPERTY
Pdih
SciTegic.value.DoubleValue
0.526

@<SCITEGIC>MOL_PROPERTY
Idih
SciTegic.value.DoubleValue
0.000

@<SCITEGIC>MOL_PROPERTY
Tether
SciTegic.value.DoubleValue
0.000

@<TRIPOS>MOLECULE
guest-s9_confgen4.mol2 : confsearch ligand conformer 753
          20          19           1
SMALL
USER_CHARGES
 
@<TRIPOS>ATOM
       1    C1      18.727247   16.851245   21.958134 C.3        1 MOL1        -0.2224
       2    H1      17.667110   17.133487   21.919153 H          1 MOL1         0.1052
       3    H2      18.784452   15.756991   21.892443 H          1 MOL1         0.1052
       4    H3      19.123892   17.144680   22.938221 H          1 MOL1         0.1052
       5    C2      19.519568   17.505935   20.803241 C.3        1 MOL1        -0.1209
       6    H4      19.148336   17.111321   19.846961 H          1 MOL1         0.1041
       7    H5      20.575167   17.208151   20.863621 H          1 MOL1         0.1041
       8    C3      19.401046   19.050475   20.784580 C.3        1 MOL1        -0.1274
       9    H6      19.961094   19.448984   19.928262 H          1 MOL1         0.1041
      10    H7      18.351947   19.329881   20.619990 H          1 MOL1         0.1041
      11    C4      19.895731   19.733725   22.076642 C.3        1 MOL1         0.0313
      12    H8      19.311807   19.376844   22.928365 H          1 MOL1         0.1015
      13    H9      19.749124   20.813661   21.994279 H          1 MOL1         0.1015
      14    N1      21.361865   19.490534   22.379816 N.4        1 MOL1        -0.4809
      15    H10     21.946017   19.815183   21.594152 H          1 MOL1         0.3726
      16    H11     21.542456   18.478712   22.457870 H          1 MOL1         0.3726
      17    C5      21.752122   20.203618   23.667347 C.3        1 MOL1        -0.0677
      18    H12     21.143943   19.820433   24.489568 H          1 MOL1         0.1026
      19    H13     22.808677   20.019059   23.873741 H          1 MOL1         0.1026
      20    H14     21.581871   21.276043   23.550372 H          1 MOL1         0.1026
@<TRIPOS>BOND
    1     1     2    1
    2     1     3    1
    3     1     4    1
    4     1     5    1
    5     5     6    1
    6     5     7    1
    7     5     8    1
    8     8     9    1
    9     8    10    1
   10     8    11    1
   11    11    12    1
   12    11    13    1
   13    11    14    1
   14    14    15    1
   15    14    16    1
   16    14    17    1
   17    17    18    1
   18    17    19    1
   19    17    20    1
@<TRIPOS>SUBSTRUCTURE
       1 MOL1            1 RESIDUE      1      MOL     
@<SCITEGIC>MOL_PROPERTY
VConf Rank
SciTegic.value.IntegerValue
753

@<SCITEGIC>MOL_PROPERTY
Conf_Id
SciTegic.value.IntegerValue
24

@<SCITEGIC>MOL_PROPERTY
Delta U+W
SciTegic.value.DoubleValue
0.792

@<SCITEGIC>MOL_PROPERTY
U+W
SciTegic.value.DoubleValue
16.130

@<SCITEGIC>MOL_PROPERTY
Grad RMS
SciTegic.value.DoubleValue
0.000000

@<SCITEGIC>MOL_PROPERTY
U
SciTegic.value.DoubleValue
70.374

@<SCITEGIC>MOL_PROPERTY
W
SciTegic.value.DoubleValue
-54.243

@<SCITEGIC>MOL_PROPERTY
W(PB)
SciTegic.value.DoubleValue
-56.130

@<SCITEGIC>MOL_PROPERTY
W(SA)
SciTegic.value.DoubleValue
1.887

@<SCITEGIC>MOL_PROPERTY
Valence
SciTegic.value.DoubleValue
1.257

@<SCITEGIC>MOL_PROPERTY
Coulomb
SciTegic.value.DoubleValue
69.240

@<SCITEGIC>MOL_PROPERTY
VdW
SciTegic.value.DoubleValue
-0.123

@<SCITEGIC>MOL_PROPERTY
VdW6
SciTegic.value.DoubleValue
-4.336

@<SCITEGIC>MOL_PROPERTY
VdW12
SciTegic.value.DoubleValue
4.213

@<SCITEGIC>MOL_PROPERTY
Bond
SciTegic.value.DoubleValue
0.128

@<SCITEGIC>MOL_PROPERTY
Angle
SciTegic.value.DoubleValue
0.603

@<SCITEGIC>MOL_PROPERTY
Pdih
SciTegic.value.DoubleValue
0.526

@<SCITEGIC>MOL_PROPERTY
Idih
SciTegic.value.DoubleValue
0.000

@<SCITEGIC>MOL_PROPERTY
Tether
SciTegic.value.DoubleValue
0.000

@<TRIPOS>MOLECULE
guest-s9_confgen4.mol2 : confsearch ligand conformer 754
          20          19           1
SMALL
USER_CHARGES
 
@<TRIPOS>ATOM
       1    C1      20.710235   17.983154   20.150514 C.3        1 MOL1        -0.2224
       2    H1      20.972537   17.883045   19.089196 H          1 MOL1         0.1052
       3    H2      21.232978   18.869960   20.527825 H          1 MOL1         0.1052
       4    H3      21.092269   17.095837   20.671937 H          1 MOL1         0.1052
       5    C2      19.178619   18.114665   20.312744 C.3        1 MOL1        -0.1209
       6    H4      18.694965   17.314203   19.735329 H          1 MOL1         0.1041
       7    H5      18.843059   19.059207   19.861809 H          1 MOL1         0.1041
       8    C3      18.678577   18.030536   21.777571 C.3        1 MOL1        -0.1274
       9    H6      17.581141   18.065583   21.762548 H          1 MOL1         0.1041
      10    H7      18.942672   17.059258   22.216406 H          1 MOL1         0.1041
      11    C4      19.174308   19.174008   22.688070 C.3        1 MOL1         0.0313
      12    H8      18.509296   19.256960   23.551448 H          1 MOL1         0.1015
      13    H9      19.141661   20.120640   22.142997 H          1 MOL1         0.1015
      14    N1      20.578034   18.979164   23.228982 N.4        1 MOL1        -0.4809
      15    H10     21.239398   18.842045   22.451541 H          1 MOL1         0.3726
      16    H11     20.626067   18.112409   23.786151 H          1 MOL1         0.3726
      17    C5      20.982833   20.180278   24.072710 C.3        1 MOL1        -0.0677
      18    H12     20.956105   21.080017   23.454226 H          1 MOL1         0.1026
      19    H13     20.286043   20.284784   24.907172 H          1 MOL1         0.1026
      20    H14     21.994294   20.026019   24.454968 H          1 MOL1         0.1026
@<TRIPOS>BOND
    1     1     2    1
    2     1     3    1
    3     1     4    1
    4     1     5    1
    5     5     6    1
    6     5     7    1
    7     5     8    1
    8     8     9    1
    9     8    10    1
   10     8    11    1
   11    11    12    1
   12    11    13    1
   13    11    14    1
   14    14    15    1
   15    14    16    1
   16    14    17    1
   17    17    18    1
   18    17    19    1
   19    17    20    1
@<TRIPOS>SUBSTRUCTURE
       1 MOL1            1 RESIDUE      1      MOL     
@<SCITEGIC>MOL_PROPERTY
VConf Rank
SciTegic.value.IntegerValue
754

@<SCITEGIC>MOL_PROPERTY
Conf_Id
SciTegic.value.IntegerValue
26

@<SCITEGIC>MOL_PROPERTY
Delta U+W
SciTegic.value.DoubleValue
2.888

@<SCITEGIC>MOL_PROPERTY
U+W
SciTegic.value.DoubleValue
18.226

@<SCITEGIC>MOL_PROPERTY
Grad RMS
SciTegic.value.DoubleValue
0.000000

@<SCITEGIC>MOL_PROPERTY
U
SciTegic.value.DoubleValue
72.042

@<SCITEGIC>MOL_PROPERTY
W
SciTegic.value.DoubleValue
-53.816

@<SCITEGIC>MOL_PROPERTY
W(PB)
SciTegic.value.DoubleValue
-55.689

@<SCITEGIC>MOL_PROPERTY
W(SA)
SciTegic.value.DoubleValue
1.873

@<SCITEGIC>MOL_PROPERTY
Valence
SciTegic.value.DoubleValue
2.428

@<SCITEGIC>MOL_PROPERTY
Coulomb
SciTegic.value.DoubleValue
69.829

@<SCITEGIC>MOL_PROPERTY
VdW
SciTegic.value.DoubleValue
-0.215

@<SCITEGIC>MOL_PROPERTY
VdW6
SciTegic.value.DoubleValue
-4.563

@<SCITEGIC>MOL_PROPERTY
VdW12
SciTegic.value.DoubleValue
4.348

@<SCITEGIC>MOL_PROPERTY
Bond
SciTegic.value.DoubleValue
0.137

@<SCITEGIC>MOL_PROPERTY
Angle
SciTegic.value.DoubleValue
0.936

@<SCITEGIC>MOL_PROPERTY
Pdih
SciTegic.value.DoubleValue
1.356

@<SCITEGIC>MOL_PROPERTY
Idih
SciTegic.value.DoubleValue
0.000

@<SCITEGIC>MOL_PROPERTY
Tether
SciTegic.value.DoubleValue
0.000

@<TRIPOS>MOLECULE
guest-s9_confgen4.mol2 : confsearch ligand conformer 755
          20          19           1
SMALL
USER_CHARGES
 
@<TRIPOS>ATOM
       1    C1      20.545191   17.011709   21.047723 C.3        1 MOL1        -0.2224
       2    H1      20.466249   15.987930   20.659313 H          1 MOL1         0.1052
       3    H2      21.556020   17.375425   20.821667 H          1 MOL1         0.1052
       4    H3      20.423648   16.952233   22.135721 H          1 MOL1         0.1052
       5    C2      19.466475   17.912547   20.404042 C.3        1 MOL1        -0.1209
       6    H4      18.470552   17.577836   20.726860 H          1 MOL1         0.1041
       7    H5      19.495784   17.770611   19.314518 H          1 MOL1         0.1041
       8    C3      19.630112   19.424525   20.704008 C.3        1 MOL1        -0.1274
       9    H6      20.591597   19.788789   20.318568 H          1 MOL1         0.1041
      10    H7      18.856556   19.965915   20.143361 H          1 MOL1         0.1041
      11    C4      19.481917   19.799513   22.193876 C.3        1 MOL1         0.0313
      12    H8      18.661679   19.230201   22.638147 H          1 MOL1         0.1015
      13    H9      19.238379   20.862100   22.272233 H          1 MOL1         0.1015
      14    N1      20.730749   19.570312   23.023869 N.4        1 MOL1        -0.4809
      15    H10     21.511851   20.131731   22.651453 H          1 MOL1         0.3726
      16    H11     21.034156   18.589683   22.940618 H          1 MOL1         0.3726
      17    C5      20.461968   19.927433   24.479421 C.3        1 MOL1        -0.0677
      18    H12     19.654600   19.298748   24.861100 H          1 MOL1         0.1026
      19    H13     21.368781   19.757680   25.064098 H          1 MOL1         0.1026
      20    H14     20.173683   20.978831   24.544380 H          1 MOL1         0.1026
@<TRIPOS>BOND
    1     1     2    1
    2     1     3    1
    3     1     4    1
    4     1     5    1
    5     5     6    1
    6     5     7    1
    7     5     8    1
    8     8     9    1
    9     8    10    1
   10     8    11    1
   11    11    12    1
   12    11    13    1
   13    11    14    1
   14    14    15    1
   15    14    16    1
   16    14    17    1
   17    17    18    1
   18    17    19    1
   19    17    20    1
@<TRIPOS>SUBSTRUCTURE
       1 MOL1            1 RESIDUE      1      MOL     
@<SCITEGIC>MOL_PROPERTY
VConf Rank
SciTegic.value.IntegerValue
755

@<SCITEGIC>MOL_PROPERTY
Conf_Id
SciTegic.value.IntegerValue
5

@<SCITEGIC>MOL_PROPERTY
Delta U+W
SciTegic.value.DoubleValue
2.950

@<SCITEGIC>MOL_PROPERTY
U+W
SciTegic.value.DoubleValue
18.289

@<SCITEGIC>MOL_PROPERTY
Grad RMS
SciTegic.value.DoubleValue
0.000000

@<SCITEGIC>MOL_PROPERTY
U
SciTegic.value.DoubleValue
72.042

@<SCITEGIC>MOL_PROPERTY
W
SciTegic.value.DoubleValue
-53.753

@<SCITEGIC>MOL_PROPERTY
W(PB)
SciTegic.value.DoubleValue
-55.644

@<SCITEGIC>MOL_PROPERTY
W(SA)
SciTegic.value.DoubleValue
1.891

@<SCITEGIC>MOL_PROPERTY
Valence
SciTegic.value.DoubleValue
2.428

@<SCITEGIC>MOL_PROPERTY
Coulomb
SciTegic.value.DoubleValue
69.829

@<SCITEGIC>MOL_PROPERTY
VdW
SciTegic.value.DoubleValue
-0.215

@<SCITEGIC>MOL_PROPERTY
VdW6
SciTegic.value.DoubleValue
-4.563

@<SCITEGIC>MOL_PROPERTY
VdW12
SciTegic.value.DoubleValue
4.348

@<SCITEGIC>MOL_PROPERTY
Bond
SciTegic.value.DoubleValue
0.137

@<SCITEGIC>MOL_PROPERTY
Angle
SciTegic.value.DoubleValue
0.936

@<SCITEGIC>MOL_PROPERTY
Pdih
SciTegic.value.DoubleValue
1.356

@<SCITEGIC>MOL_PROPERTY
Idih
SciTegic.value.DoubleValue
0.000

@<SCITEGIC>MOL_PROPERTY
Tether
SciTegic.value.DoubleValue
0.000

@<TRIPOS>MOLECULE
guest-s9_confgen4.mol2 : confsearch ligand conformer 756
          20          19           1
SMALL
USER_CHARGES
 
@<TRIPOS>ATOM
       1    C1      20.705470   16.719125   23.018302 C.3        1 MOL1        -0.2224
       2    H1      21.051934   15.982447   22.281875 H          1 MOL1         0.1052
       3    H2      21.525235   17.422682   23.210062 H          1 MOL1         0.1052
       4    H3      20.502037   16.184749   23.955331 H          1 MOL1         0.1052
       5    C2      19.434489   17.445714   22.521497 C.3        1 MOL1        -0.1209
       6    H4      19.104954   18.173808   23.275187 H          1 MOL1         0.1041
       7    H5      18.618567   16.715185   22.429336 H          1 MOL1         0.1041
       8    C3      19.631565   18.148061   21.155054 C.3        1 MOL1        -0.1274
       9    H6      19.867244   17.394066   20.392506 H          1 MOL1         0.1041
      10    H7      18.685255   18.607628   20.841929 H          1 MOL1         0.1041
      11    C4      20.749249   19.215912   21.152324 C.3        1 MOL1         0.0313
      12    H8      20.823498   19.664543   20.158525 H          1 MOL1         0.1015
      13    H9      21.703993   18.731892   21.372025 H          1 MOL1         0.1015
      14    N1      20.569442   20.344081   22.156429 N.4        1 MOL1        -0.4809
      15    H10     21.422067   20.925036   22.180486 H          1 MOL1         0.3726
      16    H11     20.481672   19.958457   23.108109 H          1 MOL1         0.3726
      17    C5      19.362300   21.207884   21.808185 C.3        1 MOL1        -0.0677
      18    H12     18.457769   20.597645   21.845891 H          1 MOL1         0.1026
      19    H13     19.284981   22.023054   22.530976 H          1 MOL1         0.1026
      20    H14     19.491263   21.617463   20.804070 H          1 MOL1         0.1026
@<TRIPOS>BOND
    1     1     2    1
    2     1     3    1
    3     1     4    1
    4     1     5    1
    5     5     6    1
    6     5     7    1
    7     5     8    1
    8     8     9    1
    9     8    10    1
   10     8    11    1
   11    11    12    1
   12    11    13    1
   13    11    14    1
   14    14    15    1
   15    14    16    1
   16    14    17    1
   17    17    18    1
   18    17    19    1
   19    17    20    1
@<TRIPOS>SUBSTRUCTURE
       1 MOL1            1 RESIDUE      1      MOL     
@<SCITEGIC>MOL_PROPERTY
VConf Rank
SciTegic.value.IntegerValue
756

@<SCITEGIC>MOL_PROPERTY
Conf_Id
SciTegic.value.IntegerValue
52

@<SCITEGIC>MOL_PROPERTY
Delta U+W
SciTegic.value.DoubleValue
0.784

@<SCITEGIC>MOL_PROPERTY
U+W
SciTegic.value.DoubleValue
16.122

@<SCITEGIC>MOL_PROPERTY
Grad RMS
SciTegic.value.DoubleValue
0.000000

@<SCITEGIC>MOL_PROPERTY
U
SciTegic.value.DoubleValue
70.777

@<SCITEGIC>MOL_PROPERTY
W
SciTegic.value.DoubleValue
-54.655

@<SCITEGIC>MOL_PROPERTY
W(PB)
SciTegic.value.DoubleValue
-56.491

@<SCITEGIC>MOL_PROPERTY
W(SA)
SciTegic.value.DoubleValue
1.836

@<SCITEGIC>MOL_PROPERTY
Valence
SciTegic.value.DoubleValue
1.529

@<SCITEGIC>MOL_PROPERTY
Coulomb
SciTegic.value.DoubleValue
69.166

@<SCITEGIC>MOL_PROPERTY
VdW
SciTegic.value.DoubleValue
0.082

@<SCITEGIC>MOL_PROPERTY
VdW6
SciTegic.value.DoubleValue
-5.166

@<SCITEGIC>MOL_PROPERTY
VdW12
SciTegic.value.DoubleValue
5.248

@<SCITEGIC>MOL_PROPERTY
Bond
SciTegic.value.DoubleValue
0.171

@<SCITEGIC>MOL_PROPERTY
Angle
SciTegic.value.DoubleValue
0.752

@<SCITEGIC>MOL_PROPERTY
Pdih
SciTegic.value.DoubleValue
0.605

@<SCITEGIC>MOL_PROPERTY
Idih
SciTegic.value.DoubleValue
0.000

@<SCITEGIC>MOL_PROPERTY
Tether
SciTegic.value.DoubleValue
0.000

@<TRIPOS>MOLECULE
guest-s9_confgen4.mol2 : confsearch ligand conformer 757
          20          19           1
SMALL
USER_CHARGES
 
@<TRIPOS>ATOM
       1    C1      18.816948   20.340444   21.088400 C.3        1 MOL1        -0.2224
       2    H1      18.057195   21.045596   20.726867 H          1 MOL1         0.1052
       3    H2      19.535045   20.919256   21.680402 H          1 MOL1         0.1052
       4    H3      19.331407   19.927010   20.211067 H          1 MOL1         0.1052
       5    C2      18.154797   19.224921   21.928953 C.3        1 MOL1        -0.1209
       6    H4      17.291012   18.835043   21.372271 H          1 MOL1         0.1041
       7    H5      17.749350   19.654775   22.855697 H          1 MOL1         0.1041
       8    C3      19.090273   18.036573   22.268861 C.3        1 MOL1        -0.1274
       9    H6      18.490425   17.272330   22.780427 H          1 MOL1         0.1041
      10    H7      19.451766   17.562425   21.347769 H          1 MOL1         0.1041
      11    C4      20.276032   18.395680   23.194371 C.3        1 MOL1         0.0313
      12    H8      20.670943   17.481215   23.644062 H          1 MOL1         0.1015
      13    H9      19.915579   19.035910   24.003474 H          1 MOL1         0.1015
      14    N1      21.445500   19.101695   22.526239 N.4        1 MOL1        -0.4809
      15    H10     22.088211   19.464020   23.247904 H          1 MOL1         0.3726
      16    H11     21.112636   19.933039   22.018390 H          1 MOL1         0.3726
      17    C5      22.196893   18.161930   21.589770 C.3        1 MOL1        -0.0677
      18    H12     22.551222   17.298051   22.156165 H          1 MOL1         0.1026
      19    H13     21.528260   17.832714   20.792172 H          1 MOL1         0.1026
      20    H14     23.048226   18.692663   21.157951 H          1 MOL1         0.1026
@<TRIPOS>BOND
    1     1     2    1
    2     1     3    1
    3     1     4    1
    4     1     5    1
    5     5     6    1
    6     5     7    1
    7     5     8    1
    8     8     9    1
    9     8    10    1
   10     8    11    1
   11    11    12    1
   12    11    13    1
   13    11    14    1
   14    14    15    1
   15    14    16    1
   16    14    17    1
   17    17    18    1
   18    17    19    1
   19    17    20    1
@<TRIPOS>SUBSTRUCTURE
       1 MOL1            1 RESIDUE      1      MOL     
@<SCITEGIC>MOL_PROPERTY
VConf Rank
SciTegic.value.IntegerValue
757

@<SCITEGIC>MOL_PROPERTY
Conf_Id
SciTegic.value.IntegerValue
55

@<SCITEGIC>MOL_PROPERTY
Delta U+W
SciTegic.value.DoubleValue
2.745

@<SCITEGIC>MOL_PROPERTY
U+W
SciTegic.value.DoubleValue
18.083

@<SCITEGIC>MOL_PROPERTY
Grad RMS
SciTegic.value.DoubleValue
0.000000

@<SCITEGIC>MOL_PROPERTY
U
SciTegic.value.DoubleValue
72.490

@<SCITEGIC>MOL_PROPERTY
W
SciTegic.value.DoubleValue
-54.407

@<SCITEGIC>MOL_PROPERTY
W(PB)
SciTegic.value.DoubleValue
-56.269

@<SCITEGIC>MOL_PROPERTY
W(SA)
SciTegic.value.DoubleValue
1.861

@<SCITEGIC>MOL_PROPERTY
Valence
SciTegic.value.DoubleValue
2.738

@<SCITEGIC>MOL_PROPERTY
Coulomb
SciTegic.value.DoubleValue
69.795

@<SCITEGIC>MOL_PROPERTY
VdW
SciTegic.value.DoubleValue
-0.043

@<SCITEGIC>MOL_PROPERTY
VdW6
SciTegic.value.DoubleValue
-5.333

@<SCITEGIC>MOL_PROPERTY
VdW12
SciTegic.value.DoubleValue
5.290

@<SCITEGIC>MOL_PROPERTY
Bond
SciTegic.value.DoubleValue
0.182

@<SCITEGIC>MOL_PROPERTY
Angle
SciTegic.value.DoubleValue
1.135

@<SCITEGIC>MOL_PROPERTY
Pdih
SciTegic.value.DoubleValue
1.422

@<SCITEGIC>MOL_PROPERTY
Idih
SciTegic.value.DoubleValue
0.000

@<SCITEGIC>MOL_PROPERTY
Tether
SciTegic.value.DoubleValue
0.000

@<TRIPOS>MOLECULE
guest-s9_confgen4.mol2 : confsearch ligand conformer 758
          20          19           1
SMALL
USER_CHARGES
 
@<TRIPOS>ATOM
       1    C1      19.969207   20.584595   23.183986 C.3        1 MOL1        -0.2224
       2    H1      20.081965   21.568982   23.656677 H          1 MOL1         0.1052
       3    H2      18.949855   20.232034   23.388756 H          1 MOL1         0.1052
       4    H3      20.682241   19.911087   23.672986 H          1 MOL1         0.1052
       5    C2      20.233671   20.687198   21.664479 C.3        1 MOL1        -0.1209
       6    H4      21.291635   20.929486   21.491201 H          1 MOL1         0.1041
       7    H5      19.659239   21.535824   21.267128 H          1 MOL1         0.1041
       8    C3      19.848332   19.420059   20.859057 C.3        1 MOL1        -0.1274
       9    H6      18.778846   19.205473   20.977611 H          1 MOL1         0.1041
      10    H7      19.989922   19.643273   19.793359 H          1 MOL1         0.1041
      11    C4      20.691912   18.166713   21.189287 C.3        1 MOL1         0.0313
      12    H8      21.744503   18.453038   21.256657 H          1 MOL1         0.1015
      13    H9      20.594954   17.443431   20.375724 H          1 MOL1         0.1015
      14    N1      20.322465   17.441118   22.473627 N.4        1 MOL1        -0.4809
      15    H10     20.321809   18.100634   23.264119 H          1 MOL1         0.3726
      16    H11     21.051778   16.746909   22.700202 H          1 MOL1         0.3726
      17    C5      18.970316   16.747880   22.347804 C.3        1 MOL1        -0.0677
      18    H12     18.194060   17.494898   22.171710 H          1 MOL1         0.1026
      19    H13     19.003573   16.044487   21.513076 H          1 MOL1         0.1026
      20    H14     18.756870   16.209534   23.273836 H          1 MOL1         0.1026
@<TRIPOS>BOND
    1     1     2    1
    2     1     3    1
    3     1     4    1
    4     1     5    1
    5     5     6    1
    6     5     7    1
    7     5     8    1
    8     8     9    1
    9     8    10    1
   10     8    11    1
   11    11    12    1
   12    11    13    1
   13    11    14    1
   14    14    15    1
   15    14    16    1
   16    14    17    1
   17    17    18    1
   18    17    19    1
   19    17    20    1
@<TRIPOS>SUBSTRUCTURE
       1 MOL1            1 RESIDUE      1      MOL     
@<SCITEGIC>MOL_PROPERTY
VConf Rank
SciTegic.value.IntegerValue
758

@<SCITEGIC>MOL_PROPERTY
Conf_Id
SciTegic.value.IntegerValue
76

@<SCITEGIC>MOL_PROPERTY
Delta U+W
SciTegic.value.DoubleValue
2.799

@<SCITEGIC>MOL_PROPERTY
U+W
SciTegic.value.DoubleValue
18.137

@<SCITEGIC>MOL_PROPERTY
Grad RMS
SciTegic.value.DoubleValue
0.000000

@<SCITEGIC>MOL_PROPERTY
U
SciTegic.value.DoubleValue
72.490

@<SCITEGIC>MOL_PROPERTY
W
SciTegic.value.DoubleValue
-54.353

@<SCITEGIC>MOL_PROPERTY
W(PB)
SciTegic.value.DoubleValue
-56.201

@<SCITEGIC>MOL_PROPERTY
W(SA)
SciTegic.value.DoubleValue
1.848

@<SCITEGIC>MOL_PROPERTY
Valence
SciTegic.value.DoubleValue
2.738

@<SCITEGIC>MOL_PROPERTY
Coulomb
SciTegic.value.DoubleValue
69.795

@<SCITEGIC>MOL_PROPERTY
VdW
SciTegic.value.DoubleValue
-0.043

@<SCITEGIC>MOL_PROPERTY
VdW6
SciTegic.value.DoubleValue
-5.334

@<SCITEGIC>MOL_PROPERTY
VdW12
SciTegic.value.DoubleValue
5.290

@<SCITEGIC>MOL_PROPERTY
Bond
SciTegic.value.DoubleValue
0.182

@<SCITEGIC>MOL_PROPERTY
Angle
SciTegic.value.DoubleValue
1.135

@<SCITEGIC>MOL_PROPERTY
Pdih
SciTegic.value.DoubleValue
1.421

@<SCITEGIC>MOL_PROPERTY
Idih
SciTegic.value.DoubleValue
0.000

@<SCITEGIC>MOL_PROPERTY
Tether
SciTegic.value.DoubleValue
0.000

@<TRIPOS>MOLECULE
guest-s9_confgen4.mol2 : confsearch ligand conformer 759
          20          19           1
SMALL
USER_CHARGES
 
@<TRIPOS>ATOM
       1    C1      21.391087   17.301302   21.076935 C.3        1 MOL1        -0.2224
       2    H1      21.797176   17.803308   21.963576 H          1 MOL1         0.1052
       3    H2      21.218706   16.247392   21.330922 H          1 MOL1         0.1052
       4    H3      22.160733   17.335238   20.295052 H          1 MOL1         0.1052
       5    C2      20.088375   17.973528   20.585392 C.3        1 MOL1        -0.1209
       6    H4      19.763740   17.480603   19.658316 H          1 MOL1         0.1041
       7    H5      20.281991   19.019344   20.314201 H          1 MOL1         0.1041
       8    C3      18.937018   17.894044   21.617625 C.3        1 MOL1        -0.1274
       9    H6      18.033857   18.349159   21.190333 H          1 MOL1         0.1041
      10    H7      18.689897   16.837653   21.786783 H          1 MOL1         0.1041
      11    C4      19.230924   18.546208   22.989114 C.3        1 MOL1         0.0313
      12    H8      20.132144   18.117146   23.433269 H          1 MOL1         0.1015
      13    H9      18.394441   18.316259   23.654009 H          1 MOL1         0.1015
      14    N1      19.371595   20.061160   22.980314 N.4        1 MOL1        -0.4809
      15    H10     19.042036   20.437586   23.882807 H          1 MOL1         0.3726
      16    H11     18.742229   20.476101   22.277202 H          1 MOL1         0.3726
      17    C5      20.816924   20.492674   22.756555 C.3        1 MOL1        -0.0677
      18    H12     20.872734   21.582993   22.788414 H          1 MOL1         0.1026
      19    H13     21.442679   20.070679   23.545822 H          1 MOL1         0.1026
      20    H14     21.161684   20.137715   21.784873 H          1 MOL1         0.1026
@<TRIPOS>BOND
    1     1     2    1
    2     1     3    1
    3     1     4    1
    4     1     5    1
    5     5     6    1
    6     5     7    1
    7     5     8    1
    8     8     9    1
    9     8    10    1
   10     8    11    1
   11    11    12    1
   12    11    13    1
   13    11    14    1
   14    14    15    1
   15    14    16    1
   16    14    17    1
   17    17    18    1
   18    17    19    1
   19    17    20    1
@<TRIPOS>SUBSTRUCTURE
       1 MOL1            1 RESIDUE      1      MOL     
@<SCITEGIC>MOL_PROPERTY
VConf Rank
SciTegic.value.IntegerValue
759

@<SCITEGIC>MOL_PROPERTY
Conf_Id
SciTegic.value.IntegerValue
60

@<SCITEGIC>MOL_PROPERTY
Delta U+W
SciTegic.value.DoubleValue
1.788

@<SCITEGIC>MOL_PROPERTY
U+W
SciTegic.value.DoubleValue
17.127

@<SCITEGIC>MOL_PROPERTY
Grad RMS
SciTegic.value.DoubleValue
0.000000

@<SCITEGIC>MOL_PROPERTY
U
SciTegic.value.DoubleValue
72.122

@<SCITEGIC>MOL_PROPERTY
W
SciTegic.value.DoubleValue
-54.995

@<SCITEGIC>MOL_PROPERTY
W(PB)
SciTegic.value.DoubleValue
-56.810

@<SCITEGIC>MOL_PROPERTY
W(SA)
SciTegic.value.DoubleValue
1.815

@<SCITEGIC>MOL_PROPERTY
Valence
SciTegic.value.DoubleValue
3.197

@<SCITEGIC>MOL_PROPERTY
Coulomb
SciTegic.value.DoubleValue
69.115

@<SCITEGIC>MOL_PROPERTY
VdW
SciTegic.value.DoubleValue
-0.190

@<SCITEGIC>MOL_PROPERTY
VdW6
SciTegic.value.DoubleValue
-5.585

@<SCITEGIC>MOL_PROPERTY
VdW12
SciTegic.value.DoubleValue
5.395

@<SCITEGIC>MOL_PROPERTY
Bond
SciTegic.value.DoubleValue
0.177

@<SCITEGIC>MOL_PROPERTY
Angle
SciTegic.value.DoubleValue
1.207

@<SCITEGIC>MOL_PROPERTY
Pdih
SciTegic.value.DoubleValue
1.813

@<SCITEGIC>MOL_PROPERTY
Idih
SciTegic.value.DoubleValue
0.000

@<SCITEGIC>MOL_PROPERTY
Tether
SciTegic.value.DoubleValue
0.000

@<TRIPOS>MOLECULE
guest-s9_confgen4.mol2 : confsearch ligand conformer 760
          20          19           1
SMALL
USER_CHARGES
 
@<TRIPOS>ATOM
       1    C1      18.131229   19.236793   21.417755 C.3        1 MOL1        -0.2224
       2    H1      17.308939   19.832732   21.834336 H          1 MOL1         0.1052
       3    H2      17.831474   18.909013   20.413934 H          1 MOL1         0.1052
       4    H3      18.246357   18.345677   22.046808 H          1 MOL1         0.1052
       5    C2      19.432162   20.070572   21.363454 C.3        1 MOL1        -0.1209
       6    H4      19.705986   20.409487   22.370886 H          1 MOL1         0.1041
       7    H5      19.242930   20.984367   20.782936 H          1 MOL1         0.1041
       8    C3      20.614989   19.309158   20.716446 C.3        1 MOL1        -0.1274
       9    H6      20.356319   19.079592   19.674317 H          1 MOL1         0.1041
      10    H7      21.490612   19.969872   20.670094 H          1 MOL1         0.1041
      11    C4      21.014820   17.988870   21.416199 C.3        1 MOL1         0.0313
      12    H8      21.770669   17.498797   20.797176 H          1 MOL1         0.1015
      13    H9      20.157462   17.315153   21.484077 H          1 MOL1         0.1015
      14    N1      21.622673   18.137492   22.803054 N.4        1 MOL1        -0.4809
      15    H10     22.181219   19.002066   22.859485 H          1 MOL1         0.3726
      16    H11     22.300930   17.375714   22.959455 H          1 MOL1         0.3726
      17    C5      20.558247   18.090886   23.893958 C.3        1 MOL1        -0.0677
      18    H12     20.020319   17.142740   23.828819 H          1 MOL1         0.1026
      19    H13     21.043274   18.170622   24.869313 H          1 MOL1         0.1026
      20    H14     19.860669   18.918900   23.764348 H          1 MOL1         0.1026
@<TRIPOS>BOND
    1     1     2    1
    2     1     3    1
    3     1     4    1
    4     1     5    1
    5     5     6    1
    6     5     7    1
    7     5     8    1
    8     8     9    1
    9     8    10    1
   10     8    11    1
   11    11    12    1
   12    11    13    1
   13    11    14    1
   14    14    15    1
   15    14    16    1
   16    14    17    1
   17    17    18    1
   18    17    19    1
   19    17    20    1
@<TRIPOS>SUBSTRUCTURE
       1 MOL1            1 RESIDUE      1      MOL     
@<SCITEGIC>MOL_PROPERTY
VConf Rank
SciTegic.value.IntegerValue
760

@<SCITEGIC>MOL_PROPERTY
Conf_Id
SciTegic.value.IntegerValue
54

@<SCITEGIC>MOL_PROPERTY
Delta U+W
SciTegic.value.DoubleValue
1.880

@<SCITEGIC>MOL_PROPERTY
U+W
SciTegic.value.DoubleValue
17.218

@<SCITEGIC>MOL_PROPERTY
Grad RMS
SciTegic.value.DoubleValue
0.000000

@<SCITEGIC>MOL_PROPERTY
U
SciTegic.value.DoubleValue
72.122

@<SCITEGIC>MOL_PROPERTY
W
SciTegic.value.DoubleValue
-54.903

@<SCITEGIC>MOL_PROPERTY
W(PB)
SciTegic.value.DoubleValue
-56.724

@<SCITEGIC>MOL_PROPERTY
W(SA)
SciTegic.value.DoubleValue
1.821

@<SCITEGIC>MOL_PROPERTY
Valence
SciTegic.value.DoubleValue
3.197

@<SCITEGIC>MOL_PROPERTY
Coulomb
SciTegic.value.DoubleValue
69.115

@<SCITEGIC>MOL_PROPERTY
VdW
SciTegic.value.DoubleValue
-0.190

@<SCITEGIC>MOL_PROPERTY
VdW6
SciTegic.value.DoubleValue
-5.585

@<SCITEGIC>MOL_PROPERTY
VdW12
SciTegic.value.DoubleValue
5.395

@<SCITEGIC>MOL_PROPERTY
Bond
SciTegic.value.DoubleValue
0.177

@<SCITEGIC>MOL_PROPERTY
Angle
SciTegic.value.DoubleValue
1.207

@<SCITEGIC>MOL_PROPERTY
Pdih
SciTegic.value.DoubleValue
1.813

@<SCITEGIC>MOL_PROPERTY
Idih
SciTegic.value.DoubleValue
0.000

@<SCITEGIC>MOL_PROPERTY
Tether
SciTegic.value.DoubleValue
0.000

@<TRIPOS>MOLECULE
guest-s9_confgen4.mol2 : confsearch ligand conformer 761
          20          19           1
SMALL
USER_CHARGES
 
@<TRIPOS>ATOM
       1    C1      21.648929   21.409950   23.026955 C.3        1 MOL1        -0.2224
       2    H1      20.832769   22.133231   22.900764 H          1 MOL1         0.1052
       3    H2      22.211923   21.692101   23.926096 H          1 MOL1         0.1052
       4    H3      22.323212   21.502183   22.165554 H          1 MOL1         0.1052
       5    C2      21.102657   19.971341   23.154319 C.3        1 MOL1        -0.1209
       6    H4      20.460238   19.902129   24.043622 H          1 MOL1         0.1041
       7    H5      21.938950   19.276046   23.314102 H          1 MOL1         0.1041
       8    C3      20.304894   19.546709   21.901713 C.3        1 MOL1        -0.1274
       9    H6      19.467594   20.239729   21.744812 H          1 MOL1         0.1041
      10    H7      20.948313   19.612926   21.014248 H          1 MOL1         0.1041
      11    C4      19.763699   18.111245   22.036373 C.3        1 MOL1         0.0313
      12    H8      19.110391   18.045621   22.910084 H          1 MOL1         0.1015
      13    H9      20.595851   17.416815   22.177009 H          1 MOL1         0.1015
      14    N1      18.972300   17.650338   20.828086 N.4        1 MOL1        -0.4809
      15    H10     19.554527   17.705245   19.978290 H          1 MOL1         0.3726
      16    H11     18.179168   18.287399   20.657059 H          1 MOL1         0.3726
      17    C5      18.476274   16.226774   21.043956 C.3        1 MOL1        -0.0677
      18    H12     17.835073   16.199163   21.927645 H          1 MOL1         0.1026
      19    H13     17.908461   15.907839   20.167100 H          1 MOL1         0.1026
      20    H14     19.333091   15.565066   21.188233 H          1 MOL1         0.1026
@<TRIPOS>BOND
    1     1     2    1
    2     1     3    1
    3     1     4    1
    4     1     5    1
    5     5     6    1
    6     5     7    1
    7     5     8    1
    8     8     9    1
    9     8    10    1
   10     8    11    1
   11    11    12    1
   12    11    13    1
   13    11    14    1
   14    14    15    1
   15    14    16    1
   16    14    17    1
   17    17    18    1
   18    17    19    1
   19    17    20    1
@<TRIPOS>SUBSTRUCTURE
       1 MOL1            1 RESIDUE      1      MOL     
@<SCITEGIC>MOL_PROPERTY
VConf Rank
SciTegic.value.IntegerValue
761

@<SCITEGIC>MOL_PROPERTY
Conf_Id
SciTegic.value.IntegerValue
67

@<SCITEGIC>MOL_PROPERTY
Delta U+W
SciTegic.value.DoubleValue
0.000

@<SCITEGIC>MOL_PROPERTY
U+W
SciTegic.value.DoubleValue
15.338

@<SCITEGIC>MOL_PROPERTY
Grad RMS
SciTegic.value.DoubleValue
0.000000

@<SCITEGIC>MOL_PROPERTY
U
SciTegic.value.DoubleValue
69.277

@<SCITEGIC>MOL_PROPERTY
W
SciTegic.value.DoubleValue
-53.939

@<SCITEGIC>MOL_PROPERTY
W(PB)
SciTegic.value.DoubleValue
-55.889

@<SCITEGIC>MOL_PROPERTY
W(SA)
SciTegic.value.DoubleValue
1.950

@<SCITEGIC>MOL_PROPERTY
Valence
SciTegic.value.DoubleValue
0.846

@<SCITEGIC>MOL_PROPERTY
Coulomb
SciTegic.value.DoubleValue
68.557

@<SCITEGIC>MOL_PROPERTY
VdW
SciTegic.value.DoubleValue
-0.127

@<SCITEGIC>MOL_PROPERTY
VdW6
SciTegic.value.DoubleValue
-3.008

@<SCITEGIC>MOL_PROPERTY
VdW12
SciTegic.value.DoubleValue
2.882

@<SCITEGIC>MOL_PROPERTY
Bond
SciTegic.value.DoubleValue
0.088

@<SCITEGIC>MOL_PROPERTY
Angle
SciTegic.value.DoubleValue
0.332

@<SCITEGIC>MOL_PROPERTY
Pdih
SciTegic.value.DoubleValue
0.426

@<SCITEGIC>MOL_PROPERTY
Idih
SciTegic.value.DoubleValue
0.000

@<SCITEGIC>MOL_PROPERTY
Tether
SciTegic.value.DoubleValue
0.000

@<TRIPOS>MOLECULE
guest-s9_confgen4.mol2 : confsearch ligand conformer 762
          20          19           1
SMALL
USER_CHARGES
 
@<TRIPOS>ATOM
       1    C1      19.228348   16.566731   20.270765 C.3        1 MOL1        -0.2224
       2    H1      19.905556   15.900439   20.820868 H          1 MOL1         0.1052
       3    H2      18.342893   15.984312   19.984799 H          1 MOL1         0.1052
       4    H3      19.734443   16.883110   19.349385 H          1 MOL1         0.1052
       5    C2      18.826032   17.784474   21.130716 C.3        1 MOL1        -0.1209
       6    H4      18.292336   17.438153   22.027129 H          1 MOL1         0.1041
       7    H5      18.121917   18.412802   20.567037 H          1 MOL1         0.1041
       8    C3      20.053562   18.623877   21.548165 C.3        1 MOL1        -0.1274
       9    H6      20.753597   17.992570   22.110443 H          1 MOL1         0.1041
      10    H7      20.583687   18.973080   20.652259 H          1 MOL1         0.1041
      11    C4      19.641418   19.838510   22.405358 C.3        1 MOL1         0.0313
      12    H8      19.155823   19.497482   23.323116 H          1 MOL1         0.1015
      13    H9      18.920832   20.439759   21.845060 H          1 MOL1         0.1015
      14    N1      20.788619   20.756295   22.795694 N.4        1 MOL1        -0.4809
      15    H10     20.411731   21.618620   23.219531 H          1 MOL1         0.3726
      16    H11     21.293663   21.074695   21.954666 H          1 MOL1         0.3726
      17    C5      21.738621   20.072183   23.772936 C.3        1 MOL1        -0.0677
      18    H12     22.184158   19.198081   23.294053 H          1 MOL1         0.1026
      19    H13     22.525347   20.774292   24.057677 H          1 MOL1         0.1026
      20    H14     21.181351   19.764682   24.660405 H          1 MOL1         0.1026
@<TRIPOS>BOND
    1     1     2    1
    2     1     3    1
    3     1     4    1
    4     1     5    1
    5     5     6    1
    6     5     7    1
    7     5     8    1
    8     8     9    1
    9     8    10    1
   10     8    11    1
   11    11    12    1
   12    11    13    1
   13    11    14    1
   14    14    15    1
   15    14    16    1
   16    14    17    1
   17    17    18    1
   18    17    19    1
   19    17    20    1
@<TRIPOS>SUBSTRUCTURE
       1 MOL1            1 RESIDUE      1      MOL     
@<SCITEGIC>MOL_PROPERTY
VConf Rank
SciTegic.value.IntegerValue
762

@<SCITEGIC>MOL_PROPERTY
Conf_Id
SciTegic.value.IntegerValue
37

@<SCITEGIC>MOL_PROPERTY
Delta U+W
SciTegic.value.DoubleValue
-0.021

@<SCITEGIC>MOL_PROPERTY
U+W
SciTegic.value.DoubleValue
15.318

@<SCITEGIC>MOL_PROPERTY
Grad RMS
SciTegic.value.DoubleValue
0.000000

@<SCITEGIC>MOL_PROPERTY
U
SciTegic.value.DoubleValue
69.657

@<SCITEGIC>MOL_PROPERTY
W
SciTegic.value.DoubleValue
-54.340

@<SCITEGIC>MOL_PROPERTY
W(PB)
SciTegic.value.DoubleValue
-56.238

@<SCITEGIC>MOL_PROPERTY
W(SA)
SciTegic.value.DoubleValue
1.899

@<SCITEGIC>MOL_PROPERTY
Valence
SciTegic.value.DoubleValue
1.137

@<SCITEGIC>MOL_PROPERTY
Coulomb
SciTegic.value.DoubleValue
68.383

@<SCITEGIC>MOL_PROPERTY
VdW
SciTegic.value.DoubleValue
0.138

@<SCITEGIC>MOL_PROPERTY
VdW6
SciTegic.value.DoubleValue
-3.703

@<SCITEGIC>MOL_PROPERTY
VdW12
SciTegic.value.DoubleValue
3.841

@<SCITEGIC>MOL_PROPERTY
Bond
SciTegic.value.DoubleValue
0.125

@<SCITEGIC>MOL_PROPERTY
Angle
SciTegic.value.DoubleValue
0.468

@<SCITEGIC>MOL_PROPERTY
Pdih
SciTegic.value.DoubleValue
0.543

@<SCITEGIC>MOL_PROPERTY
Idih
SciTegic.value.DoubleValue
0.000

@<SCITEGIC>MOL_PROPERTY
Tether
SciTegic.value.DoubleValue
0.000

@<TRIPOS>MOLECULE
guest-s9_confgen4.mol2 : confsearch ligand conformer 763
          20          19           1
SMALL
USER_CHARGES
 
@<TRIPOS>ATOM
       1    C1      21.988480   17.017685   20.602182 C.3        1 MOL1        -0.2224
       2    H1      23.068712   16.854492   20.495008 H          1 MOL1         0.1052
       3    H2      21.563535   16.137273   21.101646 H          1 MOL1         0.1052
       4    H3      21.556537   17.080572   19.594888 H          1 MOL1         0.1052
       5    C2      21.708427   18.304204   21.408846 C.3        1 MOL1        -0.1209
       6    H4      22.175309   19.161182   20.902960 H          1 MOL1         0.1041
       7    H5      22.181511   18.225299   22.397933 H          1 MOL1         0.1041
       8    C3      20.194297   18.559780   21.575513 C.3        1 MOL1        -0.1274
       9    H6      19.723151   18.642770   20.587203 H          1 MOL1         0.1041
      10    H7      19.732536   17.701790   22.080869 H          1 MOL1         0.1041
      11    C4      19.924765   19.847562   22.381080 C.3        1 MOL1         0.0313
      12    H8      20.416901   20.686872   21.883045 H          1 MOL1         0.1015
      13    H9      20.349064   19.753742   23.383851 H          1 MOL1         0.1015
      14    N1      18.455013   20.207449   22.526227 N.4        1 MOL1        -0.4809
      15    H10     18.009901   20.273653   21.598183 H          1 MOL1         0.3726
      16    H11     18.369681   21.154310   22.928047 H          1 MOL1         0.3726
      17    C5      17.722406   19.202946   23.409277 C.3        1 MOL1        -0.0677
      18    H12     18.202301   19.169076   24.389716 H          1 MOL1         0.1026
      19    H13     16.681872   19.516077   23.519769 H          1 MOL1         0.1026
      20    H14     17.759992   18.215930   22.944224 H          1 MOL1         0.1026
@<TRIPOS>BOND
    1     1     2    1
    2     1     3    1
    3     1     4    1
    4     1     5    1
    5     5     6    1
    6     5     7    1
    7     5     8    1
    8     8     9    1
    9     8    10    1
   10     8    11    1
   11    11    12    1
   12    11    13    1
   13    11    14    1
   14    14    15    1
   15    14    16    1
   16    14    17    1
   17    17    18    1
   18    17    19    1
   19    17    20    1
@<TRIPOS>SUBSTRUCTURE
       1 MOL1            1 RESIDUE      1      MOL     
@<SCITEGIC>MOL_PROPERTY
VConf Rank
SciTegic.value.IntegerValue
763

@<SCITEGIC>MOL_PROPERTY
Conf_Id
SciTegic.value.IntegerValue
2

@<SCITEGIC>MOL_PROPERTY
Delta U+W
SciTegic.value.DoubleValue
0.069

@<SCITEGIC>MOL_PROPERTY
U+W
SciTegic.value.DoubleValue
15.407

@<SCITEGIC>MOL_PROPERTY
Grad RMS
SciTegic.value.DoubleValue
0.000000

@<SCITEGIC>MOL_PROPERTY
U
SciTegic.value.DoubleValue
69.657

@<SCITEGIC>MOL_PROPERTY
W
SciTegic.value.DoubleValue
-54.250

@<SCITEGIC>MOL_PROPERTY
W(PB)
SciTegic.value.DoubleValue
-56.176

@<SCITEGIC>MOL_PROPERTY
W(SA)
SciTegic.value.DoubleValue
1.926

@<SCITEGIC>MOL_PROPERTY
Valence
SciTegic.value.DoubleValue
1.137

@<SCITEGIC>MOL_PROPERTY
Coulomb
SciTegic.value.DoubleValue
68.383

@<SCITEGIC>MOL_PROPERTY
VdW
SciTegic.value.DoubleValue
0.138

@<SCITEGIC>MOL_PROPERTY
VdW6
SciTegic.value.DoubleValue
-3.703

@<SCITEGIC>MOL_PROPERTY
VdW12
SciTegic.value.DoubleValue
3.841

@<SCITEGIC>MOL_PROPERTY
Bond
SciTegic.value.DoubleValue
0.125

@<SCITEGIC>MOL_PROPERTY
Angle
SciTegic.value.DoubleValue
0.468

@<SCITEGIC>MOL_PROPERTY
Pdih
SciTegic.value.DoubleValue
0.543

@<SCITEGIC>MOL_PROPERTY
Idih
SciTegic.value.DoubleValue
0.000

@<SCITEGIC>MOL_PROPERTY
Tether
SciTegic.value.DoubleValue
0.000

@<TRIPOS>MOLECULE
guest-s9_confgen4.mol2 : confsearch ligand conformer 764
          20          19           1
SMALL
USER_CHARGES
 
@<TRIPOS>ATOM
       1    C1      18.268229   19.207007   20.064606 C.3        1 MOL1        -0.2224
       2    H1      19.168217   19.823280   19.945061 H          1 MOL1         0.1052
       3    H2      18.430450   18.257323   19.538408 H          1 MOL1         0.1052
       4    H3      17.441564   19.728975   19.565442 H          1 MOL1         0.1052
       5    C2      17.936627   18.967731   21.555604 C.3        1 MOL1        -0.1209
       6    H4      16.981593   18.428629   21.628355 H          1 MOL1         0.1041
       7    H5      17.785305   19.932805   22.059526 H          1 MOL1         0.1041
       8    C3      19.027709   18.158861   22.295502 C.3        1 MOL1        -0.1274
       9    H6      18.691554   17.961319   23.322066 H          1 MOL1         0.1041
      10    H7      19.152711   17.181087   21.811561 H          1 MOL1         0.1041
      11    C4      20.382805   18.891673   22.339621 C.3        1 MOL1         0.0313
      12    H8      20.258678   19.863726   22.823436 H          1 MOL1         0.1015
      13    H9      20.745016   19.057817   21.322288 H          1 MOL1         0.1015
      14    N1      21.454849   18.129656   23.093627 N.4        1 MOL1        -0.4809
      15    H10     21.594805   17.199099   22.671058 H          1 MOL1         0.3726
      16    H11     21.148450   17.946617   24.061470 H          1 MOL1         0.3726
      17    C5      22.756414   18.920206   23.086448 C.3        1 MOL1        -0.0677
      18    H12     22.593271   19.886487   23.568618 H          1 MOL1         0.1026
      19    H13     23.519108   18.360540   23.632412 H          1 MOL1         0.1026
      20    H14     23.079625   19.072058   22.054326 H          1 MOL1         0.1026
@<TRIPOS>BOND
    1     1     2    1
    2     1     3    1
    3     1     4    1
    4     1     5    1
    5     5     6    1
    6     5     7    1
    7     5     8    1
    8     8     9    1
    9     8    10    1
   10     8    11    1
   11    11    12    1
   12    11    13    1
   13    11    14    1
   14    14    15    1
   15    14    16    1
   16    14    17    1
   17    17    18    1
   18    17    19    1
   19    17    20    1
@<TRIPOS>SUBSTRUCTURE
       1 MOL1            1 RESIDUE      1      MOL     
@<SCITEGIC>MOL_PROPERTY
VConf Rank
SciTegic.value.IntegerValue
764

@<SCITEGIC>MOL_PROPERTY
Conf_Id
SciTegic.value.IntegerValue
34

@<SCITEGIC>MOL_PROPERTY
Delta U+W
SciTegic.value.DoubleValue
0.276

@<SCITEGIC>MOL_PROPERTY
U+W
SciTegic.value.DoubleValue
15.615

@<SCITEGIC>MOL_PROPERTY
Grad RMS
SciTegic.value.DoubleValue
0.000000

@<SCITEGIC>MOL_PROPERTY
U
SciTegic.value.DoubleValue
69.798

@<SCITEGIC>MOL_PROPERTY
W
SciTegic.value.DoubleValue
-54.184

@<SCITEGIC>MOL_PROPERTY
W(PB)
SciTegic.value.DoubleValue
-56.116

@<SCITEGIC>MOL_PROPERTY
W(SA)
SciTegic.value.DoubleValue
1.933

@<SCITEGIC>MOL_PROPERTY
Valence
SciTegic.value.DoubleValue
1.134

@<SCITEGIC>MOL_PROPERTY
Coulomb
SciTegic.value.DoubleValue
68.735

@<SCITEGIC>MOL_PROPERTY
VdW
SciTegic.value.DoubleValue
-0.070

@<SCITEGIC>MOL_PROPERTY
VdW6
SciTegic.value.DoubleValue
-3.565

@<SCITEGIC>MOL_PROPERTY
VdW12
SciTegic.value.DoubleValue
3.494

@<SCITEGIC>MOL_PROPERTY
Bond
SciTegic.value.DoubleValue
0.108

@<SCITEGIC>MOL_PROPERTY
Angle
SciTegic.value.DoubleValue
0.456

@<SCITEGIC>MOL_PROPERTY
Pdih
SciTegic.value.DoubleValue
0.569

@<SCITEGIC>MOL_PROPERTY
Idih
SciTegic.value.DoubleValue
0.000

@<SCITEGIC>MOL_PROPERTY
Tether
SciTegic.value.DoubleValue
0.000

@<TRIPOS>MOLECULE
guest-s9_confgen4.mol2 : confsearch ligand conformer 765
          20          19           1
SMALL
USER_CHARGES
 
@<TRIPOS>ATOM
       1    C1      19.271276   21.464138   23.243236 C.3        1 MOL1        -0.2224
       2    H1      19.349588   22.247536   22.478170 H          1 MOL1         0.1052
       3    H2      18.358955   21.652063   23.824081 H          1 MOL1         0.1052
       4    H3      20.128304   21.562975   23.922142 H          1 MOL1         0.1052
       5    C2      19.229761   20.060735   22.600771 C.3        1 MOL1        -0.1209
       6    H4      18.345090   19.982844   21.952995 H          1 MOL1         0.1041
       7    H5      19.110898   19.307744   23.391577 H          1 MOL1         0.1041
       8    C3      20.506069   19.770786   21.776059 C.3        1 MOL1        -0.1274
       9    H6      20.632082   20.553045   21.015746 H          1 MOL1         0.1041
      10    H7      21.391993   19.819136   22.423097 H          1 MOL1         0.1041
      11    C4      20.460975   18.403419   21.064852 C.3        1 MOL1         0.0313
      12    H8      21.344881   18.296744   20.430856 H          1 MOL1         0.1015
      13    H9      19.575954   18.350757   20.425791 H          1 MOL1         0.1015
      14    N1      20.429280   17.215807   22.008494 N.4        1 MOL1        -0.4809
      15    H10     19.606728   17.274962   22.626848 H          1 MOL1         0.3726
      16    H11     21.247471   17.238665   22.636258 H          1 MOL1         0.3726
      17    C5      20.404066   15.918877   21.210887 C.3        1 MOL1        -0.0677
      18    H12     19.513411   15.902190   20.579030 H          1 MOL1         0.1026
      19    H13     21.299727   15.861769   20.588540 H          1 MOL1         0.1026
      20    H14     20.381339   15.073104   21.901641 H          1 MOL1         0.1026
@<TRIPOS>BOND
    1     1     2    1
    2     1     3    1
    3     1     4    1
    4     1     5    1
    5     5     6    1
    6     5     7    1
    7     5     8    1
    8     8     9    1
    9     8    10    1
   10     8    11    1
   11    11    12    1
   12    11    13    1
   13    11    14    1
   14    14    15    1
   15    14    16    1
   16    14    17    1
   17    17    18    1
   18    17    19    1
   19    17    20    1
@<TRIPOS>SUBSTRUCTURE
       1 MOL1            1 RESIDUE      1      MOL     
@<SCITEGIC>MOL_PROPERTY
VConf Rank
SciTegic.value.IntegerValue
765

@<SCITEGIC>MOL_PROPERTY
Conf_Id
SciTegic.value.IntegerValue
50

@<SCITEGIC>MOL_PROPERTY
Delta U+W
SciTegic.value.DoubleValue
0.319

@<SCITEGIC>MOL_PROPERTY
U+W
SciTegic.value.DoubleValue
15.657

@<SCITEGIC>MOL_PROPERTY
Grad RMS
SciTegic.value.DoubleValue
0.000000

@<SCITEGIC>MOL_PROPERTY
U
SciTegic.value.DoubleValue
69.962

@<SCITEGIC>MOL_PROPERTY
W
SciTegic.value.DoubleValue
-54.305

@<SCITEGIC>MOL_PROPERTY
W(PB)
SciTegic.value.DoubleValue
-56.223

@<SCITEGIC>MOL_PROPERTY
W(SA)
SciTegic.value.DoubleValue
1.918

@<SCITEGIC>MOL_PROPERTY
Valence
SciTegic.value.DoubleValue
0.982

@<SCITEGIC>MOL_PROPERTY
Coulomb
SciTegic.value.DoubleValue
69.058

@<SCITEGIC>MOL_PROPERTY
VdW
SciTegic.value.DoubleValue
-0.078

@<SCITEGIC>MOL_PROPERTY
VdW6
SciTegic.value.DoubleValue
-3.548

@<SCITEGIC>MOL_PROPERTY
VdW12
SciTegic.value.DoubleValue
3.471

@<SCITEGIC>MOL_PROPERTY
Bond
SciTegic.value.DoubleValue
0.105

@<SCITEGIC>MOL_PROPERTY
Angle
SciTegic.value.DoubleValue
0.408

@<SCITEGIC>MOL_PROPERTY
Pdih
SciTegic.value.DoubleValue
0.469

@<SCITEGIC>MOL_PROPERTY
Idih
SciTegic.value.DoubleValue
0.000

@<SCITEGIC>MOL_PROPERTY
Tether
SciTegic.value.DoubleValue
0.000

@<TRIPOS>MOLECULE
guest-s9_confgen4.mol2 : confsearch ligand conformer 766
          20          19           1
SMALL
USER_CHARGES
 
@<TRIPOS>ATOM
       1    C1      19.518863   19.393905   19.073516 C.3        1 MOL1        -0.2224
       2    H1      19.438430   20.393021   18.625939 H          1 MOL1         0.1052
       3    H2      20.217056   18.807345   18.462251 H          1 MOL1         0.1052
       4    H3      18.531023   18.918645   19.014509 H          1 MOL1         0.1052
       5    C2      20.003855   19.488691   20.536329 C.3        1 MOL1        -0.1209
       6    H4      19.303781   20.114359   21.106356 H          1 MOL1         0.1041
       7    H5      20.978409   19.996398   20.564656 H          1 MOL1         0.1041
       8    C3      20.125104   18.092207   21.190789 C.3        1 MOL1        -0.1274
       9    H6      19.148459   17.590189   21.191449 H          1 MOL1         0.1041
      10    H7      20.797017   17.466477   20.588396 H          1 MOL1         0.1041
      11    C4      20.675260   18.151752   22.629999 C.3        1 MOL1         0.0313
      12    H8      21.644166   18.657371   22.632255 H          1 MOL1         0.1015
      13    H9      20.821617   17.134890   23.003081 H          1 MOL1         0.1015
      14    N1      19.768208   18.872052   23.609956 N.4        1 MOL1        -0.4809
      15    H10     18.837906   18.426729   23.626536 H          1 MOL1         0.3726
      16    H11     19.603909   19.840182   23.296615 H          1 MOL1         0.3726
      17    C5      20.390904   18.860224   24.999542 C.3        1 MOL1        -0.0677
      18    H12     19.728492   19.381527   25.694124 H          1 MOL1         0.1026
      19    H13     20.525151   17.826331   25.324855 H          1 MOL1         0.1026
      20    H14     21.358672   19.365195   24.964583 H          1 MOL1         0.1026
@<TRIPOS>BOND
    1     1     2    1
    2     1     3    1
    3     1     4    1
    4     1     5    1
    5     5     6    1
    6     5     7    1
    7     5     8    1
    8     8     9    1
    9     8    10    1
   10     8    11    1
   11    11    12    1
   12    11    13    1
   13    11    14    1
   14    14    15    1
   15    14    16    1
   16    14    17    1
   17    17    18    1
   18    17    19    1
   19    17    20    1
@<TRIPOS>SUBSTRUCTURE
       1 MOL1            1 RESIDUE      1      MOL     
@<SCITEGIC>MOL_PROPERTY
VConf Rank
SciTegic.value.IntegerValue
766

@<SCITEGIC>MOL_PROPERTY
Conf_Id
SciTegic.value.IntegerValue
35

@<SCITEGIC>MOL_PROPERTY
Delta U+W
SciTegic.value.DoubleValue
0.360

@<SCITEGIC>MOL_PROPERTY
U+W
SciTegic.value.DoubleValue
15.698

@<SCITEGIC>MOL_PROPERTY
Grad RMS
SciTegic.value.DoubleValue
0.000000

@<SCITEGIC>MOL_PROPERTY
U
SciTegic.value.DoubleValue
69.962

@<SCITEGIC>MOL_PROPERTY
W
SciTegic.value.DoubleValue
-54.264

@<SCITEGIC>MOL_PROPERTY
W(PB)
SciTegic.value.DoubleValue
-56.166

@<SCITEGIC>MOL_PROPERTY
W(SA)
SciTegic.value.DoubleValue
1.902

@<SCITEGIC>MOL_PROPERTY
Valence
SciTegic.value.DoubleValue
0.982

@<SCITEGIC>MOL_PROPERTY
Coulomb
SciTegic.value.DoubleValue
69.058

@<SCITEGIC>MOL_PROPERTY
VdW
SciTegic.value.DoubleValue
-0.078

@<SCITEGIC>MOL_PROPERTY
VdW6
SciTegic.value.DoubleValue
-3.548

@<SCITEGIC>MOL_PROPERTY
VdW12
SciTegic.value.DoubleValue
3.471

@<SCITEGIC>MOL_PROPERTY
Bond
SciTegic.value.DoubleValue
0.105

@<SCITEGIC>MOL_PROPERTY
Angle
SciTegic.value.DoubleValue
0.408

@<SCITEGIC>MOL_PROPERTY
Pdih
SciTegic.value.DoubleValue
0.469

@<SCITEGIC>MOL_PROPERTY
Idih
SciTegic.value.DoubleValue
0.000

@<SCITEGIC>MOL_PROPERTY
Tether
SciTegic.value.DoubleValue
0.000

@<TRIPOS>MOLECULE
guest-s9_confgen4.mol2 : confsearch ligand conformer 767
          20          19           1
SMALL
USER_CHARGES
 
@<TRIPOS>ATOM
       1    C1      22.052089   20.207563   22.684222 C.3        1 MOL1        -0.2224
       2    H1      21.326558   20.356226   23.493898 H          1 MOL1         0.1052
       3    H2      23.037428   20.507475   23.063873 H          1 MOL1         0.1052
       4    H3      21.790420   20.884828   21.860854 H          1 MOL1         0.1052
       5    C2      22.079101   18.736965   22.207965 C.3        1 MOL1        -0.1209
       6    H4      22.338063   18.080611   23.050762 H          1 MOL1         0.1041
       7    H5      22.879641   18.615313   21.464782 H          1 MOL1         0.1041
       8    C3      20.739991   18.280032   21.583569 C.3        1 MOL1        -0.1274
       9    H6      20.505612   18.915441   20.719837 H          1 MOL1         0.1041
      10    H7      20.854751   17.257644   21.200071 H          1 MOL1         0.1041
      11    C4      19.573358   18.312499   22.594202 C.3        1 MOL1         0.0313
      12    H8      19.403963   19.336991   22.934023 H          1 MOL1         0.1015
      13    H9      19.840962   17.707138   23.463970 H          1 MOL1         0.1015
      14    N1      18.256422   17.776152   22.057166 N.4        1 MOL1        -0.4809
      15    H10     17.581370   17.679176   22.831833 H          1 MOL1         0.3726
      16    H11     18.381555   16.818709   21.694725 H          1 MOL1         0.3726
      17    C5      17.682323   18.692860   20.982260 C.3        1 MOL1        -0.0677
      18    H12     18.372600   18.738102   20.137653 H          1 MOL1         0.1026
      19    H13     16.721377   18.294948   20.648777 H          1 MOL1         0.1026
      20    H14     17.541677   19.692204   21.399666 H          1 MOL1         0.1026
@<TRIPOS>BOND
    1     1     2    1
    2     1     3    1
    3     1     4    1
    4     1     5    1
    5     5     6    1
    6     5     7    1
    7     5     8    1
    8     8     9    1
    9     8    10    1
   10     8    11    1
   11    11    12    1
   12    11    13    1
   13    11    14    1
   14    14    15    1
   15    14    16    1
   16    14    17    1
   17    17    18    1
   18    17    19    1
   19    17    20    1
@<TRIPOS>SUBSTRUCTURE
       1 MOL1            1 RESIDUE      1      MOL     
@<SCITEGIC>MOL_PROPERTY
VConf Rank
SciTegic.value.IntegerValue
767

@<SCITEGIC>MOL_PROPERTY
Conf_Id
SciTegic.value.IntegerValue
33

@<SCITEGIC>MOL_PROPERTY
Delta U+W
SciTegic.value.DoubleValue
0.372

@<SCITEGIC>MOL_PROPERTY
U+W
SciTegic.value.DoubleValue
15.711

@<SCITEGIC>MOL_PROPERTY
Grad RMS
SciTegic.value.DoubleValue
0.000000

@<SCITEGIC>MOL_PROPERTY
U
SciTegic.value.DoubleValue
70.163

@<SCITEGIC>MOL_PROPERTY
W
SciTegic.value.DoubleValue
-54.452

@<SCITEGIC>MOL_PROPERTY
W(PB)
SciTegic.value.DoubleValue
-56.363

@<SCITEGIC>MOL_PROPERTY
W(SA)
SciTegic.value.DoubleValue
1.911

@<SCITEGIC>MOL_PROPERTY
Valence
SciTegic.value.DoubleValue
1.420

@<SCITEGIC>MOL_PROPERTY
Coulomb
SciTegic.value.DoubleValue
68.566

@<SCITEGIC>MOL_PROPERTY
VdW
SciTegic.value.DoubleValue
0.177

@<SCITEGIC>MOL_PROPERTY
VdW6
SciTegic.value.DoubleValue
-4.267

@<SCITEGIC>MOL_PROPERTY
VdW12
SciTegic.value.DoubleValue
4.445

@<SCITEGIC>MOL_PROPERTY
Bond
SciTegic.value.DoubleValue
0.146

@<SCITEGIC>MOL_PROPERTY
Angle
SciTegic.value.DoubleValue
0.581

@<SCITEGIC>MOL_PROPERTY
Pdih
SciTegic.value.DoubleValue
0.693

@<SCITEGIC>MOL_PROPERTY
Idih
SciTegic.value.DoubleValue
0.000

@<SCITEGIC>MOL_PROPERTY
Tether
SciTegic.value.DoubleValue
0.000

@<TRIPOS>MOLECULE
guest-s9_confgen4.mol2 : confsearch ligand conformer 768
          20          19           1
SMALL
USER_CHARGES
 
@<TRIPOS>ATOM
       1    C1      19.174150   16.790574   20.741901 C.3        1 MOL1        -0.2224
       2    H1      19.117567   15.832817   20.208541 H          1 MOL1         0.1052
       3    H2      18.903633   16.602590   21.788587 H          1 MOL1         0.1052
       4    H3      18.420275   17.460261   20.307982 H          1 MOL1         0.1052
       5    C2      20.591688   17.395688   20.620927 C.3        1 MOL1        -0.1209
       6    H4      20.855461   17.481466   19.557417 H          1 MOL1         0.1041
       7    H5      21.325448   16.709218   21.066485 H          1 MOL1         0.1041
       8    C3      20.711908   18.788447   21.282477 C.3        1 MOL1        -0.1274
       9    H6      21.716412   19.188969   21.092558 H          1 MOL1         0.1041
      10    H7      20.003050   19.479140   20.807950 H          1 MOL1         0.1041
      11    C4      20.465473   18.744062   22.805881 C.3        1 MOL1         0.0313
      12    H8      21.152880   18.022868   23.255234 H          1 MOL1         0.1015
      13    H9      19.444948   18.410288   23.008066 H          1 MOL1         0.1015
      14    N1      20.671468   20.070665   23.518689 N.4        1 MOL1        -0.4809
      15    H10     21.615816   20.437494   23.325398 H          1 MOL1         0.3726
      16    H11     20.650082   19.921134   24.539664 H          1 MOL1         0.3726
      17    C5      19.603545   21.084229   23.121706 C.3        1 MOL1        -0.0677
      18    H12     19.762801   22.009004   23.680625 H          1 MOL1         0.1026
      19    H13     19.675610   21.286585   22.051310 H          1 MOL1         0.1026
      20    H14     18.617366   20.677894   23.356316 H          1 MOL1         0.1026
@<TRIPOS>BOND
    1     1     2    1
    2     1     3    1
    3     1     4    1
    4     1     5    1
    5     5     6    1
    6     5     7    1
    7     5     8    1
    8     8     9    1
    9     8    10    1
   10     8    11    1
   11    11    12    1
   12    11    13    1
   13    11    14    1
   14    14    15    1
   15    14    16    1
   16    14    17    1
   17    17    18    1
   18    17    19    1
   19    17    20    1
@<TRIPOS>SUBSTRUCTURE
       1 MOL1            1 RESIDUE      1      MOL     
@<SCITEGIC>MOL_PROPERTY
VConf Rank
SciTegic.value.IntegerValue
768

@<SCITEGIC>MOL_PROPERTY
Conf_Id
SciTegic.value.IntegerValue
53

@<SCITEGIC>MOL_PROPERTY
Delta U+W
SciTegic.value.DoubleValue
0.379

@<SCITEGIC>MOL_PROPERTY
U+W
SciTegic.value.DoubleValue
15.717

@<SCITEGIC>MOL_PROPERTY
Grad RMS
SciTegic.value.DoubleValue
0.000000

@<SCITEGIC>MOL_PROPERTY
U
SciTegic.value.DoubleValue
70.163

@<SCITEGIC>MOL_PROPERTY
W
SciTegic.value.DoubleValue
-54.446

@<SCITEGIC>MOL_PROPERTY
W(PB)
SciTegic.value.DoubleValue
-56.322

@<SCITEGIC>MOL_PROPERTY
W(SA)
SciTegic.value.DoubleValue
1.876

@<SCITEGIC>MOL_PROPERTY
Valence
SciTegic.value.DoubleValue
1.420

@<SCITEGIC>MOL_PROPERTY
Coulomb
SciTegic.value.DoubleValue
68.566

@<SCITEGIC>MOL_PROPERTY
VdW
SciTegic.value.DoubleValue
0.177

@<SCITEGIC>MOL_PROPERTY
VdW6
SciTegic.value.DoubleValue
-4.267

@<SCITEGIC>MOL_PROPERTY
VdW12
SciTegic.value.DoubleValue
4.445

@<SCITEGIC>MOL_PROPERTY
Bond
SciTegic.value.DoubleValue
0.146

@<SCITEGIC>MOL_PROPERTY
Angle
SciTegic.value.DoubleValue
0.581

@<SCITEGIC>MOL_PROPERTY
Pdih
SciTegic.value.DoubleValue
0.693

@<SCITEGIC>MOL_PROPERTY
Idih
SciTegic.value.DoubleValue
0.000

@<SCITEGIC>MOL_PROPERTY
Tether
SciTegic.value.DoubleValue
0.000

@<TRIPOS>MOLECULE
guest-s9_confgen4.mol2 : confsearch ligand conformer 769
          20          19           1
SMALL
USER_CHARGES
 
@<TRIPOS>ATOM
       1    C1      22.039856   17.093256   20.958157 C.3        1 MOL1        -0.2224
       2    H1      22.318414   16.937453   19.907856 H          1 MOL1         0.1052
       3    H2      22.963198   17.109058   21.551735 H          1 MOL1         0.1052
       4    H3      21.442261   16.230079   21.279044 H          1 MOL1         0.1052
       5    C2      21.249169   18.409091   21.123553 C.3        1 MOL1        -0.1209
       6    H4      20.354665   18.372208   20.487032 H          1 MOL1         0.1041
       7    H5      21.860495   19.249278   20.765018 H          1 MOL1         0.1041
       8    C3      20.842361   18.651414   22.596139 C.3        1 MOL1        -0.1274
       9    H6      20.208902   17.828345   22.951145 H          1 MOL1         0.1041
      10    H7      21.741028   18.642090   23.226978 H          1 MOL1         0.1041
      11    C4      20.117202   19.999454   22.804928 C.3        1 MOL1         0.0313
      12    H8      20.782913   20.811136   22.500579 H          1 MOL1         0.1015
      13    H9      19.892207   20.131530   23.866261 H          1 MOL1         0.1015
      14    N1      18.815736   20.165969   22.034806 N.4        1 MOL1        -0.4809
      15    H10     18.982006   20.045611   21.024905 H          1 MOL1         0.3726
      16    H11     18.477784   21.136072   22.134371 H          1 MOL1         0.3726
      17    C5      17.750743   19.192848   22.528528 C.3        1 MOL1        -0.0677
      18    H12     17.581510   19.356013   23.595015 H          1 MOL1         0.1026
      19    H13     16.823720   19.367301   21.977960 H          1 MOL1         0.1026
      20    H14     18.089880   18.168899   22.359621 H          1 MOL1         0.1026
@<TRIPOS>BOND
    1     1     2    1
    2     1     3    1
    3     1     4    1
    4     1     5    1
    5     5     6    1
    6     5     7    1
    7     5     8    1
    8     8     9    1
    9     8    10    1
   10     8    11    1
   11    11    12    1
   12    11    13    1
   13    11    14    1
   14    14    15    1
   15    14    16    1
   16    14    17    1
   17    17    18    1
   18    17    19    1
   19    17    20    1
@<TRIPOS>SUBSTRUCTURE
       1 MOL1            1 RESIDUE      1      MOL     
@<SCITEGIC>MOL_PROPERTY
VConf Rank
SciTegic.value.IntegerValue
769

@<SCITEGIC>MOL_PROPERTY
Conf_Id
SciTegic.value.IntegerValue
49

@<SCITEGIC>MOL_PROPERTY
Delta U+W
SciTegic.value.DoubleValue
0.268

@<SCITEGIC>MOL_PROPERTY
U+W
SciTegic.value.DoubleValue
15.607

@<SCITEGIC>MOL_PROPERTY
Grad RMS
SciTegic.value.DoubleValue
0.000000

@<SCITEGIC>MOL_PROPERTY
U
SciTegic.value.DoubleValue
70.298

@<SCITEGIC>MOL_PROPERTY
W
SciTegic.value.DoubleValue
-54.692

@<SCITEGIC>MOL_PROPERTY
W(PB)
SciTegic.value.DoubleValue
-56.576

@<SCITEGIC>MOL_PROPERTY
W(SA)
SciTegic.value.DoubleValue
1.885

@<SCITEGIC>MOL_PROPERTY
Valence
SciTegic.value.DoubleValue
1.245

@<SCITEGIC>MOL_PROPERTY
Coulomb
SciTegic.value.DoubleValue
68.933

@<SCITEGIC>MOL_PROPERTY
VdW
SciTegic.value.DoubleValue
0.120

@<SCITEGIC>MOL_PROPERTY
VdW6
SciTegic.value.DoubleValue
-4.430

@<SCITEGIC>MOL_PROPERTY
VdW12
SciTegic.value.DoubleValue
4.550

@<SCITEGIC>MOL_PROPERTY
Bond
SciTegic.value.DoubleValue
0.148

@<SCITEGIC>MOL_PROPERTY
Angle
SciTegic.value.DoubleValue
0.587

@<SCITEGIC>MOL_PROPERTY
Pdih
SciTegic.value.DoubleValue
0.509

@<SCITEGIC>MOL_PROPERTY
Idih
SciTegic.value.DoubleValue
0.000

@<SCITEGIC>MOL_PROPERTY
Tether
SciTegic.value.DoubleValue
0.000

@<TRIPOS>MOLECULE
guest-s9_confgen4.mol2 : confsearch ligand conformer 770
          20          19           1
SMALL
USER_CHARGES
 
@<TRIPOS>ATOM
       1    C1      18.705798   16.683651   20.698421 C.3        1 MOL1        -0.2224
       2    H1      18.722190   15.901996   21.469080 H          1 MOL1         0.1052
       3    H2      17.659430   16.960063   20.514437 H          1 MOL1         0.1052
       4    H3      19.106463   16.251225   19.772421 H          1 MOL1         0.1052
       5    C2      19.537869   17.909849   21.132503 C.3        1 MOL1        -0.1209
       6    H4      19.525724   18.661830   20.331024 H          1 MOL1         0.1041
       7    H5      20.582346   17.599248   21.267194 H          1 MOL1         0.1041
       8    C3      19.000325   18.532153   22.442239 C.3        1 MOL1        -0.1274
       9    H6      17.926043   18.730020   22.330330 H          1 MOL1         0.1041
      10    H7      19.096120   17.809606   23.263399 H          1 MOL1         0.1041
      11    C4      19.688620   19.857165   22.841518 C.3        1 MOL1         0.0313
      12    H8      19.191139   20.238462   23.736989 H          1 MOL1         0.1015
      13    H9      19.565336   20.602518   22.051868 H          1 MOL1         0.1015
      14    N1      21.169270   19.755045   23.173949 N.4        1 MOL1        -0.4809
      15    H10     21.379831   18.840891   23.601531 H          1 MOL1         0.3726
      16    H11     21.402839   20.447164   23.902939 H          1 MOL1         0.3726
      17    C5      22.035616   20.009861   21.944658 C.3        1 MOL1        -0.0677
      18    H12     23.087929   19.950159   22.231069 H          1 MOL1         0.1026
      19    H13     21.821874   19.261867   21.180374 H          1 MOL1         0.1026
      20    H14     21.818472   21.006453   21.554349 H          1 MOL1         0.1026
@<TRIPOS>BOND
    1     1     2    1
    2     1     3    1
    3     1     4    1
    4     1     5    1
    5     5     6    1
    6     5     7    1
    7     5     8    1
    8     8     9    1
    9     8    10    1
   10     8    11    1
   11    11    12    1
   12    11    13    1
   13    11    14    1
   14    14    15    1
   15    14    16    1
   16    14    17    1
   17    17    18    1
   18    17    19    1
   19    17    20    1
@<TRIPOS>SUBSTRUCTURE
       1 MOL1            1 RESIDUE      1      MOL     
@<SCITEGIC>MOL_PROPERTY
VConf Rank
SciTegic.value.IntegerValue
770

@<SCITEGIC>MOL_PROPERTY
Conf_Id
SciTegic.value.IntegerValue
65

@<SCITEGIC>MOL_PROPERTY
Delta U+W
SciTegic.value.DoubleValue
1.775

@<SCITEGIC>MOL_PROPERTY
U+W
SciTegic.value.DoubleValue
17.114

@<SCITEGIC>MOL_PROPERTY
Grad RMS
SciTegic.value.DoubleValue
0.000000

@<SCITEGIC>MOL_PROPERTY
U
SciTegic.value.DoubleValue
71.726

@<SCITEGIC>MOL_PROPERTY
W
SciTegic.value.DoubleValue
-54.613

@<SCITEGIC>MOL_PROPERTY
W(PB)
SciTegic.value.DoubleValue
-56.495

@<SCITEGIC>MOL_PROPERTY
W(SA)
SciTegic.value.DoubleValue
1.883

@<SCITEGIC>MOL_PROPERTY
Valence
SciTegic.value.DoubleValue
2.885

@<SCITEGIC>MOL_PROPERTY
Coulomb
SciTegic.value.DoubleValue
68.822

@<SCITEGIC>MOL_PROPERTY
VdW
SciTegic.value.DoubleValue
0.019

@<SCITEGIC>MOL_PROPERTY
VdW6
SciTegic.value.DoubleValue
-4.600

@<SCITEGIC>MOL_PROPERTY
VdW12
SciTegic.value.DoubleValue
4.619

@<SCITEGIC>MOL_PROPERTY
Bond
SciTegic.value.DoubleValue
0.152

@<SCITEGIC>MOL_PROPERTY
Angle
SciTegic.value.DoubleValue
0.862

@<SCITEGIC>MOL_PROPERTY
Pdih
SciTegic.value.DoubleValue
1.871

@<SCITEGIC>MOL_PROPERTY
Idih
SciTegic.value.DoubleValue
0.000

@<SCITEGIC>MOL_PROPERTY
Tether
SciTegic.value.DoubleValue
0.000

@<TRIPOS>MOLECULE
guest-s9_confgen4.mol2 : confsearch ligand conformer 771
          20          19           1
SMALL
USER_CHARGES
 
@<TRIPOS>ATOM
       1    C1      21.304660   19.819795   20.287136 C.3        1 MOL1        -0.2224
       2    H1      20.300762   19.451840   20.040558 H          1 MOL1         0.1052
       3    H2      21.425768   20.798456   19.804918 H          1 MOL1         0.1052
       4    H3      22.039046   19.135225   19.843165 H          1 MOL1         0.1052
       5    C2      21.508727   19.939170   21.814970 C.3        1 MOL1        -0.1209
       6    H4      20.763909   20.628841   22.234744 H          1 MOL1         0.1041
       7    H5      22.488598   20.397434   22.009527 H          1 MOL1         0.1041
       8    C3      21.443232   18.574261   22.544856 C.3        1 MOL1        -0.1274
       9    H6      22.259638   17.933620   22.185934 H          1 MOL1         0.1041
      10    H7      21.622680   18.725259   23.617583 H          1 MOL1         0.1041
      11    C4      20.108409   17.823955   22.354446 C.3        1 MOL1         0.0313
      12    H8      20.156219   16.862585   22.872154 H          1 MOL1         0.1015
      13    H9      19.944454   17.628509   21.292050 H          1 MOL1         0.1015
      14    N1      18.900022   18.571986   22.884402 N.4        1 MOL1        -0.4809
      15    H10     18.824527   19.490972   22.423690 H          1 MOL1         0.3726
      16    H11     19.020181   18.775783   23.888358 H          1 MOL1         0.3726
      17    C5      17.637828   17.752651   22.651865 C.3        1 MOL1        -0.0677
      18    H12     17.727530   16.797769   23.174281 H          1 MOL1         0.1026
      19    H13     16.776585   18.303228   23.036695 H          1 MOL1         0.1026
      20    H14     17.514447   17.577776   21.580904 H          1 MOL1         0.1026
@<TRIPOS>BOND
    1     1     2    1
    2     1     3    1
    3     1     4    1
    4     1     5    1
    5     5     6    1
    6     5     7    1
    7     5     8    1
    8     8     9    1
    9     8    10    1
   10     8    11    1
   11    11    12    1
   12    11    13    1
   13    11    14    1
   14    14    15    1
   15    14    16    1
   16    14    17    1
   17    17    18    1
   18    17    19    1
   19    17    20    1
@<TRIPOS>SUBSTRUCTURE
       1 MOL1            1 RESIDUE      1      MOL     
@<SCITEGIC>MOL_PROPERTY
VConf Rank
SciTegic.value.IntegerValue
771

@<SCITEGIC>MOL_PROPERTY
Conf_Id
SciTegic.value.IntegerValue
23

@<SCITEGIC>MOL_PROPERTY
Delta U+W
SciTegic.value.DoubleValue
0.896

@<SCITEGIC>MOL_PROPERTY
U+W
SciTegic.value.DoubleValue
16.234

@<SCITEGIC>MOL_PROPERTY
Grad RMS
SciTegic.value.DoubleValue
0.000000

@<SCITEGIC>MOL_PROPERTY
U
SciTegic.value.DoubleValue
70.374

@<SCITEGIC>MOL_PROPERTY
W
SciTegic.value.DoubleValue
-54.140

@<SCITEGIC>MOL_PROPERTY
W(PB)
SciTegic.value.DoubleValue
-56.046

@<SCITEGIC>MOL_PROPERTY
W(SA)
SciTegic.value.DoubleValue
1.907

@<SCITEGIC>MOL_PROPERTY
Valence
SciTegic.value.DoubleValue
1.257

@<SCITEGIC>MOL_PROPERTY
Coulomb
SciTegic.value.DoubleValue
69.240

@<SCITEGIC>MOL_PROPERTY
VdW
SciTegic.value.DoubleValue
-0.123

@<SCITEGIC>MOL_PROPERTY
VdW6
SciTegic.value.DoubleValue
-4.336

@<SCITEGIC>MOL_PROPERTY
VdW12
SciTegic.value.DoubleValue
4.213

@<SCITEGIC>MOL_PROPERTY
Bond
SciTegic.value.DoubleValue
0.128

@<SCITEGIC>MOL_PROPERTY
Angle
SciTegic.value.DoubleValue
0.603

@<SCITEGIC>MOL_PROPERTY
Pdih
SciTegic.value.DoubleValue
0.526

@<SCITEGIC>MOL_PROPERTY
Idih
SciTegic.value.DoubleValue
0.000

@<SCITEGIC>MOL_PROPERTY
Tether
SciTegic.value.DoubleValue
0.000

@<TRIPOS>MOLECULE
guest-s9_confgen4.mol2 : confsearch ligand conformer 772
          20          19           1
SMALL
USER_CHARGES
 
@<TRIPOS>ATOM
       1    C1      19.700096   20.535329   23.574729 C.3        1 MOL1        -0.2224
       2    H1      19.170216   21.366155   23.090966 H          1 MOL1         0.1052
       3    H2      19.806475   20.781348   24.639219 H          1 MOL1         0.1052
       4    H3      20.708719   20.476912   23.146627 H          1 MOL1         0.1052
       5    C2      18.928691   19.207001   23.399667 C.3        1 MOL1        -0.1209
       6    H4      17.965279   19.281977   23.923328 H          1 MOL1         0.1041
       7    H5      19.477692   18.392905   23.892065 H          1 MOL1         0.1041
       8    C3      18.662797   18.850197   21.915757 C.3        1 MOL1        -0.1274
       9    H6      18.090087   17.914834   21.862456 H          1 MOL1         0.1041
      10    H7      18.025979   19.624105   21.467096 H          1 MOL1         0.1041
      11    C4      19.942277   18.710876   21.064587 C.3        1 MOL1         0.0313
      12    H8      20.495217   19.653174   21.074470 H          1 MOL1         0.1015
      13    H9      19.666925   18.490697   20.030062 H          1 MOL1         0.1015
      14    N1      20.878643   17.614089   21.534567 N.4        1 MOL1        -0.4809
      15    H10     20.388876   16.706343   21.539455 H          1 MOL1         0.3726
      16    H11     21.156133   17.782853   22.512835 H          1 MOL1         0.3726
      17    C5      22.105050   17.555747   20.633986 C.3        1 MOL1        -0.0677
      18    H12     22.624537   18.515719   20.670683 H          1 MOL1         0.1026
      19    H13     22.770242   16.763464   20.984380 H          1 MOL1         0.1026
      20    H14     21.789541   17.345235   19.609826 H          1 MOL1         0.1026
@<TRIPOS>BOND
    1     1     2    1
    2     1     3    1
    3     1     4    1
    4     1     5    1
    5     5     6    1
    6     5     7    1
    7     5     8    1
    8     8     9    1
    9     8    10    1
   10     8    11    1
   11    11    12    1
   12    11    13    1
   13    11    14    1
   14    14    15    1
   15    14    16    1
   16    14    17    1
   17    17    18    1
   18    17    19    1
   19    17    20    1
@<TRIPOS>SUBSTRUCTURE
       1 MOL1            1 RESIDUE      1      MOL     
@<SCITEGIC>MOL_PROPERTY
VConf Rank
SciTegic.value.IntegerValue
772

@<SCITEGIC>MOL_PROPERTY
Conf_Id
SciTegic.value.IntegerValue
24

@<SCITEGIC>MOL_PROPERTY
Delta U+W
SciTegic.value.DoubleValue
0.792

@<SCITEGIC>MOL_PROPERTY
U+W
SciTegic.value.DoubleValue
16.130

@<SCITEGIC>MOL_PROPERTY
Grad RMS
SciTegic.value.DoubleValue
0.000000

@<SCITEGIC>MOL_PROPERTY
U
SciTegic.value.DoubleValue
70.374

@<SCITEGIC>MOL_PROPERTY
W
SciTegic.value.DoubleValue
-54.243

@<SCITEGIC>MOL_PROPERTY
W(PB)
SciTegic.value.DoubleValue
-56.130

@<SCITEGIC>MOL_PROPERTY
W(SA)
SciTegic.value.DoubleValue
1.887

@<SCITEGIC>MOL_PROPERTY
Valence
SciTegic.value.DoubleValue
1.257

@<SCITEGIC>MOL_PROPERTY
Coulomb
SciTegic.value.DoubleValue
69.240

@<SCITEGIC>MOL_PROPERTY
VdW
SciTegic.value.DoubleValue
-0.123

@<SCITEGIC>MOL_PROPERTY
VdW6
SciTegic.value.DoubleValue
-4.336

@<SCITEGIC>MOL_PROPERTY
VdW12
SciTegic.value.DoubleValue
4.213

@<SCITEGIC>MOL_PROPERTY
Bond
SciTegic.value.DoubleValue
0.128

@<SCITEGIC>MOL_PROPERTY
Angle
SciTegic.value.DoubleValue
0.603

@<SCITEGIC>MOL_PROPERTY
Pdih
SciTegic.value.DoubleValue
0.526

@<SCITEGIC>MOL_PROPERTY
Idih
SciTegic.value.DoubleValue
0.000

@<SCITEGIC>MOL_PROPERTY
Tether
SciTegic.value.DoubleValue
0.000

@<TRIPOS>MOLECULE
guest-s9_confgen4.mol2 : confsearch ligand conformer 773
          20          19           1
SMALL
USER_CHARGES
 
@<TRIPOS>ATOM
       1    C1      20.484871   19.010517   24.148349 C.3        1 MOL1        -0.2224
       2    H1      20.410299   19.090970   25.240680 H          1 MOL1         0.1052
       3    H2      20.066668   18.036229   23.869212 H          1 MOL1         0.1052
       4    H3      21.550755   19.028838   23.886205 H          1 MOL1         0.1052
       5    C2      19.719771   20.171623   23.473134 C.3        1 MOL1        -0.1209
       6    H4      20.029643   21.115697   23.942996 H          1 MOL1         0.1041
       7    H5      18.644815   20.069205   23.678281 H          1 MOL1         0.1041
       8    C3      19.949217   20.288658   21.944574 C.3        1 MOL1        -0.1274
       9    H6      19.416883   21.181382   21.590338 H          1 MOL1         0.1041
      10    H7      21.011284   20.466667   21.730025 H          1 MOL1         0.1041
      11    C4      19.440406   19.081529   21.128342 C.3        1 MOL1         0.0313
      12    H8      19.294611   19.388652   20.089610 H          1 MOL1         0.1015
      13    H9      18.476540   18.749447   21.522001 H          1 MOL1         0.1015
      14    N1      20.386123   17.895668   21.109626 N.4        1 MOL1        -0.4809
      15    H10     20.598955   17.599419   22.072724 H          1 MOL1         0.3726
      16    H11     21.292167   18.171270   20.700802 H          1 MOL1         0.3726
      17    C5      19.769388   16.749627   20.319283 C.3        1 MOL1        -0.0677
      18    H12     18.828831   16.453709   20.788916 H          1 MOL1         0.1026
      19    H13     19.583209   17.078669   19.294670 H          1 MOL1         0.1026
      20    H14     20.460658   15.903996   20.314373 H          1 MOL1         0.1026
@<TRIPOS>BOND
    1     1     2    1
    2     1     3    1
    3     1     4    1
    4     1     5    1
    5     5     6    1
    6     5     7    1
    7     5     8    1
    8     8     9    1
    9     8    10    1
   10     8    11    1
   11    11    12    1
   12    11    13    1
   13    11    14    1
   14    14    15    1
   15    14    16    1
   16    14    17    1
   17    17    18    1
   18    17    19    1
   19    17    20    1
@<TRIPOS>SUBSTRUCTURE
       1 MOL1            1 RESIDUE      1      MOL     
@<SCITEGIC>MOL_PROPERTY
VConf Rank
SciTegic.value.IntegerValue
773

@<SCITEGIC>MOL_PROPERTY
Conf_Id
SciTegic.value.IntegerValue
26

@<SCITEGIC>MOL_PROPERTY
Delta U+W
SciTegic.value.DoubleValue
2.888

@<SCITEGIC>MOL_PROPERTY
U+W
SciTegic.value.DoubleValue
18.226

@<SCITEGIC>MOL_PROPERTY
Grad RMS
SciTegic.value.DoubleValue
0.000000

@<SCITEGIC>MOL_PROPERTY
U
SciTegic.value.DoubleValue
72.042

@<SCITEGIC>MOL_PROPERTY
W
SciTegic.value.DoubleValue
-53.816

@<SCITEGIC>MOL_PROPERTY
W(PB)
SciTegic.value.DoubleValue
-55.689

@<SCITEGIC>MOL_PROPERTY
W(SA)
SciTegic.value.DoubleValue
1.873

@<SCITEGIC>MOL_PROPERTY
Valence
SciTegic.value.DoubleValue
2.428

@<SCITEGIC>MOL_PROPERTY
Coulomb
SciTegic.value.DoubleValue
69.829

@<SCITEGIC>MOL_PROPERTY
VdW
SciTegic.value.DoubleValue
-0.215

@<SCITEGIC>MOL_PROPERTY
VdW6
SciTegic.value.DoubleValue
-4.563

@<SCITEGIC>MOL_PROPERTY
VdW12
SciTegic.value.DoubleValue
4.348

@<SCITEGIC>MOL_PROPERTY
Bond
SciTegic.value.DoubleValue
0.137

@<SCITEGIC>MOL_PROPERTY
Angle
SciTegic.value.DoubleValue
0.936

@<SCITEGIC>MOL_PROPERTY
Pdih
SciTegic.value.DoubleValue
1.356

@<SCITEGIC>MOL_PROPERTY
Idih
SciTegic.value.DoubleValue
0.000

@<SCITEGIC>MOL_PROPERTY
Tether
SciTegic.value.DoubleValue
0.000

@<TRIPOS>MOLECULE
guest-s9_confgen4.mol2 : confsearch ligand conformer 774
          20          19           1
SMALL
USER_CHARGES
 
@<TRIPOS>ATOM
       1    C1      19.503498   19.134512   19.960978 C.3        1 MOL1        -0.2224
       2    H1      19.528724   19.353735   18.885560 H          1 MOL1         0.1052
       3    H2      18.469916   18.872450   20.222120 H          1 MOL1         0.1052
       4    H3      19.778951   20.058356   20.483174 H          1 MOL1         0.1052
       5    C2      20.477367   17.981392   20.294678 C.3        1 MOL1        -0.1209
       6    H4      21.509913   18.310230   20.110778 H          1 MOL1         0.1041
       7    H5      20.293467   17.153773   19.595182 H          1 MOL1         0.1041
       8    C3      20.354553   17.435330   21.740211 C.3        1 MOL1        -0.1274
       9    H6      19.347102   17.034196   21.912953 H          1 MOL1         0.1041
      10    H7      21.039057   16.582328   21.838505 H          1 MOL1         0.1041
      11    C4      20.712611   18.456343   22.840943 C.3        1 MOL1         0.0313
      12    H8      21.589125   19.034252   22.537582 H          1 MOL1         0.1015
      13    H9      20.962310   17.918764   23.759204 H          1 MOL1         0.1015
      14    N1      19.595316   19.422918   23.185017 N.4        1 MOL1        -0.4809
      15    H10     18.767795   18.904390   23.517197 H          1 MOL1         0.3726
      16    H11     19.285467   19.919453   22.337628 H          1 MOL1         0.3726
      17    C5      20.067882   20.410363   24.243337 C.3        1 MOL1        -0.0677
      18    H12     20.922880   20.969719   23.857505 H          1 MOL1         0.1026
      19    H13     19.254024   21.099013   24.480760 H          1 MOL1         0.1026
      20    H14     20.359989   19.862235   25.141666 H          1 MOL1         0.1026
@<TRIPOS>BOND
    1     1     2    1
    2     1     3    1
    3     1     4    1
    4     1     5    1
    5     5     6    1
    6     5     7    1
    7     5     8    1
    8     8     9    1
    9     8    10    1
   10     8    11    1
   11    11    12    1
   12    11    13    1
   13    11    14    1
   14    14    15    1
   15    14    16    1
   16    14    17    1
   17    17    18    1
   18    17    19    1
   19    17    20    1
@<TRIPOS>SUBSTRUCTURE
       1 MOL1            1 RESIDUE      1      MOL     
@<SCITEGIC>MOL_PROPERTY
VConf Rank
SciTegic.value.IntegerValue
774

@<SCITEGIC>MOL_PROPERTY
Conf_Id
SciTegic.value.IntegerValue
5

@<SCITEGIC>MOL_PROPERTY
Delta U+W
SciTegic.value.DoubleValue
2.950

@<SCITEGIC>MOL_PROPERTY
U+W
SciTegic.value.DoubleValue
18.289

@<SCITEGIC>MOL_PROPERTY
Grad RMS
SciTegic.value.DoubleValue
0.000000

@<SCITEGIC>MOL_PROPERTY
U
SciTegic.value.DoubleValue
72.042

@<SCITEGIC>MOL_PROPERTY
W
SciTegic.value.DoubleValue
-53.753

@<SCITEGIC>MOL_PROPERTY
W(PB)
SciTegic.value.DoubleValue
-55.644

@<SCITEGIC>MOL_PROPERTY
W(SA)
SciTegic.value.DoubleValue
1.891

@<SCITEGIC>MOL_PROPERTY
Valence
SciTegic.value.DoubleValue
2.428

@<SCITEGIC>MOL_PROPERTY
Coulomb
SciTegic.value.DoubleValue
69.829

@<SCITEGIC>MOL_PROPERTY
VdW
SciTegic.value.DoubleValue
-0.215

@<SCITEGIC>MOL_PROPERTY
VdW6
SciTegic.value.DoubleValue
-4.563

@<SCITEGIC>MOL_PROPERTY
VdW12
SciTegic.value.DoubleValue
4.348

@<SCITEGIC>MOL_PROPERTY
Bond
SciTegic.value.DoubleValue
0.137

@<SCITEGIC>MOL_PROPERTY
Angle
SciTegic.value.DoubleValue
0.936

@<SCITEGIC>MOL_PROPERTY
Pdih
SciTegic.value.DoubleValue
1.356

@<SCITEGIC>MOL_PROPERTY
Idih
SciTegic.value.DoubleValue
0.000

@<SCITEGIC>MOL_PROPERTY
Tether
SciTegic.value.DoubleValue
0.000

@<TRIPOS>MOLECULE
guest-s9_confgen4.mol2 : confsearch ligand conformer 775
          20          19           1
SMALL
USER_CHARGES
 
@<TRIPOS>ATOM
       1    C1      20.994208   17.782895   20.015162 C.3        1 MOL1        -0.2224
       2    H1      20.787809   18.342471   19.093570 H          1 MOL1         0.1052
       3    H2      21.828059   18.272787   20.533308 H          1 MOL1         0.1052
       4    H3      21.328029   16.777388   19.727958 H          1 MOL1         0.1052
       5    C2      19.735628   17.701630   20.909317 C.3        1 MOL1        -0.1209
       6    H4      19.965048   17.135006   21.822042 H          1 MOL1         0.1041
       7    H5      18.960369   17.127086   20.383232 H          1 MOL1         0.1041
       8    C3      19.161731   19.092389   21.277730 C.3        1 MOL1        -0.1274
       9    H6      18.848935   19.608175   20.360311 H          1 MOL1         0.1041
      10    H7      18.250832   18.963556   21.876409 H          1 MOL1         0.1041
      11    C4      20.154530   20.000939   22.038268 C.3        1 MOL1         0.0313
      12    H8      19.675995   20.957495   22.262821 H          1 MOL1         0.1015
      13    H9      21.016129   20.201412   21.396757 H          1 MOL1         0.1015
      14    N1      20.683418   19.430655   23.345317 N.4        1 MOL1        -0.4809
      15    H10     21.436656   20.036150   23.707345 H          1 MOL1         0.3726
      16    H11     21.131782   18.518269   23.176131 H          1 MOL1         0.3726
      17    C5      19.573982   19.305134   24.383594 C.3        1 MOL1        -0.0677
      18    H12     18.812018   18.614368   24.017202 H          1 MOL1         0.1026
      19    H13     19.997206   18.923517   25.315343 H          1 MOL1         0.1026
      20    H14     19.130620   20.288111   24.556282 H          1 MOL1         0.1026
@<TRIPOS>BOND
    1     1     2    1
    2     1     3    1
    3     1     4    1
    4     1     5    1
    5     5     6    1
    6     5     7    1
    7     5     8    1
    8     8     9    1
    9     8    10    1
   10     8    11    1
   11    11    12    1
   12    11    13    1
   13    11    14    1
   14    14    15    1
   15    14    16    1
   16    14    17    1
   17    17    18    1
   18    17    19    1
   19    17    20    1
@<TRIPOS>SUBSTRUCTURE
       1 MOL1            1 RESIDUE      1      MOL     
@<SCITEGIC>MOL_PROPERTY
VConf Rank
SciTegic.value.IntegerValue
775

@<SCITEGIC>MOL_PROPERTY
Conf_Id
SciTegic.value.IntegerValue
52

@<SCITEGIC>MOL_PROPERTY
Delta U+W
SciTegic.value.DoubleValue
0.784

@<SCITEGIC>MOL_PROPERTY
U+W
SciTegic.value.DoubleValue
16.122

@<SCITEGIC>MOL_PROPERTY
Grad RMS
SciTegic.value.DoubleValue
0.000000

@<SCITEGIC>MOL_PROPERTY
U
SciTegic.value.DoubleValue
70.777

@<SCITEGIC>MOL_PROPERTY
W
SciTegic.value.DoubleValue
-54.655

@<SCITEGIC>MOL_PROPERTY
W(PB)
SciTegic.value.DoubleValue
-56.491

@<SCITEGIC>MOL_PROPERTY
W(SA)
SciTegic.value.DoubleValue
1.836

@<SCITEGIC>MOL_PROPERTY
Valence
SciTegic.value.DoubleValue
1.529

@<SCITEGIC>MOL_PROPERTY
Coulomb
SciTegic.value.DoubleValue
69.166

@<SCITEGIC>MOL_PROPERTY
VdW
SciTegic.value.DoubleValue
0.082

@<SCITEGIC>MOL_PROPERTY
VdW6
SciTegic.value.DoubleValue
-5.166

@<SCITEGIC>MOL_PROPERTY
VdW12
SciTegic.value.DoubleValue
5.248

@<SCITEGIC>MOL_PROPERTY
Bond
SciTegic.value.DoubleValue
0.171

@<SCITEGIC>MOL_PROPERTY
Angle
SciTegic.value.DoubleValue
0.752

@<SCITEGIC>MOL_PROPERTY
Pdih
SciTegic.value.DoubleValue
0.605

@<SCITEGIC>MOL_PROPERTY
Idih
SciTegic.value.DoubleValue
0.000

@<SCITEGIC>MOL_PROPERTY
Tether
SciTegic.value.DoubleValue
0.000

@<TRIPOS>MOLECULE
guest-s9_confgen4.mol2 : confsearch ligand conformer 776
          20          19           1
SMALL
USER_CHARGES
 
@<TRIPOS>ATOM
       1    C1      21.711825   18.855362   23.305513 C.3        1 MOL1        -0.2224
       2    H1      22.644813   18.694456   23.861220 H          1 MOL1         0.1052
       3    H2      21.870227   19.726261   22.659296 H          1 MOL1         0.1052
       4    H3      20.926667   19.092687   24.035247 H          1 MOL1         0.1052
       5    C2      21.353810   17.595426   22.484689 C.3        1 MOL1        -0.1209
       6    H4      21.436294   16.717120   23.140281 H          1 MOL1         0.1041
       7    H5      22.098575   17.451169   21.689370 H          1 MOL1         0.1041
       8    C3      19.930184   17.612073   21.871635 C.3        1 MOL1        -0.1274
       9    H6      19.757036   16.636975   21.397515 H          1 MOL1         0.1041
      10    H7      19.176279   17.694387   22.664575 H          1 MOL1         0.1041
      11    C4      19.705716   18.700276   20.796006 C.3        1 MOL1         0.0313
      12    H8      18.830846   18.437687   20.195946 H          1 MOL1         0.1015
      13    H9      20.571259   18.726365   20.129205 H          1 MOL1         0.1015
      14    N1      19.477161   20.109616   21.319490 N.4        1 MOL1        -0.4809
      15    H10     19.529524   20.781236   20.537605 H          1 MOL1         0.3726
      16    H11     20.239459   20.377256   21.957543 H          1 MOL1         0.3726
      17    C5      18.124974   20.229128   22.013774 C.3        1 MOL1        -0.0677
      18    H12     17.335052   19.954658   21.311399 H          1 MOL1         0.1026
      19    H13     18.100078   19.562509   22.877844 H          1 MOL1         0.1026
      20    H14     17.981939   21.260643   22.343062 H          1 MOL1         0.1026
@<TRIPOS>BOND
    1     1     2    1
    2     1     3    1
    3     1     4    1
    4     1     5    1
    5     5     6    1
    6     5     7    1
    7     5     8    1
    8     8     9    1
    9     8    10    1
   10     8    11    1
   11    11    12    1
   12    11    13    1
   13    11    14    1
   14    14    15    1
   15    14    16    1
   16    14    17    1
   17    17    18    1
   18    17    19    1
   19    17    20    1
@<TRIPOS>SUBSTRUCTURE
       1 MOL1            1 RESIDUE      1      MOL     
@<SCITEGIC>MOL_PROPERTY
VConf Rank
SciTegic.value.IntegerValue
776

@<SCITEGIC>MOL_PROPERTY
Conf_Id
SciTegic.value.IntegerValue
55

@<SCITEGIC>MOL_PROPERTY
Delta U+W
SciTegic.value.DoubleValue
2.745

@<SCITEGIC>MOL_PROPERTY
U+W
SciTegic.value.DoubleValue
18.083

@<SCITEGIC>MOL_PROPERTY
Grad RMS
SciTegic.value.DoubleValue
0.000000

@<SCITEGIC>MOL_PROPERTY
U
SciTegic.value.DoubleValue
72.490

@<SCITEGIC>MOL_PROPERTY
W
SciTegic.value.DoubleValue
-54.407

@<SCITEGIC>MOL_PROPERTY
W(PB)
SciTegic.value.DoubleValue
-56.269

@<SCITEGIC>MOL_PROPERTY
W(SA)
SciTegic.value.DoubleValue
1.861

@<SCITEGIC>MOL_PROPERTY
Valence
SciTegic.value.DoubleValue
2.738

@<SCITEGIC>MOL_PROPERTY
Coulomb
SciTegic.value.DoubleValue
69.795

@<SCITEGIC>MOL_PROPERTY
VdW
SciTegic.value.DoubleValue
-0.043

@<SCITEGIC>MOL_PROPERTY
VdW6
SciTegic.value.DoubleValue
-5.333

@<SCITEGIC>MOL_PROPERTY
VdW12
SciTegic.value.DoubleValue
5.290

@<SCITEGIC>MOL_PROPERTY
Bond
SciTegic.value.DoubleValue
0.182

@<SCITEGIC>MOL_PROPERTY
Angle
SciTegic.value.DoubleValue
1.135

@<SCITEGIC>MOL_PROPERTY
Pdih
SciTegic.value.DoubleValue
1.422

@<SCITEGIC>MOL_PROPERTY
Idih
SciTegic.value.DoubleValue
0.000

@<SCITEGIC>MOL_PROPERTY
Tether
SciTegic.value.DoubleValue
0.000

@<TRIPOS>MOLECULE
guest-s9_confgen4.mol2 : confsearch ligand conformer 777
          20          19           1
SMALL
USER_CHARGES
 
@<TRIPOS>ATOM
       1    C1      21.415693   19.994812   22.993804 C.3        1 MOL1        -0.2224
       2    H1      22.294704   20.523445   23.385026 H          1 MOL1         0.1052
       3    H2      20.567376   20.690981   23.025649 H          1 MOL1         0.1052
       4    H3      21.214917   19.159877   23.674777 H          1 MOL1         0.1052
       5    C2      21.684641   19.502281   21.553508 C.3        1 MOL1        -0.1209
       6    H4      22.459616   18.723085   21.570349 H          1 MOL1         0.1041
       7    H5      22.104968   20.335485   20.972887 H          1 MOL1         0.1041
       8    C3      20.430018   18.976493   20.810338 C.3        1 MOL1        -0.1274
       9    H6      19.673752   19.767899   20.735224 H          1 MOL1         0.1041
      10    H7      20.722930   18.746848   19.777356 H          1 MOL1         0.1041
      11    C4      19.813568   17.694258   21.416487 C.3        1 MOL1         0.0313
      12    H8      20.616391   16.994840   21.662979 H          1 MOL1         0.1015
      13    H9      19.172712   17.216394   20.671254 H          1 MOL1         0.1015
      14    N1      18.968619   17.893725   22.665000 N.4        1 MOL1        -0.4809
      15    H10     19.504044   18.413191   23.374446 H          1 MOL1         0.3726
      16    H11     18.766123   16.977633   23.095034 H          1 MOL1         0.3726
      17    C5      17.663511   18.612152   22.340539 C.3        1 MOL1        -0.0677
      18    H12     17.884154   19.605594   21.945558 H          1 MOL1         0.1026
      19    H13     17.109647   18.033185   21.598468 H          1 MOL1         0.1026
      20    H14     17.069769   18.704477   23.252601 H          1 MOL1         0.1026
@<TRIPOS>BOND
    1     1     2    1
    2     1     3    1
    3     1     4    1
    4     1     5    1
    5     5     6    1
    6     5     7    1
    7     5     8    1
    8     8     9    1
    9     8    10    1
   10     8    11    1
   11    11    12    1
   12    11    13    1
   13    11    14    1
   14    14    15    1
   15    14    16    1
   16    14    17    1
   17    17    18    1
   18    17    19    1
   19    17    20    1
@<TRIPOS>SUBSTRUCTURE
       1 MOL1            1 RESIDUE      1      MOL     
@<SCITEGIC>MOL_PROPERTY
VConf Rank
SciTegic.value.IntegerValue
777

@<SCITEGIC>MOL_PROPERTY
Conf_Id
SciTegic.value.IntegerValue
76

@<SCITEGIC>MOL_PROPERTY
Delta U+W
SciTegic.value.DoubleValue
2.799

@<SCITEGIC>MOL_PROPERTY
U+W
SciTegic.value.DoubleValue
18.137

@<SCITEGIC>MOL_PROPERTY
Grad RMS
SciTegic.value.DoubleValue
0.000000

@<SCITEGIC>MOL_PROPERTY
U
SciTegic.value.DoubleValue
72.490

@<SCITEGIC>MOL_PROPERTY
W
SciTegic.value.DoubleValue
-54.353

@<SCITEGIC>MOL_PROPERTY
W(PB)
SciTegic.value.DoubleValue
-56.201

@<SCITEGIC>MOL_PROPERTY
W(SA)
SciTegic.value.DoubleValue
1.848

@<SCITEGIC>MOL_PROPERTY
Valence
SciTegic.value.DoubleValue
2.738

@<SCITEGIC>MOL_PROPERTY
Coulomb
SciTegic.value.DoubleValue
69.795

@<SCITEGIC>MOL_PROPERTY
VdW
SciTegic.value.DoubleValue
-0.043

@<SCITEGIC>MOL_PROPERTY
VdW6
SciTegic.value.DoubleValue
-5.334

@<SCITEGIC>MOL_PROPERTY
VdW12
SciTegic.value.DoubleValue
5.290

@<SCITEGIC>MOL_PROPERTY
Bond
SciTegic.value.DoubleValue
0.182

@<SCITEGIC>MOL_PROPERTY
Angle
SciTegic.value.DoubleValue
1.135

@<SCITEGIC>MOL_PROPERTY
Pdih
SciTegic.value.DoubleValue
1.421

@<SCITEGIC>MOL_PROPERTY
Idih
SciTegic.value.DoubleValue
0.000

@<SCITEGIC>MOL_PROPERTY
Tether
SciTegic.value.DoubleValue
0.000

@<TRIPOS>MOLECULE
guest-s9_confgen4.mol2 : confsearch ligand conformer 778
          20          19           1
SMALL
USER_CHARGES
 
@<TRIPOS>ATOM
       1    C1      18.462253   19.354636   23.252926 C.3        1 MOL1        -0.2224
       2    H1      19.116249   20.160302   22.897619 H          1 MOL1         0.1052
       3    H2      17.485019   19.469222   22.766268 H          1 MOL1         0.1052
       4    H3      18.317280   19.496658   24.331656 H          1 MOL1         0.1052
       5    C2      19.064805   17.960049   22.965486 C.3        1 MOL1        -0.1209
       6    H4      18.409187   17.194188   23.403043 H          1 MOL1         0.1041
       7    H5      20.030050   17.852849   23.476925 H          1 MOL1         0.1041
       8    C3      19.226445   17.668159   21.453495 C.3        1 MOL1        -0.1274
       9    H6      19.616419   16.650624   21.319514 H          1 MOL1         0.1041
      10    H7      18.232394   17.672775   20.987139 H          1 MOL1         0.1041
      11    C4      20.126672   18.660124   20.680011 C.3        1 MOL1         0.0313
      12    H8      19.765611   19.683723   20.804291 H          1 MOL1         0.1015
      13    H9      20.058604   18.413555   19.617355 H          1 MOL1         0.1015
      14    N1      21.604998   18.623135   21.037959 N.4        1 MOL1        -0.4809
      15    H10     22.162083   18.864604   20.203604 H          1 MOL1         0.3726
      16    H11     21.892665   17.662472   21.276743 H          1 MOL1         0.3726
      17    C5      21.938493   19.598944   22.161270 C.3        1 MOL1        -0.0677
      18    H12     23.011404   19.558990   22.361748 H          1 MOL1         0.1026
      19    H13     21.661013   20.608906   21.852120 H          1 MOL1         0.1026
      20    H14     21.388328   19.326178   23.062346 H          1 MOL1         0.1026
@<TRIPOS>BOND
    1     1     2    1
    2     1     3    1
    3     1     4    1
    4     1     5    1
    5     5     6    1
    6     5     7    1
    7     5     8    1
    8     8     9    1
    9     8    10    1
   10     8    11    1
   11    11    12    1
   12    11    13    1
   13    11    14    1
   14    14    15    1
   15    14    16    1
   16    14    17    1
   17    17    18    1
   18    17    19    1
   19    17    20    1
@<TRIPOS>SUBSTRUCTURE
       1 MOL1            1 RESIDUE      1      MOL     
@<SCITEGIC>MOL_PROPERTY
VConf Rank
SciTegic.value.IntegerValue
778

@<SCITEGIC>MOL_PROPERTY
Conf_Id
SciTegic.value.IntegerValue
60

@<SCITEGIC>MOL_PROPERTY
Delta U+W
SciTegic.value.DoubleValue
1.788

@<SCITEGIC>MOL_PROPERTY
U+W
SciTegic.value.DoubleValue
17.127

@<SCITEGIC>MOL_PROPERTY
Grad RMS
SciTegic.value.DoubleValue
0.000000

@<SCITEGIC>MOL_PROPERTY
U
SciTegic.value.DoubleValue
72.122

@<SCITEGIC>MOL_PROPERTY
W
SciTegic.value.DoubleValue
-54.995

@<SCITEGIC>MOL_PROPERTY
W(PB)
SciTegic.value.DoubleValue
-56.810

@<SCITEGIC>MOL_PROPERTY
W(SA)
SciTegic.value.DoubleValue
1.815

@<SCITEGIC>MOL_PROPERTY
Valence
SciTegic.value.DoubleValue
3.197

@<SCITEGIC>MOL_PROPERTY
Coulomb
SciTegic.value.DoubleValue
69.115

@<SCITEGIC>MOL_PROPERTY
VdW
SciTegic.value.DoubleValue
-0.190

@<SCITEGIC>MOL_PROPERTY
VdW6
SciTegic.value.DoubleValue
-5.585

@<SCITEGIC>MOL_PROPERTY
VdW12
SciTegic.value.DoubleValue
5.395

@<SCITEGIC>MOL_PROPERTY
Bond
SciTegic.value.DoubleValue
0.177

@<SCITEGIC>MOL_PROPERTY
Angle
SciTegic.value.DoubleValue
1.207

@<SCITEGIC>MOL_PROPERTY
Pdih
SciTegic.value.DoubleValue
1.813

@<SCITEGIC>MOL_PROPERTY
Idih
SciTegic.value.DoubleValue
0.000

@<SCITEGIC>MOL_PROPERTY
Tether
SciTegic.value.DoubleValue
0.000

@<TRIPOS>MOLECULE
guest-s9_confgen4.mol2 : confsearch ligand conformer 779
          20          19           1
SMALL
USER_CHARGES
 
@<TRIPOS>ATOM
       1    C1      19.746685   17.994630   23.947888 C.3        1 MOL1        -0.2224
       2    H1      19.330274   17.059224   24.343443 H          1 MOL1         0.1052
       3    H2      20.135856   18.572469   24.796180 H          1 MOL1         0.1052
       4    H3      18.921390   18.561305   23.499761 H          1 MOL1         0.1052
       5    C2      20.862707   17.699474   22.919326 C.3        1 MOL1        -0.1209
       6    H4      20.463292   17.102457   22.089386 H          1 MOL1         0.1041
       7    H5      21.627355   17.071184   23.397236 H          1 MOL1         0.1041
       8    C3      21.542804   18.980294   22.376724 C.3        1 MOL1        -0.1274
       9    H6      22.028599   19.500549   23.212776 H          1 MOL1         0.1041
      10    H7      22.350254   18.699051   21.688005 H          1 MOL1         0.1041
      11    C4      20.600145   19.981292   21.668154 C.3        1 MOL1         0.0313
      12    H8      21.177347   20.882121   21.444516 H          1 MOL1         0.1015
      13    H9      19.780448   20.271235   22.329664 H          1 MOL1         0.1015
      14    N1      20.010334   19.507645   20.348032 N.4        1 MOL1        -0.4809
      15    H10     20.684963   18.910534   19.847052 H          1 MOL1         0.3726
      16    H11     19.868563   20.320798   19.728772 H          1 MOL1         0.3726
      17    C5      18.677877   18.793849   20.548771 C.3        1 MOL1        -0.0677
      18    H12     17.978402   19.473300   21.040371 H          1 MOL1         0.1026
      19    H13     18.280133   18.500269   19.574843 H          1 MOL1         0.1026
      20    H14     18.823853   17.906829   21.165949 H          1 MOL1         0.1026
@<TRIPOS>BOND
    1     1     2    1
    2     1     3    1
    3     1     4    1
    4     1     5    1
    5     5     6    1
    6     5     7    1
    7     5     8    1
    8     8     9    1
    9     8    10    1
   10     8    11    1
   11    11    12    1
   12    11    13    1
   13    11    14    1
   14    14    15    1
   15    14    16    1
   16    14    17    1
   17    17    18    1
   18    17    19    1
   19    17    20    1
@<TRIPOS>SUBSTRUCTURE
       1 MOL1            1 RESIDUE      1      MOL     
@<SCITEGIC>MOL_PROPERTY
VConf Rank
SciTegic.value.IntegerValue
779

@<SCITEGIC>MOL_PROPERTY
Conf_Id
SciTegic.value.IntegerValue
54

@<SCITEGIC>MOL_PROPERTY
Delta U+W
SciTegic.value.DoubleValue
1.880

@<SCITEGIC>MOL_PROPERTY
U+W
SciTegic.value.DoubleValue
17.218

@<SCITEGIC>MOL_PROPERTY
Grad RMS
SciTegic.value.DoubleValue
0.000000

@<SCITEGIC>MOL_PROPERTY
U
SciTegic.value.DoubleValue
72.122

@<SCITEGIC>MOL_PROPERTY
W
SciTegic.value.DoubleValue
-54.903

@<SCITEGIC>MOL_PROPERTY
W(PB)
SciTegic.value.DoubleValue
-56.724

@<SCITEGIC>MOL_PROPERTY
W(SA)
SciTegic.value.DoubleValue
1.821

@<SCITEGIC>MOL_PROPERTY
Valence
SciTegic.value.DoubleValue
3.197

@<SCITEGIC>MOL_PROPERTY
Coulomb
SciTegic.value.DoubleValue
69.115

@<SCITEGIC>MOL_PROPERTY
VdW
SciTegic.value.DoubleValue
-0.190

@<SCITEGIC>MOL_PROPERTY
VdW6
SciTegic.value.DoubleValue
-5.585

@<SCITEGIC>MOL_PROPERTY
VdW12
SciTegic.value.DoubleValue
5.395

@<SCITEGIC>MOL_PROPERTY
Bond
SciTegic.value.DoubleValue
0.177

@<SCITEGIC>MOL_PROPERTY
Angle
SciTegic.value.DoubleValue
1.207

@<SCITEGIC>MOL_PROPERTY
Pdih
SciTegic.value.DoubleValue
1.813

@<SCITEGIC>MOL_PROPERTY
Idih
SciTegic.value.DoubleValue
0.000

@<SCITEGIC>MOL_PROPERTY
Tether
SciTegic.value.DoubleValue
0.000

@<TRIPOS>MOLECULE
guest-s9_confgen4.mol2 : confsearch ligand conformer 780
          20          19           1
SMALL
USER_CHARGES
 
@<TRIPOS>ATOM
       1    C1      18.603089   17.312233   24.444599 C.3        1 MOL1        -0.2224
       2    H1      18.315207   16.407118   23.894082 H          1 MOL1         0.1052
       3    H2      18.873758   17.012795   25.465432 H          1 MOL1         0.1052
       4    H3      17.724354   17.967166   24.508347 H          1 MOL1         0.1052
       5    C2      19.783543   18.030607   23.755614 C.3        1 MOL1        -0.1209
       6    H4      20.656983   17.363411   23.738183 H          1 MOL1         0.1041
       7    H5      20.070715   18.911223   24.347559 H          1 MOL1         0.1041
       8    C3      19.430877   18.463954   22.315614 C.3        1 MOL1        -0.1274
       9    H6      19.147497   17.583247   21.723992 H          1 MOL1         0.1041
      10    H7      18.560313   19.133086   22.334194 H          1 MOL1         0.1041
      11    C4      20.612819   19.179534   21.635512 C.3        1 MOL1         0.0313
      12    H8      21.476525   18.510701   21.601434 H          1 MOL1         0.1015
      13    H9      20.887338   20.065573   22.213493 H          1 MOL1         0.1015
      14    N1      20.312303   19.623870   20.217428 N.4        1 MOL1        -0.4809
      15    H10     19.494949   20.253132   20.206508 H          1 MOL1         0.3726
      16    H11     20.040517   18.813526   19.639820 H          1 MOL1         0.3726
      17    C5      21.529161   20.319432   19.621924 C.3        1 MOL1        -0.0677
      18    H12     22.371780   19.624667   19.611804 H          1 MOL1         0.1026
      19    H13     21.299092   20.633849   18.601522 H          1 MOL1         0.1026
      20    H14     21.777497   21.192726   20.228963 H          1 MOL1         0.1026
@<TRIPOS>BOND
    1     1     2    1
    2     1     3    1
    3     1     4    1
    4     1     5    1
    5     5     6    1
    6     5     7    1
    7     5     8    1
    8     8     9    1
    9     8    10    1
   10     8    11    1
   11    11    12    1
   12    11    13    1
   13    11    14    1
   14    14    15    1
   15    14    16    1
   16    14    17    1
   17    17    18    1
   18    17    19    1
   19    17    20    1
@<TRIPOS>SUBSTRUCTURE
       1 MOL1            1 RESIDUE      1      MOL     
@<SCITEGIC>MOL_PROPERTY
VConf Rank
SciTegic.value.IntegerValue
780

@<SCITEGIC>MOL_PROPERTY
Conf_Id
SciTegic.value.IntegerValue
67

@<SCITEGIC>MOL_PROPERTY
Delta U+W
SciTegic.value.DoubleValue
0.000

@<SCITEGIC>MOL_PROPERTY
U+W
SciTegic.value.DoubleValue
15.338

@<SCITEGIC>MOL_PROPERTY
Grad RMS
SciTegic.value.DoubleValue
0.000000

@<SCITEGIC>MOL_PROPERTY
U
SciTegic.value.DoubleValue
69.277

@<SCITEGIC>MOL_PROPERTY
W
SciTegic.value.DoubleValue
-53.939

@<SCITEGIC>MOL_PROPERTY
W(PB)
SciTegic.value.DoubleValue
-55.889

@<SCITEGIC>MOL_PROPERTY
W(SA)
SciTegic.value.DoubleValue
1.950

@<SCITEGIC>MOL_PROPERTY
Valence
SciTegic.value.DoubleValue
0.846

@<SCITEGIC>MOL_PROPERTY
Coulomb
SciTegic.value.DoubleValue
68.557

@<SCITEGIC>MOL_PROPERTY
VdW
SciTegic.value.DoubleValue
-0.127

@<SCITEGIC>MOL_PROPERTY
VdW6
SciTegic.value.DoubleValue
-3.008

@<SCITEGIC>MOL_PROPERTY
VdW12
SciTegic.value.DoubleValue
2.882

@<SCITEGIC>MOL_PROPERTY
Bond
SciTegic.value.DoubleValue
0.088

@<SCITEGIC>MOL_PROPERTY
Angle
SciTegic.value.DoubleValue
0.332

@<SCITEGIC>MOL_PROPERTY
Pdih
SciTegic.value.DoubleValue
0.426

@<SCITEGIC>MOL_PROPERTY
Idih
SciTegic.value.DoubleValue
0.000

@<SCITEGIC>MOL_PROPERTY
Tether
SciTegic.value.DoubleValue
0.000

@<TRIPOS>MOLECULE
guest-s9_confgen4.mol2 : confsearch ligand conformer 781
          20          19           1
SMALL
USER_CHARGES
 
@<TRIPOS>ATOM
       1    C1      18.722761   16.835866   23.723170 C.3        1 MOL1        -0.2224
       2    H1      19.371979   17.109657   24.565028 H          1 MOL1         0.1052
       3    H2      17.739892   16.565919   24.130744 H          1 MOL1         0.1052
       4    H3      19.144247   15.943069   23.243138 H          1 MOL1         0.1052
       5    C2      18.595164   18.000454   22.717325 C.3        1 MOL1        -0.1209
       6    H4      18.139462   18.866732   23.217549 H          1 MOL1         0.1041
       7    H5      17.912820   17.709178   21.906232 H          1 MOL1         0.1041
       8    C3      19.964579   18.402124   22.126517 C.3        1 MOL1        -0.1274
       9    H6      20.642345   18.692009   22.939753 H          1 MOL1         0.1041
      10    H7      20.417209   17.537537   21.623289 H          1 MOL1         0.1041
      11    C4      19.826562   19.564875   21.122059 C.3        1 MOL1         0.0313
      12    H8      19.421564   20.445448   21.626984 H          1 MOL1         0.1015
      13    H9      19.124928   19.273272   20.336338 H          1 MOL1         0.1015
      14    N1      21.123740   19.970602   20.441267 N.4        1 MOL1        -0.4809
      15    H10     20.919354   20.631451   19.675244 H          1 MOL1         0.3726
      16    H11     21.554688   19.155705   19.978663 H          1 MOL1         0.3726
      17    C5      22.093263   20.609032   21.430180 C.3        1 MOL1        -0.0677
      18    H12     22.356607   19.881973   22.200842 H          1 MOL1         0.1026
      19    H13     22.994475   20.920117   20.897250 H          1 MOL1         0.1026
      20    H14     21.618294   21.479127   21.888488 H          1 MOL1         0.1026
@<TRIPOS>BOND
    1     1     2    1
    2     1     3    1
    3     1     4    1
    4     1     5    1
    5     5     6    1
    6     5     7    1
    7     5     8    1
    8     8     9    1
    9     8    10    1
   10     8    11    1
   11    11    12    1
   12    11    13    1
   13    11    14    1
   14    14    15    1
   15    14    16    1
   16    14    17    1
   17    17    18    1
   18    17    19    1
   19    17    20    1
@<TRIPOS>SUBSTRUCTURE
       1 MOL1            1 RESIDUE      1      MOL     
@<SCITEGIC>MOL_PROPERTY
VConf Rank
SciTegic.value.IntegerValue
781

@<SCITEGIC>MOL_PROPERTY
Conf_Id
SciTegic.value.IntegerValue
37

@<SCITEGIC>MOL_PROPERTY
Delta U+W
SciTegic.value.DoubleValue
-0.021

@<SCITEGIC>MOL_PROPERTY
U+W
SciTegic.value.DoubleValue
15.318

@<SCITEGIC>MOL_PROPERTY
Grad RMS
SciTegic.value.DoubleValue
0.000000

@<SCITEGIC>MOL_PROPERTY
U
SciTegic.value.DoubleValue
69.657

@<SCITEGIC>MOL_PROPERTY
W
SciTegic.value.DoubleValue
-54.340

@<SCITEGIC>MOL_PROPERTY
W(PB)
SciTegic.value.DoubleValue
-56.238

@<SCITEGIC>MOL_PROPERTY
W(SA)
SciTegic.value.DoubleValue
1.899

@<SCITEGIC>MOL_PROPERTY
Valence
SciTegic.value.DoubleValue
1.137

@<SCITEGIC>MOL_PROPERTY
Coulomb
SciTegic.value.DoubleValue
68.383

@<SCITEGIC>MOL_PROPERTY
VdW
SciTegic.value.DoubleValue
0.138

@<SCITEGIC>MOL_PROPERTY
VdW6
SciTegic.value.DoubleValue
-3.703

@<SCITEGIC>MOL_PROPERTY
VdW12
SciTegic.value.DoubleValue
3.841

@<SCITEGIC>MOL_PROPERTY
Bond
SciTegic.value.DoubleValue
0.125

@<SCITEGIC>MOL_PROPERTY
Angle
SciTegic.value.DoubleValue
0.468

@<SCITEGIC>MOL_PROPERTY
Pdih
SciTegic.value.DoubleValue
0.543

@<SCITEGIC>MOL_PROPERTY
Idih
SciTegic.value.DoubleValue
0.000

@<SCITEGIC>MOL_PROPERTY
Tether
SciTegic.value.DoubleValue
0.000

@<TRIPOS>MOLECULE
guest-s9_confgen4.mol2 : confsearch ligand conformer 782
          20          19           1
SMALL
USER_CHARGES
 
@<TRIPOS>ATOM
       1    C1      19.604066   21.129108   20.142673 C.3        1 MOL1        -0.2224
       2    H1      19.706734   22.221240   20.101107 H          1 MOL1         0.1052
       3    H2      20.322555   20.696826   19.434102 H          1 MOL1         0.1052
       4    H3      18.592310   20.873463   19.801842 H          1 MOL1         0.1052
       5    C2      19.855720   20.611584   21.575540 C.3        1 MOL1        -0.1209
       6    H4      19.145203   21.088032   22.265810 H          1 MOL1         0.1041
       7    H5      20.861803   20.912046   21.900881 H          1 MOL1         0.1041
       8    C3      19.717488   19.075781   21.664351 C.3        1 MOL1        -0.1274
       9    H6      18.710930   18.776759   21.343340 H          1 MOL1         0.1041
      10    H7      20.428557   18.604533   20.973655 H          1 MOL1         0.1041
      11    C4      19.969079   18.568673   23.099451 C.3        1 MOL1         0.0313
      12    H8      19.275469   19.069986   23.779353 H          1 MOL1         0.1015
      13    H9      20.986630   18.820085   23.408909 H          1 MOL1         0.1015
      14    N1      19.779765   17.071740   23.284142 N.4        1 MOL1        -0.4809
      15    H10     18.838394   16.789250   22.971421 H          1 MOL1         0.3726
      16    H11     19.803546   16.842476   24.290203 H          1 MOL1         0.3726
      17    C5      20.856285   16.281342   22.548009 C.3        1 MOL1        -0.0677
      18    H12     21.839264   16.586352   22.913286 H          1 MOL1         0.1026
      19    H13     20.708670   15.215532   22.735709 H          1 MOL1         0.1026
      20    H14     20.781922   16.477857   21.476683 H          1 MOL1         0.1026
@<TRIPOS>BOND
    1     1     2    1
    2     1     3    1
    3     1     4    1
    4     1     5    1
    5     5     6    1
    6     5     7    1
    7     5     8    1
    8     8     9    1
    9     8    10    1
   10     8    11    1
   11    11    12    1
   12    11    13    1
   13    11    14    1
   14    14    15    1
   15    14    16    1
   16    14    17    1
   17    17    18    1
   18    17    19    1
   19    17    20    1
@<TRIPOS>SUBSTRUCTURE
       1 MOL1            1 RESIDUE      1      MOL     
@<SCITEGIC>MOL_PROPERTY
VConf Rank
SciTegic.value.IntegerValue
782

@<SCITEGIC>MOL_PROPERTY
Conf_Id
SciTegic.value.IntegerValue
2

@<SCITEGIC>MOL_PROPERTY
Delta U+W
SciTegic.value.DoubleValue
0.069

@<SCITEGIC>MOL_PROPERTY
U+W
SciTegic.value.DoubleValue
15.407

@<SCITEGIC>MOL_PROPERTY
Grad RMS
SciTegic.value.DoubleValue
0.000000

@<SCITEGIC>MOL_PROPERTY
U
SciTegic.value.DoubleValue
69.657

@<SCITEGIC>MOL_PROPERTY
W
SciTegic.value.DoubleValue
-54.250

@<SCITEGIC>MOL_PROPERTY
W(PB)
SciTegic.value.DoubleValue
-56.176

@<SCITEGIC>MOL_PROPERTY
W(SA)
SciTegic.value.DoubleValue
1.926

@<SCITEGIC>MOL_PROPERTY
Valence
SciTegic.value.DoubleValue
1.137

@<SCITEGIC>MOL_PROPERTY
Coulomb
SciTegic.value.DoubleValue
68.383

@<SCITEGIC>MOL_PROPERTY
VdW
SciTegic.value.DoubleValue
0.138

@<SCITEGIC>MOL_PROPERTY
VdW6
SciTegic.value.DoubleValue
-3.703

@<SCITEGIC>MOL_PROPERTY
VdW12
SciTegic.value.DoubleValue
3.841

@<SCITEGIC>MOL_PROPERTY
Bond
SciTegic.value.DoubleValue
0.125

@<SCITEGIC>MOL_PROPERTY
Angle
SciTegic.value.DoubleValue
0.468

@<SCITEGIC>MOL_PROPERTY
Pdih
SciTegic.value.DoubleValue
0.543

@<SCITEGIC>MOL_PROPERTY
Idih
SciTegic.value.DoubleValue
0.000

@<SCITEGIC>MOL_PROPERTY
Tether
SciTegic.value.DoubleValue
0.000

@<TRIPOS>MOLECULE
guest-s9_confgen4.mol2 : confsearch ligand conformer 783
          20          19           1
SMALL
USER_CHARGES
 
@<TRIPOS>ATOM
       1    C1      17.881984   19.749284   20.782158 C.3        1 MOL1        -0.2224
       2    H1      17.642151   19.450293   21.810335 H          1 MOL1         0.1052
       3    H2      18.216594   20.794693   20.798161 H          1 MOL1         0.1052
       4    H3      16.952652   19.704457   20.199643 H          1 MOL1         0.1052
       5    C2      18.957407   18.830040   20.158664 C.3        1 MOL1        -0.1209
       6    H4      19.097430   19.106287   19.104105 H          1 MOL1         0.1041
       7    H5      18.600428   17.790440   20.160487 H          1 MOL1         0.1041
       8    C3      20.320158   18.914425   20.885278 C.3        1 MOL1        -0.1274
       9    H6      21.051812   18.299089   20.345000 H          1 MOL1         0.1041
      10    H7      20.691692   19.947244   20.851904 H          1 MOL1         0.1041
      11    C4      20.242926   18.439093   22.349293 C.3        1 MOL1         0.0313
      12    H8      19.875437   17.410382   22.382156 H          1 MOL1         0.1015
      13    H9      19.546298   19.070894   22.905443 H          1 MOL1         0.1015
      14    N1      21.577977   18.479868   23.066542 N.4        1 MOL1        -0.4809
      15    H10     21.963315   19.436570   23.048509 H          1 MOL1         0.3726
      16    H11     22.268637   17.898014   22.568005 H          1 MOL1         0.3726
      17    C5      21.411502   17.998605   24.501730 C.3        1 MOL1        -0.0677
      18    H12     21.035591   16.973196   24.496169 H          1 MOL1         0.1026
      19    H13     22.379650   18.032964   25.006223 H          1 MOL1         0.1026
      20    H14     20.703342   18.649058   25.019630 H          1 MOL1         0.1026
@<TRIPOS>BOND
    1     1     2    1
    2     1     3    1
    3     1     4    1
    4     1     5    1
    5     5     6    1
    6     5     7    1
    7     5     8    1
    8     8     9    1
    9     8    10    1
   10     8    11    1
   11    11    12    1
   12    11    13    1
   13    11    14    1
   14    14    15    1
   15    14    16    1
   16    14    17    1
   17    17    18    1
   18    17    19    1
   19    17    20    1
@<TRIPOS>SUBSTRUCTURE
       1 MOL1            1 RESIDUE      1      MOL     
@<SCITEGIC>MOL_PROPERTY
VConf Rank
SciTegic.value.IntegerValue
783

@<SCITEGIC>MOL_PROPERTY
Conf_Id
SciTegic.value.IntegerValue
34

@<SCITEGIC>MOL_PROPERTY
Delta U+W
SciTegic.value.DoubleValue
0.276

@<SCITEGIC>MOL_PROPERTY
U+W
SciTegic.value.DoubleValue
15.615

@<SCITEGIC>MOL_PROPERTY
Grad RMS
SciTegic.value.DoubleValue
0.000000

@<SCITEGIC>MOL_PROPERTY
U
SciTegic.value.DoubleValue
69.798

@<SCITEGIC>MOL_PROPERTY
W
SciTegic.value.DoubleValue
-54.184

@<SCITEGIC>MOL_PROPERTY
W(PB)
SciTegic.value.DoubleValue
-56.116

@<SCITEGIC>MOL_PROPERTY
W(SA)
SciTegic.value.DoubleValue
1.933

@<SCITEGIC>MOL_PROPERTY
Valence
SciTegic.value.DoubleValue
1.134

@<SCITEGIC>MOL_PROPERTY
Coulomb
SciTegic.value.DoubleValue
68.735

@<SCITEGIC>MOL_PROPERTY
VdW
SciTegic.value.DoubleValue
-0.070

@<SCITEGIC>MOL_PROPERTY
VdW6
SciTegic.value.DoubleValue
-3.565

@<SCITEGIC>MOL_PROPERTY
VdW12
SciTegic.value.DoubleValue
3.494

@<SCITEGIC>MOL_PROPERTY
Bond
SciTegic.value.DoubleValue
0.108

@<SCITEGIC>MOL_PROPERTY
Angle
SciTegic.value.DoubleValue
0.456

@<SCITEGIC>MOL_PROPERTY
Pdih
SciTegic.value.DoubleValue
0.569

@<SCITEGIC>MOL_PROPERTY
Idih
SciTegic.value.DoubleValue
0.000

@<SCITEGIC>MOL_PROPERTY
Tether
SciTegic.value.DoubleValue
0.000

@<TRIPOS>MOLECULE
guest-s9_confgen4.mol2 : confsearch ligand conformer 784
          20          19           1
SMALL
USER_CHARGES
 
@<TRIPOS>ATOM
       1    C1      17.389354   20.131079   22.690317 C.3        1 MOL1        -0.2224
       2    H1      16.618116   19.357904   22.802395 H          1 MOL1         0.1052
       3    H2      17.245098   20.867819   23.491210 H          1 MOL1         0.1052
       4    H3      17.225567   20.640327   21.731660 H          1 MOL1         0.1052
       5    C2      18.805275   19.519273   22.760196 C.3        1 MOL1        -0.1209
       6    H4      18.949200   19.045517   23.741606 H          1 MOL1         0.1041
       7    H5      19.548093   20.324928   22.685115 H          1 MOL1         0.1041
       8    C3      19.034322   18.476908   21.640286 C.3        1 MOL1        -0.1274
       9    H6      18.261254   17.699662   21.704622 H          1 MOL1         0.1041
      10    H7      18.919817   18.949963   20.655926 H          1 MOL1         0.1041
      11    C4      20.415869   17.797875   21.728493 C.3        1 MOL1         0.0313
      12    H8      20.481812   17.013402   20.970290 H          1 MOL1         0.1015
      13    H9      20.534462   17.332533   22.710240 H          1 MOL1         0.1015
      14    N1      21.584132   18.741522   21.512673 N.4        1 MOL1        -0.4809
      15    H10     21.562234   19.499772   22.210549 H          1 MOL1         0.3726
      16    H11     21.499531   19.208278   20.596689 H          1 MOL1         0.3726
      17    C5      22.895915   17.973303   21.601576 C.3        1 MOL1        -0.0677
      18    H12     22.978801   17.515765   22.589796 H          1 MOL1         0.1026
      19    H13     22.911451   17.197696   20.832825 H          1 MOL1         0.1026
      20    H14     23.727544   18.663770   21.444609 H          1 MOL1         0.1026
@<TRIPOS>BOND
    1     1     2    1
    2     1     3    1
    3     1     4    1
    4     1     5    1
    5     5     6    1
    6     5     7    1
    7     5     8    1
    8     8     9    1
    9     8    10    1
   10     8    11    1
   11    11    12    1
   12    11    13    1
   13    11    14    1
   14    14    15    1
   15    14    16    1
   16    14    17    1
   17    17    18    1
   18    17    19    1
   19    17    20    1
@<TRIPOS>SUBSTRUCTURE
       1 MOL1            1 RESIDUE      1      MOL     
@<SCITEGIC>MOL_PROPERTY
VConf Rank
SciTegic.value.IntegerValue
784

@<SCITEGIC>MOL_PROPERTY
Conf_Id
SciTegic.value.IntegerValue
50

@<SCITEGIC>MOL_PROPERTY
Delta U+W
SciTegic.value.DoubleValue
0.319

@<SCITEGIC>MOL_PROPERTY
U+W
SciTegic.value.DoubleValue
15.657

@<SCITEGIC>MOL_PROPERTY
Grad RMS
SciTegic.value.DoubleValue
0.000000

@<SCITEGIC>MOL_PROPERTY
U
SciTegic.value.DoubleValue
69.962

@<SCITEGIC>MOL_PROPERTY
W
SciTegic.value.DoubleValue
-54.305

@<SCITEGIC>MOL_PROPERTY
W(PB)
SciTegic.value.DoubleValue
-56.223

@<SCITEGIC>MOL_PROPERTY
W(SA)
SciTegic.value.DoubleValue
1.918

@<SCITEGIC>MOL_PROPERTY
Valence
SciTegic.value.DoubleValue
0.982

@<SCITEGIC>MOL_PROPERTY
Coulomb
SciTegic.value.DoubleValue
69.058

@<SCITEGIC>MOL_PROPERTY
VdW
SciTegic.value.DoubleValue
-0.078

@<SCITEGIC>MOL_PROPERTY
VdW6
SciTegic.value.DoubleValue
-3.548

@<SCITEGIC>MOL_PROPERTY
VdW12
SciTegic.value.DoubleValue
3.471

@<SCITEGIC>MOL_PROPERTY
Bond
SciTegic.value.DoubleValue
0.105

@<SCITEGIC>MOL_PROPERTY
Angle
SciTegic.value.DoubleValue
0.408

@<SCITEGIC>MOL_PROPERTY
Pdih
SciTegic.value.DoubleValue
0.469

@<SCITEGIC>MOL_PROPERTY
Idih
SciTegic.value.DoubleValue
0.000

@<SCITEGIC>MOL_PROPERTY
Tether
SciTegic.value.DoubleValue
0.000

@<TRIPOS>MOLECULE
guest-s9_confgen4.mol2 : confsearch ligand conformer 785
          20          19           1
SMALL
USER_CHARGES
 
@<TRIPOS>ATOM
       1    C1      22.470179   17.905061   20.398115 C.3        1 MOL1        -0.2224
       2    H1      23.166813   18.565350   19.865435 H          1 MOL1         0.1052
       3    H2      23.064107   17.215231   21.011754 H          1 MOL1         0.1052
       4    H3      21.927302   17.314432   19.648700 H          1 MOL1         0.1052
       5    C2      21.496643   18.727891   21.269437 C.3        1 MOL1        -0.1209
       6    H4      20.950212   19.432931   20.628479 H          1 MOL1         0.1041
       7    H5      22.070998   19.331010   21.986855 H          1 MOL1         0.1041
       8    C3      20.502738   17.819481   22.031100 C.3        1 MOL1        -0.1274
       9    H6      19.905477   17.234272   21.319295 H          1 MOL1         0.1041
      10    H7      21.064015   17.095431   22.636578 H          1 MOL1         0.1041
      11    C4      19.563885   18.610304   22.964212 C.3        1 MOL1         0.0313
      12    H8      20.156724   19.198853   23.668902 H          1 MOL1         0.1015
      13    H9      18.950797   17.910241   23.537497 H          1 MOL1         0.1015
      14    N1      18.623017   19.554702   22.239804 N.4        1 MOL1        -0.4809
      15    H10     18.052679   19.033382   21.556438 H          1 MOL1         0.3726
      16    H11     19.161341   20.236613   21.685135 H          1 MOL1         0.3726
      17    C5      17.730594   20.271040   23.244435 C.3        1 MOL1        -0.0677
      18    H12     17.059278   20.946963   22.710157 H          1 MOL1         0.1026
      19    H13     17.145874   19.532435   23.797020 H          1 MOL1         0.1026
      20    H14     18.353607   20.841867   23.936391 H          1 MOL1         0.1026
@<TRIPOS>BOND
    1     1     2    1
    2     1     3    1
    3     1     4    1
    4     1     5    1
    5     5     6    1
    6     5     7    1
    7     5     8    1
    8     8     9    1
    9     8    10    1
   10     8    11    1
   11    11    12    1
   12    11    13    1
   13    11    14    1
   14    14    15    1
   15    14    16    1
   16    14    17    1
   17    17    18    1
   18    17    19    1
   19    17    20    1
@<TRIPOS>SUBSTRUCTURE
       1 MOL1            1 RESIDUE      1      MOL     
@<SCITEGIC>MOL_PROPERTY
VConf Rank
SciTegic.value.IntegerValue
785

@<SCITEGIC>MOL_PROPERTY
Conf_Id
SciTegic.value.IntegerValue
35

@<SCITEGIC>MOL_PROPERTY
Delta U+W
SciTegic.value.DoubleValue
0.360

@<SCITEGIC>MOL_PROPERTY
U+W
SciTegic.value.DoubleValue
15.698

@<SCITEGIC>MOL_PROPERTY
Grad RMS
SciTegic.value.DoubleValue
0.000000

@<SCITEGIC>MOL_PROPERTY
U
SciTegic.value.DoubleValue
69.962

@<SCITEGIC>MOL_PROPERTY
W
SciTegic.value.DoubleValue
-54.264

@<SCITEGIC>MOL_PROPERTY
W(PB)
SciTegic.value.DoubleValue
-56.166

@<SCITEGIC>MOL_PROPERTY
W(SA)
SciTegic.value.DoubleValue
1.902

@<SCITEGIC>MOL_PROPERTY
Valence
SciTegic.value.DoubleValue
0.982

@<SCITEGIC>MOL_PROPERTY
Coulomb
SciTegic.value.DoubleValue
69.058

@<SCITEGIC>MOL_PROPERTY
VdW
SciTegic.value.DoubleValue
-0.078

@<SCITEGIC>MOL_PROPERTY
VdW6
SciTegic.value.DoubleValue
-3.548

@<SCITEGIC>MOL_PROPERTY
VdW12
SciTegic.value.DoubleValue
3.471

@<SCITEGIC>MOL_PROPERTY
Bond
SciTegic.value.DoubleValue
0.105

@<SCITEGIC>MOL_PROPERTY
Angle
SciTegic.value.DoubleValue
0.408

@<SCITEGIC>MOL_PROPERTY
Pdih
SciTegic.value.DoubleValue
0.469

@<SCITEGIC>MOL_PROPERTY
Idih
SciTegic.value.DoubleValue
0.000

@<SCITEGIC>MOL_PROPERTY
Tether
SciTegic.value.DoubleValue
0.000

@<TRIPOS>MOLECULE
guest-s9_confgen4.mol2 : confsearch ligand conformer 786
          20          19           1
SMALL
USER_CHARGES
 
@<TRIPOS>ATOM
       1    C1      17.529973   19.206611   22.261134 C.3        1 MOL1        -0.2224
       2    H1      17.991091   19.783677   23.072573 H          1 MOL1         0.1052
       3    H2      16.527094   19.619032   22.090496 H          1 MOL1         0.1052
       4    H3      17.411855   18.169827   22.602047 H          1 MOL1         0.1052
       5    C2      18.371627   19.274115   20.966039 C.3        1 MOL1        -0.1209
       6    H4      18.478898   20.321255   20.649562 H          1 MOL1         0.1041
       7    H5      17.829456   18.761775   20.158856 H          1 MOL1         0.1041
       8    C3      19.769308   18.630237   21.120261 C.3        1 MOL1        -0.1274
       9    H6      19.655032   17.575000   21.399770 H          1 MOL1         0.1041
      10    H7      20.278881   18.644693   20.147820 H          1 MOL1         0.1041
      11    C4      20.646070   19.359486   22.160910 C.3        1 MOL1         0.0313
      12    H8      20.182884   19.294826   23.148348 H          1 MOL1         0.1015
      13    H9      20.715641   20.415549   21.888039 H          1 MOL1         0.1015
      14    N1      22.065159   18.827268   22.276353 N.4        1 MOL1        -0.4809
      15    H10     22.626345   19.464450   22.863105 H          1 MOL1         0.3726
      16    H11     22.528065   18.840690   21.354802 H          1 MOL1         0.3726
      17    C5      22.083414   17.423910   22.872693 C.3        1 MOL1        -0.0677
      18    H12     21.543423   16.742297   22.212616 H          1 MOL1         0.1026
      19    H13     23.118984   17.091789   22.973950 H          1 MOL1         0.1026
      20    H14     21.606061   17.444390   23.854738 H          1 MOL1         0.1026
@<TRIPOS>BOND
    1     1     2    1
    2     1     3    1
    3     1     4    1
    4     1     5    1
    5     5     6    1
    6     5     7    1
    7     5     8    1
    8     8     9    1
    9     8    10    1
   10     8    11    1
   11    11    12    1
   12    11    13    1
   13    11    14    1
   14    14    15    1
   15    14    16    1
   16    14    17    1
   17    17    18    1
   18    17    19    1
   19    17    20    1
@<TRIPOS>SUBSTRUCTURE
       1 MOL1            1 RESIDUE      1      MOL     
@<SCITEGIC>MOL_PROPERTY
VConf Rank
SciTegic.value.IntegerValue
786

@<SCITEGIC>MOL_PROPERTY
Conf_Id
SciTegic.value.IntegerValue
33

@<SCITEGIC>MOL_PROPERTY
Delta U+W
SciTegic.value.DoubleValue
0.372

@<SCITEGIC>MOL_PROPERTY
U+W
SciTegic.value.DoubleValue
15.711

@<SCITEGIC>MOL_PROPERTY
Grad RMS
SciTegic.value.DoubleValue
0.000000

@<SCITEGIC>MOL_PROPERTY
U
SciTegic.value.DoubleValue
70.163

@<SCITEGIC>MOL_PROPERTY
W
SciTegic.value.DoubleValue
-54.452

@<SCITEGIC>MOL_PROPERTY
W(PB)
SciTegic.value.DoubleValue
-56.363

@<SCITEGIC>MOL_PROPERTY
W(SA)
SciTegic.value.DoubleValue
1.911

@<SCITEGIC>MOL_PROPERTY
Valence
SciTegic.value.DoubleValue
1.420

@<SCITEGIC>MOL_PROPERTY
Coulomb
SciTegic.value.DoubleValue
68.566

@<SCITEGIC>MOL_PROPERTY
VdW
SciTegic.value.DoubleValue
0.177

@<SCITEGIC>MOL_PROPERTY
VdW6
SciTegic.value.DoubleValue
-4.267

@<SCITEGIC>MOL_PROPERTY
VdW12
SciTegic.value.DoubleValue
4.445

@<SCITEGIC>MOL_PROPERTY
Bond
SciTegic.value.DoubleValue
0.146

@<SCITEGIC>MOL_PROPERTY
Angle
SciTegic.value.DoubleValue
0.581

@<SCITEGIC>MOL_PROPERTY
Pdih
SciTegic.value.DoubleValue
0.693

@<SCITEGIC>MOL_PROPERTY
Idih
SciTegic.value.DoubleValue
0.000

@<SCITEGIC>MOL_PROPERTY
Tether
SciTegic.value.DoubleValue
0.000

@<TRIPOS>MOLECULE
guest-s9_confgen4.mol2 : confsearch ligand conformer 787
          20          19           1
SMALL
USER_CHARGES
 
@<TRIPOS>ATOM
       1    C1      21.244011   16.564433   21.478655 C.3        1 MOL1        -0.2224
       2    H1      21.409938   15.483002   21.389506 H          1 MOL1         0.1052
       3    H2      20.903584   16.928375   20.501043 H          1 MOL1         0.1052
       4    H3      22.210898   17.034059   21.701538 H          1 MOL1         0.1052
       5    C2      20.210453   16.864778   22.588504 C.3        1 MOL1        -0.1209
       6    H4      20.548584   16.404496   23.527542 H          1 MOL1         0.1041
       7    H5      19.251803   16.388435   22.338996 H          1 MOL1         0.1041
       8    C3      19.995805   18.378833   22.819682 C.3        1 MOL1        -0.1274
       9    H6      19.312329   18.517668   23.667681 H          1 MOL1         0.1041
      10    H7      20.949047   18.842153   23.104942 H          1 MOL1         0.1041
      11    C4      19.413529   19.090846   21.579741 C.3        1 MOL1         0.0313
      12    H8      18.486329   18.591571   21.287179 H          1 MOL1         0.1015
      13    H9      20.115053   19.017989   20.745288 H          1 MOL1         0.1015
      14    N1      19.089532   20.561121   21.788834 N.4        1 MOL1        -0.4809
      15    H10     18.452985   20.676192   22.592130 H          1 MOL1         0.3726
      16    H11     18.558703   20.916495   20.978194 H          1 MOL1         0.3726
      17    C5      20.357914   21.386065   21.978683 C.3        1 MOL1        -0.0677
      18    H12     20.087003   22.438470   22.088287 H          1 MOL1         0.1026
      19    H13     20.880032   21.047301   22.875633 H          1 MOL1         0.1026
      20    H14     21.002047   21.261108   21.105655 H          1 MOL1         0.1026
@<TRIPOS>BOND
    1     1     2    1
    2     1     3    1
    3     1     4    1
    4     1     5    1
    5     5     6    1
    6     5     7    1
    7     5     8    1
    8     8     9    1
    9     8    10    1
   10     8    11    1
   11    11    12    1
   12    11    13    1
   13    11    14    1
   14    14    15    1
   15    14    16    1
   16    14    17    1
   17    17    18    1
   18    17    19    1
   19    17    20    1
@<TRIPOS>SUBSTRUCTURE
       1 MOL1            1 RESIDUE      1      MOL     
@<SCITEGIC>MOL_PROPERTY
VConf Rank
SciTegic.value.IntegerValue
787

@<SCITEGIC>MOL_PROPERTY
Conf_Id
SciTegic.value.IntegerValue
53

@<SCITEGIC>MOL_PROPERTY
Delta U+W
SciTegic.value.DoubleValue
0.379

@<SCITEGIC>MOL_PROPERTY
U+W
SciTegic.value.DoubleValue
15.717

@<SCITEGIC>MOL_PROPERTY
Grad RMS
SciTegic.value.DoubleValue
0.000000

@<SCITEGIC>MOL_PROPERTY
U
SciTegic.value.DoubleValue
70.163

@<SCITEGIC>MOL_PROPERTY
W
SciTegic.value.DoubleValue
-54.446

@<SCITEGIC>MOL_PROPERTY
W(PB)
SciTegic.value.DoubleValue
-56.322

@<SCITEGIC>MOL_PROPERTY
W(SA)
SciTegic.value.DoubleValue
1.876

@<SCITEGIC>MOL_PROPERTY
Valence
SciTegic.value.DoubleValue
1.420

@<SCITEGIC>MOL_PROPERTY
Coulomb
SciTegic.value.DoubleValue
68.566

@<SCITEGIC>MOL_PROPERTY
VdW
SciTegic.value.DoubleValue
0.177

@<SCITEGIC>MOL_PROPERTY
VdW6
SciTegic.value.DoubleValue
-4.267

@<SCITEGIC>MOL_PROPERTY
VdW12
SciTegic.value.DoubleValue
4.445

@<SCITEGIC>MOL_PROPERTY
Bond
SciTegic.value.DoubleValue
0.146

@<SCITEGIC>MOL_PROPERTY
Angle
SciTegic.value.DoubleValue
0.581

@<SCITEGIC>MOL_PROPERTY
Pdih
SciTegic.value.DoubleValue
0.693

@<SCITEGIC>MOL_PROPERTY
Idih
SciTegic.value.DoubleValue
0.000

@<SCITEGIC>MOL_PROPERTY
Tether
SciTegic.value.DoubleValue
0.000

@<TRIPOS>MOLECULE
guest-s9_confgen4.mol2 : confsearch ligand conformer 788
          20          19           1
SMALL
USER_CHARGES
 
@<TRIPOS>ATOM
       1    C1      20.700243   19.007485   19.253965 C.3        1 MOL1        -0.2224
       2    H1      21.336062   19.741978   18.742833 H          1 MOL1         0.1052
       3    H2      20.914483   18.020559   18.823588 H          1 MOL1         0.1052
       4    H3      19.654221   19.256741   19.032896 H          1 MOL1         0.1052
       5    C2      20.965364   19.020956   20.774982 C.3        1 MOL1        -0.1209
       6    H4      20.778072   20.031582   21.162554 H          1 MOL1         0.1041
       7    H5      22.025641   18.799721   20.962199 H          1 MOL1         0.1041
       8    C3      20.079266   17.994868   21.519760 C.3        1 MOL1        -0.1274
       9    H6      19.018760   18.227325   21.358416 H          1 MOL1         0.1041
      10    H7      20.243685   16.996492   21.093311 H          1 MOL1         0.1041
      11    C4      20.377969   17.930608   23.034127 C.3        1 MOL1         0.0313
      12    H8      21.422334   17.641948   23.177675 H          1 MOL1         0.1015
      13    H9      19.752208   17.163139   23.496628 H          1 MOL1         0.1015
      14    N1      20.155573   19.227239   23.798273 N.4        1 MOL1        -0.4809
      15    H10     20.726931   19.982365   23.391622 H          1 MOL1         0.3726
      16    H11     20.503285   19.122202   24.764341 H          1 MOL1         0.3726
      17    C5      18.680728   19.613763   23.817387 C.3        1 MOL1        -0.0677
      18    H12     18.103112   18.805146   24.270329 H          1 MOL1         0.1026
      19    H13     18.557677   20.527012   24.403703 H          1 MOL1         0.1026
      20    H14     18.338433   19.785977   22.795041 H          1 MOL1         0.1026
@<TRIPOS>BOND
    1     1     2    1
    2     1     3    1
    3     1     4    1
    4     1     5    1
    5     5     6    1
    6     5     7    1
    7     5     8    1
    8     8     9    1
    9     8    10    1
   10     8    11    1
   11    11    12    1
   12    11    13    1
   13    11    14    1
   14    14    15    1
   15    14    16    1
   16    14    17    1
   17    17    18    1
   18    17    19    1
   19    17    20    1
@<TRIPOS>SUBSTRUCTURE
       1 MOL1            1 RESIDUE      1      MOL     
@<SCITEGIC>MOL_PROPERTY
VConf Rank
SciTegic.value.IntegerValue
788

@<SCITEGIC>MOL_PROPERTY
Conf_Id
SciTegic.value.IntegerValue
49

@<SCITEGIC>MOL_PROPERTY
Delta U+W
SciTegic.value.DoubleValue
0.268

@<SCITEGIC>MOL_PROPERTY
U+W
SciTegic.value.DoubleValue
15.607

@<SCITEGIC>MOL_PROPERTY
Grad RMS
SciTegic.value.DoubleValue
0.000000

@<SCITEGIC>MOL_PROPERTY
U
SciTegic.value.DoubleValue
70.298

@<SCITEGIC>MOL_PROPERTY
W
SciTegic.value.DoubleValue
-54.692

@<SCITEGIC>MOL_PROPERTY
W(PB)
SciTegic.value.DoubleValue
-56.576

@<SCITEGIC>MOL_PROPERTY
W(SA)
SciTegic.value.DoubleValue
1.885

@<SCITEGIC>MOL_PROPERTY
Valence
SciTegic.value.DoubleValue
1.245

@<SCITEGIC>MOL_PROPERTY
Coulomb
SciTegic.value.DoubleValue
68.933

@<SCITEGIC>MOL_PROPERTY
VdW
SciTegic.value.DoubleValue
0.120

@<SCITEGIC>MOL_PROPERTY
VdW6
SciTegic.value.DoubleValue
-4.430

@<SCITEGIC>MOL_PROPERTY
VdW12
SciTegic.value.DoubleValue
4.550

@<SCITEGIC>MOL_PROPERTY
Bond
SciTegic.value.DoubleValue
0.148

@<SCITEGIC>MOL_PROPERTY
Angle
SciTegic.value.DoubleValue
0.587

@<SCITEGIC>MOL_PROPERTY
Pdih
SciTegic.value.DoubleValue
0.509

@<SCITEGIC>MOL_PROPERTY
Idih
SciTegic.value.DoubleValue
0.000

@<SCITEGIC>MOL_PROPERTY
Tether
SciTegic.value.DoubleValue
0.000

@<TRIPOS>MOLECULE
guest-s9_confgen4.mol2 : confsearch ligand conformer 789
          20          19           1
SMALL
USER_CHARGES
 
@<TRIPOS>ATOM
       1    C1      22.772451   18.925720   21.454697 C.3        1 MOL1        -0.2224
       2    H1      22.798185   18.799814   20.364442 H          1 MOL1         0.1052
       3    H2      23.146235   19.930395   21.691453 H          1 MOL1         0.1052
       4    H3      23.466536   18.197349   21.893698 H          1 MOL1         0.1052
       5    C2      21.344529   18.718631   22.004681 C.3        1 MOL1        -0.1209
       6    H4      21.355772   18.822936   23.098749 H          1 MOL1         0.1041
       7    H5      21.024815   17.692092   21.782085 H          1 MOL1         0.1041
       8    C3      20.343512   19.726387   21.393113 C.3        1 MOL1        -0.1274
       9    H6      20.735681   20.743910   21.521979 H          1 MOL1         0.1041
      10    H7      20.265392   19.561664   20.310376 H          1 MOL1         0.1041
      11    C4      18.932892   19.677366   22.022858 C.3        1 MOL1         0.0313
      12    H8      18.332270   20.467698   21.565286 H          1 MOL1         0.1015
      13    H9      18.987906   19.882342   23.094891 H          1 MOL1         0.1015
      14    N1      18.168881   18.377288   21.824501 N.4        1 MOL1        -0.4809
      15    H10     18.414290   17.950309   20.918796 H          1 MOL1         0.3726
      16    H11     17.159999   18.582826   21.754358 H          1 MOL1         0.3726
      17    C5      18.404371   17.410220   22.980343 C.3        1 MOL1        -0.0677
      18    H12     17.821587   16.502240   22.810365 H          1 MOL1         0.1026
      19    H13     19.463695   17.158448   23.041608 H          1 MOL1         0.1026
      20    H14     18.084237   17.881591   23.912015 H          1 MOL1         0.1026
@<TRIPOS>BOND
    1     1     2    1
    2     1     3    1
    3     1     4    1
    4     1     5    1
    5     5     6    1
    6     5     7    1
    7     5     8    1
    8     8     9    1
    9     8    10    1
   10     8    11    1
   11    11    12    1
   12    11    13    1
   13    11    14    1
   14    14    15    1
   15    14    16    1
   16    14    17    1
   17    17    18    1
   18    17    19    1
   19    17    20    1
@<TRIPOS>SUBSTRUCTURE
       1 MOL1            1 RESIDUE      1      MOL     
@<SCITEGIC>MOL_PROPERTY
VConf Rank
SciTegic.value.IntegerValue
789

@<SCITEGIC>MOL_PROPERTY
Conf_Id
SciTegic.value.IntegerValue
65

@<SCITEGIC>MOL_PROPERTY
Delta U+W
SciTegic.value.DoubleValue
1.775

@<SCITEGIC>MOL_PROPERTY
U+W
SciTegic.value.DoubleValue
17.114

@<SCITEGIC>MOL_PROPERTY
Grad RMS
SciTegic.value.DoubleValue
0.000000

@<SCITEGIC>MOL_PROPERTY
U
SciTegic.value.DoubleValue
71.726

@<SCITEGIC>MOL_PROPERTY
W
SciTegic.value.DoubleValue
-54.613

@<SCITEGIC>MOL_PROPERTY
W(PB)
SciTegic.value.DoubleValue
-56.495

@<SCITEGIC>MOL_PROPERTY
W(SA)
SciTegic.value.DoubleValue
1.883

@<SCITEGIC>MOL_PROPERTY
Valence
SciTegic.value.DoubleValue
2.885

@<SCITEGIC>MOL_PROPERTY
Coulomb
SciTegic.value.DoubleValue
68.822

@<SCITEGIC>MOL_PROPERTY
VdW
SciTegic.value.DoubleValue
0.019

@<SCITEGIC>MOL_PROPERTY
VdW6
SciTegic.value.DoubleValue
-4.600

@<SCITEGIC>MOL_PROPERTY
VdW12
SciTegic.value.DoubleValue
4.619

@<SCITEGIC>MOL_PROPERTY
Bond
SciTegic.value.DoubleValue
0.152

@<SCITEGIC>MOL_PROPERTY
Angle
SciTegic.value.DoubleValue
0.862

@<SCITEGIC>MOL_PROPERTY
Pdih
SciTegic.value.DoubleValue
1.871

@<SCITEGIC>MOL_PROPERTY
Idih
SciTegic.value.DoubleValue
0.000

@<SCITEGIC>MOL_PROPERTY
Tether
SciTegic.value.DoubleValue
0.000

@<TRIPOS>MOLECULE
guest-s9_confgen4.mol2 : confsearch ligand conformer 790
          20          19           1
SMALL
USER_CHARGES
 
@<TRIPOS>ATOM
       1    C1      19.206765   16.686027   21.241255 C.3        1 MOL1        -0.2224
       2    H1      20.042613   16.633600   21.950206 H          1 MOL1         0.1052
       3    H2      18.489863   15.901727   21.516766 H          1 MOL1         0.1052
       4    H3      19.591283   16.450785   20.240317 H          1 MOL1         0.1052
       5    C2      18.526739   18.074280   21.263347 C.3        1 MOL1        -0.1209
       6    H4      18.150381   18.285648   22.273440 H          1 MOL1         0.1041
       7    H5      17.642915   18.049296   20.610479 H          1 MOL1         0.1041
       8    C3      19.461894   19.216128   20.792534 C.3        1 MOL1        -0.1274
       9    H6      19.745776   19.041746   19.746222 H          1 MOL1         0.1041
      10    H7      18.912147   20.166579   20.805392 H          1 MOL1         0.1041
      11    C4      20.747210   19.362057   21.633744 C.3        1 MOL1         0.0313
      12    H8      21.362639   20.164247   21.218680 H          1 MOL1         0.1015
      13    H9      21.323815   18.435102   21.588496 H          1 MOL1         0.1015
      14    N1      20.494566   19.684998   23.094047 N.4        1 MOL1        -0.4809
      15    H10     19.908682   18.952108   23.520780 H          1 MOL1         0.3726
      16    H11     19.949315   20.556687   23.176251 H          1 MOL1         0.3726
      17    C5      21.818448   19.809778   23.835859 C.3        1 MOL1        -0.0677
      18    H12     22.408184   20.611822   23.386749 H          1 MOL1         0.1026
      19    H13     21.621546   20.040899   24.885041 H          1 MOL1         0.1026
      20    H14     22.362442   18.865602   23.762633 H          1 MOL1         0.1026
@<TRIPOS>BOND
    1     1     2    1
    2     1     3    1
    3     1     4    1
    4     1     5    1
    5     5     6    1
    6     5     7    1
    7     5     8    1
    8     8     9    1
    9     8    10    1
   10     8    11    1
   11    11    12    1
   12    11    13    1
   13    11    14    1
   14    14    15    1
   15    14    16    1
   16    14    17    1
   17    17    18    1
   18    17    19    1
   19    17    20    1
@<TRIPOS>SUBSTRUCTURE
       1 MOL1            1 RESIDUE      1      MOL     
@<SCITEGIC>MOL_PROPERTY
VConf Rank
SciTegic.value.IntegerValue
790

@<SCITEGIC>MOL_PROPERTY
Conf_Id
SciTegic.value.IntegerValue
23

@<SCITEGIC>MOL_PROPERTY
Delta U+W
SciTegic.value.DoubleValue
0.896

@<SCITEGIC>MOL_PROPERTY
U+W
SciTegic.value.DoubleValue
16.234

@<SCITEGIC>MOL_PROPERTY
Grad RMS
SciTegic.value.DoubleValue
0.000000

@<SCITEGIC>MOL_PROPERTY
U
SciTegic.value.DoubleValue
70.374

@<SCITEGIC>MOL_PROPERTY
W
SciTegic.value.DoubleValue
-54.140

@<SCITEGIC>MOL_PROPERTY
W(PB)
SciTegic.value.DoubleValue
-56.046

@<SCITEGIC>MOL_PROPERTY
W(SA)
SciTegic.value.DoubleValue
1.907

@<SCITEGIC>MOL_PROPERTY
Valence
SciTegic.value.DoubleValue
1.257

@<SCITEGIC>MOL_PROPERTY
Coulomb
SciTegic.value.DoubleValue
69.240

@<SCITEGIC>MOL_PROPERTY
VdW
SciTegic.value.DoubleValue
-0.123

@<SCITEGIC>MOL_PROPERTY
VdW6
SciTegic.value.DoubleValue
-4.336

@<SCITEGIC>MOL_PROPERTY
VdW12
SciTegic.value.DoubleValue
4.213

@<SCITEGIC>MOL_PROPERTY
Bond
SciTegic.value.DoubleValue
0.128

@<SCITEGIC>MOL_PROPERTY
Angle
SciTegic.value.DoubleValue
0.603

@<SCITEGIC>MOL_PROPERTY
Pdih
SciTegic.value.DoubleValue
0.526

@<SCITEGIC>MOL_PROPERTY
Idih
SciTegic.value.DoubleValue
0.000

@<SCITEGIC>MOL_PROPERTY
Tether
SciTegic.value.DoubleValue
0.000

@<TRIPOS>MOLECULE
guest-s9_confgen4.mol2 : confsearch ligand conformer 791
          20          19           1
SMALL
USER_CHARGES
 
@<TRIPOS>ATOM
       1    C1      19.289829   16.620443   21.471549 C.3        1 MOL1        -0.2224
       2    H1      18.215931   16.658060   21.247053 H          1 MOL1         0.1052
       3    H2      19.630632   15.590643   21.303189 H          1 MOL1         0.1052
       4    H3      19.424818   16.843139   22.537470 H          1 MOL1         0.1052
       5    C2      20.079114   17.605563   20.578947 C.3        1 MOL1        -0.1209
       6    H4      19.989649   17.287647   19.530648 H          1 MOL1         0.1041
       7    H5      21.148905   17.548705   20.821692 H          1 MOL1         0.1041
       8    C3      19.581302   19.067551   20.700478 C.3        1 MOL1        -0.1274
       9    H6      20.162248   19.708153   20.023814 H          1 MOL1         0.1041
      10    H7      18.540294   19.124078   20.355697 H          1 MOL1         0.1041
      11    C4      19.657896   19.639919   22.131386 C.3        1 MOL1         0.0313
      12    H8      19.044540   19.034664   22.803120 H          1 MOL1         0.1015
      13    H9      19.261078   20.658278   22.135889 H          1 MOL1         0.1015
      14    N1      21.063092   19.691471   22.700044 N.4        1 MOL1        -0.4809
      15    H10     21.673371   20.255701   22.089222 H          1 MOL1         0.3726
      16    H11     21.475902   18.746989   22.705516 H          1 MOL1         0.3726
      17    C5      21.033511   20.269604   24.108380 C.3        1 MOL1        -0.0677
      18    H12     20.408753   19.638051   24.743659 H          1 MOL1         0.1026
      19    H13     22.050575   20.299644   24.505430 H          1 MOL1         0.1026
      20    H14     20.622032   21.280661   24.073575 H          1 MOL1         0.1026
@<TRIPOS>BOND
    1     1     2    1
    2     1     3    1
    3     1     4    1
    4     1     5    1
    5     5     6    1
    6     5     7    1
    7     5     8    1
    8     8     9    1
    9     8    10    1
   10     8    11    1
   11    11    12    1
   12    11    13    1
   13    11    14    1
   14    14    15    1
   15    14    16    1
   16    14    17    1
   17    17    18    1
   18    17    19    1
   19    17    20    1
@<TRIPOS>SUBSTRUCTURE
       1 MOL1            1 RESIDUE      1      MOL     
@<SCITEGIC>MOL_PROPERTY
VConf Rank
SciTegic.value.IntegerValue
791

@<SCITEGIC>MOL_PROPERTY
Conf_Id
SciTegic.value.IntegerValue
24

@<SCITEGIC>MOL_PROPERTY
Delta U+W
SciTegic.value.DoubleValue
0.792

@<SCITEGIC>MOL_PROPERTY
U+W
SciTegic.value.DoubleValue
16.130

@<SCITEGIC>MOL_PROPERTY
Grad RMS
SciTegic.value.DoubleValue
0.000000

@<SCITEGIC>MOL_PROPERTY
U
SciTegic.value.DoubleValue
70.374

@<SCITEGIC>MOL_PROPERTY
W
SciTegic.value.DoubleValue
-54.243

@<SCITEGIC>MOL_PROPERTY
W(PB)
SciTegic.value.DoubleValue
-56.130

@<SCITEGIC>MOL_PROPERTY
W(SA)
SciTegic.value.DoubleValue
1.887

@<SCITEGIC>MOL_PROPERTY
Valence
SciTegic.value.DoubleValue
1.257

@<SCITEGIC>MOL_PROPERTY
Coulomb
SciTegic.value.DoubleValue
69.240

@<SCITEGIC>MOL_PROPERTY
VdW
SciTegic.value.DoubleValue
-0.123

@<SCITEGIC>MOL_PROPERTY
VdW6
SciTegic.value.DoubleValue
-4.336

@<SCITEGIC>MOL_PROPERTY
VdW12
SciTegic.value.DoubleValue
4.213

@<SCITEGIC>MOL_PROPERTY
Bond
SciTegic.value.DoubleValue
0.128

@<SCITEGIC>MOL_PROPERTY
Angle
SciTegic.value.DoubleValue
0.603

@<SCITEGIC>MOL_PROPERTY
Pdih
SciTegic.value.DoubleValue
0.526

@<SCITEGIC>MOL_PROPERTY
Idih
SciTegic.value.DoubleValue
0.000

@<SCITEGIC>MOL_PROPERTY
Tether
SciTegic.value.DoubleValue
0.000

@<TRIPOS>MOLECULE
guest-s9_confgen4.mol2 : confsearch ligand conformer 792
          20          19           1
SMALL
USER_CHARGES
 
@<TRIPOS>ATOM
       1    C1      21.061842   16.979745   21.462765 C.3        1 MOL1        -0.2224
       2    H1      21.297028   15.961640   21.126058 H          1 MOL1         0.1052
       3    H2      20.473665   17.452718   20.667534 H          1 MOL1         0.1052
       4    H3      22.010912   17.520314   21.573282 H          1 MOL1         0.1052
       5    C2      20.281622   16.935083   22.796453 C.3        1 MOL1        -0.1209
       6    H4      20.814690   16.272050   23.492364 H          1 MOL1         0.1041
       7    H5      19.298651   16.472461   22.629560 H          1 MOL1         0.1041
       8    C3      20.098585   18.314398   23.479701 C.3        1 MOL1        -0.1274
       9    H6      19.596982   18.150568   24.442704 H          1 MOL1         0.1041
      10    H7      21.075433   18.754427   23.720218 H          1 MOL1         0.1041
      11    C4      19.250816   19.319670   22.671618 C.3        1 MOL1         0.0313
      12    H8      18.864535   20.086189   23.348213 H          1 MOL1         0.1015
      13    H9      18.398671   18.805326   22.220415 H          1 MOL1         0.1015
      14    N1      20.011966   20.041037   21.575589 N.4        1 MOL1        -0.4809
      15    H10     20.442974   19.357402   20.937237 H          1 MOL1         0.3726
      16    H11     20.798211   20.571975   21.980474 H          1 MOL1         0.3726
      17    C5      19.075206   20.969580   20.814865 C.3        1 MOL1        -0.0677
      18    H12     18.270179   20.381884   20.368419 H          1 MOL1         0.1026
      19    H13     18.656722   21.703801   21.506642 H          1 MOL1         0.1026
      20    H14     19.636402   21.481503   20.030031 H          1 MOL1         0.1026
@<TRIPOS>BOND
    1     1     2    1
    2     1     3    1
    3     1     4    1
    4     1     5    1
    5     5     6    1
    6     5     7    1
    7     5     8    1
    8     8     9    1
    9     8    10    1
   10     8    11    1
   11    11    12    1
   12    11    13    1
   13    11    14    1
   14    14    15    1
   15    14    16    1
   16    14    17    1
   17    17    18    1
   18    17    19    1
   19    17    20    1
@<TRIPOS>SUBSTRUCTURE
       1 MOL1            1 RESIDUE      1      MOL     
@<SCITEGIC>MOL_PROPERTY
VConf Rank
SciTegic.value.IntegerValue
792

@<SCITEGIC>MOL_PROPERTY
Conf_Id
SciTegic.value.IntegerValue
26

@<SCITEGIC>MOL_PROPERTY
Delta U+W
SciTegic.value.DoubleValue
2.888

@<SCITEGIC>MOL_PROPERTY
U+W
SciTegic.value.DoubleValue
18.226

@<SCITEGIC>MOL_PROPERTY
Grad RMS
SciTegic.value.DoubleValue
0.000000

@<SCITEGIC>MOL_PROPERTY
U
SciTegic.value.DoubleValue
72.042

@<SCITEGIC>MOL_PROPERTY
W
SciTegic.value.DoubleValue
-53.816

@<SCITEGIC>MOL_PROPERTY
W(PB)
SciTegic.value.DoubleValue
-55.689

@<SCITEGIC>MOL_PROPERTY
W(SA)
SciTegic.value.DoubleValue
1.873

@<SCITEGIC>MOL_PROPERTY
Valence
SciTegic.value.DoubleValue
2.428

@<SCITEGIC>MOL_PROPERTY
Coulomb
SciTegic.value.DoubleValue
69.829

@<SCITEGIC>MOL_PROPERTY
VdW
SciTegic.value.DoubleValue
-0.215

@<SCITEGIC>MOL_PROPERTY
VdW6
SciTegic.value.DoubleValue
-4.563

@<SCITEGIC>MOL_PROPERTY
VdW12
SciTegic.value.DoubleValue
4.348

@<SCITEGIC>MOL_PROPERTY
Bond
SciTegic.value.DoubleValue
0.137

@<SCITEGIC>MOL_PROPERTY
Angle
SciTegic.value.DoubleValue
0.936

@<SCITEGIC>MOL_PROPERTY
Pdih
SciTegic.value.DoubleValue
1.356

@<SCITEGIC>MOL_PROPERTY
Idih
SciTegic.value.DoubleValue
0.000

@<SCITEGIC>MOL_PROPERTY
Tether
SciTegic.value.DoubleValue
0.000

@<TRIPOS>MOLECULE
guest-s9_confgen4.mol2 : confsearch ligand conformer 793
          20          19           1
SMALL
USER_CHARGES
 
@<TRIPOS>ATOM
       1    C1      21.769600   18.190883   23.247358 C.3        1 MOL1        -0.2224
       2    H1      22.784968   17.937751   23.579279 H          1 MOL1         0.1052
       3    H2      21.070667   17.832218   24.014181 H          1 MOL1         0.1052
       4    H3      21.589755   17.640034   22.316621 H          1 MOL1         0.1052
       5    C2      21.640201   19.716991   23.038285 C.3        1 MOL1        -0.1209
       6    H4      22.282354   20.027081   22.201870 H          1 MOL1         0.1041
       7    H5      22.034046   20.227380   23.928484 H          1 MOL1         0.1041
       8    C3      20.191459   20.210894   22.793251 C.3        1 MOL1        -0.1274
       9    H6      19.555494   19.973169   23.656235 H          1 MOL1         0.1041
      10    H7      20.214382   21.306878   22.729128 H          1 MOL1         0.1041
      11    C4      19.545260   19.676295   21.497521 C.3        1 MOL1         0.0313
      12    H8      20.279598   19.684027   20.688218 H          1 MOL1         0.1015
      13    H9      18.719864   20.333585   21.212503 H          1 MOL1         0.1015
      14    N1      18.974273   18.275867   21.614889 N.4        1 MOL1        -0.4809
      15    H10     18.245180   18.250308   22.344118 H          1 MOL1         0.3726
      16    H11     19.704179   17.623322   21.934327 H          1 MOL1         0.3726
      17    C5      18.405565   17.830866   20.274383 C.3        1 MOL1        -0.0677
      18    H12     19.201572   17.834515   19.526635 H          1 MOL1         0.1026
      19    H13     17.998516   16.822233   20.374093 H          1 MOL1         0.1026
      20    H14     17.613013   18.519455   19.973597 H          1 MOL1         0.1026
@<TRIPOS>BOND
    1     1     2    1
    2     1     3    1
    3     1     4    1
    4     1     5    1
    5     5     6    1
    6     5     7    1
    7     5     8    1
    8     8     9    1
    9     8    10    1
   10     8    11    1
   11    11    12    1
   12    11    13    1
   13    11    14    1
   14    14    15    1
   15    14    16    1
   16    14    17    1
   17    17    18    1
   18    17    19    1
   19    17    20    1
@<TRIPOS>SUBSTRUCTURE
       1 MOL1            1 RESIDUE      1      MOL     
@<SCITEGIC>MOL_PROPERTY
VConf Rank
SciTegic.value.IntegerValue
793

@<SCITEGIC>MOL_PROPERTY
Conf_Id
SciTegic.value.IntegerValue
5

@<SCITEGIC>MOL_PROPERTY
Delta U+W
SciTegic.value.DoubleValue
2.950

@<SCITEGIC>MOL_PROPERTY
U+W
SciTegic.value.DoubleValue
18.289

@<SCITEGIC>MOL_PROPERTY
Grad RMS
SciTegic.value.DoubleValue
0.000000

@<SCITEGIC>MOL_PROPERTY
U
SciTegic.value.DoubleValue
72.042

@<SCITEGIC>MOL_PROPERTY
W
SciTegic.value.DoubleValue
-53.753

@<SCITEGIC>MOL_PROPERTY
W(PB)
SciTegic.value.DoubleValue
-55.644

@<SCITEGIC>MOL_PROPERTY
W(SA)
SciTegic.value.DoubleValue
1.891

@<SCITEGIC>MOL_PROPERTY
Valence
SciTegic.value.DoubleValue
2.428

@<SCITEGIC>MOL_PROPERTY
Coulomb
SciTegic.value.DoubleValue
69.829

@<SCITEGIC>MOL_PROPERTY
VdW
SciTegic.value.DoubleValue
-0.215

@<SCITEGIC>MOL_PROPERTY
VdW6
SciTegic.value.DoubleValue
-4.563

@<SCITEGIC>MOL_PROPERTY
VdW12
SciTegic.value.DoubleValue
4.348

@<SCITEGIC>MOL_PROPERTY
Bond
SciTegic.value.DoubleValue
0.137

@<SCITEGIC>MOL_PROPERTY
Angle
SciTegic.value.DoubleValue
0.936

@<SCITEGIC>MOL_PROPERTY
Pdih
SciTegic.value.DoubleValue
1.356

@<SCITEGIC>MOL_PROPERTY
Idih
SciTegic.value.DoubleValue
0.000

@<SCITEGIC>MOL_PROPERTY
Tether
SciTegic.value.DoubleValue
0.000

@<TRIPOS>MOLECULE
guest-s9_confgen4.mol2 : confsearch ligand conformer 794
          20          19           1
SMALL
USER_CHARGES
 
@<TRIPOS>ATOM
       1    C1      21.967851   17.757214   23.097451 C.3        1 MOL1        -0.2224
       2    H1      21.875217   16.663620   23.120480 H          1 MOL1         0.1052
       3    H2      22.297426   18.051506   22.093185 H          1 MOL1         0.1052
       4    H3      22.760503   18.040384   23.802066 H          1 MOL1         0.1052
       5    C2      20.632969   18.435940   23.481589 C.3        1 MOL1        -0.1209
       6    H4      20.750988   19.527793   23.455279 H          1 MOL1         0.1041
       7    H5      20.390445   18.182743   24.523207 H          1 MOL1         0.1041
       8    C3      19.451392   18.007484   22.576272 C.3        1 MOL1        -0.1274
       9    H6      19.285236   16.927803   22.686801 H          1 MOL1         0.1041
      10    H7      18.530416   18.491384   22.926122 H          1 MOL1         0.1041
      11    C4      19.661647   18.321513   21.077369 C.3        1 MOL1         0.0313
      12    H8      18.787759   17.993033   20.509179 H          1 MOL1         0.1015
      13    H9      20.525962   17.760076   20.714289 H          1 MOL1         0.1015
      14    N1      19.901297   19.787426   20.750276 N.4        1 MOL1        -0.4809
      15    H10     20.167985   19.881362   19.757749 H          1 MOL1         0.3726
      16    H11     20.712768   20.138738   21.279613 H          1 MOL1         0.3726
      17    C5      18.662097   20.628238   21.036707 C.3        1 MOL1        -0.0677
      18    H12     18.424507   20.571653   22.100820 H          1 MOL1         0.1026
      19    H13     18.861823   21.665848   20.760334 H          1 MOL1         0.1026
      20    H14     17.824696   20.245675   20.449308 H          1 MOL1         0.1026
@<TRIPOS>BOND
    1     1     2    1
    2     1     3    1
    3     1     4    1
    4     1     5    1
    5     5     6    1
    6     5     7    1
    7     5     8    1
    8     8     9    1
    9     8    10    1
   10     8    11    1
   11    11    12    1
   12    11    13    1
   13    11    14    1
   14    14    15    1
   15    14    16    1
   16    14    17    1
   17    17    18    1
   18    17    19    1
   19    17    20    1
@<TRIPOS>SUBSTRUCTURE
       1 MOL1            1 RESIDUE      1      MOL     
@<SCITEGIC>MOL_PROPERTY
VConf Rank
SciTegic.value.IntegerValue
794

@<SCITEGIC>MOL_PROPERTY
Conf_Id
SciTegic.value.IntegerValue
52

@<SCITEGIC>MOL_PROPERTY
Delta U+W
SciTegic.value.DoubleValue
0.784

@<SCITEGIC>MOL_PROPERTY
U+W
SciTegic.value.DoubleValue
16.122

@<SCITEGIC>MOL_PROPERTY
Grad RMS
SciTegic.value.DoubleValue
0.000000

@<SCITEGIC>MOL_PROPERTY
U
SciTegic.value.DoubleValue
70.777

@<SCITEGIC>MOL_PROPERTY
W
SciTegic.value.DoubleValue
-54.655

@<SCITEGIC>MOL_PROPERTY
W(PB)
SciTegic.value.DoubleValue
-56.491

@<SCITEGIC>MOL_PROPERTY
W(SA)
SciTegic.value.DoubleValue
1.836

@<SCITEGIC>MOL_PROPERTY
Valence
SciTegic.value.DoubleValue
1.529

@<SCITEGIC>MOL_PROPERTY
Coulomb
SciTegic.value.DoubleValue
69.166

@<SCITEGIC>MOL_PROPERTY
VdW
SciTegic.value.DoubleValue
0.082

@<SCITEGIC>MOL_PROPERTY
VdW6
SciTegic.value.DoubleValue
-5.166

@<SCITEGIC>MOL_PROPERTY
VdW12
SciTegic.value.DoubleValue
5.248

@<SCITEGIC>MOL_PROPERTY
Bond
SciTegic.value.DoubleValue
0.171

@<SCITEGIC>MOL_PROPERTY
Angle
SciTegic.value.DoubleValue
0.752

@<SCITEGIC>MOL_PROPERTY
Pdih
SciTegic.value.DoubleValue
0.605

@<SCITEGIC>MOL_PROPERTY
Idih
SciTegic.value.DoubleValue
0.000

@<SCITEGIC>MOL_PROPERTY
Tether
SciTegic.value.DoubleValue
0.000

@<TRIPOS>MOLECULE
guest-s9_confgen4.mol2 : confsearch ligand conformer 795
          20          19           1
SMALL
USER_CHARGES
 
@<TRIPOS>ATOM
       1    C1      19.697616   17.138998   20.948176 C.3        1 MOL1        -0.2224
       2    H1      19.693369   16.229563   20.333295 H          1 MOL1         0.1052
       3    H2      19.830839   16.821373   21.988617 H          1 MOL1         0.1052
       4    H3      18.713544   17.614735   20.845292 H          1 MOL1         0.1052
       5    C2      20.830457   18.087204   20.493269 C.3        1 MOL1        -0.1209
       6    H4      20.784151   18.186236   19.399618 H          1 MOL1         0.1041
       7    H5      21.804495   17.628962   20.715266 H          1 MOL1         0.1041
       8    C3      20.766664   19.506713   21.112745 C.3        1 MOL1        -0.1274
       9    H6      21.556373   20.111873   20.648282 H          1 MOL1         0.1041
      10    H7      19.821782   19.995838   20.844681 H          1 MOL1         0.1041
      11    C4      20.984170   19.551017   22.643196 C.3        1 MOL1         0.0313
      12    H8      21.255086   20.567759   22.938599 H          1 MOL1         0.1015
      13    H9      21.818531   18.894992   22.903852 H          1 MOL1         0.1015
      14    N1      19.789342   19.146385   23.492415 N.4        1 MOL1        -0.4809
      15    H10     20.087733   19.024944   24.472911 H          1 MOL1         0.3726
      16    H11     19.443857   18.222266   23.198327 H          1 MOL1         0.3726
      17    C5      18.678248   20.187673   23.415521 C.3        1 MOL1        -0.0677
      18    H12     19.067073   21.152973   23.746659 H          1 MOL1         0.1026
      19    H13     18.323386   20.264946   22.386095 H          1 MOL1         0.1026
      20    H14     17.855004   19.880841   24.064394 H          1 MOL1         0.1026
@<TRIPOS>BOND
    1     1     2    1
    2     1     3    1
    3     1     4    1
    4     1     5    1
    5     5     6    1
    6     5     7    1
    7     5     8    1
    8     8     9    1
    9     8    10    1
   10     8    11    1
   11    11    12    1
   12    11    13    1
   13    11    14    1
   14    14    15    1
   15    14    16    1
   16    14    17    1
   17    17    18    1
   18    17    19    1
   19    17    20    1
@<TRIPOS>SUBSTRUCTURE
       1 MOL1            1 RESIDUE      1      MOL     
@<SCITEGIC>MOL_PROPERTY
VConf Rank
SciTegic.value.IntegerValue
795

@<SCITEGIC>MOL_PROPERTY
Conf_Id
SciTegic.value.IntegerValue
55

@<SCITEGIC>MOL_PROPERTY
Delta U+W
SciTegic.value.DoubleValue
2.745

@<SCITEGIC>MOL_PROPERTY
U+W
SciTegic.value.DoubleValue
18.083

@<SCITEGIC>MOL_PROPERTY
Grad RMS
SciTegic.value.DoubleValue
0.000000

@<SCITEGIC>MOL_PROPERTY
U
SciTegic.value.DoubleValue
72.490

@<SCITEGIC>MOL_PROPERTY
W
SciTegic.value.DoubleValue
-54.407

@<SCITEGIC>MOL_PROPERTY
W(PB)
SciTegic.value.DoubleValue
-56.269

@<SCITEGIC>MOL_PROPERTY
W(SA)
SciTegic.value.DoubleValue
1.861

@<SCITEGIC>MOL_PROPERTY
Valence
SciTegic.value.DoubleValue
2.738

@<SCITEGIC>MOL_PROPERTY
Coulomb
SciTegic.value.DoubleValue
69.795

@<SCITEGIC>MOL_PROPERTY
VdW
SciTegic.value.DoubleValue
-0.043

@<SCITEGIC>MOL_PROPERTY
VdW6
SciTegic.value.DoubleValue
-5.333

@<SCITEGIC>MOL_PROPERTY
VdW12
SciTegic.value.DoubleValue
5.290

@<SCITEGIC>MOL_PROPERTY
Bond
SciTegic.value.DoubleValue
0.182

@<SCITEGIC>MOL_PROPERTY
Angle
SciTegic.value.DoubleValue
1.135

@<SCITEGIC>MOL_PROPERTY
Pdih
SciTegic.value.DoubleValue
1.422

@<SCITEGIC>MOL_PROPERTY
Idih
SciTegic.value.DoubleValue
0.000

@<SCITEGIC>MOL_PROPERTY
Tether
SciTegic.value.DoubleValue
0.000

@<TRIPOS>MOLECULE
guest-s9_confgen4.mol2 : confsearch ligand conformer 796
          20          19           1
SMALL
USER_CHARGES
 
@<TRIPOS>ATOM
       1    C1      19.955141   17.162017   23.310113 C.3        1 MOL1        -0.2224
       2    H1      20.033397   16.204586   23.841498 H          1 MOL1         0.1052
       3    H2      20.116851   17.963380   24.042898 H          1 MOL1         0.1052
       4    H3      18.930604   17.232958   22.927436 H          1 MOL1         0.1052
       5    C2      20.994821   17.226704   22.168074 C.3        1 MOL1        -0.1209
       6    H4      20.738066   16.488612   21.395213 H          1 MOL1         0.1041
       7    H5      21.971513   16.919771   22.567937 H          1 MOL1         0.1041
       8    C3      21.152551   18.627097   21.522433 C.3        1 MOL1        -0.1274
       9    H6      21.468403   19.359274   22.276128 H          1 MOL1         0.1041
      10    H7      21.976087   18.572467   20.798285 H          1 MOL1         0.1041
      11    C4      19.900684   19.132312   20.768017 C.3        1 MOL1         0.0313
      12    H8      19.491273   18.314863   20.169161 H          1 MOL1         0.1015
      13    H9      20.192073   19.933002   20.083612 H          1 MOL1         0.1015
      14    N1      18.780462   19.679477   21.638776 N.4        1 MOL1        -0.4809
      15    H10     18.521294   18.988279   22.356352 H          1 MOL1         0.3726
      16    H11     17.930740   19.808955   21.067490 H          1 MOL1         0.3726
      17    C5      19.176981   21.003414   22.282736 C.3        1 MOL1        -0.0677
      18    H12     20.037594   20.846453   22.935673 H          1 MOL1         0.1026
      19    H13     19.431820   21.721355   21.500269 H          1 MOL1         0.1026
      20    H14     18.336797   21.381677   22.869183 H          1 MOL1         0.1026
@<TRIPOS>BOND
    1     1     2    1
    2     1     3    1
    3     1     4    1
    4     1     5    1
    5     5     6    1
    6     5     7    1
    7     5     8    1
    8     8     9    1
    9     8    10    1
   10     8    11    1
   11    11    12    1
   12    11    13    1
   13    11    14    1
   14    14    15    1
   15    14    16    1
   16    14    17    1
   17    17    18    1
   18    17    19    1
   19    17    20    1
@<TRIPOS>SUBSTRUCTURE
       1 MOL1            1 RESIDUE      1      MOL     
@<SCITEGIC>MOL_PROPERTY
VConf Rank
SciTegic.value.IntegerValue
796

@<SCITEGIC>MOL_PROPERTY
Conf_Id
SciTegic.value.IntegerValue
76

@<SCITEGIC>MOL_PROPERTY
Delta U+W
SciTegic.value.DoubleValue
2.799

@<SCITEGIC>MOL_PROPERTY
U+W
SciTegic.value.DoubleValue
18.137

@<SCITEGIC>MOL_PROPERTY
Grad RMS
SciTegic.value.DoubleValue
0.000000

@<SCITEGIC>MOL_PROPERTY
U
SciTegic.value.DoubleValue
72.490

@<SCITEGIC>MOL_PROPERTY
W
SciTegic.value.DoubleValue
-54.353

@<SCITEGIC>MOL_PROPERTY
W(PB)
SciTegic.value.DoubleValue
-56.201

@<SCITEGIC>MOL_PROPERTY
W(SA)
SciTegic.value.DoubleValue
1.848

@<SCITEGIC>MOL_PROPERTY
Valence
SciTegic.value.DoubleValue
2.738

@<SCITEGIC>MOL_PROPERTY
Coulomb
SciTegic.value.DoubleValue
69.795

@<SCITEGIC>MOL_PROPERTY
VdW
SciTegic.value.DoubleValue
-0.043

@<SCITEGIC>MOL_PROPERTY
VdW6
SciTegic.value.DoubleValue
-5.334

@<SCITEGIC>MOL_PROPERTY
VdW12
SciTegic.value.DoubleValue
5.290

@<SCITEGIC>MOL_PROPERTY
Bond
SciTegic.value.DoubleValue
0.182

@<SCITEGIC>MOL_PROPERTY
Angle
SciTegic.value.DoubleValue
1.135

@<SCITEGIC>MOL_PROPERTY
Pdih
SciTegic.value.DoubleValue
1.421

@<SCITEGIC>MOL_PROPERTY
Idih
SciTegic.value.DoubleValue
0.000

@<SCITEGIC>MOL_PROPERTY
Tether
SciTegic.value.DoubleValue
0.000

@<TRIPOS>MOLECULE
guest-s9_confgen4.mol2 : confsearch ligand conformer 797
          20          19           1
SMALL
USER_CHARGES
 
@<TRIPOS>ATOM
       1    C1      22.010190   19.531822   21.540743 C.3        1 MOL1        -0.2224
       2    H1      21.383533   19.306973   20.669081 H          1 MOL1         0.1052
       3    H2      22.110258   20.622332   21.616422 H          1 MOL1         0.1052
       4    H3      23.007964   19.117103   21.347613 H          1 MOL1         0.1052
       5    C2      21.417877   18.937816   22.839543 C.3        1 MOL1        -0.1209
       6    H4      22.116334   19.128113   23.666451 H          1 MOL1         0.1041
       7    H5      21.345359   17.845733   22.756731 H          1 MOL1         0.1041
       8    C3      20.038997   19.537990   23.208228 C.3        1 MOL1        -0.1274
       9    H6      19.697341   19.106810   24.158366 H          1 MOL1         0.1041
      10    H7      20.162643   20.613189   23.393443 H          1 MOL1         0.1041
      11    C4      18.931540   19.356182   22.143727 C.3        1 MOL1         0.0313
      12    H8      19.249930   19.769237   21.183738 H          1 MOL1         0.1015
      13    H9      18.056645   19.922978   22.472311 H          1 MOL1         0.1015
      14    N1      18.461185   17.926363   21.921632 N.4        1 MOL1        -0.4809
      15    H10     17.464433   17.934846   21.654771 H          1 MOL1         0.3726
      16    H11     18.491843   17.396915   22.805594 H          1 MOL1         0.3726
      17    C5      19.265407   17.230803   20.828622 C.3        1 MOL1        -0.0677
      18    H12     18.873240   16.221660   20.684530 H          1 MOL1         0.1026
      19    H13     19.170622   17.796725   19.899461 H          1 MOL1         0.1026
      20    H14     20.314632   17.176503   21.120509 H          1 MOL1         0.1026
@<TRIPOS>BOND
    1     1     2    1
    2     1     3    1
    3     1     4    1
    4     1     5    1
    5     5     6    1
    6     5     7    1
    7     5     8    1
    8     8     9    1
    9     8    10    1
   10     8    11    1
   11    11    12    1
   12    11    13    1
   13    11    14    1
   14    14    15    1
   15    14    16    1
   16    14    17    1
   17    17    18    1
   18    17    19    1
   19    17    20    1
@<TRIPOS>SUBSTRUCTURE
       1 MOL1            1 RESIDUE      1      MOL     
@<SCITEGIC>MOL_PROPERTY
VConf Rank
SciTegic.value.IntegerValue
797

@<SCITEGIC>MOL_PROPERTY
Conf_Id
SciTegic.value.IntegerValue
60

@<SCITEGIC>MOL_PROPERTY
Delta U+W
SciTegic.value.DoubleValue
1.788

@<SCITEGIC>MOL_PROPERTY
U+W
SciTegic.value.DoubleValue
17.127

@<SCITEGIC>MOL_PROPERTY
Grad RMS
SciTegic.value.DoubleValue
0.000000

@<SCITEGIC>MOL_PROPERTY
U
SciTegic.value.DoubleValue
72.122

@<SCITEGIC>MOL_PROPERTY
W
SciTegic.value.DoubleValue
-54.995

@<SCITEGIC>MOL_PROPERTY
W(PB)
SciTegic.value.DoubleValue
-56.810

@<SCITEGIC>MOL_PROPERTY
W(SA)
SciTegic.value.DoubleValue
1.815

@<SCITEGIC>MOL_PROPERTY
Valence
SciTegic.value.DoubleValue
3.197

@<SCITEGIC>MOL_PROPERTY
Coulomb
SciTegic.value.DoubleValue
69.115

@<SCITEGIC>MOL_PROPERTY
VdW
SciTegic.value.DoubleValue
-0.190

@<SCITEGIC>MOL_PROPERTY
VdW6
SciTegic.value.DoubleValue
-5.585

@<SCITEGIC>MOL_PROPERTY
VdW12
SciTegic.value.DoubleValue
5.395

@<SCITEGIC>MOL_PROPERTY
Bond
SciTegic.value.DoubleValue
0.177

@<SCITEGIC>MOL_PROPERTY
Angle
SciTegic.value.DoubleValue
1.207

@<SCITEGIC>MOL_PROPERTY
Pdih
SciTegic.value.DoubleValue
1.813

@<SCITEGIC>MOL_PROPERTY
Idih
SciTegic.value.DoubleValue
0.000

@<SCITEGIC>MOL_PROPERTY
Tether
SciTegic.value.DoubleValue
0.000

@<TRIPOS>MOLECULE
guest-s9_confgen4.mol2 : confsearch ligand conformer 798
          20          19           1
SMALL
USER_CHARGES
 
@<TRIPOS>ATOM
       1    C1      21.538263   19.545522   23.439404 C.3        1 MOL1        -0.2224
       2    H1      21.514172   20.307965   24.228672 H          1 MOL1         0.1052
       3    H2      22.485704   18.998855   23.531393 H          1 MOL1         0.1052
       4    H3      21.538371   20.067282   22.474615 H          1 MOL1         0.1052
       5    C2      20.330878   18.588887   23.572193 C.3        1 MOL1        -0.1209
       6    H4      19.392142   19.153187   23.500767 H          1 MOL1         0.1041
       7    H5      20.337594   18.148098   24.578917 H          1 MOL1         0.1041
       8    C3      20.345935   17.443625   22.530273 C.3        1 MOL1        -0.1274
       9    H6      21.240988   16.829764   22.696708 H          1 MOL1         0.1041
      10    H7      19.489358   16.780042   22.707307 H          1 MOL1         0.1041
      11    C4      20.338520   17.894304   21.050574 C.3        1 MOL1         0.0313
      12    H8      20.471555   17.004384   20.430082 H          1 MOL1         0.1015
      13    H9      21.177300   18.564655   20.848974 H          1 MOL1         0.1015
      14    N1      19.059011   18.565601   20.573962 N.4        1 MOL1        -0.4809
      15    H10     18.240337   18.154575   21.046696 H          1 MOL1         0.3726
      16    H11     18.917983   18.355198   19.573641 H          1 MOL1         0.3726
      17    C5      19.110050   20.077677   20.764391 C.3        1 MOL1        -0.0677
      18    H12     19.962587   20.479296   20.212600 H          1 MOL1         0.1026
      19    H13     18.186180   20.516856   20.381623 H          1 MOL1         0.1026
      20    H14     19.214353   20.312733   21.824057 H          1 MOL1         0.1026
@<TRIPOS>BOND
    1     1     2    1
    2     1     3    1
    3     1     4    1
    4     1     5    1
    5     5     6    1
    6     5     7    1
    7     5     8    1
    8     8     9    1
    9     8    10    1
   10     8    11    1
   11    11    12    1
   12    11    13    1
   13    11    14    1
   14    14    15    1
   15    14    16    1
   16    14    17    1
   17    17    18    1
   18    17    19    1
   19    17    20    1
@<TRIPOS>SUBSTRUCTURE
       1 MOL1            1 RESIDUE      1      MOL     
@<SCITEGIC>MOL_PROPERTY
VConf Rank
SciTegic.value.IntegerValue
798

@<SCITEGIC>MOL_PROPERTY
Conf_Id
SciTegic.value.IntegerValue
54

@<SCITEGIC>MOL_PROPERTY
Delta U+W
SciTegic.value.DoubleValue
1.880

@<SCITEGIC>MOL_PROPERTY
U+W
SciTegic.value.DoubleValue
17.218

@<SCITEGIC>MOL_PROPERTY
Grad RMS
SciTegic.value.DoubleValue
0.000000

@<SCITEGIC>MOL_PROPERTY
U
SciTegic.value.DoubleValue
72.122

@<SCITEGIC>MOL_PROPERTY
W
SciTegic.value.DoubleValue
-54.903

@<SCITEGIC>MOL_PROPERTY
W(PB)
SciTegic.value.DoubleValue
-56.724

@<SCITEGIC>MOL_PROPERTY
W(SA)
SciTegic.value.DoubleValue
1.821

@<SCITEGIC>MOL_PROPERTY
Valence
SciTegic.value.DoubleValue
3.197

@<SCITEGIC>MOL_PROPERTY
Coulomb
SciTegic.value.DoubleValue
69.115

@<SCITEGIC>MOL_PROPERTY
VdW
SciTegic.value.DoubleValue
-0.190

@<SCITEGIC>MOL_PROPERTY
VdW6
SciTegic.value.DoubleValue
-5.585

@<SCITEGIC>MOL_PROPERTY
VdW12
SciTegic.value.DoubleValue
5.395

@<SCITEGIC>MOL_PROPERTY
Bond
SciTegic.value.DoubleValue
0.177

@<SCITEGIC>MOL_PROPERTY
Angle
SciTegic.value.DoubleValue
1.207

@<SCITEGIC>MOL_PROPERTY
Pdih
SciTegic.value.DoubleValue
1.813

@<SCITEGIC>MOL_PROPERTY
Idih
SciTegic.value.DoubleValue
0.000

@<SCITEGIC>MOL_PROPERTY
Tether
SciTegic.value.DoubleValue
0.000

@<TRIPOS>MOLECULE
guest-s9_confgen4.mol2 : confsearch ligand conformer 799
          20          19           1
SMALL
USER_CHARGES
 
@<TRIPOS>ATOM
       1    C1      17.976310   16.402567   21.587296 C.3        1 MOL1        -0.2224
       2    H1      18.645855   15.592604   21.904859 H          1 MOL1         0.1052
       3    H2      16.963644   16.155990   21.931874 H          1 MOL1         0.1052
       4    H3      17.962064   16.423362   20.489780 H          1 MOL1         0.1052
       5    C2      18.433249   17.760268   22.163565 C.3        1 MOL1        -0.1209
       6    H4      18.403681   17.719378   23.261656 H          1 MOL1         0.1041
       7    H5      17.725331   18.543603   21.857640 H          1 MOL1         0.1041
       8    C3      19.856892   18.133496   21.694839 C.3        1 MOL1        -0.1274
       9    H6      20.564011   17.352191   22.003884 H          1 MOL1         0.1041
      10    H7      19.884764   18.177407   20.597907 H          1 MOL1         0.1041
      11    C4      20.305150   19.488407   22.273511 C.3        1 MOL1         0.0313
      12    H8      20.293424   19.443246   23.365441 H          1 MOL1         0.1015
      13    H9      19.612106   20.271107   21.954824 H          1 MOL1         0.1015
      14    N1      21.699364   19.896731   21.839755 N.4        1 MOL1        -0.4809
      15    H10     21.753420   19.943184   20.810640 H          1 MOL1         0.3726
      16    H11     22.384224   19.176727   22.116731 H          1 MOL1         0.3726
      17    C5      22.061618   21.242174   22.454352 C.3        1 MOL1        -0.0677
      18    H12     22.031527   21.160363   23.543025 H          1 MOL1         0.1026
      19    H13     23.067150   21.523845   22.134074 H          1 MOL1         0.1026
      20    H14     21.344533   21.995204   22.120369 H          1 MOL1         0.1026
@<TRIPOS>BOND
    1     1     2    1
    2     1     3    1
    3     1     4    1
    4     1     5    1
    5     5     6    1
    6     5     7    1
    7     5     8    1
    8     8     9    1
    9     8    10    1
   10     8    11    1
   11    11    12    1
   12    11    13    1
   13    11    14    1
   14    14    15    1
   15    14    16    1
   16    14    17    1
   17    17    18    1
   18    17    19    1
   19    17    20    1
@<TRIPOS>SUBSTRUCTURE
       1 MOL1            1 RESIDUE      1      MOL     
@<SCITEGIC>MOL_PROPERTY
VConf Rank
SciTegic.value.IntegerValue
799

@<SCITEGIC>MOL_PROPERTY
Conf_Id
SciTegic.value.IntegerValue
67

@<SCITEGIC>MOL_PROPERTY
Delta U+W
SciTegic.value.DoubleValue
0.000

@<SCITEGIC>MOL_PROPERTY
U+W
SciTegic.value.DoubleValue
15.338

@<SCITEGIC>MOL_PROPERTY
Grad RMS
SciTegic.value.DoubleValue
0.000000

@<SCITEGIC>MOL_PROPERTY
U
SciTegic.value.DoubleValue
69.277

@<SCITEGIC>MOL_PROPERTY
W
SciTegic.value.DoubleValue
-53.939

@<SCITEGIC>MOL_PROPERTY
W(PB)
SciTegic.value.DoubleValue
-55.889

@<SCITEGIC>MOL_PROPERTY
W(SA)
SciTegic.value.DoubleValue
1.950

@<SCITEGIC>MOL_PROPERTY
Valence
SciTegic.value.DoubleValue
0.846

@<SCITEGIC>MOL_PROPERTY
Coulomb
SciTegic.value.DoubleValue
68.557

@<SCITEGIC>MOL_PROPERTY
VdW
SciTegic.value.DoubleValue
-0.127

@<SCITEGIC>MOL_PROPERTY
VdW6
SciTegic.value.DoubleValue
-3.008

@<SCITEGIC>MOL_PROPERTY
VdW12
SciTegic.value.DoubleValue
2.882

@<SCITEGIC>MOL_PROPERTY
Bond
SciTegic.value.DoubleValue
0.088

@<SCITEGIC>MOL_PROPERTY
Angle
SciTegic.value.DoubleValue
0.332

@<SCITEGIC>MOL_PROPERTY
Pdih
SciTegic.value.DoubleValue
0.426

@<SCITEGIC>MOL_PROPERTY
Idih
SciTegic.value.DoubleValue
0.000

@<SCITEGIC>MOL_PROPERTY
Tether
SciTegic.value.DoubleValue
0.000

@<TRIPOS>MOLECULE
guest-s9_confgen4.mol2 : confsearch ligand conformer 800
          20          19           1
SMALL
USER_CHARGES
 
@<TRIPOS>ATOM
       1    C1      19.655403   17.846840   24.779793 C.3        1 MOL1        -0.2224
       2    H1      19.241665   18.817927   25.081425 H          1 MOL1         0.1052
       3    H2      19.123836   17.066549   25.339795 H          1 MOL1         0.1052
       4    H3      20.710675   17.816830   25.080905 H          1 MOL1         0.1052
       5    C2      19.504351   17.625897   23.259057 C.3        1 MOL1        -0.1209
       6    H4      18.437522   17.626906   22.994099 H          1 MOL1         0.1041
       7    H5      19.894639   16.633094   22.993867 H          1 MOL1         0.1041
       8    C3      20.243470   18.710363   22.444609 C.3        1 MOL1        -0.1274
       9    H6      19.850634   19.699594   22.712670 H          1 MOL1         0.1041
      10    H7      21.309757   18.705869   22.706588 H          1 MOL1         0.1041
      11    C4      20.088000   18.480255   20.927094 C.3        1 MOL1         0.0313
      12    H8      19.032041   18.531621   20.650156 H          1 MOL1         0.1015
      13    H9      20.453711   17.480112   20.680826 H          1 MOL1         0.1015
      14    N1      20.849126   19.466522   20.056043 N.4        1 MOL1        -0.4809
      15    H10     20.827846   19.147916   19.074552 H          1 MOL1         0.3726
      16    H11     21.848658   19.470687   20.310392 H          1 MOL1         0.3726
      17    C5      20.257238   20.868252   20.157701 C.3        1 MOL1        -0.0677
      18    H12     20.343725   21.224900   21.185908 H          1 MOL1         0.1026
      19    H13     20.805711   21.537247   19.490921 H          1 MOL1         0.1026
      20    H14     19.205927   20.836765   19.863659 H          1 MOL1         0.1026
@<TRIPOS>BOND
    1     1     2    1
    2     1     3    1
    3     1     4    1
    4     1     5    1
    5     5     6    1
    6     5     7    1
    7     5     8    1
    8     8     9    1
    9     8    10    1
   10     8    11    1
   11    11    12    1
   12    11    13    1
   13    11    14    1
   14    14    15    1
   15    14    16    1
   16    14    17    1
   17    17    18    1
   18    17    19    1
   19    17    20    1
@<TRIPOS>SUBSTRUCTURE
       1 MOL1            1 RESIDUE      1      MOL     
@<SCITEGIC>MOL_PROPERTY
VConf Rank
SciTegic.value.IntegerValue
800

@<SCITEGIC>MOL_PROPERTY
Conf_Id
SciTegic.value.IntegerValue
37

@<SCITEGIC>MOL_PROPERTY
Delta U+W
SciTegic.value.DoubleValue
-0.021

@<SCITEGIC>MOL_PROPERTY
U+W
SciTegic.value.DoubleValue
15.318

@<SCITEGIC>MOL_PROPERTY
Grad RMS
SciTegic.value.DoubleValue
0.000000

@<SCITEGIC>MOL_PROPERTY
U
SciTegic.value.DoubleValue
69.657

@<SCITEGIC>MOL_PROPERTY
W
SciTegic.value.DoubleValue
-54.340

@<SCITEGIC>MOL_PROPERTY
W(PB)
SciTegic.value.DoubleValue
-56.238

@<SCITEGIC>MOL_PROPERTY
W(SA)
SciTegic.value.DoubleValue
1.899

@<SCITEGIC>MOL_PROPERTY
Valence
SciTegic.value.DoubleValue
1.137

@<SCITEGIC>MOL_PROPERTY
Coulomb
SciTegic.value.DoubleValue
68.383

@<SCITEGIC>MOL_PROPERTY
VdW
SciTegic.value.DoubleValue
0.138

@<SCITEGIC>MOL_PROPERTY
VdW6
SciTegic.value.DoubleValue
-3.703

@<SCITEGIC>MOL_PROPERTY
VdW12
SciTegic.value.DoubleValue
3.841

@<SCITEGIC>MOL_PROPERTY
Bond
SciTegic.value.DoubleValue
0.125

@<SCITEGIC>MOL_PROPERTY
Angle
SciTegic.value.DoubleValue
0.468

@<SCITEGIC>MOL_PROPERTY
Pdih
SciTegic.value.DoubleValue
0.543

@<SCITEGIC>MOL_PROPERTY
Idih
SciTegic.value.DoubleValue
0.000

@<SCITEGIC>MOL_PROPERTY
Tether
SciTegic.value.DoubleValue
0.000

@<TRIPOS>MOLECULE
guest-s9_confgen4.mol2 : confsearch ligand conformer 801
          20          19           1
SMALL
USER_CHARGES
 
@<TRIPOS>ATOM
       1    C1      17.207142   17.649380   22.058237 C.3        1 MOL1        -0.2224
       2    H1      16.561974   16.981419   22.643564 H          1 MOL1         0.1052
       3    H2      16.789330   18.662460   22.123583 H          1 MOL1         0.1052
       4    H3      17.160605   17.327743   21.009641 H          1 MOL1         0.1052
       5    C2      18.656895   17.610219   22.588283 C.3        1 MOL1        -0.1209
       6    H4      19.034467   16.578868   22.542838 H          1 MOL1         0.1041
       7    H5      18.666456   17.903602   23.647604 H          1 MOL1         0.1041
       8    C3      19.588765   18.541702   21.782278 C.3        1 MOL1        -0.1274
       9    H6      19.582050   18.245380   20.725031 H          1 MOL1         0.1041
      10    H7      19.207926   19.569999   21.830465 H          1 MOL1         0.1041
      11    C4      21.034645   18.494516   22.318161 C.3        1 MOL1         0.0313
      12    H8      21.388336   17.460603   22.293567 H          1 MOL1         0.1015
      13    H9      21.056938   18.834674   23.356514 H          1 MOL1         0.1015
      14    N1      22.029492   19.330955   21.529867 N.4        1 MOL1        -0.4809
      15    H10     22.014401   19.060555   20.534663 H          1 MOL1         0.3726
      16    H11     22.988053   19.116854   21.847054 H          1 MOL1         0.3726
      17    C5      21.752072   20.821721   21.691646 C.3        1 MOL1        -0.0677
      18    H12     21.794444   21.082352   22.751355 H          1 MOL1         0.1026
      19    H13     22.508235   21.387760   21.143204 H          1 MOL1         0.1026
      20    H14     20.762165   21.051902   21.292915 H          1 MOL1         0.1026
@<TRIPOS>BOND
    1     1     2    1
    2     1     3    1
    3     1     4    1
    4     1     5    1
    5     5     6    1
    6     5     7    1
    7     5     8    1
    8     8     9    1
    9     8    10    1
   10     8    11    1
   11    11    12    1
   12    11    13    1
   13    11    14    1
   14    14    15    1
   15    14    16    1
   16    14    17    1
   17    17    18    1
   18    17    19    1
   19    17    20    1
@<TRIPOS>SUBSTRUCTURE
       1 MOL1            1 RESIDUE      1      MOL     
@<SCITEGIC>MOL_PROPERTY
VConf Rank
SciTegic.value.IntegerValue
801

@<SCITEGIC>MOL_PROPERTY
Conf_Id
SciTegic.value.IntegerValue
2

@<SCITEGIC>MOL_PROPERTY
Delta U+W
SciTegic.value.DoubleValue
0.069

@<SCITEGIC>MOL_PROPERTY
U+W
SciTegic.value.DoubleValue
15.407

@<SCITEGIC>MOL_PROPERTY
Grad RMS
SciTegic.value.DoubleValue
0.000000

@<SCITEGIC>MOL_PROPERTY
U
SciTegic.value.DoubleValue
69.657

@<SCITEGIC>MOL_PROPERTY
W
SciTegic.value.DoubleValue
-54.250

@<SCITEGIC>MOL_PROPERTY
W(PB)
SciTegic.value.DoubleValue
-56.176

@<SCITEGIC>MOL_PROPERTY
W(SA)
SciTegic.value.DoubleValue
1.926

@<SCITEGIC>MOL_PROPERTY
Valence
SciTegic.value.DoubleValue
1.137

@<SCITEGIC>MOL_PROPERTY
Coulomb
SciTegic.value.DoubleValue
68.383

@<SCITEGIC>MOL_PROPERTY
VdW
SciTegic.value.DoubleValue
0.138

@<SCITEGIC>MOL_PROPERTY
VdW6
SciTegic.value.DoubleValue
-3.703

@<SCITEGIC>MOL_PROPERTY
VdW12
SciTegic.value.DoubleValue
3.841

@<SCITEGIC>MOL_PROPERTY
Bond
SciTegic.value.DoubleValue
0.125

@<SCITEGIC>MOL_PROPERTY
Angle
SciTegic.value.DoubleValue
0.468

@<SCITEGIC>MOL_PROPERTY
Pdih
SciTegic.value.DoubleValue
0.543

@<SCITEGIC>MOL_PROPERTY
Idih
SciTegic.value.DoubleValue
0.000

@<SCITEGIC>MOL_PROPERTY
Tether
SciTegic.value.DoubleValue
0.000

@<TRIPOS>MOLECULE
guest-s9_confgen4.mol2 : confsearch ligand conformer 802
          20          19           1
SMALL
USER_CHARGES
 
@<TRIPOS>ATOM
       1    C1      20.756917   21.079261   23.089615 C.3        1 MOL1        -0.2224
       2    H1      19.807009   20.729866   23.513480 H          1 MOL1         0.1052
       3    H2      21.574477   20.674512   23.700248 H          1 MOL1         0.1052
       4    H3      20.778632   22.172696   23.184048 H          1 MOL1         0.1052
       5    C2      20.907592   20.659949   21.609155 C.3        1 MOL1        -0.1209
       6    H4      21.824302   21.108454   21.201109 H          1 MOL1         0.1041
       7    H5      20.074707   21.072234   21.022189 H          1 MOL1         0.1041
       8    C3      20.970702   19.126386   21.418420 C.3        1 MOL1        -0.1274
       9    H6      21.154917   18.905460   20.358649 H          1 MOL1         0.1041
      10    H7      21.824382   18.720809   21.977530 H          1 MOL1         0.1041
      11    C4      19.676337   18.418745   21.864637 C.3        1 MOL1         0.0313
      12    H8      18.827190   18.820825   21.306378 H          1 MOL1         0.1015
      13    H9      19.505282   18.600165   22.928401 H          1 MOL1         0.1015
      14    N1      19.706169   16.918204   21.650263 N.4        1 MOL1        -0.4809
      15    H10     20.502960   16.501593   22.155880 H          1 MOL1         0.3726
      16    H11     19.871989   16.703299   20.655063 H          1 MOL1         0.3726
      17    C5      18.395301   16.300454   22.118346 C.3        1 MOL1        -0.0677
      18    H12     17.570246   16.730717   21.546542 H          1 MOL1         0.1026
      19    H13     18.430278   15.220563   21.958292 H          1 MOL1         0.1026
      20    H14     18.257590   16.510704   23.181187 H          1 MOL1         0.1026
@<TRIPOS>BOND
    1     1     2    1
    2     1     3    1
    3     1     4    1
    4     1     5    1
    5     5     6    1
    6     5     7    1
    7     5     8    1
    8     8     9    1
    9     8    10    1
   10     8    11    1
   11    11    12    1
   12    11    13    1
   13    11    14    1
   14    14    15    1
   15    14    16    1
   16    14    17    1
   17    17    18    1
   18    17    19    1
   19    17    20    1
@<TRIPOS>SUBSTRUCTURE
       1 MOL1            1 RESIDUE      1      MOL     
@<SCITEGIC>MOL_PROPERTY
VConf Rank
SciTegic.value.IntegerValue
802

@<SCITEGIC>MOL_PROPERTY
Conf_Id
SciTegic.value.IntegerValue
34

@<SCITEGIC>MOL_PROPERTY
Delta U+W
SciTegic.value.DoubleValue
0.276

@<SCITEGIC>MOL_PROPERTY
U+W
SciTegic.value.DoubleValue
15.615

@<SCITEGIC>MOL_PROPERTY
Grad RMS
SciTegic.value.DoubleValue
0.000000

@<SCITEGIC>MOL_PROPERTY
U
SciTegic.value.DoubleValue
69.798

@<SCITEGIC>MOL_PROPERTY
W
SciTegic.value.DoubleValue
-54.184

@<SCITEGIC>MOL_PROPERTY
W(PB)
SciTegic.value.DoubleValue
-56.116

@<SCITEGIC>MOL_PROPERTY
W(SA)
SciTegic.value.DoubleValue
1.933

@<SCITEGIC>MOL_PROPERTY
Valence
SciTegic.value.DoubleValue
1.134

@<SCITEGIC>MOL_PROPERTY
Coulomb
SciTegic.value.DoubleValue
68.735

@<SCITEGIC>MOL_PROPERTY
VdW
SciTegic.value.DoubleValue
-0.070

@<SCITEGIC>MOL_PROPERTY
VdW6
SciTegic.value.DoubleValue
-3.565

@<SCITEGIC>MOL_PROPERTY
VdW12
SciTegic.value.DoubleValue
3.494

@<SCITEGIC>MOL_PROPERTY
Bond
SciTegic.value.DoubleValue
0.108

@<SCITEGIC>MOL_PROPERTY
Angle
SciTegic.value.DoubleValue
0.456

@<SCITEGIC>MOL_PROPERTY
Pdih
SciTegic.value.DoubleValue
0.569

@<SCITEGIC>MOL_PROPERTY
Idih
SciTegic.value.DoubleValue
0.000

@<SCITEGIC>MOL_PROPERTY
Tether
SciTegic.value.DoubleValue
0.000

@<TRIPOS>MOLECULE
guest-s9_confgen4.mol2 : confsearch ligand conformer 803
          20          19           1
SMALL
USER_CHARGES
 
@<TRIPOS>ATOM
       1    C1      18.927056   19.955436   19.424020 C.3        1 MOL1        -0.2224
       2    H1      17.860738   19.705670   19.348170 H          1 MOL1         0.1052
       3    H2      19.052429   20.995555   19.096210 H          1 MOL1         0.1052
       4    H3      19.478656   19.313774   18.724600 H          1 MOL1         0.1052
       5    C2      19.440147   19.773019   20.868834 C.3        1 MOL1        -0.1209
       6    H4      18.891293   20.450352   21.538389 H          1 MOL1         0.1041
       7    H5      20.496720   20.069809   20.914266 H          1 MOL1         0.1041
       8    C3      19.274954   18.313705   21.354941 C.3        1 MOL1        -0.1274
       9    H6      18.220734   18.019206   21.266768 H          1 MOL1         0.1041
      10    H7      19.843941   17.633880   20.706907 H          1 MOL1         0.1041
      11    C4      19.714234   18.117806   22.819931 C.3        1 MOL1         0.0313
      12    H8      19.490558   17.093941   23.130233 H          1 MOL1         0.1015
      13    H9      19.153982   18.798722   23.465614 H          1 MOL1         0.1015
      14    N1      21.193477   18.355188   23.059460 N.4        1 MOL1        -0.4809
      15    H10     21.449308   19.314041   22.780881 H          1 MOL1         0.3726
      16    H11     21.755251   17.734555   22.456740 H          1 MOL1         0.3726
      17    C5      21.526660   18.119786   24.526570 C.3        1 MOL1        -0.0677
      18    H12     20.945631   18.809370   25.142742 H          1 MOL1         0.1026
      19    H13     21.278829   17.089517   24.790978 H          1 MOL1         0.1026
      20    H14     22.593249   18.293964   24.684817 H          1 MOL1         0.1026
@<TRIPOS>BOND
    1     1     2    1
    2     1     3    1
    3     1     4    1
    4     1     5    1
    5     5     6    1
    6     5     7    1
    7     5     8    1
    8     8     9    1
    9     8    10    1
   10     8    11    1
   11    11    12    1
   12    11    13    1
   13    11    14    1
   14    14    15    1
   15    14    16    1
   16    14    17    1
   17    17    18    1
   18    17    19    1
   19    17    20    1
@<TRIPOS>SUBSTRUCTURE
       1 MOL1            1 RESIDUE      1      MOL     
@<SCITEGIC>MOL_PROPERTY
VConf Rank
SciTegic.value.IntegerValue
803

@<SCITEGIC>MOL_PROPERTY
Conf_Id
SciTegic.value.IntegerValue
50

@<SCITEGIC>MOL_PROPERTY
Delta U+W
SciTegic.value.DoubleValue
0.319

@<SCITEGIC>MOL_PROPERTY
U+W
SciTegic.value.DoubleValue
15.657

@<SCITEGIC>MOL_PROPERTY
Grad RMS
SciTegic.value.DoubleValue
0.000000

@<SCITEGIC>MOL_PROPERTY
U
SciTegic.value.DoubleValue
69.962

@<SCITEGIC>MOL_PROPERTY
W
SciTegic.value.DoubleValue
-54.305

@<SCITEGIC>MOL_PROPERTY
W(PB)
SciTegic.value.DoubleValue
-56.223

@<SCITEGIC>MOL_PROPERTY
W(SA)
SciTegic.value.DoubleValue
1.918

@<SCITEGIC>MOL_PROPERTY
Valence
SciTegic.value.DoubleValue
0.982

@<SCITEGIC>MOL_PROPERTY
Coulomb
SciTegic.value.DoubleValue
69.058

@<SCITEGIC>MOL_PROPERTY
VdW
SciTegic.value.DoubleValue
-0.078

@<SCITEGIC>MOL_PROPERTY
VdW6
SciTegic.value.DoubleValue
-3.548

@<SCITEGIC>MOL_PROPERTY
VdW12
SciTegic.value.DoubleValue
3.471

@<SCITEGIC>MOL_PROPERTY
Bond
SciTegic.value.DoubleValue
0.105

@<SCITEGIC>MOL_PROPERTY
Angle
SciTegic.value.DoubleValue
0.408

@<SCITEGIC>MOL_PROPERTY
Pdih
SciTegic.value.DoubleValue
0.469

@<SCITEGIC>MOL_PROPERTY
Idih
SciTegic.value.DoubleValue
0.000

@<SCITEGIC>MOL_PROPERTY
Tether
SciTegic.value.DoubleValue
0.000

@<TRIPOS>MOLECULE
guest-s9_confgen4.mol2 : confsearch ligand conformer 804
          20          19           1
SMALL
USER_CHARGES
 
@<TRIPOS>ATOM
       1    C1      17.883347   20.172937   20.378274 C.3        1 MOL1        -0.2224
       2    H1      17.550418   19.846826   19.384374 H          1 MOL1         0.1052
       3    H2      16.992376   20.292350   21.008417 H          1 MOL1         0.1052
       4    H3      18.357799   21.156741   20.267787 H          1 MOL1         0.1052
       5    C2      18.863739   19.148189   20.988806 C.3        1 MOL1        -0.1209
       6    H4      19.720926   19.025416   20.313047 H          1 MOL1         0.1041
       7    H5      18.370492   18.168188   21.056833 H          1 MOL1         0.1041
       8    C3      19.348823   19.585370   22.391216 C.3        1 MOL1        -0.1274
       9    H6      19.867739   20.550975   22.326480 H          1 MOL1         0.1041
      10    H7      18.479229   19.741718   23.043324 H          1 MOL1         0.1041
      11    C4      20.274433   18.546026   23.054959 C.3        1 MOL1         0.0313
      12    H8      19.762116   17.582442   23.113888 H          1 MOL1         0.1015
      13    H9      20.509150   18.868992   24.072416 H          1 MOL1         0.1015
      14    N1      21.589114   18.334377   22.327835 N.4        1 MOL1        -0.4809
      15    H10     22.097013   19.228300   22.244236 H          1 MOL1         0.3726
      16    H11     21.414366   18.026028   21.359931 H          1 MOL1         0.3726
      17    C5      22.433874   17.307432   23.069862 C.3        1 MOL1        -0.0677
      18    H12     23.376122   17.164726   22.536200 H          1 MOL1         0.1026
      19    H13     22.634548   17.669313   24.080583 H          1 MOL1         0.1026
      20    H14     21.890659   16.361144   23.117267 H          1 MOL1         0.1026
@<TRIPOS>BOND
    1     1     2    1
    2     1     3    1
    3     1     4    1
    4     1     5    1
    5     5     6    1
    6     5     7    1
    7     5     8    1
    8     8     9    1
    9     8    10    1
   10     8    11    1
   11    11    12    1
   12    11    13    1
   13    11    14    1
   14    14    15    1
   15    14    16    1
   16    14    17    1
   17    17    18    1
   18    17    19    1
   19    17    20    1
@<TRIPOS>SUBSTRUCTURE
       1 MOL1            1 RESIDUE      1      MOL     
@<SCITEGIC>MOL_PROPERTY
VConf Rank
SciTegic.value.IntegerValue
804

@<SCITEGIC>MOL_PROPERTY
Conf_Id
SciTegic.value.IntegerValue
35

@<SCITEGIC>MOL_PROPERTY
Delta U+W
SciTegic.value.DoubleValue
0.360

@<SCITEGIC>MOL_PROPERTY
U+W
SciTegic.value.DoubleValue
15.698

@<SCITEGIC>MOL_PROPERTY
Grad RMS
SciTegic.value.DoubleValue
0.000000

@<SCITEGIC>MOL_PROPERTY
U
SciTegic.value.DoubleValue
69.962

@<SCITEGIC>MOL_PROPERTY
W
SciTegic.value.DoubleValue
-54.264

@<SCITEGIC>MOL_PROPERTY
W(PB)
SciTegic.value.DoubleValue
-56.166

@<SCITEGIC>MOL_PROPERTY
W(SA)
SciTegic.value.DoubleValue
1.902

@<SCITEGIC>MOL_PROPERTY
Valence
SciTegic.value.DoubleValue
0.982

@<SCITEGIC>MOL_PROPERTY
Coulomb
SciTegic.value.DoubleValue
69.058

@<SCITEGIC>MOL_PROPERTY
VdW
SciTegic.value.DoubleValue
-0.078

@<SCITEGIC>MOL_PROPERTY
VdW6
SciTegic.value.DoubleValue
-3.548

@<SCITEGIC>MOL_PROPERTY
VdW12
SciTegic.value.DoubleValue
3.471

@<SCITEGIC>MOL_PROPERTY
Bond
SciTegic.value.DoubleValue
0.105

@<SCITEGIC>MOL_PROPERTY
Angle
SciTegic.value.DoubleValue
0.408

@<SCITEGIC>MOL_PROPERTY
Pdih
SciTegic.value.DoubleValue
0.469

@<SCITEGIC>MOL_PROPERTY
Idih
SciTegic.value.DoubleValue
0.000

@<SCITEGIC>MOL_PROPERTY
Tether
SciTegic.value.DoubleValue
0.000

@<TRIPOS>MOLECULE
guest-s9_confgen4.mol2 : confsearch ligand conformer 805
          20          19           1
SMALL
USER_CHARGES
 
@<TRIPOS>ATOM
       1    C1      21.505607   18.009644   20.014925 C.3        1 MOL1        -0.2224
       2    H1      22.105430   18.780982   20.514244 H          1 MOL1         0.1052
       3    H2      22.184424   17.417159   19.387914 H          1 MOL1         0.1052
       4    H3      20.787995   18.509558   19.351440 H          1 MOL1         0.1052
       5    C2      20.780999   17.103127   21.036385 C.3        1 MOL1        -0.1209
       6    H4      21.520249   16.619476   21.690418 H          1 MOL1         0.1041
       7    H5      20.269158   16.293417   20.497522 H          1 MOL1         0.1041
       8    C3      19.746579   17.867897   21.894858 C.3        1 MOL1        -0.1274
       9    H6      18.990094   18.317203   21.238683 H          1 MOL1         0.1041
      10    H7      19.218921   17.153084   22.539944 H          1 MOL1         0.1041
      11    C4      20.396325   18.957829   22.774258 C.3        1 MOL1         0.0313
      12    H8      20.868566   19.713420   22.141940 H          1 MOL1         0.1015
      13    H9      21.173132   18.498996   23.391197 H          1 MOL1         0.1015
      14    N1      19.435107   19.669870   23.712049 N.4        1 MOL1        -0.4809
      15    H10     19.968225   20.257386   24.372214 H          1 MOL1         0.3726
      16    H11     18.942554   18.985636   24.306133 H          1 MOL1         0.3726
      17    C5      18.442516   20.530964   22.938326 C.3        1 MOL1        -0.0677
      18    H12     17.837477   19.893694   22.290481 H          1 MOL1         0.1026
      19    H13     17.795020   21.053633   23.645806 H          1 MOL1         0.1026
      20    H14     18.990882   21.257902   22.335372 H          1 MOL1         0.1026
@<TRIPOS>BOND
    1     1     2    1
    2     1     3    1
    3     1     4    1
    4     1     5    1
    5     5     6    1
    6     5     7    1
    7     5     8    1
    8     8     9    1
    9     8    10    1
   10     8    11    1
   11    11    12    1
   12    11    13    1
   13    11    14    1
   14    14    15    1
   15    14    16    1
   16    14    17    1
   17    17    18    1
   18    17    19    1
   19    17    20    1
@<TRIPOS>SUBSTRUCTURE
       1 MOL1            1 RESIDUE      1      MOL     
@<SCITEGIC>MOL_PROPERTY
VConf Rank
SciTegic.value.IntegerValue
805

@<SCITEGIC>MOL_PROPERTY
Conf_Id
SciTegic.value.IntegerValue
33

@<SCITEGIC>MOL_PROPERTY
Delta U+W
SciTegic.value.DoubleValue
0.372

@<SCITEGIC>MOL_PROPERTY
U+W
SciTegic.value.DoubleValue
15.711

@<SCITEGIC>MOL_PROPERTY
Grad RMS
SciTegic.value.DoubleValue
0.000000

@<SCITEGIC>MOL_PROPERTY
U
SciTegic.value.DoubleValue
70.163

@<SCITEGIC>MOL_PROPERTY
W
SciTegic.value.DoubleValue
-54.452

@<SCITEGIC>MOL_PROPERTY
W(PB)
SciTegic.value.DoubleValue
-56.363

@<SCITEGIC>MOL_PROPERTY
W(SA)
SciTegic.value.DoubleValue
1.911

@<SCITEGIC>MOL_PROPERTY
Valence
SciTegic.value.DoubleValue
1.420

@<SCITEGIC>MOL_PROPERTY
Coulomb
SciTegic.value.DoubleValue
68.566

@<SCITEGIC>MOL_PROPERTY
VdW
SciTegic.value.DoubleValue
0.177

@<SCITEGIC>MOL_PROPERTY
VdW6
SciTegic.value.DoubleValue
-4.267

@<SCITEGIC>MOL_PROPERTY
VdW12
SciTegic.value.DoubleValue
4.445

@<SCITEGIC>MOL_PROPERTY
Bond
SciTegic.value.DoubleValue
0.146

@<SCITEGIC>MOL_PROPERTY
Angle
SciTegic.value.DoubleValue
0.581

@<SCITEGIC>MOL_PROPERTY
Pdih
SciTegic.value.DoubleValue
0.693

@<SCITEGIC>MOL_PROPERTY
Idih
SciTegic.value.DoubleValue
0.000

@<SCITEGIC>MOL_PROPERTY
Tether
SciTegic.value.DoubleValue
0.000

@<TRIPOS>MOLECULE
guest-s9_confgen4.mol2 : confsearch ligand conformer 806
          20          19           1
SMALL
USER_CHARGES
 
@<TRIPOS>ATOM
       1    C1      19.239314   20.167346   24.012060 C.3        1 MOL1        -0.2224
       2    H1      18.553235   20.592891   24.755821 H          1 MOL1         0.1052
       3    H2      19.723723   19.295595   24.469736 H          1 MOL1         0.1052
       4    H3      20.012289   20.917938   23.801786 H          1 MOL1         0.1052
       5    C2      18.473282   19.781927   22.725647 C.3        1 MOL1        -0.1209
       6    H4      17.931008   20.662591   22.353686 H          1 MOL1         0.1041
       7    H5      17.710301   19.026971   22.962433 H          1 MOL1         0.1041
       8    C3      19.400520   19.252982   21.606573 C.3        1 MOL1        -0.1274
       9    H6      18.803489   19.072899   20.702892 H          1 MOL1         0.1041
      10    H7      20.136567   20.025215   21.348499 H          1 MOL1         0.1041
      11    C4      20.122845   17.947480   22.003276 C.3        1 MOL1         0.0313
      12    H8      19.376569   17.203940   22.294462 H          1 MOL1         0.1015
      13    H9      20.773366   18.128501   22.862234 H          1 MOL1         0.1015
      14    N1      20.968398   17.332301   20.900100 N.4        1 MOL1        -0.4809
      15    H10     20.396288   17.175659   20.056376 H          1 MOL1         0.3726
      16    H11     21.278884   16.390825   21.187203 H          1 MOL1         0.3726
      17    C5      22.179848   18.201708   20.580902 C.3        1 MOL1        -0.0677
      18    H12     22.780541   17.709902   19.812619 H          1 MOL1         0.1026
      19    H13     21.842599   19.173554   20.215297 H          1 MOL1         0.1026
      20    H14     22.776516   18.333165   21.486112 H          1 MOL1         0.1026
@<TRIPOS>BOND
    1     1     2    1
    2     1     3    1
    3     1     4    1
    4     1     5    1
    5     5     6    1
    6     5     7    1
    7     5     8    1
    8     8     9    1
    9     8    10    1
   10     8    11    1
   11    11    12    1
   12    11    13    1
   13    11    14    1
   14    14    15    1
   15    14    16    1
   16    14    17    1
   17    17    18    1
   18    17    19    1
   19    17    20    1
@<TRIPOS>SUBSTRUCTURE
       1 MOL1            1 RESIDUE      1      MOL     
@<SCITEGIC>MOL_PROPERTY
VConf Rank
SciTegic.value.IntegerValue
806

@<SCITEGIC>MOL_PROPERTY
Conf_Id
SciTegic.value.IntegerValue
53

@<SCITEGIC>MOL_PROPERTY
Delta U+W
SciTegic.value.DoubleValue
0.379

@<SCITEGIC>MOL_PROPERTY
U+W
SciTegic.value.DoubleValue
15.717

@<SCITEGIC>MOL_PROPERTY
Grad RMS
SciTegic.value.DoubleValue
0.000000

@<SCITEGIC>MOL_PROPERTY
U
SciTegic.value.DoubleValue
70.163

@<SCITEGIC>MOL_PROPERTY
W
SciTegic.value.DoubleValue
-54.446

@<SCITEGIC>MOL_PROPERTY
W(PB)
SciTegic.value.DoubleValue
-56.322

@<SCITEGIC>MOL_PROPERTY
W(SA)
SciTegic.value.DoubleValue
1.876

@<SCITEGIC>MOL_PROPERTY
Valence
SciTegic.value.DoubleValue
1.420

@<SCITEGIC>MOL_PROPERTY
Coulomb
SciTegic.value.DoubleValue
68.566

@<SCITEGIC>MOL_PROPERTY
VdW
SciTegic.value.DoubleValue
0.177

@<SCITEGIC>MOL_PROPERTY
VdW6
SciTegic.value.DoubleValue
-4.267

@<SCITEGIC>MOL_PROPERTY
VdW12
SciTegic.value.DoubleValue
4.445

@<SCITEGIC>MOL_PROPERTY
Bond
SciTegic.value.DoubleValue
0.146

@<SCITEGIC>MOL_PROPERTY
Angle
SciTegic.value.DoubleValue
0.581

@<SCITEGIC>MOL_PROPERTY
Pdih
SciTegic.value.DoubleValue
0.693

@<SCITEGIC>MOL_PROPERTY
Idih
SciTegic.value.DoubleValue
0.000

@<SCITEGIC>MOL_PROPERTY
Tether
SciTegic.value.DoubleValue
0.000

@<TRIPOS>MOLECULE
guest-s9_confgen4.mol2 : confsearch ligand conformer 807
          20          19           1
SMALL
USER_CHARGES
 
@<TRIPOS>ATOM
       1    C1      18.466946   18.379326   19.774630 C.3        1 MOL1        -0.2224
       2    H1      17.712909   17.591327   19.650184 H          1 MOL1         0.1052
       3    H2      18.047039   19.311988   19.375926 H          1 MOL1         0.1052
       4    H3      19.339079   18.109343   19.164994 H          1 MOL1         0.1052
       5    C2      18.854310   18.534007   21.261232 C.3        1 MOL1        -0.1209
       6    H4      19.233176   17.572987   21.634807 H          1 MOL1         0.1041
       7    H5      17.956584   18.772358   21.848989 H          1 MOL1         0.1041
       8    C3      19.918438   19.638245   21.463751 C.3        1 MOL1        -0.1274
       9    H6      20.827592   19.391609   20.900411 H          1 MOL1         0.1041
      10    H7      19.544917   20.582829   21.046750 H          1 MOL1         0.1041
      11    C4      20.268779   19.869368   22.950527 C.3        1 MOL1         0.0313
      12    H8      19.364262   20.169920   23.485452 H          1 MOL1         0.1015
      13    H9      20.992012   20.684726   23.031892 H          1 MOL1         0.1015
      14    N1      20.848753   18.665934   23.678544 N.4        1 MOL1        -0.4809
      15    H10     20.197465   17.869152   23.623829 H          1 MOL1         0.3726
      16    H11     20.926229   18.876687   24.685919 H          1 MOL1         0.3726
      17    C5      22.216662   18.287080   23.121563 C.3        1 MOL1        -0.0677
      18    H12     22.890182   19.142169   23.210179 H          1 MOL1         0.1026
      19    H13     22.614461   17.444734   23.691774 H          1 MOL1         0.1026
      20    H14     22.114255   18.003314   22.072275 H          1 MOL1         0.1026
@<TRIPOS>BOND
    1     1     2    1
    2     1     3    1
    3     1     4    1
    4     1     5    1
    5     5     6    1
    6     5     7    1
    7     5     8    1
    8     8     9    1
    9     8    10    1
   10     8    11    1
   11    11    12    1
   12    11    13    1
   13    11    14    1
   14    14    15    1
   15    14    16    1
   16    14    17    1
   17    17    18    1
   18    17    19    1
   19    17    20    1
@<TRIPOS>SUBSTRUCTURE
       1 MOL1            1 RESIDUE      1      MOL     
@<SCITEGIC>MOL_PROPERTY
VConf Rank
SciTegic.value.IntegerValue
807

@<SCITEGIC>MOL_PROPERTY
Conf_Id
SciTegic.value.IntegerValue
49

@<SCITEGIC>MOL_PROPERTY
Delta U+W
SciTegic.value.DoubleValue
0.268

@<SCITEGIC>MOL_PROPERTY
U+W
SciTegic.value.DoubleValue
15.607

@<SCITEGIC>MOL_PROPERTY
Grad RMS
SciTegic.value.DoubleValue
0.000000

@<SCITEGIC>MOL_PROPERTY
U
SciTegic.value.DoubleValue
70.298

@<SCITEGIC>MOL_PROPERTY
W
SciTegic.value.DoubleValue
-54.692

@<SCITEGIC>MOL_PROPERTY
W(PB)
SciTegic.value.DoubleValue
-56.576

@<SCITEGIC>MOL_PROPERTY
W(SA)
SciTegic.value.DoubleValue
1.885

@<SCITEGIC>MOL_PROPERTY
Valence
SciTegic.value.DoubleValue
1.245

@<SCITEGIC>MOL_PROPERTY
Coulomb
SciTegic.value.DoubleValue
68.933

@<SCITEGIC>MOL_PROPERTY
VdW
SciTegic.value.DoubleValue
0.120

@<SCITEGIC>MOL_PROPERTY
VdW6
SciTegic.value.DoubleValue
-4.430

@<SCITEGIC>MOL_PROPERTY
VdW12
SciTegic.value.DoubleValue
4.550

@<SCITEGIC>MOL_PROPERTY
Bond
SciTegic.value.DoubleValue
0.148

@<SCITEGIC>MOL_PROPERTY
Angle
SciTegic.value.DoubleValue
0.587

@<SCITEGIC>MOL_PROPERTY
Pdih
SciTegic.value.DoubleValue
0.509

@<SCITEGIC>MOL_PROPERTY
Idih
SciTegic.value.DoubleValue
0.000

@<SCITEGIC>MOL_PROPERTY
Tether
SciTegic.value.DoubleValue
0.000

@<TRIPOS>MOLECULE
guest-s9_confgen4.mol2 : confsearch ligand conformer 808
          20          19           1
SMALL
USER_CHARGES
 
@<TRIPOS>ATOM
       1    C1      21.367499   20.032686   19.891894 C.3        1 MOL1        -0.2224
       2    H1      20.885708   21.019078   19.900838 H          1 MOL1         0.1052
       3    H2      22.429668   20.169127   20.133392 H          1 MOL1         0.1052
       4    H3      21.303853   19.636718   18.870054 H          1 MOL1         0.1052
       5    C2      20.687578   19.072802   20.892223 C.3        1 MOL1        -0.1209
       6    H4      21.172372   18.087774   20.840413 H          1 MOL1         0.1041
       7    H5      19.640547   18.932831   20.592755 H          1 MOL1         0.1041
       8    C3      20.753683   19.613181   22.339719 C.3        1 MOL1        -0.1274
       9    H6      21.795990   19.857989   22.583482 H          1 MOL1         0.1041
      10    H7      20.192002   20.553921   22.410973 H          1 MOL1         0.1041
      11    C4      20.235468   18.623778   23.408067 C.3        1 MOL1         0.0313
      12    H8      20.387937   19.078547   24.390250 H          1 MOL1         0.1015
      13    H9      20.813250   17.696604   23.379539 H          1 MOL1         0.1015
      14    N1      18.759434   18.268927   23.314983 N.4        1 MOL1        -0.4809
      15    H10     18.218694   19.070038   22.956290 H          1 MOL1         0.3726
      16    H11     18.388606   18.104170   24.263851 H          1 MOL1         0.3726
      17    C5      18.538452   17.020719   22.466579 C.3        1 MOL1        -0.0677
      18    H12     17.471459   16.788325   22.444762 H          1 MOL1         0.1026
      19    H13     18.895104   17.196187   21.451040 H          1 MOL1         0.1026
      20    H14     19.085933   16.185823   22.909188 H          1 MOL1         0.1026
@<TRIPOS>BOND
    1     1     2    1
    2     1     3    1
    3     1     4    1
    4     1     5    1
    5     5     6    1
    6     5     7    1
    7     5     8    1
    8     8     9    1
    9     8    10    1
   10     8    11    1
   11    11    12    1
   12    11    13    1
   13    11    14    1
   14    14    15    1
   15    14    16    1
   16    14    17    1
   17    17    18    1
   18    17    19    1
   19    17    20    1
@<TRIPOS>SUBSTRUCTURE
       1 MOL1            1 RESIDUE      1      MOL     
@<SCITEGIC>MOL_PROPERTY
VConf Rank
SciTegic.value.IntegerValue
808

@<SCITEGIC>MOL_PROPERTY
Conf_Id
SciTegic.value.IntegerValue
65

@<SCITEGIC>MOL_PROPERTY
Delta U+W
SciTegic.value.DoubleValue
1.775

@<SCITEGIC>MOL_PROPERTY
U+W
SciTegic.value.DoubleValue
17.114

@<SCITEGIC>MOL_PROPERTY
Grad RMS
SciTegic.value.DoubleValue
0.000000

@<SCITEGIC>MOL_PROPERTY
U
SciTegic.value.DoubleValue
71.726

@<SCITEGIC>MOL_PROPERTY
W
SciTegic.value.DoubleValue
-54.613

@<SCITEGIC>MOL_PROPERTY
W(PB)
SciTegic.value.DoubleValue
-56.495

@<SCITEGIC>MOL_PROPERTY
W(SA)
SciTegic.value.DoubleValue
1.883

@<SCITEGIC>MOL_PROPERTY
Valence
SciTegic.value.DoubleValue
2.885

@<SCITEGIC>MOL_PROPERTY
Coulomb
SciTegic.value.DoubleValue
68.822

@<SCITEGIC>MOL_PROPERTY
VdW
SciTegic.value.DoubleValue
0.019

@<SCITEGIC>MOL_PROPERTY
VdW6
SciTegic.value.DoubleValue
-4.600

@<SCITEGIC>MOL_PROPERTY
VdW12
SciTegic.value.DoubleValue
4.619

@<SCITEGIC>MOL_PROPERTY
Bond
SciTegic.value.DoubleValue
0.152

@<SCITEGIC>MOL_PROPERTY
Angle
SciTegic.value.DoubleValue
0.862

@<SCITEGIC>MOL_PROPERTY
Pdih
SciTegic.value.DoubleValue
1.871

@<SCITEGIC>MOL_PROPERTY
Idih
SciTegic.value.DoubleValue
0.000

@<SCITEGIC>MOL_PROPERTY
Tether
SciTegic.value.DoubleValue
0.000

@<TRIPOS>MOLECULE
guest-s9_confgen4.mol2 : confsearch ligand conformer 809
          20          19           1
SMALL
USER_CHARGES
 
@<TRIPOS>ATOM
       1    C1      18.585344   20.556195   22.386495 C.3        1 MOL1        -0.2224
       2    H1      18.176045   19.541907   22.474238 H          1 MOL1         0.1052
       3    H2      18.150201   21.159304   23.193892 H          1 MOL1         0.1052
       4    H3      18.246901   20.980824   21.432442 H          1 MOL1         0.1052
       5    C2      20.128560   20.558209   22.479504 C.3        1 MOL1        -0.1209
       6    H4      20.441588   20.130164   23.441481 H          1 MOL1         0.1041
       7    H5      20.484750   21.597984   22.481031 H          1 MOL1         0.1041
       8    C3      20.808296   19.800358   21.311763 C.3        1 MOL1        -0.1274
       9    H6      20.567687   20.304031   20.366148 H          1 MOL1         0.1041
      10    H7      21.899008   19.862939   21.422108 H          1 MOL1         0.1041
      11    C4      20.393929   18.318237   21.199598 C.3        1 MOL1         0.0313
      12    H8      20.891015   17.867437   20.336913 H          1 MOL1         0.1015
      13    H9      19.314851   18.248682   21.043011 H          1 MOL1         0.1015
      14    N1      20.744289   17.486501   22.418641 N.4        1 MOL1        -0.4809
      15    H10     20.298182   17.885767   23.257727 H          1 MOL1         0.3726
      16    H11     21.758979   17.529550   22.598782 H          1 MOL1         0.3726
      17    C5      20.298179   16.045532   22.211012 C.3        1 MOL1        -0.0677
      18    H12     20.806635   15.634074   21.336404 H          1 MOL1         0.1026
      19    H13     20.555309   15.459189   23.095916 H          1 MOL1         0.1026
      20    H14     19.217475   16.022233   22.055132 H          1 MOL1         0.1026
@<TRIPOS>BOND
    1     1     2    1
    2     1     3    1
    3     1     4    1
    4     1     5    1
    5     5     6    1
    6     5     7    1
    7     5     8    1
    8     8     9    1
    9     8    10    1
   10     8    11    1
   11    11    12    1
   12    11    13    1
   13    11    14    1
   14    14    15    1
   15    14    16    1
   16    14    17    1
   17    17    18    1
   18    17    19    1
   19    17    20    1
@<TRIPOS>SUBSTRUCTURE
       1 MOL1            1 RESIDUE      1      MOL     
@<SCITEGIC>MOL_PROPERTY
VConf Rank
SciTegic.value.IntegerValue
809

@<SCITEGIC>MOL_PROPERTY
Conf_Id
SciTegic.value.IntegerValue
23

@<SCITEGIC>MOL_PROPERTY
Delta U+W
SciTegic.value.DoubleValue
0.896

@<SCITEGIC>MOL_PROPERTY
U+W
SciTegic.value.DoubleValue
16.234

@<SCITEGIC>MOL_PROPERTY
Grad RMS
SciTegic.value.DoubleValue
0.000000

@<SCITEGIC>MOL_PROPERTY
U
SciTegic.value.DoubleValue
70.374

@<SCITEGIC>MOL_PROPERTY
W
SciTegic.value.DoubleValue
-54.140

@<SCITEGIC>MOL_PROPERTY
W(PB)
SciTegic.value.DoubleValue
-56.046

@<SCITEGIC>MOL_PROPERTY
W(SA)
SciTegic.value.DoubleValue
1.907

@<SCITEGIC>MOL_PROPERTY
Valence
SciTegic.value.DoubleValue
1.257

@<SCITEGIC>MOL_PROPERTY
Coulomb
SciTegic.value.DoubleValue
69.240

@<SCITEGIC>MOL_PROPERTY
VdW
SciTegic.value.DoubleValue
-0.123

@<SCITEGIC>MOL_PROPERTY
VdW6
SciTegic.value.DoubleValue
-4.336

@<SCITEGIC>MOL_PROPERTY
VdW12
SciTegic.value.DoubleValue
4.213

@<SCITEGIC>MOL_PROPERTY
Bond
SciTegic.value.DoubleValue
0.128

@<SCITEGIC>MOL_PROPERTY
Angle
SciTegic.value.DoubleValue
0.603

@<SCITEGIC>MOL_PROPERTY
Pdih
SciTegic.value.DoubleValue
0.526

@<SCITEGIC>MOL_PROPERTY
Idih
SciTegic.value.DoubleValue
0.000

@<SCITEGIC>MOL_PROPERTY
Tether
SciTegic.value.DoubleValue
0.000

@<TRIPOS>MOLECULE
guest-s9_confgen4.mol2 : confsearch ligand conformer 810
          20          19           1
SMALL
USER_CHARGES
 
@<TRIPOS>ATOM
       1    C1      21.412955   17.876174   20.250565 C.3        1 MOL1        -0.2224
       2    H1      22.016457   17.026968   20.596549 H          1 MOL1         0.1052
       3    H2      21.574596   17.982919   19.170076 H          1 MOL1         0.1052
       4    H3      21.793016   18.785459   20.733015 H          1 MOL1         0.1052
       5    C2      19.913708   17.653312   20.555128 C.3        1 MOL1        -0.1209
       6    H4      19.556929   16.788523   19.978192 H          1 MOL1         0.1041
       7    H5      19.332103   18.514598   20.199415 H          1 MOL1         0.1041
       8    C3      19.630058   17.401536   22.057177 C.3        1 MOL1        -0.1274
       9    H6      18.555982   17.224159   22.200843 H          1 MOL1         0.1041
      10    H7      20.136447   16.478875   22.370282 H          1 MOL1         0.1041
      11    C4      20.082833   18.550169   22.982707 C.3        1 MOL1         0.0313
      12    H8      21.159878   18.702554   22.880158 H          1 MOL1         0.1015
      13    H9      19.876353   18.280995   24.021673 H          1 MOL1         0.1015
      14    N1      19.394686   19.873015   22.704969 N.4        1 MOL1        -0.4809
      15    H10     18.372355   19.767078   22.791653 H          1 MOL1         0.3726
      16    H11     19.560434   20.158258   21.728417 H          1 MOL1         0.3726
      17    C5      19.905953   20.937347   23.666388 C.3        1 MOL1        -0.0677
      18    H12     20.983568   21.054816   23.533327 H          1 MOL1         0.1026
      19    H13     19.403434   21.883659   23.454401 H          1 MOL1         0.1026
      20    H14     19.691727   20.628547   24.691822 H          1 MOL1         0.1026
@<TRIPOS>BOND
    1     1     2    1
    2     1     3    1
    3     1     4    1
    4     1     5    1
    5     5     6    1
    6     5     7    1
    7     5     8    1
    8     8     9    1
    9     8    10    1
   10     8    11    1
   11    11    12    1
   12    11    13    1
   13    11    14    1
   14    14    15    1
   15    14    16    1
   16    14    17    1
   17    17    18    1
   18    17    19    1
   19    17    20    1
@<TRIPOS>SUBSTRUCTURE
       1 MOL1            1 RESIDUE      1      MOL     
@<SCITEGIC>MOL_PROPERTY
VConf Rank
SciTegic.value.IntegerValue
810

@<SCITEGIC>MOL_PROPERTY
Conf_Id
SciTegic.value.IntegerValue
24

@<SCITEGIC>MOL_PROPERTY
Delta U+W
SciTegic.value.DoubleValue
0.792

@<SCITEGIC>MOL_PROPERTY
U+W
SciTegic.value.DoubleValue
16.130

@<SCITEGIC>MOL_PROPERTY
Grad RMS
SciTegic.value.DoubleValue
0.000000

@<SCITEGIC>MOL_PROPERTY
U
SciTegic.value.DoubleValue
70.374

@<SCITEGIC>MOL_PROPERTY
W
SciTegic.value.DoubleValue
-54.243

@<SCITEGIC>MOL_PROPERTY
W(PB)
SciTegic.value.DoubleValue
-56.130

@<SCITEGIC>MOL_PROPERTY
W(SA)
SciTegic.value.DoubleValue
1.887

@<SCITEGIC>MOL_PROPERTY
Valence
SciTegic.value.DoubleValue
1.257

@<SCITEGIC>MOL_PROPERTY
Coulomb
SciTegic.value.DoubleValue
69.240

@<SCITEGIC>MOL_PROPERTY
VdW
SciTegic.value.DoubleValue
-0.123

@<SCITEGIC>MOL_PROPERTY
VdW6
SciTegic.value.DoubleValue
-4.336

@<SCITEGIC>MOL_PROPERTY
VdW12
SciTegic.value.DoubleValue
4.213

@<SCITEGIC>MOL_PROPERTY
Bond
SciTegic.value.DoubleValue
0.128

@<SCITEGIC>MOL_PROPERTY
Angle
SciTegic.value.DoubleValue
0.603

@<SCITEGIC>MOL_PROPERTY
Pdih
SciTegic.value.DoubleValue
0.526

@<SCITEGIC>MOL_PROPERTY
Idih
SciTegic.value.DoubleValue
0.000

@<SCITEGIC>MOL_PROPERTY
Tether
SciTegic.value.DoubleValue
0.000

@<TRIPOS>MOLECULE
guest-s9_confgen4.mol2 : confsearch ligand conformer 811
          20          19           1
SMALL
USER_CHARGES
 
@<TRIPOS>ATOM
       1    C1      18.814921   20.582536   21.645375 C.3        1 MOL1        -0.2224
       2    H1      18.541110   21.628117   21.452997 H          1 MOL1         0.1052
       3    H2      19.508851   20.281476   20.851729 H          1 MOL1         0.1052
       4    H3      17.900597   19.980092   21.566406 H          1 MOL1         0.1052
       5    C2      19.458499   20.446961   23.044263 C.3        1 MOL1        -0.1209
       6    H4      18.815254   20.954692   23.776733 H          1 MOL1         0.1041
       7    H5      20.417444   20.983907   23.059026 H          1 MOL1         0.1041
       8    C3      19.673064   18.985191   23.513335 C.3        1 MOL1        -0.1274
       9    H6      20.067064   19.013468   24.537924 H          1 MOL1         0.1041
      10    H7      18.711529   18.458559   23.575091 H          1 MOL1         0.1041
      11    C4      20.663913   18.176394   22.649419 C.3        1 MOL1         0.0313
      12    H8      21.037211   17.330140   23.231695 H          1 MOL1         0.1015
      13    H9      21.516539   18.804475   22.379553 H          1 MOL1         0.1015
      14    N1      20.064733   17.607196   21.377415 N.4        1 MOL1        -0.4809
      15    H10     19.649271   18.363037   20.814641 H          1 MOL1         0.3726
      16    H11     19.283157   16.974093   21.606171 H          1 MOL1         0.3726
      17    C5      21.133923   16.870912   20.581719 C.3        1 MOL1        -0.0677
      18    H12     21.934082   17.567843   20.323262 H          1 MOL1         0.1026
      19    H13     21.535435   16.055685   21.187490 H          1 MOL1         0.1026
      20    H14     20.688494   16.466998   19.669899 H          1 MOL1         0.1026
@<TRIPOS>BOND
    1     1     2    1
    2     1     3    1
    3     1     4    1
    4     1     5    1
    5     5     6    1
    6     5     7    1
    7     5     8    1
    8     8     9    1
    9     8    10    1
   10     8    11    1
   11    11    12    1
   12    11    13    1
   13    11    14    1
   14    14    15    1
   15    14    16    1
   16    14    17    1
   17    17    18    1
   18    17    19    1
   19    17    20    1
@<TRIPOS>SUBSTRUCTURE
       1 MOL1            1 RESIDUE      1      MOL     
@<SCITEGIC>MOL_PROPERTY
VConf Rank
SciTegic.value.IntegerValue
811

@<SCITEGIC>MOL_PROPERTY
Conf_Id
SciTegic.value.IntegerValue
26

@<SCITEGIC>MOL_PROPERTY
Delta U+W
SciTegic.value.DoubleValue
2.888

@<SCITEGIC>MOL_PROPERTY
U+W
SciTegic.value.DoubleValue
18.226

@<SCITEGIC>MOL_PROPERTY
Grad RMS
SciTegic.value.DoubleValue
0.000000

@<SCITEGIC>MOL_PROPERTY
U
SciTegic.value.DoubleValue
72.042

@<SCITEGIC>MOL_PROPERTY
W
SciTegic.value.DoubleValue
-53.816

@<SCITEGIC>MOL_PROPERTY
W(PB)
SciTegic.value.DoubleValue
-55.689

@<SCITEGIC>MOL_PROPERTY
W(SA)
SciTegic.value.DoubleValue
1.873

@<SCITEGIC>MOL_PROPERTY
Valence
SciTegic.value.DoubleValue
2.428

@<SCITEGIC>MOL_PROPERTY
Coulomb
SciTegic.value.DoubleValue
69.829

@<SCITEGIC>MOL_PROPERTY
VdW
SciTegic.value.DoubleValue
-0.215

@<SCITEGIC>MOL_PROPERTY
VdW6
SciTegic.value.DoubleValue
-4.563

@<SCITEGIC>MOL_PROPERTY
VdW12
SciTegic.value.DoubleValue
4.348

@<SCITEGIC>MOL_PROPERTY
Bond
SciTegic.value.DoubleValue
0.137

@<SCITEGIC>MOL_PROPERTY
Angle
SciTegic.value.DoubleValue
0.936

@<SCITEGIC>MOL_PROPERTY
Pdih
SciTegic.value.DoubleValue
1.356

@<SCITEGIC>MOL_PROPERTY
Idih
SciTegic.value.DoubleValue
0.000

@<SCITEGIC>MOL_PROPERTY
Tether
SciTegic.value.DoubleValue
0.000

@<TRIPOS>MOLECULE
guest-s9_confgen4.mol2 : confsearch ligand conformer 812
          20          19           1
SMALL
USER_CHARGES
 
@<TRIPOS>ATOM
       1    C1      20.447927   16.950674   22.966075 C.3        1 MOL1        -0.2224
       2    H1      20.939476   16.096913   23.450524 H          1 MOL1         0.1052
       3    H2      19.413764   16.656358   22.744600 H          1 MOL1         0.1052
       4    H3      20.976027   17.131712   22.022473 H          1 MOL1         0.1052
       5    C2      20.494469   18.189254   23.889771 C.3        1 MOL1        -0.1209
       6    H4      21.537293   18.513574   24.014028 H          1 MOL1         0.1041
       7    H5      20.147456   17.893843   24.889961 H          1 MOL1         0.1041
       8    C3      19.631994   19.383230   23.406660 C.3        1 MOL1        -0.1274
       9    H6      18.574546   19.092815   23.350355 H          1 MOL1         0.1041
      10    H7      19.687553   20.170858   24.169793 H          1 MOL1         0.1041
      11    C4      20.084041   19.995259   22.063768 C.3        1 MOL1         0.0313
      12    H8      21.175088   20.048288   22.030768 H          1 MOL1         0.1015
      13    H9      19.692747   21.012739   21.985247 H          1 MOL1         0.1015
      14    N1      19.602356   19.241135   20.838910 N.4        1 MOL1        -0.4809
      15    H10     18.571344   19.214006   20.822089 H          1 MOL1         0.3726
      16    H11     19.901453   18.257025   20.890755 H          1 MOL1         0.3726
      17    C5      20.140553   19.900038   19.576135 C.3        1 MOL1        -0.0677
      18    H12     21.232339   19.887922   19.601135 H          1 MOL1         0.1026
      19    H13     19.785962   19.347032   18.703541 H          1 MOL1         0.1026
      20    H14     19.783555   20.931076   19.528388 H          1 MOL1         0.1026
@<TRIPOS>BOND
    1     1     2    1
    2     1     3    1
    3     1     4    1
    4     1     5    1
    5     5     6    1
    6     5     7    1
    7     5     8    1
    8     8     9    1
    9     8    10    1
   10     8    11    1
   11    11    12    1
   12    11    13    1
   13    11    14    1
   14    14    15    1
   15    14    16    1
   16    14    17    1
   17    17    18    1
   18    17    19    1
   19    17    20    1
@<TRIPOS>SUBSTRUCTURE
       1 MOL1            1 RESIDUE      1      MOL     
@<SCITEGIC>MOL_PROPERTY
VConf Rank
SciTegic.value.IntegerValue
812

@<SCITEGIC>MOL_PROPERTY
Conf_Id
SciTegic.value.IntegerValue
5

@<SCITEGIC>MOL_PROPERTY
Delta U+W
SciTegic.value.DoubleValue
2.950

@<SCITEGIC>MOL_PROPERTY
U+W
SciTegic.value.DoubleValue
18.289

@<SCITEGIC>MOL_PROPERTY
Grad RMS
SciTegic.value.DoubleValue
0.000000

@<SCITEGIC>MOL_PROPERTY
U
SciTegic.value.DoubleValue
72.042

@<SCITEGIC>MOL_PROPERTY
W
SciTegic.value.DoubleValue
-53.753

@<SCITEGIC>MOL_PROPERTY
W(PB)
SciTegic.value.DoubleValue
-55.644

@<SCITEGIC>MOL_PROPERTY
W(SA)
SciTegic.value.DoubleValue
1.891

@<SCITEGIC>MOL_PROPERTY
Valence
SciTegic.value.DoubleValue
2.428

@<SCITEGIC>MOL_PROPERTY
Coulomb
SciTegic.value.DoubleValue
69.829

@<SCITEGIC>MOL_PROPERTY
VdW
SciTegic.value.DoubleValue
-0.215

@<SCITEGIC>MOL_PROPERTY
VdW6
SciTegic.value.DoubleValue
-4.563

@<SCITEGIC>MOL_PROPERTY
VdW12
SciTegic.value.DoubleValue
4.348

@<SCITEGIC>MOL_PROPERTY
Bond
SciTegic.value.DoubleValue
0.137

@<SCITEGIC>MOL_PROPERTY
Angle
SciTegic.value.DoubleValue
0.936

@<SCITEGIC>MOL_PROPERTY
Pdih
SciTegic.value.DoubleValue
1.356

@<SCITEGIC>MOL_PROPERTY
Idih
SciTegic.value.DoubleValue
0.000

@<SCITEGIC>MOL_PROPERTY
Tether
SciTegic.value.DoubleValue
0.000

@<TRIPOS>MOLECULE
guest-s9_confgen4.mol2 : confsearch ligand conformer 813
          20          19           1
SMALL
USER_CHARGES
 
@<TRIPOS>ATOM
       1    C1      18.920316   19.586708   19.983442 C.3        1 MOL1        -0.2224
       2    H1      19.601188   19.998411   19.227154 H          1 MOL1         0.1052
       3    H2      18.984112   18.492198   19.941549 H          1 MOL1         0.1052
       4    H3      17.897727   19.869578   19.701907 H          1 MOL1         0.1052
       5    C2      19.263549   20.124741   21.391580 C.3        1 MOL1        -0.1209
       6    H4      18.567901   19.702689   22.129624 H          1 MOL1         0.1041
       7    H5      19.099924   21.211406   21.408278 H          1 MOL1         0.1041
       8    C3      20.725523   19.834155   21.812875 C.3        1 MOL1        -0.1274
       9    H6      21.408590   20.342261   21.119491 H          1 MOL1         0.1041
      10    H7      20.914746   20.275622   22.799816 H          1 MOL1         0.1041
      11    C4      21.084272   18.330850   21.842972 C.3        1 MOL1         0.0313
      12    H8      22.126062   18.209930   22.150334 H          1 MOL1         0.1015
      13    H9      20.984162   17.921156   20.834901 H          1 MOL1         0.1015
      14    N1      20.227861   17.479110   22.767323 N.4        1 MOL1        -0.4809
      15    H10     20.444211   16.481199   22.617581 H          1 MOL1         0.3726
      16    H11     19.233094   17.577606   22.516642 H          1 MOL1         0.3726
      17    C5      20.457348   17.846412   24.229187 C.3        1 MOL1        -0.0677
      18    H12     20.167163   18.886446   24.390780 H          1 MOL1         0.1026
      19    H13     19.851099   17.194151   24.861583 H          1 MOL1         0.1026
      20    H14     21.514136   17.714803   24.471081 H          1 MOL1         0.1026
@<TRIPOS>BOND
    1     1     2    1
    2     1     3    1
    3     1     4    1
    4     1     5    1
    5     5     6    1
    6     5     7    1
    7     5     8    1
    8     8     9    1
    9     8    10    1
   10     8    11    1
   11    11    12    1
   12    11    13    1
   13    11    14    1
   14    14    15    1
   15    14    16    1
   16    14    17    1
   17    17    18    1
   18    17    19    1
   19    17    20    1
@<TRIPOS>SUBSTRUCTURE
       1 MOL1            1 RESIDUE      1      MOL     
@<SCITEGIC>MOL_PROPERTY
VConf Rank
SciTegic.value.IntegerValue
813

@<SCITEGIC>MOL_PROPERTY
Conf_Id
SciTegic.value.IntegerValue
52

@<SCITEGIC>MOL_PROPERTY
Delta U+W
SciTegic.value.DoubleValue
0.784

@<SCITEGIC>MOL_PROPERTY
U+W
SciTegic.value.DoubleValue
16.122

@<SCITEGIC>MOL_PROPERTY
Grad RMS
SciTegic.value.DoubleValue
0.000000

@<SCITEGIC>MOL_PROPERTY
U
SciTegic.value.DoubleValue
70.777

@<SCITEGIC>MOL_PROPERTY
W
SciTegic.value.DoubleValue
-54.655

@<SCITEGIC>MOL_PROPERTY
W(PB)
SciTegic.value.DoubleValue
-56.491

@<SCITEGIC>MOL_PROPERTY
W(SA)
SciTegic.value.DoubleValue
1.836

@<SCITEGIC>MOL_PROPERTY
Valence
SciTegic.value.DoubleValue
1.529

@<SCITEGIC>MOL_PROPERTY
Coulomb
SciTegic.value.DoubleValue
69.166

@<SCITEGIC>MOL_PROPERTY
VdW
SciTegic.value.DoubleValue
0.082

@<SCITEGIC>MOL_PROPERTY
VdW6
SciTegic.value.DoubleValue
-5.166

@<SCITEGIC>MOL_PROPERTY
VdW12
SciTegic.value.DoubleValue
5.248

@<SCITEGIC>MOL_PROPERTY
Bond
SciTegic.value.DoubleValue
0.171

@<SCITEGIC>MOL_PROPERTY
Angle
SciTegic.value.DoubleValue
0.752

@<SCITEGIC>MOL_PROPERTY
Pdih
SciTegic.value.DoubleValue
0.605

@<SCITEGIC>MOL_PROPERTY
Idih
SciTegic.value.DoubleValue
0.000

@<SCITEGIC>MOL_PROPERTY
Tether
SciTegic.value.DoubleValue
0.000

@<TRIPOS>MOLECULE
guest-s9_confgen4.mol2 : confsearch ligand conformer 814
          20          19           1
SMALL
USER_CHARGES
 
@<TRIPOS>ATOM
       1    C1      21.307214   18.136684   23.519870 C.3        1 MOL1        -0.2224
       2    H1      21.950365   17.896094   24.376398 H          1 MOL1         0.1052
       3    H2      20.318477   17.714880   23.733490 H          1 MOL1         0.1052
       4    H3      21.725168   17.633312   22.638259 H          1 MOL1         0.1052
       5    C2      21.240468   19.667226   23.314076 C.3        1 MOL1        -0.1209
       6    H4      22.263917   20.067225   23.338129 H          1 MOL1         0.1041
       7    H5      20.714342   20.129261   24.161267 H          1 MOL1         0.1041
       8    C3      20.577923   20.107529   21.983665 C.3        1 MOL1        -0.1274
       9    H6      20.672427   21.198698   21.906173 H          1 MOL1         0.1041
      10    H7      21.133689   19.700286   21.129745 H          1 MOL1         0.1041
      11    C4      19.075525   19.759928   21.867358 C.3        1 MOL1         0.0313
      12    H8      18.622734   20.378009   21.088014 H          1 MOL1         0.1015
      13    H9      18.580139   19.998973   22.811772 H          1 MOL1         0.1015
      14    N1      18.756602   18.312711   21.526241 N.4        1 MOL1        -0.4809
      15    H10     17.747671   18.140777   21.659122 H          1 MOL1         0.3726
      16    H11     19.228176   17.681557   22.188890 H          1 MOL1         0.3726
      17    C5      19.152536   17.982613   20.091321 C.3        1 MOL1        -0.0677
      18    H12     18.627521   18.655502   19.409984 H          1 MOL1         0.1026
      19    H13     20.230960   18.105143   19.974682 H          1 MOL1         0.1026
      20    H14     18.875866   16.948883   19.872759 H          1 MOL1         0.1026
@<TRIPOS>BOND
    1     1     2    1
    2     1     3    1
    3     1     4    1
    4     1     5    1
    5     5     6    1
    6     5     7    1
    7     5     8    1
    8     8     9    1
    9     8    10    1
   10     8    11    1
   11    11    12    1
   12    11    13    1
   13    11    14    1
   14    14    15    1
   15    14    16    1
   16    14    17    1
   17    17    18    1
   18    17    19    1
   19    17    20    1
@<TRIPOS>SUBSTRUCTURE
       1 MOL1            1 RESIDUE      1      MOL     
@<SCITEGIC>MOL_PROPERTY
VConf Rank
SciTegic.value.IntegerValue
814

@<SCITEGIC>MOL_PROPERTY
Conf_Id
SciTegic.value.IntegerValue
55

@<SCITEGIC>MOL_PROPERTY
Delta U+W
SciTegic.value.DoubleValue
2.745

@<SCITEGIC>MOL_PROPERTY
U+W
SciTegic.value.DoubleValue
18.083

@<SCITEGIC>MOL_PROPERTY
Grad RMS
SciTegic.value.DoubleValue
0.000000

@<SCITEGIC>MOL_PROPERTY
U
SciTegic.value.DoubleValue
72.490

@<SCITEGIC>MOL_PROPERTY
W
SciTegic.value.DoubleValue
-54.407

@<SCITEGIC>MOL_PROPERTY
W(PB)
SciTegic.value.DoubleValue
-56.269

@<SCITEGIC>MOL_PROPERTY
W(SA)
SciTegic.value.DoubleValue
1.861

@<SCITEGIC>MOL_PROPERTY
Valence
SciTegic.value.DoubleValue
2.738

@<SCITEGIC>MOL_PROPERTY
Coulomb
SciTegic.value.DoubleValue
69.795

@<SCITEGIC>MOL_PROPERTY
VdW
SciTegic.value.DoubleValue
-0.043

@<SCITEGIC>MOL_PROPERTY
VdW6
SciTegic.value.DoubleValue
-5.333

@<SCITEGIC>MOL_PROPERTY
VdW12
SciTegic.value.DoubleValue
5.290

@<SCITEGIC>MOL_PROPERTY
Bond
SciTegic.value.DoubleValue
0.182

@<SCITEGIC>MOL_PROPERTY
Angle
SciTegic.value.DoubleValue
1.135

@<SCITEGIC>MOL_PROPERTY
Pdih
SciTegic.value.DoubleValue
1.422

@<SCITEGIC>MOL_PROPERTY
Idih
SciTegic.value.DoubleValue
0.000

@<SCITEGIC>MOL_PROPERTY
Tether
SciTegic.value.DoubleValue
0.000

@<TRIPOS>MOLECULE
guest-s9_confgen4.mol2 : confsearch ligand conformer 815
          20          19           1
SMALL
USER_CHARGES
 
@<TRIPOS>ATOM
       1    C1      21.566218   19.643505   20.944008 C.3        1 MOL1        -0.2224
       2    H1      22.493119   20.070547   20.539462 H          1 MOL1         0.1052
       3    H2      21.149878   18.970841   20.182764 H          1 MOL1         0.1052
       4    H3      20.871131   20.476477   21.099451 H          1 MOL1         0.1052
       5    C2      21.855049   18.889896   22.262349 C.3        1 MOL1        -0.1209
       6    H4      22.159929   19.607800   23.036739 H          1 MOL1         0.1041
       7    H5      22.719124   18.229296   22.104217 H          1 MOL1         0.1041
       8    C3      20.674634   18.029836   22.781724 C.3        1 MOL1        -0.1274
       9    H6      20.403098   17.269516   22.038701 H          1 MOL1         0.1041
      10    H7      21.025466   17.473609   23.660994 H          1 MOL1         0.1041
      11    C4      19.427979   18.839266   23.208608 C.3        1 MOL1         0.0313
      12    H8      19.748476   19.707222   23.790332 H          1 MOL1         0.1015
      13    H9      18.800322   18.219337   23.853711 H          1 MOL1         0.1015
      14    N1      18.543720   19.337146   22.076040 N.4        1 MOL1        -0.4809
      15    H10     19.106673   19.864395   21.394182 H          1 MOL1         0.3726
      16    H11     17.859153   20.015665   22.445009 H          1 MOL1         0.3726
      17    C5      17.813609   18.183892   21.396581 C.3        1 MOL1        -0.0677
      18    H12     18.542770   17.503236   20.953129 H          1 MOL1         0.1026
      19    H13     17.213602   17.652017   22.138025 H          1 MOL1         0.1026
      20    H14     17.163200   18.583155   20.615257 H          1 MOL1         0.1026
@<TRIPOS>BOND
    1     1     2    1
    2     1     3    1
    3     1     4    1
    4     1     5    1
    5     5     6    1
    6     5     7    1
    7     5     8    1
    8     8     9    1
    9     8    10    1
   10     8    11    1
   11    11    12    1
   12    11    13    1
   13    11    14    1
   14    14    15    1
   15    14    16    1
   16    14    17    1
   17    17    18    1
   18    17    19    1
   19    17    20    1
@<TRIPOS>SUBSTRUCTURE
       1 MOL1            1 RESIDUE      1      MOL     
@<SCITEGIC>MOL_PROPERTY
VConf Rank
SciTegic.value.IntegerValue
815

@<SCITEGIC>MOL_PROPERTY
Conf_Id
SciTegic.value.IntegerValue
76

@<SCITEGIC>MOL_PROPERTY
Delta U+W
SciTegic.value.DoubleValue
2.799

@<SCITEGIC>MOL_PROPERTY
U+W
SciTegic.value.DoubleValue
18.137

@<SCITEGIC>MOL_PROPERTY
Grad RMS
SciTegic.value.DoubleValue
0.000000

@<SCITEGIC>MOL_PROPERTY
U
SciTegic.value.DoubleValue
72.490

@<SCITEGIC>MOL_PROPERTY
W
SciTegic.value.DoubleValue
-54.353

@<SCITEGIC>MOL_PROPERTY
W(PB)
SciTegic.value.DoubleValue
-56.201

@<SCITEGIC>MOL_PROPERTY
W(SA)
SciTegic.value.DoubleValue
1.848

@<SCITEGIC>MOL_PROPERTY
Valence
SciTegic.value.DoubleValue
2.738

@<SCITEGIC>MOL_PROPERTY
Coulomb
SciTegic.value.DoubleValue
69.795

@<SCITEGIC>MOL_PROPERTY
VdW
SciTegic.value.DoubleValue
-0.043

@<SCITEGIC>MOL_PROPERTY
VdW6
SciTegic.value.DoubleValue
-5.334

@<SCITEGIC>MOL_PROPERTY
VdW12
SciTegic.value.DoubleValue
5.290

@<SCITEGIC>MOL_PROPERTY
Bond
SciTegic.value.DoubleValue
0.182

@<SCITEGIC>MOL_PROPERTY
Angle
SciTegic.value.DoubleValue
1.135

@<SCITEGIC>MOL_PROPERTY
Pdih
SciTegic.value.DoubleValue
1.421

@<SCITEGIC>MOL_PROPERTY
Idih
SciTegic.value.DoubleValue
0.000

@<SCITEGIC>MOL_PROPERTY
Tether
SciTegic.value.DoubleValue
0.000

@<TRIPOS>MOLECULE
guest-s9_confgen4.mol2 : confsearch ligand conformer 816
          20          19           1
SMALL
USER_CHARGES
 
@<TRIPOS>ATOM
       1    C1      21.554481   18.461688   23.526438 C.3        1 MOL1        -0.2224
       2    H1      20.713809   19.111763   23.797958 H          1 MOL1         0.1052
       3    H2      21.479496   17.541548   24.120300 H          1 MOL1         0.1052
       4    H3      22.479038   18.975046   23.820553 H          1 MOL1         0.1052
       5    C2      21.567427   18.145458   22.013033 C.3        1 MOL1        -0.1209
       6    H4      22.464712   17.554151   21.782665 H          1 MOL1         0.1041
       7    H5      21.665562   19.072829   21.434144 H          1 MOL1         0.1041
       8    C3      20.320412   17.354697   21.547097 C.3        1 MOL1        -0.1274
       9    H6      20.413636   17.126605   20.477195 H          1 MOL1         0.1041
      10    H7      20.308021   16.384529   22.061164 H          1 MOL1         0.1041
      11    C4      18.962385   18.051217   21.798700 C.3        1 MOL1         0.0313
      12    H8      18.847531   18.298212   22.856702 H          1 MOL1         0.1015
      13    H9      18.171155   17.343709   21.537828 H          1 MOL1         0.1015
      14    N1      18.705740   19.307304   20.979357 N.4        1 MOL1        -0.4809
      15    H10     17.693863   19.391325   20.795387 H          1 MOL1         0.3726
      16    H11     19.135990   19.221623   20.046518 H          1 MOL1         0.3726
      17    C5      19.188328   20.560734   21.701346 C.3        1 MOL1        -0.0677
      18    H12     18.956201   21.435947   21.090570 H          1 MOL1         0.1026
      19    H13     18.676834   20.639112   22.663023 H          1 MOL1         0.1026
      20    H14     20.265351   20.502595   21.861541 H          1 MOL1         0.1026
@<TRIPOS>BOND
    1     1     2    1
    2     1     3    1
    3     1     4    1
    4     1     5    1
    5     5     6    1
    6     5     7    1
    7     5     8    1
    8     8     9    1
    9     8    10    1
   10     8    11    1
   11    11    12    1
   12    11    13    1
   13    11    14    1
   14    14    15    1
   15    14    16    1
   16    14    17    1
   17    17    18    1
   18    17    19    1
   19    17    20    1
@<TRIPOS>SUBSTRUCTURE
       1 MOL1            1 RESIDUE      1      MOL     
@<SCITEGIC>MOL_PROPERTY
VConf Rank
SciTegic.value.IntegerValue
816

@<SCITEGIC>MOL_PROPERTY
Conf_Id
SciTegic.value.IntegerValue
60

@<SCITEGIC>MOL_PROPERTY
Delta U+W
SciTegic.value.DoubleValue
1.788

@<SCITEGIC>MOL_PROPERTY
U+W
SciTegic.value.DoubleValue
17.127

@<SCITEGIC>MOL_PROPERTY
Grad RMS
SciTegic.value.DoubleValue
0.000000

@<SCITEGIC>MOL_PROPERTY
U
SciTegic.value.DoubleValue
72.122

@<SCITEGIC>MOL_PROPERTY
W
SciTegic.value.DoubleValue
-54.995

@<SCITEGIC>MOL_PROPERTY
W(PB)
SciTegic.value.DoubleValue
-56.810

@<SCITEGIC>MOL_PROPERTY
W(SA)
SciTegic.value.DoubleValue
1.815

@<SCITEGIC>MOL_PROPERTY
Valence
SciTegic.value.DoubleValue
3.197

@<SCITEGIC>MOL_PROPERTY
Coulomb
SciTegic.value.DoubleValue
69.115

@<SCITEGIC>MOL_PROPERTY
VdW
SciTegic.value.DoubleValue
-0.190

@<SCITEGIC>MOL_PROPERTY
VdW6
SciTegic.value.DoubleValue
-5.585

@<SCITEGIC>MOL_PROPERTY
VdW12
SciTegic.value.DoubleValue
5.395

@<SCITEGIC>MOL_PROPERTY
Bond
SciTegic.value.DoubleValue
0.177

@<SCITEGIC>MOL_PROPERTY
Angle
SciTegic.value.DoubleValue
1.207

@<SCITEGIC>MOL_PROPERTY
Pdih
SciTegic.value.DoubleValue
1.813

@<SCITEGIC>MOL_PROPERTY
Idih
SciTegic.value.DoubleValue
0.000

@<SCITEGIC>MOL_PROPERTY
Tether
SciTegic.value.DoubleValue
0.000

@<TRIPOS>MOLECULE
guest-s9_confgen4.mol2 : confsearch ligand conformer 817
          20          19           1
SMALL
USER_CHARGES
 
@<TRIPOS>ATOM
       1    C1      22.086306   19.630691   21.662714 C.3        1 MOL1        -0.2224
       2    H1      22.479027   20.629176   21.431107 H          1 MOL1         0.1052
       3    H2      22.941733   18.974642   21.869582 H          1 MOL1         0.1052
       4    H3      21.580061   19.257177   20.764241 H          1 MOL1         0.1052
       5    C2      21.128652   19.692169   22.875018 C.3        1 MOL1        -0.1209
       6    H4      20.291404   20.368948   22.661129 H          1 MOL1         0.1041
       7    H5      21.662629   20.138482   23.725609 H          1 MOL1         0.1041
       8    C3      20.596073   18.301602   23.299437 C.3        1 MOL1        -0.1274
       9    H6      21.445984   17.681384   23.613484 H          1 MOL1         0.1041
      10    H7      19.960086   18.411657   24.187590 H          1 MOL1         0.1041
      11    C4      19.813479   17.531361   22.209964 C.3        1 MOL1         0.0313
      12    H8      19.602128   16.530695   22.595534 H          1 MOL1         0.1015
      13    H9      20.421425   17.415691   21.309638 H          1 MOL1         0.1015
      14    N1      18.473511   18.133120   21.813334 N.4        1 MOL1        -0.4809
      15    H10     18.024644   18.578132   22.627661 H          1 MOL1         0.3726
      16    H11     17.829066   17.375119   21.539611 H          1 MOL1         0.3726
      17    C5      18.615573   19.111955   20.652755 C.3        1 MOL1        -0.0677
      18    H12     19.051826   18.591874   19.797308 H          1 MOL1         0.1026
      19    H13     17.627829   19.493376   20.384786 H          1 MOL1         0.1026
      20    H14     19.259845   19.941255   20.946347 H          1 MOL1         0.1026
@<TRIPOS>BOND
    1     1     2    1
    2     1     3    1
    3     1     4    1
    4     1     5    1
    5     5     6    1
    6     5     7    1
    7     5     8    1
    8     8     9    1
    9     8    10    1
   10     8    11    1
   11    11    12    1
   12    11    13    1
   13    11    14    1
   14    14    15    1
   15    14    16    1
   16    14    17    1
   17    17    18    1
   18    17    19    1
   19    17    20    1
@<TRIPOS>SUBSTRUCTURE
       1 MOL1            1 RESIDUE      1      MOL     
@<SCITEGIC>MOL_PROPERTY
VConf Rank
SciTegic.value.IntegerValue
817

@<SCITEGIC>MOL_PROPERTY
Conf_Id
SciTegic.value.IntegerValue
54

@<SCITEGIC>MOL_PROPERTY
Delta U+W
SciTegic.value.DoubleValue
1.880

@<SCITEGIC>MOL_PROPERTY
U+W
SciTegic.value.DoubleValue
17.218

@<SCITEGIC>MOL_PROPERTY
Grad RMS
SciTegic.value.DoubleValue
0.000000

@<SCITEGIC>MOL_PROPERTY
U
SciTegic.value.DoubleValue
72.122

@<SCITEGIC>MOL_PROPERTY
W
SciTegic.value.DoubleValue
-54.903

@<SCITEGIC>MOL_PROPERTY
W(PB)
SciTegic.value.DoubleValue
-56.724

@<SCITEGIC>MOL_PROPERTY
W(SA)
SciTegic.value.DoubleValue
1.821

@<SCITEGIC>MOL_PROPERTY
Valence
SciTegic.value.DoubleValue
3.197

@<SCITEGIC>MOL_PROPERTY
Coulomb
SciTegic.value.DoubleValue
69.115

@<SCITEGIC>MOL_PROPERTY
VdW
SciTegic.value.DoubleValue
-0.190

@<SCITEGIC>MOL_PROPERTY
VdW6
SciTegic.value.DoubleValue
-5.585

@<SCITEGIC>MOL_PROPERTY
VdW12
SciTegic.value.DoubleValue
5.395

@<SCITEGIC>MOL_PROPERTY
Bond
SciTegic.value.DoubleValue
0.177

@<SCITEGIC>MOL_PROPERTY
Angle
SciTegic.value.DoubleValue
1.207

@<SCITEGIC>MOL_PROPERTY
Pdih
SciTegic.value.DoubleValue
1.813

@<SCITEGIC>MOL_PROPERTY
Idih
SciTegic.value.DoubleValue
0.000

@<SCITEGIC>MOL_PROPERTY
Tether
SciTegic.value.DoubleValue
0.000

@<TRIPOS>MOLECULE
guest-s9_confgen4.mol2 : confsearch ligand conformer 818
          20          19           1
SMALL
USER_CHARGES
 
@<TRIPOS>ATOM
       1    C1      18.255099   21.187093   20.782965 C.3        1 MOL1        -0.2224
       2    H1      17.439043   21.132006   21.515218 H          1 MOL1         0.1052
       3    H2      18.403643   22.243508   20.524220 H          1 MOL1         0.1052
       4    H3      17.934912   20.660429   19.874515 H          1 MOL1         0.1052
       5    C2      19.554582   20.576592   21.351177 C.3        1 MOL1        -0.1209
       6    H4      19.868112   21.145728   22.237819 H          1 MOL1         0.1041
       7    H5      20.360044   20.677778   20.610000 H          1 MOL1         0.1041
       8    C3      19.374923   19.088634   21.724630 C.3        1 MOL1        -0.1274
       9    H6      18.572498   18.988786   22.467671 H          1 MOL1         0.1041
      10    H7      19.064958   18.520206   20.837626 H          1 MOL1         0.1041
      11    C4      20.674890   18.487187   22.290253 C.3        1 MOL1         0.0313
      12    H8      20.977909   19.041032   23.182398 H          1 MOL1         0.1015
      13    H9      21.471878   18.570803   21.547080 H          1 MOL1         0.1015
      14    N1      20.545925   17.025463   22.671614 N.4        1 MOL1        -0.4809
      15    H10     20.252593   16.468249   21.854530 H          1 MOL1         0.3726
      16    H11     19.795289   16.903634   23.368649 H          1 MOL1         0.3726
      17    C5      21.871063   16.512466   23.219357 C.3        1 MOL1        -0.0677
      18    H12     22.144431   17.093456   24.102832 H          1 MOL1         0.1026
      19    H13     21.764022   15.459661   23.489823 H          1 MOL1         0.1026
      20    H14     22.642501   16.619138   22.453645 H          1 MOL1         0.1026
@<TRIPOS>BOND
    1     1     2    1
    2     1     3    1
    3     1     4    1
    4     1     5    1
    5     5     6    1
    6     5     7    1
    7     5     8    1
    8     8     9    1
    9     8    10    1
   10     8    11    1
   11    11    12    1
   12    11    13    1
   13    11    14    1
   14    14    15    1
   15    14    16    1
   16    14    17    1
   17    17    18    1
   18    17    19    1
   19    17    20    1
@<TRIPOS>SUBSTRUCTURE
       1 MOL1            1 RESIDUE      1      MOL     
@<SCITEGIC>MOL_PROPERTY
VConf Rank
SciTegic.value.IntegerValue
818

@<SCITEGIC>MOL_PROPERTY
Conf_Id
SciTegic.value.IntegerValue
67

@<SCITEGIC>MOL_PROPERTY
Delta U+W
SciTegic.value.DoubleValue
0.000

@<SCITEGIC>MOL_PROPERTY
U+W
SciTegic.value.DoubleValue
15.338

@<SCITEGIC>MOL_PROPERTY
Grad RMS
SciTegic.value.DoubleValue
0.000000

@<SCITEGIC>MOL_PROPERTY
U
SciTegic.value.DoubleValue
69.277

@<SCITEGIC>MOL_PROPERTY
W
SciTegic.value.DoubleValue
-53.939

@<SCITEGIC>MOL_PROPERTY
W(PB)
SciTegic.value.DoubleValue
-55.889

@<SCITEGIC>MOL_PROPERTY
W(SA)
SciTegic.value.DoubleValue
1.950

@<SCITEGIC>MOL_PROPERTY
Valence
SciTegic.value.DoubleValue
0.846

@<SCITEGIC>MOL_PROPERTY
Coulomb
SciTegic.value.DoubleValue
68.557

@<SCITEGIC>MOL_PROPERTY
VdW
SciTegic.value.DoubleValue
-0.127

@<SCITEGIC>MOL_PROPERTY
VdW6
SciTegic.value.DoubleValue
-3.008

@<SCITEGIC>MOL_PROPERTY
VdW12
SciTegic.value.DoubleValue
2.882

@<SCITEGIC>MOL_PROPERTY
Bond
SciTegic.value.DoubleValue
0.088

@<SCITEGIC>MOL_PROPERTY
Angle
SciTegic.value.DoubleValue
0.332

@<SCITEGIC>MOL_PROPERTY
Pdih
SciTegic.value.DoubleValue
0.426

@<SCITEGIC>MOL_PROPERTY
Idih
SciTegic.value.DoubleValue
0.000

@<SCITEGIC>MOL_PROPERTY
Tether
SciTegic.value.DoubleValue
0.000

@<TRIPOS>MOLECULE
guest-s9_confgen4.mol2 : confsearch ligand conformer 819
          20          19           1
SMALL
USER_CHARGES
 
@<TRIPOS>ATOM
       1    C1      17.703352   18.297159   20.249212 C.3        1 MOL1        -0.2224
       2    H1      17.694783   19.338904   19.902998 H          1 MOL1         0.1052
       3    H2      17.378265   17.662909   19.414308 H          1 MOL1         0.1052
       4    H3      16.963290   18.198655   21.054056 H          1 MOL1         0.1052
       5    C2      19.110018   17.883305   20.733244 C.3        1 MOL1        -0.1209
       6    H4      19.820664   17.959515   19.898079 H          1 MOL1         0.1041
       7    H5      19.094774   16.827728   21.039568 H          1 MOL1         0.1041
       8    C3      19.593933   18.759722   21.909428 C.3        1 MOL1        -0.1274
       9    H6      19.607465   19.812450   21.599049 H          1 MOL1         0.1041
      10    H7      18.885910   18.679722   22.744848 H          1 MOL1         0.1041
      11    C4      20.998965   18.337758   22.386719 C.3        1 MOL1         0.0313
      12    H8      21.719447   18.460734   21.574214 H          1 MOL1         0.1015
      13    H9      20.977181   17.280179   22.661911 H          1 MOL1         0.1015
      14    N1      21.515851   19.107273   23.591476 N.4        1 MOL1        -0.4809
      15    H10     22.375947   18.658856   23.944239 H          1 MOL1         0.3726
      16    H11     20.844989   19.041755   24.372134 H          1 MOL1         0.3726
      17    C5      21.798915   20.563869   23.239740 C.3        1 MOL1        -0.0677
      18    H12     20.871158   21.049406   22.930860 H          1 MOL1         0.1026
      19    H13     22.202976   21.071858   24.118178 H          1 MOL1         0.1026
      20    H14     22.526050   20.602392   22.425800 H          1 MOL1         0.1026
@<TRIPOS>BOND
    1     1     2    1
    2     1     3    1
    3     1     4    1
    4     1     5    1
    5     5     6    1
    6     5     7    1
    7     5     8    1
    8     8     9    1
    9     8    10    1
   10     8    11    1
   11    11    12    1
   12    11    13    1
   13    11    14    1
   14    14    15    1
   15    14    16    1
   16    14    17    1
   17    17    18    1
   18    17    19    1
   19    17    20    1
@<TRIPOS>SUBSTRUCTURE
       1 MOL1            1 RESIDUE      1      MOL     
@<SCITEGIC>MOL_PROPERTY
VConf Rank
SciTegic.value.IntegerValue
819

@<SCITEGIC>MOL_PROPERTY
Conf_Id
SciTegic.value.IntegerValue
37

@<SCITEGIC>MOL_PROPERTY
Delta U+W
SciTegic.value.DoubleValue
-0.021

@<SCITEGIC>MOL_PROPERTY
U+W
SciTegic.value.DoubleValue
15.318

@<SCITEGIC>MOL_PROPERTY
Grad RMS
SciTegic.value.DoubleValue
0.000000

@<SCITEGIC>MOL_PROPERTY
U
SciTegic.value.DoubleValue
69.657

@<SCITEGIC>MOL_PROPERTY
W
SciTegic.value.DoubleValue
-54.340

@<SCITEGIC>MOL_PROPERTY
W(PB)
SciTegic.value.DoubleValue
-56.238

@<SCITEGIC>MOL_PROPERTY
W(SA)
SciTegic.value.DoubleValue
1.899

@<SCITEGIC>MOL_PROPERTY
Valence
SciTegic.value.DoubleValue
1.137

@<SCITEGIC>MOL_PROPERTY
Coulomb
SciTegic.value.DoubleValue
68.383

@<SCITEGIC>MOL_PROPERTY
VdW
SciTegic.value.DoubleValue
0.138

@<SCITEGIC>MOL_PROPERTY
VdW6
SciTegic.value.DoubleValue
-3.703

@<SCITEGIC>MOL_PROPERTY
VdW12
SciTegic.value.DoubleValue
3.841

@<SCITEGIC>MOL_PROPERTY
Bond
SciTegic.value.DoubleValue
0.125

@<SCITEGIC>MOL_PROPERTY
Angle
SciTegic.value.DoubleValue
0.468

@<SCITEGIC>MOL_PROPERTY
Pdih
SciTegic.value.DoubleValue
0.543

@<SCITEGIC>MOL_PROPERTY
Idih
SciTegic.value.DoubleValue
0.000

@<SCITEGIC>MOL_PROPERTY
Tether
SciTegic.value.DoubleValue
0.000

@<TRIPOS>MOLECULE
guest-s9_confgen4.mol2 : confsearch ligand conformer 820
          20          19           1
SMALL
USER_CHARGES
 
@<TRIPOS>ATOM
       1    C1      17.029439   19.260284   22.210733 C.3        1 MOL1        -0.2224
       2    H1      16.062741   18.860071   21.878550 H          1 MOL1         0.1052
       3    H2      17.087309   19.137989   23.300166 H          1 MOL1         0.1052
       4    H3      17.043242   20.334849   21.986482 H          1 MOL1         0.1052
       5    C2      18.193385   18.530025   21.506306 C.3        1 MOL1        -0.1209
       6    H4      18.088420   18.640894   20.417729 H          1 MOL1         0.1041
       7    H5      18.132743   17.453743   21.721403 H          1 MOL1         0.1041
       8    C3      19.567949   19.073312   21.954748 C.3        1 MOL1        -0.1274
       9    H6      19.629445   20.147484   21.735668 H          1 MOL1         0.1041
      10    H7      19.668201   18.960594   23.041946 H          1 MOL1         0.1041
      11    C4      20.723924   18.338844   21.244645 C.3        1 MOL1         0.0313
      12    H8      20.592922   18.433077   20.163610 H          1 MOL1         0.1015
      13    H9      20.698645   17.275730   21.496698 H          1 MOL1         0.1015
      14    N1      22.109624   18.866678   21.579287 N.4        1 MOL1        -0.4809
      15    H10     22.163468   19.878100   21.384609 H          1 MOL1         0.3726
      16    H11     22.803895   18.438790   20.946684 H          1 MOL1         0.3726
      17    C5      22.480296   18.572377   23.028944 C.3        1 MOL1        -0.0677
      18    H12     22.434350   17.494739   23.200092 H          1 MOL1         0.1026
      19    H13     23.493967   18.932021   23.218944 H          1 MOL1         0.1026
      20    H14     21.780426   19.083064   23.693224 H          1 MOL1         0.1026
@<TRIPOS>BOND
    1     1     2    1
    2     1     3    1
    3     1     4    1
    4     1     5    1
    5     5     6    1
    6     5     7    1
    7     5     8    1
    8     8     9    1
    9     8    10    1
   10     8    11    1
   11    11    12    1
   12    11    13    1
   13    11    14    1
   14    14    15    1
   15    14    16    1
   16    14    17    1
   17    17    18    1
   18    17    19    1
   19    17    20    1
@<TRIPOS>SUBSTRUCTURE
       1 MOL1            1 RESIDUE      1      MOL     
@<SCITEGIC>MOL_PROPERTY
VConf Rank
SciTegic.value.IntegerValue
820

@<SCITEGIC>MOL_PROPERTY
Conf_Id
SciTegic.value.IntegerValue
2

@<SCITEGIC>MOL_PROPERTY
Delta U+W
SciTegic.value.DoubleValue
0.069

@<SCITEGIC>MOL_PROPERTY
U+W
SciTegic.value.DoubleValue
15.407

@<SCITEGIC>MOL_PROPERTY
Grad RMS
SciTegic.value.DoubleValue
0.000000

@<SCITEGIC>MOL_PROPERTY
U
SciTegic.value.DoubleValue
69.657

@<SCITEGIC>MOL_PROPERTY
W
SciTegic.value.DoubleValue
-54.250

@<SCITEGIC>MOL_PROPERTY
W(PB)
SciTegic.value.DoubleValue
-56.176

@<SCITEGIC>MOL_PROPERTY
W(SA)
SciTegic.value.DoubleValue
1.926

@<SCITEGIC>MOL_PROPERTY
Valence
SciTegic.value.DoubleValue
1.137

@<SCITEGIC>MOL_PROPERTY
Coulomb
SciTegic.value.DoubleValue
68.383

@<SCITEGIC>MOL_PROPERTY
VdW
SciTegic.value.DoubleValue
0.138

@<SCITEGIC>MOL_PROPERTY
VdW6
SciTegic.value.DoubleValue
-3.703

@<SCITEGIC>MOL_PROPERTY
VdW12
SciTegic.value.DoubleValue
3.841

@<SCITEGIC>MOL_PROPERTY
Bond
SciTegic.value.DoubleValue
0.125

@<SCITEGIC>MOL_PROPERTY
Angle
SciTegic.value.DoubleValue
0.468

@<SCITEGIC>MOL_PROPERTY
Pdih
SciTegic.value.DoubleValue
0.543

@<SCITEGIC>MOL_PROPERTY
Idih
SciTegic.value.DoubleValue
0.000

@<SCITEGIC>MOL_PROPERTY
Tether
SciTegic.value.DoubleValue
0.000

@<TRIPOS>MOLECULE
guest-s9_confgen4.mol2 : confsearch ligand conformer 821
          20          19           1
SMALL
USER_CHARGES
 
@<TRIPOS>ATOM
       1    C1      17.403163   18.468408   21.595246 C.3        1 MOL1        -0.2224
       2    H1      17.970216   17.644250   21.144383 H          1 MOL1         0.1052
       3    H2      17.147038   18.185726   22.624610 H          1 MOL1         0.1052
       4    H3      16.465687   18.570756   21.033416 H          1 MOL1         0.1052
       5    C2      18.201307   19.792137   21.563676 C.3        1 MOL1        -0.1209
       6    H4      17.562677   20.604751   21.937606 H          1 MOL1         0.1041
       7    H5      18.449855   20.048542   20.524116 H          1 MOL1         0.1041
       8    C3      19.494275   19.739024   22.410784 C.3        1 MOL1        -0.1274
       9    H6      19.966157   20.730564   22.405001 H          1 MOL1         0.1041
      10    H7      19.240654   19.517207   23.455934 H          1 MOL1         0.1041
      11    C4      20.502773   18.696308   21.890283 C.3        1 MOL1         0.0313
      12    H8      20.756896   18.918633   20.850876 H          1 MOL1         0.1015
      13    H9      20.055813   17.700081   21.929335 H          1 MOL1         0.1015
      14    N1      21.792204   18.656309   22.686673 N.4        1 MOL1        -0.4809
      15    H10     21.592353   18.457657   23.678987 H          1 MOL1         0.3726
      16    H11     22.244673   19.583307   22.679662 H          1 MOL1         0.3726
      17    C5      22.726947   17.601896   22.109127 C.3        1 MOL1        -0.0677
      18    H12     22.951875   17.850789   21.069770 H          1 MOL1         0.1026
      19    H13     23.650819   17.583794   22.691481 H          1 MOL1         0.1026
      20    H14     22.241599   16.624756   22.158468 H          1 MOL1         0.1026
@<TRIPOS>BOND
    1     1     2    1
    2     1     3    1
    3     1     4    1
    4     1     5    1
    5     5     6    1
    6     5     7    1
    7     5     8    1
    8     8     9    1
    9     8    10    1
   10     8    11    1
   11    11    12    1
   12    11    13    1
   13    11    14    1
   14    14    15    1
   15    14    16    1
   16    14    17    1
   17    17    18    1
   18    17    19    1
   19    17    20    1
@<TRIPOS>SUBSTRUCTURE
       1 MOL1            1 RESIDUE      1      MOL     
@<SCITEGIC>MOL_PROPERTY
VConf Rank
SciTegic.value.IntegerValue
821

@<SCITEGIC>MOL_PROPERTY
Conf_Id
SciTegic.value.IntegerValue
34

@<SCITEGIC>MOL_PROPERTY
Delta U+W
SciTegic.value.DoubleValue
0.276

@<SCITEGIC>MOL_PROPERTY
U+W
SciTegic.value.DoubleValue
15.615

@<SCITEGIC>MOL_PROPERTY
Grad RMS
SciTegic.value.DoubleValue
0.000000

@<SCITEGIC>MOL_PROPERTY
U
SciTegic.value.DoubleValue
69.798

@<SCITEGIC>MOL_PROPERTY
W
SciTegic.value.DoubleValue
-54.184

@<SCITEGIC>MOL_PROPERTY
W(PB)
SciTegic.value.DoubleValue
-56.116

@<SCITEGIC>MOL_PROPERTY
W(SA)
SciTegic.value.DoubleValue
1.933

@<SCITEGIC>MOL_PROPERTY
Valence
SciTegic.value.DoubleValue
1.134

@<SCITEGIC>MOL_PROPERTY
Coulomb
SciTegic.value.DoubleValue
68.735

@<SCITEGIC>MOL_PROPERTY
VdW
SciTegic.value.DoubleValue
-0.070

@<SCITEGIC>MOL_PROPERTY
VdW6
SciTegic.value.DoubleValue
-3.565

@<SCITEGIC>MOL_PROPERTY
VdW12
SciTegic.value.DoubleValue
3.494

@<SCITEGIC>MOL_PROPERTY
Bond
SciTegic.value.DoubleValue
0.108

@<SCITEGIC>MOL_PROPERTY
Angle
SciTegic.value.DoubleValue
0.456

@<SCITEGIC>MOL_PROPERTY
Pdih
SciTegic.value.DoubleValue
0.569

@<SCITEGIC>MOL_PROPERTY
Idih
SciTegic.value.DoubleValue
0.000

@<SCITEGIC>MOL_PROPERTY
Tether
SciTegic.value.DoubleValue
0.000

@<TRIPOS>MOLECULE
guest-s9_confgen4.mol2 : confsearch ligand conformer 822
          20          19           1
SMALL
USER_CHARGES
 
@<TRIPOS>ATOM
       1    C1      20.146249   20.298353   19.368440 C.3        1 MOL1        -0.2224
       2    H1      19.883539   19.609972   18.554632 H          1 MOL1         0.1052
       3    H2      19.653752   21.258719   19.168021 H          1 MOL1         0.1052
       4    H3      21.231042   20.464227   19.338572 H          1 MOL1         0.1052
       5    C2      19.707309   19.735204   20.737462 C.3        1 MOL1        -0.1209
       6    H4      18.615212   19.610457   20.746663 H          1 MOL1         0.1041
       7    H5      19.949432   20.466614   21.520349 H          1 MOL1         0.1041
       8    C3      20.388658   18.380651   21.044275 C.3        1 MOL1        -0.1274
       9    H6      20.169590   17.672705   20.233901 H          1 MOL1         0.1041
      10    H7      21.479681   18.503587   21.064575 H          1 MOL1         0.1041
      11    C4      19.914820   17.760279   22.373995 C.3        1 MOL1         0.0313
      12    H8      20.361340   16.769387   22.489632 H          1 MOL1         0.1015
      13    H9      18.828261   17.643739   22.358406 H          1 MOL1         0.1015
      14    N1      20.281665   18.573021   23.601497 N.4        1 MOL1        -0.4809
      15    H10     19.877723   19.519009   23.535234 H          1 MOL1         0.3726
      16    H11     21.302878   18.712362   23.643395 H          1 MOL1         0.3726
      17    C5      19.786632   17.869097   24.857791 C.3        1 MOL1        -0.0677
      18    H12     18.700936   17.762275   24.806387 H          1 MOL1         0.1026
      19    H13     20.252119   16.883405   24.925012 H          1 MOL1         0.1026
      20    H14     20.057010   18.464234   25.732832 H          1 MOL1         0.1026
@<TRIPOS>BOND
    1     1     2    1
    2     1     3    1
    3     1     4    1
    4     1     5    1
    5     5     6    1
    6     5     7    1
    7     5     8    1
    8     8     9    1
    9     8    10    1
   10     8    11    1
   11    11    12    1
   12    11    13    1
   13    11    14    1
   14    14    15    1
   15    14    16    1
   16    14    17    1
   17    17    18    1
   18    17    19    1
   19    17    20    1
@<TRIPOS>SUBSTRUCTURE
       1 MOL1            1 RESIDUE      1      MOL     
@<SCITEGIC>MOL_PROPERTY
VConf Rank
SciTegic.value.IntegerValue
822

@<SCITEGIC>MOL_PROPERTY
Conf_Id
SciTegic.value.IntegerValue
50

@<SCITEGIC>MOL_PROPERTY
Delta U+W
SciTegic.value.DoubleValue
0.319

@<SCITEGIC>MOL_PROPERTY
U+W
SciTegic.value.DoubleValue
15.657

@<SCITEGIC>MOL_PROPERTY
Grad RMS
SciTegic.value.DoubleValue
0.000000

@<SCITEGIC>MOL_PROPERTY
U
SciTegic.value.DoubleValue
69.962

@<SCITEGIC>MOL_PROPERTY
W
SciTegic.value.DoubleValue
-54.305

@<SCITEGIC>MOL_PROPERTY
W(PB)
SciTegic.value.DoubleValue
-56.223

@<SCITEGIC>MOL_PROPERTY
W(SA)
SciTegic.value.DoubleValue
1.918

@<SCITEGIC>MOL_PROPERTY
Valence
SciTegic.value.DoubleValue
0.982

@<SCITEGIC>MOL_PROPERTY
Coulomb
SciTegic.value.DoubleValue
69.058

@<SCITEGIC>MOL_PROPERTY
VdW
SciTegic.value.DoubleValue
-0.078

@<SCITEGIC>MOL_PROPERTY
VdW6
SciTegic.value.DoubleValue
-3.548

@<SCITEGIC>MOL_PROPERTY
VdW12
SciTegic.value.DoubleValue
3.471

@<SCITEGIC>MOL_PROPERTY
Bond
SciTegic.value.DoubleValue
0.105

@<SCITEGIC>MOL_PROPERTY
Angle
SciTegic.value.DoubleValue
0.408

@<SCITEGIC>MOL_PROPERTY
Pdih
SciTegic.value.DoubleValue
0.469

@<SCITEGIC>MOL_PROPERTY
Idih
SciTegic.value.DoubleValue
0.000

@<SCITEGIC>MOL_PROPERTY
Tether
SciTegic.value.DoubleValue
0.000

@<TRIPOS>MOLECULE
guest-s9_confgen4.mol2 : confsearch ligand conformer 823
          20          19           1
SMALL
USER_CHARGES
 
@<TRIPOS>ATOM
       1    C1      19.594179   20.342954   24.600501 C.3        1 MOL1        -0.2224
       2    H1      19.138606   21.338806   24.676382 H          1 MOL1         0.1052
       3    H2      19.074612   19.681375   25.305861 H          1 MOL1         0.1052
       4    H3      20.641287   20.427169   24.919333 H          1 MOL1         0.1052
       5    C2      19.494099   19.805683   23.156428 C.3        1 MOL1        -0.1209
       6    H4      19.988828   20.511920   22.476011 H          1 MOL1         0.1041
       7    H5      18.437524   19.763137   22.856158 H          1 MOL1         0.1041
       8    C3      20.130317   18.401937   23.022591 C.3        1 MOL1        -0.1274
       9    H6      21.193569   18.442579   23.294072 H          1 MOL1         0.1041
      10    H7      19.652213   17.717551   23.735973 H          1 MOL1         0.1041
      11    C4      19.981966   17.810449   21.606371 C.3        1 MOL1         0.0313
      12    H8      18.924718   17.775725   21.331681 H          1 MOL1         0.1015
      13    H9      20.368688   16.788187   21.599572 H          1 MOL1         0.1015
      14    N1      20.720482   18.585693   20.531438 N.4        1 MOL1        -0.4809
      15    H10     21.723603   18.647800   20.763688 H          1 MOL1         0.3726
      16    H11     20.384542   19.559703   20.501378 H          1 MOL1         0.3726
      17    C5      20.525931   17.913032   19.179212 C.3        1 MOL1        -0.0677
      18    H12     21.061984   18.480794   18.415482 H          1 MOL1         0.1026
      19    H13     20.918442   16.894844   19.224071 H          1 MOL1         0.1026
      20    H14     19.460695   17.888154   18.939535 H          1 MOL1         0.1026
@<TRIPOS>BOND
    1     1     2    1
    2     1     3    1
    3     1     4    1
    4     1     5    1
    5     5     6    1
    6     5     7    1
    7     5     8    1
    8     8     9    1
    9     8    10    1
   10     8    11    1
   11    11    12    1
   12    11    13    1
   13    11    14    1
   14    14    15    1
   15    14    16    1
   16    14    17    1
   17    17    18    1
   18    17    19    1
   19    17    20    1
@<TRIPOS>SUBSTRUCTURE
       1 MOL1            1 RESIDUE      1      MOL     
@<SCITEGIC>MOL_PROPERTY
VConf Rank
SciTegic.value.IntegerValue
823

@<SCITEGIC>MOL_PROPERTY
Conf_Id
SciTegic.value.IntegerValue
35

@<SCITEGIC>MOL_PROPERTY
Delta U+W
SciTegic.value.DoubleValue
0.360

@<SCITEGIC>MOL_PROPERTY
U+W
SciTegic.value.DoubleValue
15.698

@<SCITEGIC>MOL_PROPERTY
Grad RMS
SciTegic.value.DoubleValue
0.000000

@<SCITEGIC>MOL_PROPERTY
U
SciTegic.value.DoubleValue
69.962

@<SCITEGIC>MOL_PROPERTY
W
SciTegic.value.DoubleValue
-54.264

@<SCITEGIC>MOL_PROPERTY
W(PB)
SciTegic.value.DoubleValue
-56.166

@<SCITEGIC>MOL_PROPERTY
W(SA)
SciTegic.value.DoubleValue
1.902

@<SCITEGIC>MOL_PROPERTY
Valence
SciTegic.value.DoubleValue
0.982

@<SCITEGIC>MOL_PROPERTY
Coulomb
SciTegic.value.DoubleValue
69.058

@<SCITEGIC>MOL_PROPERTY
VdW
SciTegic.value.DoubleValue
-0.078

@<SCITEGIC>MOL_PROPERTY
VdW6
SciTegic.value.DoubleValue
-3.548

@<SCITEGIC>MOL_PROPERTY
VdW12
SciTegic.value.DoubleValue
3.471

@<SCITEGIC>MOL_PROPERTY
Bond
SciTegic.value.DoubleValue
0.105

@<SCITEGIC>MOL_PROPERTY
Angle
SciTegic.value.DoubleValue
0.408

@<SCITEGIC>MOL_PROPERTY
Pdih
SciTegic.value.DoubleValue
0.469

@<SCITEGIC>MOL_PROPERTY
Idih
SciTegic.value.DoubleValue
0.000

@<SCITEGIC>MOL_PROPERTY
Tether
SciTegic.value.DoubleValue
0.000

@<TRIPOS>MOLECULE
guest-s9_confgen4.mol2 : confsearch ligand conformer 824
          20          19           1
SMALL
USER_CHARGES
 
@<TRIPOS>ATOM
       1    C1      18.578983   19.185072   19.937772 C.3        1 MOL1        -0.2224
       2    H1      18.980305   18.177758   19.769459 H          1 MOL1         0.1052
       3    H2      17.694503   19.299890   19.297861 H          1 MOL1         0.1052
       4    H3      19.329842   19.913289   19.604598 H          1 MOL1         0.1052
       5    C2      18.207307   19.408338   21.421759 C.3        1 MOL1        -0.1209
       6    H4      17.459348   18.664627   21.730985 H          1 MOL1         0.1041
       7    H5      17.727031   20.391292   21.527222 H          1 MOL1         0.1041
       8    C3      19.429840   19.342325   22.366708 C.3        1 MOL1        -0.1274
       9    H6      20.156380   20.112011   22.076132 H          1 MOL1         0.1041
      10    H7      19.106183   19.584608   23.387522 H          1 MOL1         0.1041
      11    C4      20.104341   17.953615   22.366820 C.3        1 MOL1         0.0313
      12    H8      20.491461   17.727998   21.370331 H          1 MOL1         0.1015
      13    H9      19.357299   17.196784   22.619217 H          1 MOL1         0.1015
      14    N1      21.249430   17.806898   23.355578 N.4        1 MOL1        -0.4809
      15    H10     21.533180   16.816125   23.410906 H          1 MOL1         0.3726
      16    H11     20.932117   18.044129   24.307814 H          1 MOL1         0.3726
      17    C5      22.443295   18.665269   22.951532 C.3        1 MOL1        -0.0677
      18    H12     22.152561   19.717554   22.959191 H          1 MOL1         0.1026
      19    H13     23.256240   18.504896   23.663124 H          1 MOL1         0.1026
      20    H14     22.769616   18.378398   21.949576 H          1 MOL1         0.1026
@<TRIPOS>BOND
    1     1     2    1
    2     1     3    1
    3     1     4    1
    4     1     5    1
    5     5     6    1
    6     5     7    1
    7     5     8    1
    8     8     9    1
    9     8    10    1
   10     8    11    1
   11    11    12    1
   12    11    13    1
   13    11    14    1
   14    14    15    1
   15    14    16    1
   16    14    17    1
   17    17    18    1
   18    17    19    1
   19    17    20    1
@<TRIPOS>SUBSTRUCTURE
       1 MOL1            1 RESIDUE      1      MOL     
@<SCITEGIC>MOL_PROPERTY
VConf Rank
SciTegic.value.IntegerValue
824

@<SCITEGIC>MOL_PROPERTY
Conf_Id
SciTegic.value.IntegerValue
33

@<SCITEGIC>MOL_PROPERTY
Delta U+W
SciTegic.value.DoubleValue
0.372

@<SCITEGIC>MOL_PROPERTY
U+W
SciTegic.value.DoubleValue
15.711

@<SCITEGIC>MOL_PROPERTY
Grad RMS
SciTegic.value.DoubleValue
0.000000

@<SCITEGIC>MOL_PROPERTY
U
SciTegic.value.DoubleValue
70.163

@<SCITEGIC>MOL_PROPERTY
W
SciTegic.value.DoubleValue
-54.452

@<SCITEGIC>MOL_PROPERTY
W(PB)
SciTegic.value.DoubleValue
-56.363

@<SCITEGIC>MOL_PROPERTY
W(SA)
SciTegic.value.DoubleValue
1.911

@<SCITEGIC>MOL_PROPERTY
Valence
SciTegic.value.DoubleValue
1.420

@<SCITEGIC>MOL_PROPERTY
Coulomb
SciTegic.value.DoubleValue
68.566

@<SCITEGIC>MOL_PROPERTY
VdW
SciTegic.value.DoubleValue
0.177

@<SCITEGIC>MOL_PROPERTY
VdW6
SciTegic.value.DoubleValue
-4.267

@<SCITEGIC>MOL_PROPERTY
VdW12
SciTegic.value.DoubleValue
4.445

@<SCITEGIC>MOL_PROPERTY
Bond
SciTegic.value.DoubleValue
0.146

@<SCITEGIC>MOL_PROPERTY
Angle
SciTegic.value.DoubleValue
0.581

@<SCITEGIC>MOL_PROPERTY
Pdih
SciTegic.value.DoubleValue
0.693

@<SCITEGIC>MOL_PROPERTY
Idih
SciTegic.value.DoubleValue
0.000

@<SCITEGIC>MOL_PROPERTY
Tether
SciTegic.value.DoubleValue
0.000

@<TRIPOS>MOLECULE
guest-s9_confgen4.mol2 : confsearch ligand conformer 825
          20          19           1
SMALL
USER_CHARGES
 
@<TRIPOS>ATOM
       1    C1      21.936488   20.192517   23.210916 C.3        1 MOL1        -0.2224
       2    H1      22.916618   20.602393   23.487177 H          1 MOL1         0.1052
       3    H2      21.450167   20.917855   22.546501 H          1 MOL1         0.1052
       4    H3      21.337334   20.111552   24.127188 H          1 MOL1         0.1052
       5    C2      22.097774   18.814946   22.527912 C.3        1 MOL1        -0.1209
       6    H4      22.668380   18.150190   23.191611 H          1 MOL1         0.1041
       7    H5      22.695984   18.924554   21.612327 H          1 MOL1         0.1041
       8    C3      20.744599   18.146773   22.189765 C.3        1 MOL1        -0.1274
       9    H6      20.932674   17.145463   21.780472 H          1 MOL1         0.1041
      10    H7      20.167557   18.005951   23.112750 H          1 MOL1         0.1041
      11    C4      19.919379   18.962089   21.171073 C.3        1 MOL1         0.0313
      12    H8      20.523880   19.125870   20.275348 H          1 MOL1         0.1015
      13    H9      19.667464   19.938130   21.592545 H          1 MOL1         0.1015
      14    N1      18.625715   18.297720   20.728975 N.4        1 MOL1        -0.4809
      15    H10     18.817355   17.356330   20.353774 H          1 MOL1         0.3726
      16    H11     18.222161   18.820919   19.936123 H          1 MOL1         0.3726
      17    C5      17.618334   18.231947   21.871876 C.3        1 MOL1        -0.0677
      18    H12     16.691793   17.783575   21.506572 H          1 MOL1         0.1026
      19    H13     18.026200   17.621894   22.680188 H          1 MOL1         0.1026
      20    H14     17.419722   19.242721   22.234624 H          1 MOL1         0.1026
@<TRIPOS>BOND
    1     1     2    1
    2     1     3    1
    3     1     4    1
    4     1     5    1
    5     5     6    1
    6     5     7    1
    7     5     8    1
    8     8     9    1
    9     8    10    1
   10     8    11    1
   11    11    12    1
   12    11    13    1
   13    11    14    1
   14    14    15    1
   15    14    16    1
   16    14    17    1
   17    17    18    1
   18    17    19    1
   19    17    20    1
@<TRIPOS>SUBSTRUCTURE
       1 MOL1            1 RESIDUE      1      MOL     
@<SCITEGIC>MOL_PROPERTY
VConf Rank
SciTegic.value.IntegerValue
825

@<SCITEGIC>MOL_PROPERTY
Conf_Id
SciTegic.value.IntegerValue
53

@<SCITEGIC>MOL_PROPERTY
Delta U+W
SciTegic.value.DoubleValue
0.379

@<SCITEGIC>MOL_PROPERTY
U+W
SciTegic.value.DoubleValue
15.717

@<SCITEGIC>MOL_PROPERTY
Grad RMS
SciTegic.value.DoubleValue
0.000000

@<SCITEGIC>MOL_PROPERTY
U
SciTegic.value.DoubleValue
70.163

@<SCITEGIC>MOL_PROPERTY
W
SciTegic.value.DoubleValue
-54.446

@<SCITEGIC>MOL_PROPERTY
W(PB)
SciTegic.value.DoubleValue
-56.322

@<SCITEGIC>MOL_PROPERTY
W(SA)
SciTegic.value.DoubleValue
1.876

@<SCITEGIC>MOL_PROPERTY
Valence
SciTegic.value.DoubleValue
1.420

@<SCITEGIC>MOL_PROPERTY
Coulomb
SciTegic.value.DoubleValue
68.566

@<SCITEGIC>MOL_PROPERTY
VdW
SciTegic.value.DoubleValue
0.177

@<SCITEGIC>MOL_PROPERTY
VdW6
SciTegic.value.DoubleValue
-4.267

@<SCITEGIC>MOL_PROPERTY
VdW12
SciTegic.value.DoubleValue
4.445

@<SCITEGIC>MOL_PROPERTY
Bond
SciTegic.value.DoubleValue
0.146

@<SCITEGIC>MOL_PROPERTY
Angle
SciTegic.value.DoubleValue
0.581

@<SCITEGIC>MOL_PROPERTY
Pdih
SciTegic.value.DoubleValue
0.693

@<SCITEGIC>MOL_PROPERTY
Idih
SciTegic.value.DoubleValue
0.000

@<SCITEGIC>MOL_PROPERTY
Tether
SciTegic.value.DoubleValue
0.000

@<TRIPOS>MOLECULE
guest-s9_confgen4.mol2 : confsearch ligand conformer 826
          20          19           1
SMALL
USER_CHARGES
 
@<TRIPOS>ATOM
       1    C1      19.039314   18.779698   24.563082 C.3        1 MOL1        -0.2224
       2    H1      18.138099   19.287419   24.930550 H          1 MOL1         0.1052
       3    H2      19.048128   17.765365   24.982841 H          1 MOL1         0.1052
       4    H3      19.911974   19.318802   24.954226 H          1 MOL1         0.1052
       5    C2      19.054220   18.743550   23.019569 C.3        1 MOL1        -0.1209
       6    H4      19.005637   19.771903   22.636443 H          1 MOL1         0.1041
       7    H5      18.154056   18.226464   22.658310 H          1 MOL1         0.1041
       8    C3      20.316624   18.034210   22.475605 C.3        1 MOL1        -0.1274
       9    H6      21.218311   18.562577   22.811061 H          1 MOL1         0.1041
      10    H7      20.376314   17.023517   22.900557 H          1 MOL1         0.1041
      11    C4      20.321312   17.913809   20.935429 C.3        1 MOL1         0.0313
      12    H8      19.447969   17.336062   20.622204 H          1 MOL1         0.1015
      13    H9      21.214055   17.370716   20.615191 H          1 MOL1         0.1015
      14    N1      20.289204   19.232921   20.178102 N.4        1 MOL1        -0.4809
      15    H10     19.461061   19.781097   20.453261 H          1 MOL1         0.3726
      16    H11     20.162939   19.049064   19.170392 H          1 MOL1         0.3726
      17    C5      21.567772   20.032728   20.402836 C.3        1 MOL1        -0.0677
      18    H12     22.425476   19.436073   20.085023 H          1 MOL1         0.1026
      19    H13     21.522046   20.952916   19.816239 H          1 MOL1         0.1026
      20    H14     21.659536   20.278211   21.462709 H          1 MOL1         0.1026
@<TRIPOS>BOND
    1     1     2    1
    2     1     3    1
    3     1     4    1
    4     1     5    1
    5     5     6    1
    6     5     7    1
    7     5     8    1
    8     8     9    1
    9     8    10    1
   10     8    11    1
   11    11    12    1
   12    11    13    1
   13    11    14    1
   14    14    15    1
   15    14    16    1
   16    14    17    1
   17    17    18    1
   18    17    19    1
   19    17    20    1
@<TRIPOS>SUBSTRUCTURE
       1 MOL1            1 RESIDUE      1      MOL     
@<SCITEGIC>MOL_PROPERTY
VConf Rank
SciTegic.value.IntegerValue
826

@<SCITEGIC>MOL_PROPERTY
Conf_Id
SciTegic.value.IntegerValue
49

@<SCITEGIC>MOL_PROPERTY
Delta U+W
SciTegic.value.DoubleValue
0.268

@<SCITEGIC>MOL_PROPERTY
U+W
SciTegic.value.DoubleValue
15.607

@<SCITEGIC>MOL_PROPERTY
Grad RMS
SciTegic.value.DoubleValue
0.000000

@<SCITEGIC>MOL_PROPERTY
U
SciTegic.value.DoubleValue
70.298

@<SCITEGIC>MOL_PROPERTY
W
SciTegic.value.DoubleValue
-54.692

@<SCITEGIC>MOL_PROPERTY
W(PB)
SciTegic.value.DoubleValue
-56.576

@<SCITEGIC>MOL_PROPERTY
W(SA)
SciTegic.value.DoubleValue
1.885

@<SCITEGIC>MOL_PROPERTY
Valence
SciTegic.value.DoubleValue
1.245

@<SCITEGIC>MOL_PROPERTY
Coulomb
SciTegic.value.DoubleValue
68.933

@<SCITEGIC>MOL_PROPERTY
VdW
SciTegic.value.DoubleValue
0.120

@<SCITEGIC>MOL_PROPERTY
VdW6
SciTegic.value.DoubleValue
-4.430

@<SCITEGIC>MOL_PROPERTY
VdW12
SciTegic.value.DoubleValue
4.550

@<SCITEGIC>MOL_PROPERTY
Bond
SciTegic.value.DoubleValue
0.148

@<SCITEGIC>MOL_PROPERTY
Angle
SciTegic.value.DoubleValue
0.587

@<SCITEGIC>MOL_PROPERTY
Pdih
SciTegic.value.DoubleValue
0.509

@<SCITEGIC>MOL_PROPERTY
Idih
SciTegic.value.DoubleValue
0.000

@<SCITEGIC>MOL_PROPERTY
Tether
SciTegic.value.DoubleValue
0.000

@<TRIPOS>MOLECULE
guest-s9_confgen4.mol2 : confsearch ligand conformer 827
          20          19           1
SMALL
USER_CHARGES
 
@<TRIPOS>ATOM
       1    C1      21.843481   18.937568   24.083017 C.3        1 MOL1        -0.2224
       2    H1      22.789199   18.670569   23.593630 H          1 MOL1         0.1052
       3    H2      21.920839   19.975332   24.432591 H          1 MOL1         0.1052
       4    H3      21.727919   18.294136   24.964856 H          1 MOL1         0.1052
       5    C2      20.649855   18.761843   23.119323 C.3        1 MOL1        -0.1209
       6    H4      19.716684   19.009043   23.644752 H          1 MOL1         0.1041
       7    H5      20.584370   17.705887   22.825697 H          1 MOL1         0.1041
       8    C3      20.793537   19.650316   21.861709 C.3        1 MOL1        -0.1274
       9    H6      20.974733   20.687209   22.174404 H          1 MOL1         0.1041
      10    H7      21.678241   19.342737   21.288778 H          1 MOL1         0.1041
      11    C4      19.554978   19.642202   20.937189 C.3        1 MOL1         0.0313
      12    H8      19.738397   20.347388   20.122441 H          1 MOL1         0.1015
      13    H9      18.672331   19.987574   21.481202 H          1 MOL1         0.1015
      14    N1      19.224581   18.305099   20.292009 N.4        1 MOL1        -0.4809
      15    H10     20.087095   17.770534   20.109942 H          1 MOL1         0.3726
      16    H11     18.814416   18.469429   19.359396 H          1 MOL1         0.3726
      17    C5      18.239803   17.505466   21.139031 C.3        1 MOL1        -0.0677
      18    H12     18.012360   16.566034   20.630412 H          1 MOL1         0.1026
      19    H13     18.677620   17.295666   22.115560 H          1 MOL1         0.1026
      20    H14     17.322798   18.085194   21.264355 H          1 MOL1         0.1026
@<TRIPOS>BOND
    1     1     2    1
    2     1     3    1
    3     1     4    1
    4     1     5    1
    5     5     6    1
    6     5     7    1
    7     5     8    1
    8     8     9    1
    9     8    10    1
   10     8    11    1
   11    11    12    1
   12    11    13    1
   13    11    14    1
   14    14    15    1
   15    14    16    1
   16    14    17    1
   17    17    18    1
   18    17    19    1
   19    17    20    1
@<TRIPOS>SUBSTRUCTURE
       1 MOL1            1 RESIDUE      1      MOL     
@<SCITEGIC>MOL_PROPERTY
VConf Rank
SciTegic.value.IntegerValue
827

@<SCITEGIC>MOL_PROPERTY
Conf_Id
SciTegic.value.IntegerValue
65

@<SCITEGIC>MOL_PROPERTY
Delta U+W
SciTegic.value.DoubleValue
1.775

@<SCITEGIC>MOL_PROPERTY
U+W
SciTegic.value.DoubleValue
17.114

@<SCITEGIC>MOL_PROPERTY
Grad RMS
SciTegic.value.DoubleValue
0.000000

@<SCITEGIC>MOL_PROPERTY
U
SciTegic.value.DoubleValue
71.726

@<SCITEGIC>MOL_PROPERTY
W
SciTegic.value.DoubleValue
-54.613

@<SCITEGIC>MOL_PROPERTY
W(PB)
SciTegic.value.DoubleValue
-56.495

@<SCITEGIC>MOL_PROPERTY
W(SA)
SciTegic.value.DoubleValue
1.883

@<SCITEGIC>MOL_PROPERTY
Valence
SciTegic.value.DoubleValue
2.885

@<SCITEGIC>MOL_PROPERTY
Coulomb
SciTegic.value.DoubleValue
68.822

@<SCITEGIC>MOL_PROPERTY
VdW
SciTegic.value.DoubleValue
0.019

@<SCITEGIC>MOL_PROPERTY
VdW6
SciTegic.value.DoubleValue
-4.600

@<SCITEGIC>MOL_PROPERTY
VdW12
SciTegic.value.DoubleValue
4.619

@<SCITEGIC>MOL_PROPERTY
Bond
SciTegic.value.DoubleValue
0.152

@<SCITEGIC>MOL_PROPERTY
Angle
SciTegic.value.DoubleValue
0.862

@<SCITEGIC>MOL_PROPERTY
Pdih
SciTegic.value.DoubleValue
1.871

@<SCITEGIC>MOL_PROPERTY
Idih
SciTegic.value.DoubleValue
0.000

@<SCITEGIC>MOL_PROPERTY
Tether
SciTegic.value.DoubleValue
0.000

@<TRIPOS>MOLECULE
guest-s9_confgen4.mol2 : confsearch ligand conformer 828
          20          19           1
SMALL
USER_CHARGES
 
@<TRIPOS>ATOM
       1    C1      18.328963   19.970728   20.994865 C.3        1 MOL1        -0.2224
       2    H1      18.061151   19.023196   21.479079 H          1 MOL1         0.1052
       3    H2      17.539336   20.696432   21.229011 H          1 MOL1         0.1052
       4    H3      18.326520   19.812959   19.908507 H          1 MOL1         0.1052
       5    C2      19.702831   20.489517   21.478098 C.3        1 MOL1        -0.1209
       6    H4      19.679495   20.639969   22.565953 H          1 MOL1         0.1041
       7    H5      19.884446   21.480854   21.039607 H          1 MOL1         0.1041
       8    C3      20.875143   19.552412   21.094020 C.3        1 MOL1        -0.1274
       9    H6      20.947958   19.495468   19.999844 H          1 MOL1         0.1041
      10    H7      21.820667   19.990179   21.440561 H          1 MOL1         0.1041
      11    C4      20.743649   18.120590   21.653983 C.3        1 MOL1         0.0313
      12    H8      21.590051   17.519098   21.312879 H          1 MOL1         0.1015
      13    H9      19.827416   17.660502   21.276356 H          1 MOL1         0.1015
      14    N1      20.711605   18.051914   23.168862 N.4        1 MOL1        -0.4809
      15    H10     19.927903   18.615300   23.530658 H          1 MOL1         0.3726
      16    H11     21.563653   18.479850   23.562288 H          1 MOL1         0.3726
      17    C5      20.581990   16.603828   23.621370 C.3        1 MOL1        -0.0677
      18    H12     21.437925   16.034010   23.253339 H          1 MOL1         0.1026
      19    H13     20.558891   16.569591   24.712821 H          1 MOL1         0.1026
      20    H14     19.657630   16.182720   23.220136 H          1 MOL1         0.1026
@<TRIPOS>BOND
    1     1     2    1
    2     1     3    1
    3     1     4    1
    4     1     5    1
    5     5     6    1
    6     5     7    1
    7     5     8    1
    8     8     9    1
    9     8    10    1
   10     8    11    1
   11    11    12    1
   12    11    13    1
   13    11    14    1
   14    14    15    1
   15    14    16    1
   16    14    17    1
   17    17    18    1
   18    17    19    1
   19    17    20    1
@<TRIPOS>SUBSTRUCTURE
       1 MOL1            1 RESIDUE      1      MOL     
@<SCITEGIC>MOL_PROPERTY
VConf Rank
SciTegic.value.IntegerValue
828

@<SCITEGIC>MOL_PROPERTY
Conf_Id
SciTegic.value.IntegerValue
23

@<SCITEGIC>MOL_PROPERTY
Delta U+W
SciTegic.value.DoubleValue
0.896

@<SCITEGIC>MOL_PROPERTY
U+W
SciTegic.value.DoubleValue
16.234

@<SCITEGIC>MOL_PROPERTY
Grad RMS
SciTegic.value.DoubleValue
0.000000

@<SCITEGIC>MOL_PROPERTY
U
SciTegic.value.DoubleValue
70.374

@<SCITEGIC>MOL_PROPERTY
W
SciTegic.value.DoubleValue
-54.140

@<SCITEGIC>MOL_PROPERTY
W(PB)
SciTegic.value.DoubleValue
-56.046

@<SCITEGIC>MOL_PROPERTY
W(SA)
SciTegic.value.DoubleValue
1.907

@<SCITEGIC>MOL_PROPERTY
Valence
SciTegic.value.DoubleValue
1.257

@<SCITEGIC>MOL_PROPERTY
Coulomb
SciTegic.value.DoubleValue
69.240

@<SCITEGIC>MOL_PROPERTY
VdW
SciTegic.value.DoubleValue
-0.123

@<SCITEGIC>MOL_PROPERTY
VdW6
SciTegic.value.DoubleValue
-4.336

@<SCITEGIC>MOL_PROPERTY
VdW12
SciTegic.value.DoubleValue
4.213

@<SCITEGIC>MOL_PROPERTY
Bond
SciTegic.value.DoubleValue
0.128

@<SCITEGIC>MOL_PROPERTY
Angle
SciTegic.value.DoubleValue
0.603

@<SCITEGIC>MOL_PROPERTY
Pdih
SciTegic.value.DoubleValue
0.526

@<SCITEGIC>MOL_PROPERTY
Idih
SciTegic.value.DoubleValue
0.000

@<SCITEGIC>MOL_PROPERTY
Tether
SciTegic.value.DoubleValue
0.000

@<TRIPOS>MOLECULE
guest-s9_confgen4.mol2 : confsearch ligand conformer 829
          20          19           1
SMALL
USER_CHARGES
 
@<TRIPOS>ATOM
       1    C1      19.827119   20.066488   24.005422 C.3        1 MOL1        -0.2224
       2    H1      19.430314   19.448651   24.821445 H          1 MOL1         0.1052
       3    H2      20.010561   21.071844   24.406155 H          1 MOL1         0.1052
       4    H3      19.051485   20.154532   23.234290 H          1 MOL1         0.1052
       5    C2      21.131690   19.463560   23.435560 C.3        1 MOL1        -0.1209
       6    H4      21.904544   19.482002   24.216816 H          1 MOL1         0.1041
       7    H5      21.508527   20.099045   22.622687 H          1 MOL1         0.1041
       8    C3      20.960627   18.006384   22.938192 C.3        1 MOL1        -0.1274
       9    H6      21.925441   17.629821   22.573394 H          1 MOL1         0.1041
      10    H7      20.683742   17.365897   23.786058 H          1 MOL1         0.1041
      11    C4      19.899881   17.841824   21.829722 C.3        1 MOL1         0.0313
      12    H8      18.926286   18.171335   22.200260 H          1 MOL1         0.1015
      13    H9      19.819528   16.785952   21.559136 H          1 MOL1         0.1015
      14    N1      20.205996   18.618940   20.563629 N.4        1 MOL1        -0.4809
      15    H10     21.121955   18.334204   20.184363 H          1 MOL1         0.3726
      16    H11     20.297045   19.622714   20.779585 H          1 MOL1         0.3726
      17    C5      19.106611   18.391502   19.534966 C.3        1 MOL1        -0.0677
      18    H12     18.153255   18.730281   19.946186 H          1 MOL1         0.1026
      19    H13     19.339174   18.957260   18.630089 H          1 MOL1         0.1026
      20    H14     19.049689   17.326724   19.298805 H          1 MOL1         0.1026
@<TRIPOS>BOND
    1     1     2    1
    2     1     3    1
    3     1     4    1
    4     1     5    1
    5     5     6    1
    6     5     7    1
    7     5     8    1
    8     8     9    1
    9     8    10    1
   10     8    11    1
   11    11    12    1
   12    11    13    1
   13    11    14    1
   14    14    15    1
   15    14    16    1
   16    14    17    1
   17    17    18    1
   18    17    19    1
   19    17    20    1
@<TRIPOS>SUBSTRUCTURE
       1 MOL1            1 RESIDUE      1      MOL     
@<SCITEGIC>MOL_PROPERTY
VConf Rank
SciTegic.value.IntegerValue
829

@<SCITEGIC>MOL_PROPERTY
Conf_Id
SciTegic.value.IntegerValue
24

@<SCITEGIC>MOL_PROPERTY
Delta U+W
SciTegic.value.DoubleValue
0.792

@<SCITEGIC>MOL_PROPERTY
U+W
SciTegic.value.DoubleValue
16.130

@<SCITEGIC>MOL_PROPERTY
Grad RMS
SciTegic.value.DoubleValue
0.000000

@<SCITEGIC>MOL_PROPERTY
U
SciTegic.value.DoubleValue
70.374

@<SCITEGIC>MOL_PROPERTY
W
SciTegic.value.DoubleValue
-54.243

@<SCITEGIC>MOL_PROPERTY
W(PB)
SciTegic.value.DoubleValue
-56.130

@<SCITEGIC>MOL_PROPERTY
W(SA)
SciTegic.value.DoubleValue
1.887

@<SCITEGIC>MOL_PROPERTY
Valence
SciTegic.value.DoubleValue
1.257

@<SCITEGIC>MOL_PROPERTY
Coulomb
SciTegic.value.DoubleValue
69.240

@<SCITEGIC>MOL_PROPERTY
VdW
SciTegic.value.DoubleValue
-0.123

@<SCITEGIC>MOL_PROPERTY
VdW6
SciTegic.value.DoubleValue
-4.336

@<SCITEGIC>MOL_PROPERTY
VdW12
SciTegic.value.DoubleValue
4.213

@<SCITEGIC>MOL_PROPERTY
Bond
SciTegic.value.DoubleValue
0.128

@<SCITEGIC>MOL_PROPERTY
Angle
SciTegic.value.DoubleValue
0.603

@<SCITEGIC>MOL_PROPERTY
Pdih
SciTegic.value.DoubleValue
0.526

@<SCITEGIC>MOL_PROPERTY
Idih
SciTegic.value.DoubleValue
0.000

@<SCITEGIC>MOL_PROPERTY
Tether
SciTegic.value.DoubleValue
0.000

@<TRIPOS>MOLECULE
guest-s9_confgen4.mol2 : confsearch ligand conformer 830
          20          19           1
SMALL
USER_CHARGES
 
@<TRIPOS>ATOM
       1    C1      21.508490   17.577382   23.017986 C.3        1 MOL1        -0.2224
       2    H1      22.052200   16.732602   23.460646 H          1 MOL1         0.1052
       3    H2      21.286499   17.306863   21.978953 H          1 MOL1         0.1052
       4    H3      22.181207   18.444893   23.024162 H          1 MOL1         0.1052
       5    C2      20.217468   17.861311   23.819302 C.3        1 MOL1        -0.1209
       6    H4      20.472319   17.914769   24.887132 H          1 MOL1         0.1041
       7    H5      19.527792   17.011956   23.714201 H          1 MOL1         0.1041
       8    C3      19.492001   19.172976   23.424243 C.3        1 MOL1        -0.1274
       9    H6      18.636871   19.303111   24.100730 H          1 MOL1         0.1041
      10    H7      20.145998   20.038126   23.596021 H          1 MOL1         0.1041
      11    C4      18.955837   19.195045   21.977065 C.3        1 MOL1         0.0313
      12    H8      18.167534   19.948126   21.899664 H          1 MOL1         0.1015
      13    H9      18.521641   18.223269   21.729257 H          1 MOL1         0.1015
      14    N1      19.997777   19.537111   20.929042 N.4        1 MOL1        -0.4809
      15    H10     20.792032   18.884941   20.995757 H          1 MOL1         0.3726
      16    H11     20.393623   20.471414   21.114492 H          1 MOL1         0.3726
      17    C5      19.376211   19.485856   19.539999 C.3        1 MOL1        -0.0677
      18    H12     18.993732   18.479984   19.353723 H          1 MOL1         0.1026
      19    H13     18.558731   20.207982   19.484985 H          1 MOL1         0.1026
      20    H14     20.137129   19.734055   18.796782 H          1 MOL1         0.1026
@<TRIPOS>BOND
    1     1     2    1
    2     1     3    1
    3     1     4    1
    4     1     5    1
    5     5     6    1
    6     5     7    1
    7     5     8    1
    8     8     9    1
    9     8    10    1
   10     8    11    1
   11    11    12    1
   12    11    13    1
   13    11    14    1
   14    14    15    1
   15    14    16    1
   16    14    17    1
   17    17    18    1
   18    17    19    1
   19    17    20    1
@<TRIPOS>SUBSTRUCTURE
       1 MOL1            1 RESIDUE      1      MOL     
@<SCITEGIC>MOL_PROPERTY
VConf Rank
SciTegic.value.IntegerValue
830

@<SCITEGIC>MOL_PROPERTY
Conf_Id
SciTegic.value.IntegerValue
26

@<SCITEGIC>MOL_PROPERTY
Delta U+W
SciTegic.value.DoubleValue
2.888

@<SCITEGIC>MOL_PROPERTY
U+W
SciTegic.value.DoubleValue
18.226

@<SCITEGIC>MOL_PROPERTY
Grad RMS
SciTegic.value.DoubleValue
0.000000

@<SCITEGIC>MOL_PROPERTY
U
SciTegic.value.DoubleValue
72.042

@<SCITEGIC>MOL_PROPERTY
W
SciTegic.value.DoubleValue
-53.816

@<SCITEGIC>MOL_PROPERTY
W(PB)
SciTegic.value.DoubleValue
-55.689

@<SCITEGIC>MOL_PROPERTY
W(SA)
SciTegic.value.DoubleValue
1.873

@<SCITEGIC>MOL_PROPERTY
Valence
SciTegic.value.DoubleValue
2.428

@<SCITEGIC>MOL_PROPERTY
Coulomb
SciTegic.value.DoubleValue
69.829

@<SCITEGIC>MOL_PROPERTY
VdW
SciTegic.value.DoubleValue
-0.215

@<SCITEGIC>MOL_PROPERTY
VdW6
SciTegic.value.DoubleValue
-4.563

@<SCITEGIC>MOL_PROPERTY
VdW12
SciTegic.value.DoubleValue
4.348

@<SCITEGIC>MOL_PROPERTY
Bond
SciTegic.value.DoubleValue
0.137

@<SCITEGIC>MOL_PROPERTY
Angle
SciTegic.value.DoubleValue
0.936

@<SCITEGIC>MOL_PROPERTY
Pdih
SciTegic.value.DoubleValue
1.356

@<SCITEGIC>MOL_PROPERTY
Idih
SciTegic.value.DoubleValue
0.000

@<SCITEGIC>MOL_PROPERTY
Tether
SciTegic.value.DoubleValue
0.000

@<TRIPOS>MOLECULE
guest-s9_confgen4.mol2 : confsearch ligand conformer 831
          20          19           1
SMALL
USER_CHARGES
 
@<TRIPOS>ATOM
       1    C1      20.167008   20.674758   20.788737 C.3        1 MOL1        -0.2224
       2    H1      20.070048   21.708189   20.431194 H          1 MOL1         0.1052
       3    H2      20.526080   20.065396   19.949148 H          1 MOL1         0.1052
       4    H3      19.162449   20.336886   21.069371 H          1 MOL1         0.1052
       5    C2      21.142456   20.612499   21.986271 C.3        1 MOL1        -0.1209
       6    H4      20.708928   21.153293   22.839325 H          1 MOL1         0.1041
       7    H5      22.060786   21.154002   21.718854 H          1 MOL1         0.1041
       8    C3      21.531749   19.177124   22.423290 C.3        1 MOL1        -0.1274
       9    H6      22.034621   18.650507   21.601402 H          1 MOL1         0.1041
      10    H7      22.274742   19.258628   23.227738 H          1 MOL1         0.1041
      11    C4      20.355232   18.329647   22.952321 C.3        1 MOL1         0.0313
      12    H8      19.709537   18.946644   23.582144 H          1 MOL1         0.1015
      13    H9      20.749072   17.515326   23.565766 H          1 MOL1         0.1015
      14    N1      19.504674   17.694639   21.868662 N.4        1 MOL1        -0.4809
      15    H10     20.082387   17.070882   21.284556 H          1 MOL1         0.3726
      16    H11     19.150818   18.419489   21.228352 H          1 MOL1         0.3726
      17    C5      18.351598   16.923244   22.496180 C.3        1 MOL1        -0.0677
      18    H12     17.736280   17.609311   23.082238 H          1 MOL1         0.1026
      19    H13     17.748734   16.472095   21.704984 H          1 MOL1         0.1026
      20    H14     18.752745   16.141194   23.144443 H          1 MOL1         0.1026
@<TRIPOS>BOND
    1     1     2    1
    2     1     3    1
    3     1     4    1
    4     1     5    1
    5     5     6    1
    6     5     7    1
    7     5     8    1
    8     8     9    1
    9     8    10    1
   10     8    11    1
   11    11    12    1
   12    11    13    1
   13    11    14    1
   14    14    15    1
   15    14    16    1
   16    14    17    1
   17    17    18    1
   18    17    19    1
   19    17    20    1
@<TRIPOS>SUBSTRUCTURE
       1 MOL1            1 RESIDUE      1      MOL     
@<SCITEGIC>MOL_PROPERTY
VConf Rank
SciTegic.value.IntegerValue
831

@<SCITEGIC>MOL_PROPERTY
Conf_Id
SciTegic.value.IntegerValue
5

@<SCITEGIC>MOL_PROPERTY
Delta U+W
SciTegic.value.DoubleValue
2.950

@<SCITEGIC>MOL_PROPERTY
U+W
SciTegic.value.DoubleValue
18.289

@<SCITEGIC>MOL_PROPERTY
Grad RMS
SciTegic.value.DoubleValue
0.000000

@<SCITEGIC>MOL_PROPERTY
U
SciTegic.value.DoubleValue
72.042

@<SCITEGIC>MOL_PROPERTY
W
SciTegic.value.DoubleValue
-53.753

@<SCITEGIC>MOL_PROPERTY
W(PB)
SciTegic.value.DoubleValue
-55.644

@<SCITEGIC>MOL_PROPERTY
W(SA)
SciTegic.value.DoubleValue
1.891

@<SCITEGIC>MOL_PROPERTY
Valence
SciTegic.value.DoubleValue
2.428

@<SCITEGIC>MOL_PROPERTY
Coulomb
SciTegic.value.DoubleValue
69.829

@<SCITEGIC>MOL_PROPERTY
VdW
SciTegic.value.DoubleValue
-0.215

@<SCITEGIC>MOL_PROPERTY
VdW6
SciTegic.value.DoubleValue
-4.563

@<SCITEGIC>MOL_PROPERTY
VdW12
SciTegic.value.DoubleValue
4.348

@<SCITEGIC>MOL_PROPERTY
Bond
SciTegic.value.DoubleValue
0.137

@<SCITEGIC>MOL_PROPERTY
Angle
SciTegic.value.DoubleValue
0.936

@<SCITEGIC>MOL_PROPERTY
Pdih
SciTegic.value.DoubleValue
1.356

@<SCITEGIC>MOL_PROPERTY
Idih
SciTegic.value.DoubleValue
0.000

@<SCITEGIC>MOL_PROPERTY
Tether
SciTegic.value.DoubleValue
0.000

@<TRIPOS>MOLECULE
guest-s9_confgen4.mol2 : confsearch ligand conformer 832
          20          19           1
SMALL
USER_CHARGES
 
@<TRIPOS>ATOM
       1    C1      20.032758   18.542861   19.586030 C.3        1 MOL1        -0.2224
       2    H1      19.921556   19.485276   19.034172 H          1 MOL1         0.1052
       3    H2      21.078603   18.455110   19.905850 H          1 MOL1         0.1052
       4    H3      19.830242   17.720644   18.887522 H          1 MOL1         0.1052
       5    C2      19.061874   18.485005   20.787769 C.3        1 MOL1        -0.1209
       6    H4      19.188516   17.533194   21.321417 H          1 MOL1         0.1041
       7    H5      18.028847   18.486529   20.412606 H          1 MOL1         0.1041
       8    C3      19.237973   19.671144   21.768258 C.3        1 MOL1        -0.1274
       9    H6      19.014911   20.609343   21.243321 H          1 MOL1         0.1041
      10    H7      18.495359   19.592094   22.572638 H          1 MOL1         0.1041
      11    C4      20.653185   19.775426   22.381310 C.3        1 MOL1         0.0313
      12    H8      20.695206   20.631004   23.060013 H          1 MOL1         0.1015
      13    H9      21.375773   19.949266   21.580233 H          1 MOL1         0.1015
      14    N1      21.116278   18.549688   23.153602 N.4        1 MOL1        -0.4809
      15    H10     22.112321   18.653710   23.402869 H          1 MOL1         0.3726
      16    H11     21.077668   17.716320   22.548531 H          1 MOL1         0.3726
      17    C5      20.284398   18.342999   24.414506 C.3        1 MOL1        -0.0677
      18    H12     19.242458   18.172342   24.136608 H          1 MOL1         0.1026
      19    H13     20.666026   17.475185   24.956875 H          1 MOL1         0.1026
      20    H14     20.359031   19.232293   25.043966 H          1 MOL1         0.1026
@<TRIPOS>BOND
    1     1     2    1
    2     1     3    1
    3     1     4    1
    4     1     5    1
    5     5     6    1
    6     5     7    1
    7     5     8    1
    8     8     9    1
    9     8    10    1
   10     8    11    1
   11    11    12    1
   12    11    13    1
   13    11    14    1
   14    14    15    1
   15    14    16    1
   16    14    17    1
   17    17    18    1
   18    17    19    1
   19    17    20    1
@<TRIPOS>SUBSTRUCTURE
       1 MOL1            1 RESIDUE      1      MOL     
@<SCITEGIC>MOL_PROPERTY
VConf Rank
SciTegic.value.IntegerValue
832

@<SCITEGIC>MOL_PROPERTY
Conf_Id
SciTegic.value.IntegerValue
52

@<SCITEGIC>MOL_PROPERTY
Delta U+W
SciTegic.value.DoubleValue
0.784

@<SCITEGIC>MOL_PROPERTY
U+W
SciTegic.value.DoubleValue
16.122

@<SCITEGIC>MOL_PROPERTY
Grad RMS
SciTegic.value.DoubleValue
0.000000

@<SCITEGIC>MOL_PROPERTY
U
SciTegic.value.DoubleValue
70.777

@<SCITEGIC>MOL_PROPERTY
W
SciTegic.value.DoubleValue
-54.655

@<SCITEGIC>MOL_PROPERTY
W(PB)
SciTegic.value.DoubleValue
-56.491

@<SCITEGIC>MOL_PROPERTY
W(SA)
SciTegic.value.DoubleValue
1.836

@<SCITEGIC>MOL_PROPERTY
Valence
SciTegic.value.DoubleValue
1.529

@<SCITEGIC>MOL_PROPERTY
Coulomb
SciTegic.value.DoubleValue
69.166

@<SCITEGIC>MOL_PROPERTY
VdW
SciTegic.value.DoubleValue
0.082

@<SCITEGIC>MOL_PROPERTY
VdW6
SciTegic.value.DoubleValue
-5.166

@<SCITEGIC>MOL_PROPERTY
VdW12
SciTegic.value.DoubleValue
5.248

@<SCITEGIC>MOL_PROPERTY
Bond
SciTegic.value.DoubleValue
0.171

@<SCITEGIC>MOL_PROPERTY
Angle
SciTegic.value.DoubleValue
0.752

@<SCITEGIC>MOL_PROPERTY
Pdih
SciTegic.value.DoubleValue
0.605

@<SCITEGIC>MOL_PROPERTY
Idih
SciTegic.value.DoubleValue
0.000

@<SCITEGIC>MOL_PROPERTY
Tether
SciTegic.value.DoubleValue
0.000

@<TRIPOS>MOLECULE
guest-s9_confgen4.mol2 : confsearch ligand conformer 833
          20          19           1
SMALL
USER_CHARGES
 
@<TRIPOS>ATOM
       1    C1      19.720122   20.875575   22.709985 C.3        1 MOL1        -0.2224
       2    H1      19.522965   21.823548   23.227330 H          1 MOL1         0.1052
       3    H2      20.808745   20.764559   22.648935 H          1 MOL1         0.1052
       4    H3      19.314229   20.960659   21.693462 H          1 MOL1         0.1052
       5    C2      19.070689   19.701745   23.477921 C.3        1 MOL1        -0.1209
       6    H4      18.031616   19.971628   23.713542 H          1 MOL1         0.1041
       7    H5      19.576605   19.570559   24.444801 H          1 MOL1         0.1041
       8    C3      19.060406   18.357485   22.706116 C.3        1 MOL1        -0.1274
       9    H6      18.496018   17.630494   23.304896 H          1 MOL1         0.1041
      10    H7      18.503971   18.463460   21.766408 H          1 MOL1         0.1041
      11    C4      20.460731   17.756997   22.441439 C.3        1 MOL1         0.0313
      12    H8      20.358153   16.693881   22.209740 H          1 MOL1         0.1015
      13    H9      21.063085   17.843379   23.349280 H          1 MOL1         0.1015
      14    N1      21.244294   18.385693   21.299824 N.4        1 MOL1        -0.4809
      15    H10     22.220957   18.053202   21.326955 H          1 MOL1         0.3726
      16    H11     21.301867   19.405235   21.430443 H          1 MOL1         0.3726
      17    C5      20.620942   18.048712   19.949788 C.3        1 MOL1        -0.0677
      18    H12     20.586055   16.963664   19.831061 H          1 MOL1         0.1026
      19    H13     19.610345   18.458824   19.903753 H          1 MOL1         0.1026
      20    H14     21.229924   18.485991   19.155533 H          1 MOL1         0.1026
@<TRIPOS>BOND
    1     1     2    1
    2     1     3    1
    3     1     4    1
    4     1     5    1
    5     5     6    1
    6     5     7    1
    7     5     8    1
    8     8     9    1
    9     8    10    1
   10     8    11    1
   11    11    12    1
   12    11    13    1
   13    11    14    1
   14    14    15    1
   15    14    16    1
   16    14    17    1
   17    17    18    1
   18    17    19    1
   19    17    20    1
@<TRIPOS>SUBSTRUCTURE
       1 MOL1            1 RESIDUE      1      MOL     
@<SCITEGIC>MOL_PROPERTY
VConf Rank
SciTegic.value.IntegerValue
833

@<SCITEGIC>MOL_PROPERTY
Conf_Id
SciTegic.value.IntegerValue
55

@<SCITEGIC>MOL_PROPERTY
Delta U+W
SciTegic.value.DoubleValue
2.745

@<SCITEGIC>MOL_PROPERTY
U+W
SciTegic.value.DoubleValue
18.083

@<SCITEGIC>MOL_PROPERTY
Grad RMS
SciTegic.value.DoubleValue
0.000000

@<SCITEGIC>MOL_PROPERTY
U
SciTegic.value.DoubleValue
72.490

@<SCITEGIC>MOL_PROPERTY
W
SciTegic.value.DoubleValue
-54.407

@<SCITEGIC>MOL_PROPERTY
W(PB)
SciTegic.value.DoubleValue
-56.269

@<SCITEGIC>MOL_PROPERTY
W(SA)
SciTegic.value.DoubleValue
1.861

@<SCITEGIC>MOL_PROPERTY
Valence
SciTegic.value.DoubleValue
2.738

@<SCITEGIC>MOL_PROPERTY
Coulomb
SciTegic.value.DoubleValue
69.795

@<SCITEGIC>MOL_PROPERTY
VdW
SciTegic.value.DoubleValue
-0.043

@<SCITEGIC>MOL_PROPERTY
VdW6
SciTegic.value.DoubleValue
-5.333

@<SCITEGIC>MOL_PROPERTY
VdW12
SciTegic.value.DoubleValue
5.290

@<SCITEGIC>MOL_PROPERTY
Bond
SciTegic.value.DoubleValue
0.182

@<SCITEGIC>MOL_PROPERTY
Angle
SciTegic.value.DoubleValue
1.135

@<SCITEGIC>MOL_PROPERTY
Pdih
SciTegic.value.DoubleValue
1.422

@<SCITEGIC>MOL_PROPERTY
Idih
SciTegic.value.DoubleValue
0.000

@<SCITEGIC>MOL_PROPERTY
Tether
SciTegic.value.DoubleValue
0.000

@<TRIPOS>MOLECULE
guest-s9_confgen4.mol2 : confsearch ligand conformer 834
          20          19           1
SMALL
USER_CHARGES
 
@<TRIPOS>ATOM
       1    C1      20.331324   20.593842   20.945256 C.3        1 MOL1        -0.2224
       2    H1      20.591030   21.580069   20.538959 H          1 MOL1         0.1052
       3    H2      20.526673   19.849514   20.162235 H          1 MOL1         0.1052
       4    H3      19.256691   20.608916   21.159936 H          1 MOL1         0.1052
       5    C2      21.161451   20.303281   22.216411 C.3        1 MOL1        -0.1209
       6    H4      20.859912   20.992530   23.017678 H          1 MOL1         0.1041
       7    H5      22.215863   20.528758   22.003339 H          1 MOL1         0.1041
       8    C3      21.069994   18.840867   22.722190 C.3        1 MOL1        -0.1274
       9    H6      21.427063   18.148775   21.949265 H          1 MOL1         0.1041
      10    H7      21.767369   18.731924   23.563253 H          1 MOL1         0.1041
      11    C4      19.668187   18.419157   23.220839 C.3        1 MOL1         0.0313
      12    H8      19.252876   19.220727   23.836850 H          1 MOL1         0.1015
      13    H9      19.762639   17.530526   23.849994 H          1 MOL1         0.1015
      14    N1      18.653121   18.089300   22.137628 N.4        1 MOL1        -0.4809
      15    H10     18.584516   18.868913   21.468798 H          1 MOL1         0.3726
      16    H11     17.713776   18.008702   22.557501 H          1 MOL1         0.3726
      17    C5      19.011571   16.792528   21.420262 C.3        1 MOL1        -0.0677
      18    H12     19.977553   16.906499   20.924774 H          1 MOL1         0.1026
      19    H13     19.062757   15.981035   22.149302 H          1 MOL1         0.1026
      20    H14     18.242787   16.570790   20.676814 H          1 MOL1         0.1026
@<TRIPOS>BOND
    1     1     2    1
    2     1     3    1
    3     1     4    1
    4     1     5    1
    5     5     6    1
    6     5     7    1
    7     5     8    1
    8     8     9    1
    9     8    10    1
   10     8    11    1
   11    11    12    1
   12    11    13    1
   13    11    14    1
   14    14    15    1
   15    14    16    1
   16    14    17    1
   17    17    18    1
   18    17    19    1
   19    17    20    1
@<TRIPOS>SUBSTRUCTURE
       1 MOL1            1 RESIDUE      1      MOL     
@<SCITEGIC>MOL_PROPERTY
VConf Rank
SciTegic.value.IntegerValue
834

@<SCITEGIC>MOL_PROPERTY
Conf_Id
SciTegic.value.IntegerValue
76

@<SCITEGIC>MOL_PROPERTY
Delta U+W
SciTegic.value.DoubleValue
2.799

@<SCITEGIC>MOL_PROPERTY
U+W
SciTegic.value.DoubleValue
18.137

@<SCITEGIC>MOL_PROPERTY
Grad RMS
SciTegic.value.DoubleValue
0.000000

@<SCITEGIC>MOL_PROPERTY
U
SciTegic.value.DoubleValue
72.490

@<SCITEGIC>MOL_PROPERTY
W
SciTegic.value.DoubleValue
-54.353

@<SCITEGIC>MOL_PROPERTY
W(PB)
SciTegic.value.DoubleValue
-56.201

@<SCITEGIC>MOL_PROPERTY
W(SA)
SciTegic.value.DoubleValue
1.848

@<SCITEGIC>MOL_PROPERTY
Valence
SciTegic.value.DoubleValue
2.738

@<SCITEGIC>MOL_PROPERTY
Coulomb
SciTegic.value.DoubleValue
69.795

@<SCITEGIC>MOL_PROPERTY
VdW
SciTegic.value.DoubleValue
-0.043

@<SCITEGIC>MOL_PROPERTY
VdW6
SciTegic.value.DoubleValue
-5.334

@<SCITEGIC>MOL_PROPERTY
VdW12
SciTegic.value.DoubleValue
5.290

@<SCITEGIC>MOL_PROPERTY
Bond
SciTegic.value.DoubleValue
0.182

@<SCITEGIC>MOL_PROPERTY
Angle
SciTegic.value.DoubleValue
1.135

@<SCITEGIC>MOL_PROPERTY
Pdih
SciTegic.value.DoubleValue
1.421

@<SCITEGIC>MOL_PROPERTY
Idih
SciTegic.value.DoubleValue
0.000

@<SCITEGIC>MOL_PROPERTY
Tether
SciTegic.value.DoubleValue
0.000

@<TRIPOS>MOLECULE
guest-s9_confgen4.mol2 : confsearch ligand conformer 835
          20          19           1
SMALL
USER_CHARGES
 
@<TRIPOS>ATOM
       1    C1      21.889256   17.642354   21.618663 C.3        1 MOL1        -0.2224
       2    H1      21.898459   18.263221   22.522814 H          1 MOL1         0.1052
       3    H2      21.898858   16.589244   21.928210 H          1 MOL1         0.1052
       4    H3      22.820696   17.838714   21.072122 H          1 MOL1         0.1052
       5    C2      20.662914   17.947367   20.727813 C.3        1 MOL1        -0.1209
       6    H4      20.738945   17.354186   19.805756 H          1 MOL1         0.1041
       7    H5      20.679840   18.997323   20.408333 H          1 MOL1         0.1041
       8    C3      19.315357   17.620659   21.416869 C.3        1 MOL1        -0.1274
       9    H6      18.492354   17.818283   20.717570 H          1 MOL1         0.1041
      10    H7      19.280211   16.543207   21.625454 H          1 MOL1         0.1041
      11    C4      19.047235   18.376924   22.739312 C.3        1 MOL1         0.0313
      12    H8      19.857624   18.204649   23.451461 H          1 MOL1         0.1015
      13    H9      18.132106   17.969784   23.176852 H          1 MOL1         0.1015
      14    N1      18.832063   19.877295   22.606906 N.4        1 MOL1        -0.4809
      15    H10     18.181216   20.192795   23.342880 H          1 MOL1         0.3726
      16    H11     18.351768   20.094323   21.720983 H          1 MOL1         0.3726
      17    C5      20.141334   20.648733   22.733157 C.3        1 MOL1        -0.0677
      18    H12     19.933302   21.718605   22.662288 H          1 MOL1         0.1026
      19    H13     20.595298   20.427225   23.701373 H          1 MOL1         0.1026
      20    H14     20.821135   20.355201   21.932700 H          1 MOL1         0.1026
@<TRIPOS>BOND
    1     1     2    1
    2     1     3    1
    3     1     4    1
    4     1     5    1
    5     5     6    1
    6     5     7    1
    7     5     8    1
    8     8     9    1
    9     8    10    1
   10     8    11    1
   11    11    12    1
   12    11    13    1
   13    11    14    1
   14    14    15    1
   15    14    16    1
   16    14    17    1
   17    17    18    1
   18    17    19    1
   19    17    20    1
@<TRIPOS>SUBSTRUCTURE
       1 MOL1            1 RESIDUE      1      MOL     
@<SCITEGIC>MOL_PROPERTY
VConf Rank
SciTegic.value.IntegerValue
835

@<SCITEGIC>MOL_PROPERTY
Conf_Id
SciTegic.value.IntegerValue
60

@<SCITEGIC>MOL_PROPERTY
Delta U+W
SciTegic.value.DoubleValue
1.788

@<SCITEGIC>MOL_PROPERTY
U+W
SciTegic.value.DoubleValue
17.127

@<SCITEGIC>MOL_PROPERTY
Grad RMS
SciTegic.value.DoubleValue
0.000000

@<SCITEGIC>MOL_PROPERTY
U
SciTegic.value.DoubleValue
72.122

@<SCITEGIC>MOL_PROPERTY
W
SciTegic.value.DoubleValue
-54.995

@<SCITEGIC>MOL_PROPERTY
W(PB)
SciTegic.value.DoubleValue
-56.810

@<SCITEGIC>MOL_PROPERTY
W(SA)
SciTegic.value.DoubleValue
1.815

@<SCITEGIC>MOL_PROPERTY
Valence
SciTegic.value.DoubleValue
3.197

@<SCITEGIC>MOL_PROPERTY
Coulomb
SciTegic.value.DoubleValue
69.115

@<SCITEGIC>MOL_PROPERTY
VdW
SciTegic.value.DoubleValue
-0.190

@<SCITEGIC>MOL_PROPERTY
VdW6
SciTegic.value.DoubleValue
-5.585

@<SCITEGIC>MOL_PROPERTY
VdW12
SciTegic.value.DoubleValue
5.395

@<SCITEGIC>MOL_PROPERTY
Bond
SciTegic.value.DoubleValue
0.177

@<SCITEGIC>MOL_PROPERTY
Angle
SciTegic.value.DoubleValue
1.207

@<SCITEGIC>MOL_PROPERTY
Pdih
SciTegic.value.DoubleValue
1.813

@<SCITEGIC>MOL_PROPERTY
Idih
SciTegic.value.DoubleValue
0.000

@<SCITEGIC>MOL_PROPERTY
Tether
SciTegic.value.DoubleValue
0.000

@<TRIPOS>MOLECULE
guest-s9_confgen4.mol2 : confsearch ligand conformer 836
          20          19           1
SMALL
USER_CHARGES
 
@<TRIPOS>ATOM
       1    C1      18.762920   18.931203   23.629813 C.3        1 MOL1        -0.2224
       2    H1      17.710969   18.663094   23.792169 H          1 MOL1         0.1052
       3    H2      19.183857   19.234364   24.597210 H          1 MOL1         0.1052
       4    H3      18.783875   19.800821   22.961699 H          1 MOL1         0.1052
       5    C2      19.542271   17.734994   23.036299 C.3        1 MOL1        -0.1209
       6    H4      19.095776   17.429677   22.081215 H          1 MOL1         0.1041
       7    H5      19.430129   16.871650   23.707040 H          1 MOL1         0.1041
       8    C3      21.051891   18.025295   22.851303 C.3        1 MOL1        -0.1274
       9    H6      21.495180   18.219060   23.836998 H          1 MOL1         0.1041
      10    H7      21.550875   17.125058   22.469209 H          1 MOL1         0.1041
      11    C4      21.388321   19.219818   21.927936 C.3        1 MOL1         0.0313
      12    H8      22.467018   19.388265   21.979957 H          1 MOL1         0.1015
      13    H9      20.895722   20.128840   22.280909 H          1 MOL1         0.1015
      14    N1      21.051646   19.028834   20.456503 N.4        1 MOL1        -0.4809
      15    H10     21.184844   18.044008   20.182600 H          1 MOL1         0.3726
      16    H11     21.728730   19.555145   19.882611 H          1 MOL1         0.3726
      17    C5      19.641381   19.510185   20.132931 C.3        1 MOL1        -0.0677
      18    H12     19.554956   20.566817   20.394941 H          1 MOL1         0.1026
      19    H13     19.456932   19.381525   19.064123 H          1 MOL1         0.1026
      20    H14     18.913989   18.929855   20.701385 H          1 MOL1         0.1026
@<TRIPOS>BOND
    1     1     2    1
    2     1     3    1
    3     1     4    1
    4     1     5    1
    5     5     6    1
    6     5     7    1
    7     5     8    1
    8     8     9    1
    9     8    10    1
   10     8    11    1
   11    11    12    1
   12    11    13    1
   13    11    14    1
   14    14    15    1
   15    14    16    1
   16    14    17    1
   17    17    18    1
   18    17    19    1
   19    17    20    1
@<TRIPOS>SUBSTRUCTURE
       1 MOL1            1 RESIDUE      1      MOL     
@<SCITEGIC>MOL_PROPERTY
VConf Rank
SciTegic.value.IntegerValue
836

@<SCITEGIC>MOL_PROPERTY
Conf_Id
SciTegic.value.IntegerValue
54

@<SCITEGIC>MOL_PROPERTY
Delta U+W
SciTegic.value.DoubleValue
1.880

@<SCITEGIC>MOL_PROPERTY
U+W
SciTegic.value.DoubleValue
17.218

@<SCITEGIC>MOL_PROPERTY
Grad RMS
SciTegic.value.DoubleValue
0.000000

@<SCITEGIC>MOL_PROPERTY
U
SciTegic.value.DoubleValue
72.122

@<SCITEGIC>MOL_PROPERTY
W
SciTegic.value.DoubleValue
-54.903

@<SCITEGIC>MOL_PROPERTY
W(PB)
SciTegic.value.DoubleValue
-56.724

@<SCITEGIC>MOL_PROPERTY
W(SA)
SciTegic.value.DoubleValue
1.821

@<SCITEGIC>MOL_PROPERTY
Valence
SciTegic.value.DoubleValue
3.197

@<SCITEGIC>MOL_PROPERTY
Coulomb
SciTegic.value.DoubleValue
69.115

@<SCITEGIC>MOL_PROPERTY
VdW
SciTegic.value.DoubleValue
-0.190

@<SCITEGIC>MOL_PROPERTY
VdW6
SciTegic.value.DoubleValue
-5.585

@<SCITEGIC>MOL_PROPERTY
VdW12
SciTegic.value.DoubleValue
5.395

@<SCITEGIC>MOL_PROPERTY
Bond
SciTegic.value.DoubleValue
0.177

@<SCITEGIC>MOL_PROPERTY
Angle
SciTegic.value.DoubleValue
1.207

@<SCITEGIC>MOL_PROPERTY
Pdih
SciTegic.value.DoubleValue
1.813

@<SCITEGIC>MOL_PROPERTY
Idih
SciTegic.value.DoubleValue
0.000

@<SCITEGIC>MOL_PROPERTY
Tether
SciTegic.value.DoubleValue
0.000

@<TRIPOS>MOLECULE
guest-s9_confgen4.mol2 : confsearch ligand conformer 837
          20          19           1
SMALL
USER_CHARGES
 
@<TRIPOS>ATOM
       1    C1      19.593850   20.860330   24.443248 C.3        1 MOL1        -0.2224
       2    H1      20.594939   21.310758   24.432614 H          1 MOL1         0.1052
       3    H2      18.873114   21.649167   24.694846 H          1 MOL1         0.1052
       4    H3      19.565110   20.110782   25.244826 H          1 MOL1         0.1052
       5    C2      19.254335   20.226729   23.076678 C.3        1 MOL1        -0.1209
       6    H4      19.256875   21.006555   22.301943 H          1 MOL1         0.1041
       7    H5      18.235198   19.815946   23.107793 H          1 MOL1         0.1041
       8    C3      20.253397   19.111892   22.696184 C.3        1 MOL1        -0.1274
       9    H6      21.270788   19.523845   22.661895 H          1 MOL1         0.1041
      10    H7      20.247812   18.331652   23.468945 H          1 MOL1         0.1041
      11    C4      19.908063   18.485100   21.332565 C.3        1 MOL1         0.0313
      12    H8      19.927922   19.256307   20.558398 H          1 MOL1         0.1015
      13    H9      18.901756   18.060161   21.368094 H          1 MOL1         0.1015
      14    N1      20.863643   17.383872   20.916789 N.4        1 MOL1        -0.4809
      15    H10     20.879139   16.637507   21.628728 H          1 MOL1         0.3726
      16    H11     21.829209   17.744994   20.879006 H          1 MOL1         0.3726
      17    C5      20.450980   16.821467   19.563059 C.3        1 MOL1        -0.0677
      18    H12     20.474974   17.620496   18.818892 H          1 MOL1         0.1026
      19    H13     21.146998   16.030152   19.276022 H          1 MOL1         0.1026
      20    H14     19.440215   16.414140   19.635497 H          1 MOL1         0.1026
@<TRIPOS>BOND
    1     1     2    1
    2     1     3    1
    3     1     4    1
    4     1     5    1
    5     5     6    1
    6     5     7    1
    7     5     8    1
    8     8     9    1
    9     8    10    1
   10     8    11    1
   11    11    12    1
   12    11    13    1
   13    11    14    1
   14    14    15    1
   15    14    16    1
   16    14    17    1
   17    17    18    1
   18    17    19    1
   19    17    20    1
@<TRIPOS>SUBSTRUCTURE
       1 MOL1            1 RESIDUE      1      MOL     
@<SCITEGIC>MOL_PROPERTY
VConf Rank
SciTegic.value.IntegerValue
837

@<SCITEGIC>MOL_PROPERTY
Conf_Id
SciTegic.value.IntegerValue
67

@<SCITEGIC>MOL_PROPERTY
Delta U+W
SciTegic.value.DoubleValue
0.000

@<SCITEGIC>MOL_PROPERTY
U+W
SciTegic.value.DoubleValue
15.338

@<SCITEGIC>MOL_PROPERTY
Grad RMS
SciTegic.value.DoubleValue
0.000000

@<SCITEGIC>MOL_PROPERTY
U
SciTegic.value.DoubleValue
69.277

@<SCITEGIC>MOL_PROPERTY
W
SciTegic.value.DoubleValue
-53.939

@<SCITEGIC>MOL_PROPERTY
W(PB)
SciTegic.value.DoubleValue
-55.889

@<SCITEGIC>MOL_PROPERTY
W(SA)
SciTegic.value.DoubleValue
1.950

@<SCITEGIC>MOL_PROPERTY
Valence
SciTegic.value.DoubleValue
0.846

@<SCITEGIC>MOL_PROPERTY
Coulomb
SciTegic.value.DoubleValue
68.557

@<SCITEGIC>MOL_PROPERTY
VdW
SciTegic.value.DoubleValue
-0.127

@<SCITEGIC>MOL_PROPERTY
VdW6
SciTegic.value.DoubleValue
-3.008

@<SCITEGIC>MOL_PROPERTY
VdW12
SciTegic.value.DoubleValue
2.882

@<SCITEGIC>MOL_PROPERTY
Bond
SciTegic.value.DoubleValue
0.088

@<SCITEGIC>MOL_PROPERTY
Angle
SciTegic.value.DoubleValue
0.332

@<SCITEGIC>MOL_PROPERTY
Pdih
SciTegic.value.DoubleValue
0.426

@<SCITEGIC>MOL_PROPERTY
Idih
SciTegic.value.DoubleValue
0.000

@<SCITEGIC>MOL_PROPERTY
Tether
SciTegic.value.DoubleValue
0.000

@<TRIPOS>MOLECULE
guest-s9_confgen4.mol2 : confsearch ligand conformer 838
          20          19           1
SMALL
USER_CHARGES
 
@<TRIPOS>ATOM
       1    C1      20.594224   15.995272   21.314004 C.3        1 MOL1        -0.2224
       2    H1      19.525877   15.772792   21.433614 H          1 MOL1         0.1052
       3    H2      20.984224   15.351135   20.515250 H          1 MOL1         0.1052
       4    H3      21.106318   15.722420   22.245927 H          1 MOL1         0.1052
       5    C2      20.817521   17.484379   20.971995 C.3        1 MOL1        -0.1209
       6    H4      20.322822   17.718251   20.018631 H          1 MOL1         0.1041
       7    H5      21.891167   17.667928   20.823998 H          1 MOL1         0.1041
       8    C3      20.278086   18.415599   22.079934 C.3        1 MOL1        -0.1274
       9    H6      19.206151   18.228792   22.224196 H          1 MOL1         0.1041
      10    H7      20.775775   18.184357   23.030962 H          1 MOL1         0.1041
      11    C4      20.507065   19.900533   21.729914 C.3        1 MOL1         0.0313
      12    H8      19.974330   20.151269   20.809203 H          1 MOL1         0.1015
      13    H9      21.574070   20.063884   21.558171 H          1 MOL1         0.1015
      14    N1      20.067912   20.879675   22.806570 N.4        1 MOL1        -0.4809
      15    H10     20.402567   21.826694   22.568983 H          1 MOL1         0.3726
      16    H11     20.526523   20.654950   23.702646 H          1 MOL1         0.3726
      17    C5      18.550826   20.890872   22.960968 C.3        1 MOL1        -0.0677
      18    H12     18.211015   19.902686   23.277041 H          1 MOL1         0.1026
      19    H13     18.273500   21.631523   23.714293 H          1 MOL1         0.1026
      20    H14     18.093960   21.151138   22.003762 H          1 MOL1         0.1026
@<TRIPOS>BOND
    1     1     2    1
    2     1     3    1
    3     1     4    1
    4     1     5    1
    5     5     6    1
    6     5     7    1
    7     5     8    1
    8     8     9    1
    9     8    10    1
   10     8    11    1
   11    11    12    1
   12    11    13    1
   13    11    14    1
   14    14    15    1
   15    14    16    1
   16    14    17    1
   17    17    18    1
   18    17    19    1
   19    17    20    1
@<TRIPOS>SUBSTRUCTURE
       1 MOL1            1 RESIDUE      1      MOL     
@<SCITEGIC>MOL_PROPERTY
VConf Rank
SciTegic.value.IntegerValue
838

@<SCITEGIC>MOL_PROPERTY
Conf_Id
SciTegic.value.IntegerValue
37

@<SCITEGIC>MOL_PROPERTY
Delta U+W
SciTegic.value.DoubleValue
-0.021

@<SCITEGIC>MOL_PROPERTY
U+W
SciTegic.value.DoubleValue
15.318

@<SCITEGIC>MOL_PROPERTY
Grad RMS
SciTegic.value.DoubleValue
0.000000

@<SCITEGIC>MOL_PROPERTY
U
SciTegic.value.DoubleValue
69.657

@<SCITEGIC>MOL_PROPERTY
W
SciTegic.value.DoubleValue
-54.340

@<SCITEGIC>MOL_PROPERTY
W(PB)
SciTegic.value.DoubleValue
-56.238

@<SCITEGIC>MOL_PROPERTY
W(SA)
SciTegic.value.DoubleValue
1.899

@<SCITEGIC>MOL_PROPERTY
Valence
SciTegic.value.DoubleValue
1.137

@<SCITEGIC>MOL_PROPERTY
Coulomb
SciTegic.value.DoubleValue
68.383

@<SCITEGIC>MOL_PROPERTY
VdW
SciTegic.value.DoubleValue
0.138

@<SCITEGIC>MOL_PROPERTY
VdW6
SciTegic.value.DoubleValue
-3.703

@<SCITEGIC>MOL_PROPERTY
VdW12
SciTegic.value.DoubleValue
3.841

@<SCITEGIC>MOL_PROPERTY
Bond
SciTegic.value.DoubleValue
0.125

@<SCITEGIC>MOL_PROPERTY
Angle
SciTegic.value.DoubleValue
0.468

@<SCITEGIC>MOL_PROPERTY
Pdih
SciTegic.value.DoubleValue
0.543

@<SCITEGIC>MOL_PROPERTY
Idih
SciTegic.value.DoubleValue
0.000

@<SCITEGIC>MOL_PROPERTY
Tether
SciTegic.value.DoubleValue
0.000

@<TRIPOS>MOLECULE
guest-s9_confgen4.mol2 : confsearch ligand conformer 839
          20          19           1
SMALL
USER_CHARGES
 
@<TRIPOS>ATOM
       1    C1      21.129592   20.829035   20.098628 C.3        1 MOL1        -0.2224
       2    H1      21.190386   21.080691   19.031860 H          1 MOL1         0.1052
       3    H2      20.554010   21.619260   20.598046 H          1 MOL1         0.1052
       4    H3      22.149262   20.840328   20.505219 H          1 MOL1         0.1052
       5    C2      20.467039   19.448423   20.296617 C.3        1 MOL1        -0.1209
       6    H4      21.045475   18.685165   19.757027 H          1 MOL1         0.1041
       7    H5      19.462724   19.457912   19.849864 H          1 MOL1         0.1041
       8    C3      20.368227   19.067355   21.790173 C.3        1 MOL1        -0.1274
       9    H6      21.372137   19.053874   22.234702 H          1 MOL1         0.1041
      10    H7      19.790076   19.832045   22.324724 H          1 MOL1         0.1041
      11    C4      19.706611   17.686369   21.977558 C.3        1 MOL1         0.0313
      12    H8      20.274749   16.941654   21.414267 H          1 MOL1         0.1015
      13    H9      18.688469   17.705674   21.580826 H          1 MOL1         0.1015
      14    N1      19.638710   17.207312   23.418616 N.4        1 MOL1        -0.4809
      15    H10     20.580273   17.206087   23.839607 H          1 MOL1         0.3726
      16    H11     19.338625   16.220008   23.440233 H          1 MOL1         0.3726
      17    C5      18.677238   18.058209   24.241454 C.3        1 MOL1        -0.0677
      18    H12     17.685962   18.024426   23.784360 H          1 MOL1         0.1026
      19    H13     18.627466   17.660376   25.257439 H          1 MOL1         0.1026
      20    H14     19.037362   19.088464   24.269245 H          1 MOL1         0.1026
@<TRIPOS>BOND
    1     1     2    1
    2     1     3    1
    3     1     4    1
    4     1     5    1
    5     5     6    1
    6     5     7    1
    7     5     8    1
    8     8     9    1
    9     8    10    1
   10     8    11    1
   11    11    12    1
   12    11    13    1
   13    11    14    1
   14    14    15    1
   15    14    16    1
   16    14    17    1
   17    17    18    1
   18    17    19    1
   19    17    20    1
@<TRIPOS>SUBSTRUCTURE
       1 MOL1            1 RESIDUE      1      MOL     
@<SCITEGIC>MOL_PROPERTY
VConf Rank
SciTegic.value.IntegerValue
839

@<SCITEGIC>MOL_PROPERTY
Conf_Id
SciTegic.value.IntegerValue
2

@<SCITEGIC>MOL_PROPERTY
Delta U+W
SciTegic.value.DoubleValue
0.069

@<SCITEGIC>MOL_PROPERTY
U+W
SciTegic.value.DoubleValue
15.407

@<SCITEGIC>MOL_PROPERTY
Grad RMS
SciTegic.value.DoubleValue
0.000000

@<SCITEGIC>MOL_PROPERTY
U
SciTegic.value.DoubleValue
69.657

@<SCITEGIC>MOL_PROPERTY
W
SciTegic.value.DoubleValue
-54.250

@<SCITEGIC>MOL_PROPERTY
W(PB)
SciTegic.value.DoubleValue
-56.176

@<SCITEGIC>MOL_PROPERTY
W(SA)
SciTegic.value.DoubleValue
1.926

@<SCITEGIC>MOL_PROPERTY
Valence
SciTegic.value.DoubleValue
1.137

@<SCITEGIC>MOL_PROPERTY
Coulomb
SciTegic.value.DoubleValue
68.383

@<SCITEGIC>MOL_PROPERTY
VdW
SciTegic.value.DoubleValue
0.138

@<SCITEGIC>MOL_PROPERTY
VdW6
SciTegic.value.DoubleValue
-3.703

@<SCITEGIC>MOL_PROPERTY
VdW12
SciTegic.value.DoubleValue
3.841

@<SCITEGIC>MOL_PROPERTY
Bond
SciTegic.value.DoubleValue
0.125

@<SCITEGIC>MOL_PROPERTY
Angle
SciTegic.value.DoubleValue
0.468

@<SCITEGIC>MOL_PROPERTY
Pdih
SciTegic.value.DoubleValue
0.543

@<SCITEGIC>MOL_PROPERTY
Idih
SciTegic.value.DoubleValue
0.000

@<SCITEGIC>MOL_PROPERTY
Tether
SciTegic.value.DoubleValue
0.000

@<TRIPOS>MOLECULE
guest-s9_confgen4.mol2 : confsearch ligand conformer 840
          20          19           1
SMALL
USER_CHARGES
 
@<TRIPOS>ATOM
       1    C1      18.280189   20.718383   21.570760 C.3        1 MOL1        -0.2224
       2    H1      19.288808   20.995055   21.238792 H          1 MOL1         0.1052
       3    H2      17.765577   20.229388   20.733408 H          1 MOL1         0.1052
       4    H3      17.740852   21.646974   21.798409 H          1 MOL1         0.1052
       5    C2      18.322484   19.797832   22.812165 C.3        1 MOL1        -0.1209
       6    H4      17.296001   19.623404   23.164188 H          1 MOL1         0.1041
       7    H5      18.847370   20.307961   23.632208 H          1 MOL1         0.1041
       8    C3      18.995707   18.434043   22.531044 C.3        1 MOL1        -0.1274
       9    H6      18.921082   17.806868   23.429342 H          1 MOL1         0.1041
      10    H7      18.448871   17.910726   21.735447 H          1 MOL1         0.1041
      11    C4      20.478329   18.574280   22.134294 C.3        1 MOL1         0.0313
      12    H8      21.022866   19.092981   22.927264 H          1 MOL1         0.1015
      13    H9      20.560316   19.164255   21.218338 H          1 MOL1         0.1015
      14    N1      21.164622   17.244521   21.890960 N.4        1 MOL1        -0.4809
      15    H10     20.672114   16.718990   21.152487 H          1 MOL1         0.3726
      16    H11     21.104395   16.652575   22.733620 H          1 MOL1         0.3726
      17    C5      22.619216   17.474028   21.502921 C.3        1 MOL1        -0.0677
      18    H12     23.128901   18.000765   22.312595 H          1 MOL1         0.1026
      19    H13     23.101150   16.509078   21.330831 H          1 MOL1         0.1026
      20    H14     22.658131   18.072789   20.590358 H          1 MOL1         0.1026
@<TRIPOS>BOND
    1     1     2    1
    2     1     3    1
    3     1     4    1
    4     1     5    1
    5     5     6    1
    6     5     7    1
    7     5     8    1
    8     8     9    1
    9     8    10    1
   10     8    11    1
   11    11    12    1
   12    11    13    1
   13    11    14    1
   14    14    15    1
   15    14    16    1
   16    14    17    1
   17    17    18    1
   18    17    19    1
   19    17    20    1
@<TRIPOS>SUBSTRUCTURE
       1 MOL1            1 RESIDUE      1      MOL     
@<SCITEGIC>MOL_PROPERTY
VConf Rank
SciTegic.value.IntegerValue
840

@<SCITEGIC>MOL_PROPERTY
Conf_Id
SciTegic.value.IntegerValue
34

@<SCITEGIC>MOL_PROPERTY
Delta U+W
SciTegic.value.DoubleValue
0.276

@<SCITEGIC>MOL_PROPERTY
U+W
SciTegic.value.DoubleValue
15.615

@<SCITEGIC>MOL_PROPERTY
Grad RMS
SciTegic.value.DoubleValue
0.000000

@<SCITEGIC>MOL_PROPERTY
U
SciTegic.value.DoubleValue
69.798

@<SCITEGIC>MOL_PROPERTY
W
SciTegic.value.DoubleValue
-54.184

@<SCITEGIC>MOL_PROPERTY
W(PB)
SciTegic.value.DoubleValue
-56.116

@<SCITEGIC>MOL_PROPERTY
W(SA)
SciTegic.value.DoubleValue
1.933

@<SCITEGIC>MOL_PROPERTY
Valence
SciTegic.value.DoubleValue
1.134

@<SCITEGIC>MOL_PROPERTY
Coulomb
SciTegic.value.DoubleValue
68.735

@<SCITEGIC>MOL_PROPERTY
VdW
SciTegic.value.DoubleValue
-0.070

@<SCITEGIC>MOL_PROPERTY
VdW6
SciTegic.value.DoubleValue
-3.565

@<SCITEGIC>MOL_PROPERTY
VdW12
SciTegic.value.DoubleValue
3.494

@<SCITEGIC>MOL_PROPERTY
Bond
SciTegic.value.DoubleValue
0.108

@<SCITEGIC>MOL_PROPERTY
Angle
SciTegic.value.DoubleValue
0.456

@<SCITEGIC>MOL_PROPERTY
Pdih
SciTegic.value.DoubleValue
0.569

@<SCITEGIC>MOL_PROPERTY
Idih
SciTegic.value.DoubleValue
0.000

@<SCITEGIC>MOL_PROPERTY
Tether
SciTegic.value.DoubleValue
0.000

@<TRIPOS>MOLECULE
guest-s9_confgen4.mol2 : confsearch ligand conformer 841
          20          19           1
SMALL
USER_CHARGES
 
@<TRIPOS>ATOM
       1    C1      22.466168   18.733376   20.195408 C.3        1 MOL1        -0.2224
       2    H1      22.136060   18.800344   19.150557 H          1 MOL1         0.1052
       3    H2      23.352145   19.371440   20.309178 H          1 MOL1         0.1052
       4    H3      22.770848   17.697085   20.391501 H          1 MOL1         0.1052
       5    C2      21.346862   19.176339   21.162343 C.3        1 MOL1        -0.1209
       6    H4      21.086802   20.225439   20.962136 H          1 MOL1         0.1041
       7    H5      21.725701   19.134693   22.192509 H          1 MOL1         0.1041
       8    C3      20.085764   18.291413   21.021914 C.3        1 MOL1        -0.1274
       9    H6      19.742279   18.312379   19.979099 H          1 MOL1         0.1041
      10    H7      20.332156   17.245487   21.248157 H          1 MOL1         0.1041
      11    C4      18.925881   18.755095   21.925911 C.3        1 MOL1         0.0313
      12    H8      18.040380   18.149620   21.716373 H          1 MOL1         0.1015
      13    H9      18.683970   19.798180   21.707076 H          1 MOL1         0.1015
      14    N1      19.215619   18.642557   23.410928 N.4        1 MOL1        -0.4809
      15    H10     20.046144   19.202346   23.654484 H          1 MOL1         0.3726
      16    H11     19.459005   17.669795   23.652887 H          1 MOL1         0.3726
      17    C5      18.006860   19.105986   24.212784 C.3        1 MOL1        -0.0677
      18    H12     17.788294   20.146997   23.965165 H          1 MOL1         0.1026
      19    H13     17.148065   18.478837   23.963904 H          1 MOL1         0.1026
      20    H14     18.228845   19.019889   25.278758 H          1 MOL1         0.1026
@<TRIPOS>BOND
    1     1     2    1
    2     1     3    1
    3     1     4    1
    4     1     5    1
    5     5     6    1
    6     5     7    1
    7     5     8    1
    8     8     9    1
    9     8    10    1
   10     8    11    1
   11    11    12    1
   12    11    13    1
   13    11    14    1
   14    14    15    1
   15    14    16    1
   16    14    17    1
   17    17    18    1
   18    17    19    1
   19    17    20    1
@<TRIPOS>SUBSTRUCTURE
       1 MOL1            1 RESIDUE      1      MOL     
@<SCITEGIC>MOL_PROPERTY
VConf Rank
SciTegic.value.IntegerValue
841

@<SCITEGIC>MOL_PROPERTY
Conf_Id
SciTegic.value.IntegerValue
50

@<SCITEGIC>MOL_PROPERTY
Delta U+W
SciTegic.value.DoubleValue
0.319

@<SCITEGIC>MOL_PROPERTY
U+W
SciTegic.value.DoubleValue
15.657

@<SCITEGIC>MOL_PROPERTY
Grad RMS
SciTegic.value.DoubleValue
0.000000

@<SCITEGIC>MOL_PROPERTY
U
SciTegic.value.DoubleValue
69.962

@<SCITEGIC>MOL_PROPERTY
W
SciTegic.value.DoubleValue
-54.305

@<SCITEGIC>MOL_PROPERTY
W(PB)
SciTegic.value.DoubleValue
-56.223

@<SCITEGIC>MOL_PROPERTY
W(SA)
SciTegic.value.DoubleValue
1.918

@<SCITEGIC>MOL_PROPERTY
Valence
SciTegic.value.DoubleValue
0.982

@<SCITEGIC>MOL_PROPERTY
Coulomb
SciTegic.value.DoubleValue
69.058

@<SCITEGIC>MOL_PROPERTY
VdW
SciTegic.value.DoubleValue
-0.078

@<SCITEGIC>MOL_PROPERTY
VdW6
SciTegic.value.DoubleValue
-3.548

@<SCITEGIC>MOL_PROPERTY
VdW12
SciTegic.value.DoubleValue
3.471

@<SCITEGIC>MOL_PROPERTY
Bond
SciTegic.value.DoubleValue
0.105

@<SCITEGIC>MOL_PROPERTY
Angle
SciTegic.value.DoubleValue
0.408

@<SCITEGIC>MOL_PROPERTY
Pdih
SciTegic.value.DoubleValue
0.469

@<SCITEGIC>MOL_PROPERTY
Idih
SciTegic.value.DoubleValue
0.000

@<SCITEGIC>MOL_PROPERTY
Tether
SciTegic.value.DoubleValue
0.000

@<TRIPOS>MOLECULE
guest-s9_confgen4.mol2 : confsearch ligand conformer 842
          20          19           1
SMALL
USER_CHARGES
 
@<TRIPOS>ATOM
       1    C1      20.750583   16.284685   23.500379 C.3        1 MOL1        -0.2224
       2    H1      21.636871   15.663937   23.315469 H          1 MOL1         0.1052
       3    H2      20.694795   16.477337   24.579704 H          1 MOL1         0.1052
       4    H3      19.866042   15.702274   23.211300 H          1 MOL1         0.1052
       5    C2      20.832520   17.604253   22.702851 C.3        1 MOL1        -0.1209
       6    H4      20.927498   17.371640   21.633568 H          1 MOL1         0.1041
       7    H5      21.743201   18.148104   22.991310 H          1 MOL1         0.1041
       8    C3      19.593387   18.497907   22.945998 C.3        1 MOL1        -0.1274
       9    H6      18.681797   17.971380   22.633538 H          1 MOL1         0.1041
      10    H7      19.489715   18.689109   24.022370 H          1 MOL1         0.1041
      11    C4      19.681309   19.853760   22.216974 C.3        1 MOL1         0.0313
      12    H8      20.591671   20.376205   22.521485 H          1 MOL1         0.1015
      13    H9      18.824625   20.471404   22.498447 H          1 MOL1         0.1015
      14    N1      19.687828   19.743514   20.703801 N.4        1 MOL1        -0.4809
      15    H10     18.844956   19.244681   20.380100 H          1 MOL1         0.3726
      16    H11     20.484285   19.167871   20.392762 H          1 MOL1         0.3726
      17    C5      19.758782   21.131714   20.081944 C.3        1 MOL1        -0.0677
      18    H12     19.762948   21.037739   18.993761 H          1 MOL1         0.1026
      19    H13     18.889368   21.712326   20.397844 H          1 MOL1         0.1026
      20    H14     20.674103   21.627651   20.412134 H          1 MOL1         0.1026
@<TRIPOS>BOND
    1     1     2    1
    2     1     3    1
    3     1     4    1
    4     1     5    1
    5     5     6    1
    6     5     7    1
    7     5     8    1
    8     8     9    1
    9     8    10    1
   10     8    11    1
   11    11    12    1
   12    11    13    1
   13    11    14    1
   14    14    15    1
   15    14    16    1
   16    14    17    1
   17    17    18    1
   18    17    19    1
   19    17    20    1
@<TRIPOS>SUBSTRUCTURE
       1 MOL1            1 RESIDUE      1      MOL     
@<SCITEGIC>MOL_PROPERTY
VConf Rank
SciTegic.value.IntegerValue
842

@<SCITEGIC>MOL_PROPERTY
Conf_Id
SciTegic.value.IntegerValue
35

@<SCITEGIC>MOL_PROPERTY
Delta U+W
SciTegic.value.DoubleValue
0.360

@<SCITEGIC>MOL_PROPERTY
U+W
SciTegic.value.DoubleValue
15.698

@<SCITEGIC>MOL_PROPERTY
Grad RMS
SciTegic.value.DoubleValue
0.000000

@<SCITEGIC>MOL_PROPERTY
U
SciTegic.value.DoubleValue
69.962

@<SCITEGIC>MOL_PROPERTY
W
SciTegic.value.DoubleValue
-54.264

@<SCITEGIC>MOL_PROPERTY
W(PB)
SciTegic.value.DoubleValue
-56.166

@<SCITEGIC>MOL_PROPERTY
W(SA)
SciTegic.value.DoubleValue
1.902

@<SCITEGIC>MOL_PROPERTY
Valence
SciTegic.value.DoubleValue
0.982

@<SCITEGIC>MOL_PROPERTY
Coulomb
SciTegic.value.DoubleValue
69.058

@<SCITEGIC>MOL_PROPERTY
VdW
SciTegic.value.DoubleValue
-0.078

@<SCITEGIC>MOL_PROPERTY
VdW6
SciTegic.value.DoubleValue
-3.548

@<SCITEGIC>MOL_PROPERTY
VdW12
SciTegic.value.DoubleValue
3.471

@<SCITEGIC>MOL_PROPERTY
Bond
SciTegic.value.DoubleValue
0.105

@<SCITEGIC>MOL_PROPERTY
Angle
SciTegic.value.DoubleValue
0.408

@<SCITEGIC>MOL_PROPERTY
Pdih
SciTegic.value.DoubleValue
0.469

@<SCITEGIC>MOL_PROPERTY
Idih
SciTegic.value.DoubleValue
0.000

@<SCITEGIC>MOL_PROPERTY
Tether
SciTegic.value.DoubleValue
0.000

@<TRIPOS>MOLECULE
guest-s9_confgen4.mol2 : confsearch ligand conformer 843
          20          19           1
SMALL
USER_CHARGES
 
@<TRIPOS>ATOM
       1    C1      22.400208   19.256514   22.911935 C.3        1 MOL1        -0.2224
       2    H1      22.467358   19.502316   21.844629 H          1 MOL1         0.1052
       3    H2      23.228574   19.765711   23.421349 H          1 MOL1         0.1052
       4    H3      22.552047   18.175179   23.024865 H          1 MOL1         0.1052
       5    C2      21.044012   19.693692   23.511785 C.3        1 MOL1        -0.1209
       6    H4      20.914741   20.777407   23.381331 H          1 MOL1         0.1041
       7    H5      21.056266   19.512648   24.595786 H          1 MOL1         0.1041
       8    C3      19.840536   18.946575   22.891031 C.3        1 MOL1        -0.1274
       9    H6      19.956733   17.867893   23.057331 H          1 MOL1         0.1041
      10    H7      18.923720   19.248585   23.414247 H          1 MOL1         0.1041
      11    C4      19.679139   19.233271   21.382647 C.3        1 MOL1         0.0313
      12    H8      20.557596   18.876049   20.840004 H          1 MOL1         0.1015
      13    H9      19.604883   20.313411   21.233143 H          1 MOL1         0.1015
      14    N1      18.450797   18.602735   20.747038 N.4        1 MOL1        -0.4809
      15    H10     18.327821   18.972919   19.791503 H          1 MOL1         0.3726
      16    H11     17.599189   18.889965   21.252984 H          1 MOL1         0.3726
      17    C5      18.568998   17.083075   20.701992 C.3        1 MOL1        -0.0677
      18    H12     18.632535   16.693903   21.720028 H          1 MOL1         0.1026
      19    H13     17.687398   16.670309   20.206645 H          1 MOL1         0.1026
      20    H14     19.466709   16.808721   20.143834 H          1 MOL1         0.1026
@<TRIPOS>BOND
    1     1     2    1
    2     1     3    1
    3     1     4    1
    4     1     5    1
    5     5     6    1
    6     5     7    1
    7     5     8    1
    8     8     9    1
    9     8    10    1
   10     8    11    1
   11    11    12    1
   12    11    13    1
   13    11    14    1
   14    14    15    1
   15    14    16    1
   16    14    17    1
   17    17    18    1
   18    17    19    1
   19    17    20    1
@<TRIPOS>SUBSTRUCTURE
       1 MOL1            1 RESIDUE      1      MOL     
@<SCITEGIC>MOL_PROPERTY
VConf Rank
SciTegic.value.IntegerValue
843

@<SCITEGIC>MOL_PROPERTY
Conf_Id
SciTegic.value.IntegerValue
33

@<SCITEGIC>MOL_PROPERTY
Delta U+W
SciTegic.value.DoubleValue
0.372

@<SCITEGIC>MOL_PROPERTY
U+W
SciTegic.value.DoubleValue
15.711

@<SCITEGIC>MOL_PROPERTY
Grad RMS
SciTegic.value.DoubleValue
0.000000

@<SCITEGIC>MOL_PROPERTY
U
SciTegic.value.DoubleValue
70.163

@<SCITEGIC>MOL_PROPERTY
W
SciTegic.value.DoubleValue
-54.452

@<SCITEGIC>MOL_PROPERTY
W(PB)
SciTegic.value.DoubleValue
-56.363

@<SCITEGIC>MOL_PROPERTY
W(SA)
SciTegic.value.DoubleValue
1.911

@<SCITEGIC>MOL_PROPERTY
Valence
SciTegic.value.DoubleValue
1.420

@<SCITEGIC>MOL_PROPERTY
Coulomb
SciTegic.value.DoubleValue
68.566

@<SCITEGIC>MOL_PROPERTY
VdW
SciTegic.value.DoubleValue
0.177

@<SCITEGIC>MOL_PROPERTY
VdW6
SciTegic.value.DoubleValue
-4.267

@<SCITEGIC>MOL_PROPERTY
VdW12
SciTegic.value.DoubleValue
4.445

@<SCITEGIC>MOL_PROPERTY
Bond
SciTegic.value.DoubleValue
0.146

@<SCITEGIC>MOL_PROPERTY
Angle
SciTegic.value.DoubleValue
0.581

@<SCITEGIC>MOL_PROPERTY
Pdih
SciTegic.value.DoubleValue
0.693

@<SCITEGIC>MOL_PROPERTY
Idih
SciTegic.value.DoubleValue
0.000

@<SCITEGIC>MOL_PROPERTY
Tether
SciTegic.value.DoubleValue
0.000

@<TRIPOS>MOLECULE
guest-s9_confgen4.mol2 : confsearch ligand conformer 844
          20          19           1
SMALL
USER_CHARGES
 
@<TRIPOS>ATOM
       1    C1      18.045001   17.625822   21.072985 C.3        1 MOL1        -0.2224
       2    H1      17.032625   17.207778   21.000141 H          1 MOL1         0.1052
       3    H2      18.034661   18.605194   20.578219 H          1 MOL1         0.1052
       4    H3      18.720539   16.966060   20.513112 H          1 MOL1         0.1052
       5    C2      18.479041   17.740793   22.552378 C.3        1 MOL1        -0.1209
       6    H4      18.387055   16.755550   23.030730 H          1 MOL1         0.1041
       7    H5      17.790667   18.409502   23.088230 H          1 MOL1         0.1041
       8    C3      19.931317   18.246176   22.717793 C.3        1 MOL1        -0.1274
       9    H6      20.196394   18.229871   23.783149 H          1 MOL1         0.1041
      10    H7      20.617231   17.554195   22.212427 H          1 MOL1         0.1041
      11    C4      20.126943   19.676399   22.170389 C.3        1 MOL1         0.0313
      12    H8      19.409644   20.342929   22.655969 H          1 MOL1         0.1015
      13    H9      19.930960   19.693419   21.095653 H          1 MOL1         0.1015
      14    N1      21.512509   20.257511   22.400429 N.4        1 MOL1        -0.4809
      15    H10     21.750080   20.229009   23.403657 H          1 MOL1         0.3726
      16    H11     21.510963   21.260669   22.157780 H          1 MOL1         0.3726
      17    C5      22.563976   19.526523   21.572515 C.3        1 MOL1        -0.0677
      18    H12     23.536973   19.995119   21.735783 H          1 MOL1         0.1026
      19    H13     22.605417   18.480105   21.881030 H          1 MOL1         0.1026
      20    H14     22.297584   19.590767   20.515346 H          1 MOL1         0.1026
@<TRIPOS>BOND
    1     1     2    1
    2     1     3    1
    3     1     4    1
    4     1     5    1
    5     5     6    1
    6     5     7    1
    7     5     8    1
    8     8     9    1
    9     8    10    1
   10     8    11    1
   11    11    12    1
   12    11    13    1
   13    11    14    1
   14    14    15    1
   15    14    16    1
   16    14    17    1
   17    17    18    1
   18    17    19    1
   19    17    20    1
@<TRIPOS>SUBSTRUCTURE
       1 MOL1            1 RESIDUE      1      MOL     
@<SCITEGIC>MOL_PROPERTY
VConf Rank
SciTegic.value.IntegerValue
844

@<SCITEGIC>MOL_PROPERTY
Conf_Id
SciTegic.value.IntegerValue
53

@<SCITEGIC>MOL_PROPERTY
Delta U+W
SciTegic.value.DoubleValue
0.379

@<SCITEGIC>MOL_PROPERTY
U+W
SciTegic.value.DoubleValue
15.717

@<SCITEGIC>MOL_PROPERTY
Grad RMS
SciTegic.value.DoubleValue
0.000000

@<SCITEGIC>MOL_PROPERTY
U
SciTegic.value.DoubleValue
70.163

@<SCITEGIC>MOL_PROPERTY
W
SciTegic.value.DoubleValue
-54.446

@<SCITEGIC>MOL_PROPERTY
W(PB)
SciTegic.value.DoubleValue
-56.322

@<SCITEGIC>MOL_PROPERTY
W(SA)
SciTegic.value.DoubleValue
1.876

@<SCITEGIC>MOL_PROPERTY
Valence
SciTegic.value.DoubleValue
1.420

@<SCITEGIC>MOL_PROPERTY
Coulomb
SciTegic.value.DoubleValue
68.566

@<SCITEGIC>MOL_PROPERTY
VdW
SciTegic.value.DoubleValue
0.177

@<SCITEGIC>MOL_PROPERTY
VdW6
SciTegic.value.DoubleValue
-4.267

@<SCITEGIC>MOL_PROPERTY
VdW12
SciTegic.value.DoubleValue
4.445

@<SCITEGIC>MOL_PROPERTY
Bond
SciTegic.value.DoubleValue
0.146

@<SCITEGIC>MOL_PROPERTY
Angle
SciTegic.value.DoubleValue
0.581

@<SCITEGIC>MOL_PROPERTY
Pdih
SciTegic.value.DoubleValue
0.693

@<SCITEGIC>MOL_PROPERTY
Idih
SciTegic.value.DoubleValue
0.000

@<SCITEGIC>MOL_PROPERTY
Tether
SciTegic.value.DoubleValue
0.000

@<TRIPOS>MOLECULE
guest-s9_confgen4.mol2 : confsearch ligand conformer 845
          20          19           1
SMALL
USER_CHARGES
 
@<TRIPOS>ATOM
       1    C1      21.015939   20.189476   24.264402 C.3        1 MOL1        -0.2224
       2    H1      20.484695   20.337170   25.213595 H          1 MOL1         0.1052
       3    H2      22.059464   19.941744   24.498561 H          1 MOL1         0.1052
       4    H3      21.004987   21.143340   23.721092 H          1 MOL1         0.1052
       5    C2      20.350579   19.069800   23.435196 C.3        1 MOL1        -0.1209
       6    H4      19.299902   19.334119   23.253894 H          1 MOL1         0.1041
       7    H5      20.348319   18.137380   24.017236 H          1 MOL1         0.1041
       8    C3      21.079916   18.842979   22.090078 C.3        1 MOL1        -0.1274
       9    H6      21.061473   19.763708   21.492869 H          1 MOL1         0.1041
      10    H7      22.138114   18.623096   22.283768 H          1 MOL1         0.1041
      11    C4      20.483622   17.675357   21.272916 C.3        1 MOL1         0.0313
      12    H8      20.562114   16.756005   21.858799 H          1 MOL1         0.1015
      13    H9      21.063389   17.538565   20.356590 H          1 MOL1         0.1015
      14    N1      19.024396   17.836966   20.873954 N.4        1 MOL1        -0.4809
      15    H10     18.439433   17.972330   21.711525 H          1 MOL1         0.3726
      16    H11     18.683286   16.959485   20.450994 H          1 MOL1         0.3726
      17    C5      18.841993   18.990212   19.893297 C.3        1 MOL1        -0.0677
      18    H12     19.457183   18.810734   19.008997 H          1 MOL1         0.1026
      19    H13     17.790571   19.051001   19.603906 H          1 MOL1         0.1026
      20    H14     19.144675   19.923636   20.371959 H          1 MOL1         0.1026
@<TRIPOS>BOND
    1     1     2    1
    2     1     3    1
    3     1     4    1
    4     1     5    1
    5     5     6    1
    6     5     7    1
    7     5     8    1
    8     8     9    1
    9     8    10    1
   10     8    11    1
   11    11    12    1
   12    11    13    1
   13    11    14    1
   14    14    15    1
   15    14    16    1
   16    14    17    1
   17    17    18    1
   18    17    19    1
   19    17    20    1
@<TRIPOS>SUBSTRUCTURE
       1 MOL1            1 RESIDUE      1      MOL     
@<SCITEGIC>MOL_PROPERTY
VConf Rank
SciTegic.value.IntegerValue
845

@<SCITEGIC>MOL_PROPERTY
Conf_Id
SciTegic.value.IntegerValue
49

@<SCITEGIC>MOL_PROPERTY
Delta U+W
SciTegic.value.DoubleValue
0.268

@<SCITEGIC>MOL_PROPERTY
U+W
SciTegic.value.DoubleValue
15.607

@<SCITEGIC>MOL_PROPERTY
Grad RMS
SciTegic.value.DoubleValue
0.000000

@<SCITEGIC>MOL_PROPERTY
U
SciTegic.value.DoubleValue
70.298

@<SCITEGIC>MOL_PROPERTY
W
SciTegic.value.DoubleValue
-54.692

@<SCITEGIC>MOL_PROPERTY
W(PB)
SciTegic.value.DoubleValue
-56.576

@<SCITEGIC>MOL_PROPERTY
W(SA)
SciTegic.value.DoubleValue
1.885

@<SCITEGIC>MOL_PROPERTY
Valence
SciTegic.value.DoubleValue
1.245

@<SCITEGIC>MOL_PROPERTY
Coulomb
SciTegic.value.DoubleValue
68.933

@<SCITEGIC>MOL_PROPERTY
VdW
SciTegic.value.DoubleValue
0.120

@<SCITEGIC>MOL_PROPERTY
VdW6
SciTegic.value.DoubleValue
-4.430

@<SCITEGIC>MOL_PROPERTY
VdW12
SciTegic.value.DoubleValue
4.550

@<SCITEGIC>MOL_PROPERTY
Bond
SciTegic.value.DoubleValue
0.148

@<SCITEGIC>MOL_PROPERTY
Angle
SciTegic.value.DoubleValue
0.587

@<SCITEGIC>MOL_PROPERTY
Pdih
SciTegic.value.DoubleValue
0.509

@<SCITEGIC>MOL_PROPERTY
Idih
SciTegic.value.DoubleValue
0.000

@<SCITEGIC>MOL_PROPERTY
Tether
SciTegic.value.DoubleValue
0.000

@<TRIPOS>MOLECULE
guest-s9_confgen4.mol2 : confsearch ligand conformer 846
          20          19           1
SMALL
USER_CHARGES
 
@<TRIPOS>ATOM
       1    C1      22.553627   19.235733   20.873868 C.3        1 MOL1        -0.2224
       2    H1      22.614371   20.329944   20.938547 H          1 MOL1         0.1052
       3    H2      23.342386   18.811700   21.508843 H          1 MOL1         0.1052
       4    H3      22.767131   18.947934   19.836281 H          1 MOL1         0.1052
       5    C2      21.159689   18.729915   21.304463 C.3        1 MOL1        -0.1209
       6    H4      21.120396   17.636271   21.202528 H          1 MOL1         0.1041
       7    H5      20.406206   19.144483   20.621862 H          1 MOL1         0.1041
       8    C3      20.829210   19.132037   22.760727 C.3        1 MOL1        -0.1274
       9    H6      21.649987   18.811482   23.415957 H          1 MOL1         0.1041
      10    H7      20.780065   20.225904   22.841933 H          1 MOL1         0.1041
      11    C4      19.519345   18.517613   23.304387 C.3        1 MOL1         0.0313
      12    H8      19.418844   18.812107   24.352203 H          1 MOL1         0.1015
      13    H9      19.568748   17.426410   23.270738 H          1 MOL1         0.1015
      14    N1      18.244621   18.959163   22.601980 N.4        1 MOL1        -0.4809
      15    H10     18.334767   19.931101   22.270243 H          1 MOL1         0.3726
      16    H11     17.471147   18.984257   23.284706 H          1 MOL1         0.3726
      17    C5      17.878310   18.011921   21.463913 C.3        1 MOL1        -0.0677
      18    H12     16.948033   18.350954   21.002828 H          1 MOL1         0.1026
      19    H13     18.674238   18.004644   20.718424 H          1 MOL1         0.1026
      20    H14     17.742114   17.005652   21.865859 H          1 MOL1         0.1026
@<TRIPOS>BOND
    1     1     2    1
    2     1     3    1
    3     1     4    1
    4     1     5    1
    5     5     6    1
    6     5     7    1
    7     5     8    1
    8     8     9    1
    9     8    10    1
   10     8    11    1
   11    11    12    1
   12    11    13    1
   13    11    14    1
   14    14    15    1
   15    14    16    1
   16    14    17    1
   17    17    18    1
   18    17    19    1
   19    17    20    1
@<TRIPOS>SUBSTRUCTURE
       1 MOL1            1 RESIDUE      1      MOL     
@<SCITEGIC>MOL_PROPERTY
VConf Rank
SciTegic.value.IntegerValue
846

@<SCITEGIC>MOL_PROPERTY
Conf_Id
SciTegic.value.IntegerValue
65

@<SCITEGIC>MOL_PROPERTY
Delta U+W
SciTegic.value.DoubleValue
1.775

@<SCITEGIC>MOL_PROPERTY
U+W
SciTegic.value.DoubleValue
17.114

@<SCITEGIC>MOL_PROPERTY
Grad RMS
SciTegic.value.DoubleValue
0.000000

@<SCITEGIC>MOL_PROPERTY
U
SciTegic.value.DoubleValue
71.726

@<SCITEGIC>MOL_PROPERTY
W
SciTegic.value.DoubleValue
-54.613

@<SCITEGIC>MOL_PROPERTY
W(PB)
SciTegic.value.DoubleValue
-56.495

@<SCITEGIC>MOL_PROPERTY
W(SA)
SciTegic.value.DoubleValue
1.883

@<SCITEGIC>MOL_PROPERTY
Valence
SciTegic.value.DoubleValue
2.885

@<SCITEGIC>MOL_PROPERTY
Coulomb
SciTegic.value.DoubleValue
68.822

@<SCITEGIC>MOL_PROPERTY
VdW
SciTegic.value.DoubleValue
0.019

@<SCITEGIC>MOL_PROPERTY
VdW6
SciTegic.value.DoubleValue
-4.600

@<SCITEGIC>MOL_PROPERTY
VdW12
SciTegic.value.DoubleValue
4.619

@<SCITEGIC>MOL_PROPERTY
Bond
SciTegic.value.DoubleValue
0.152

@<SCITEGIC>MOL_PROPERTY
Angle
SciTegic.value.DoubleValue
0.862

@<SCITEGIC>MOL_PROPERTY
Pdih
SciTegic.value.DoubleValue
1.871

@<SCITEGIC>MOL_PROPERTY
Idih
SciTegic.value.DoubleValue
0.000

@<SCITEGIC>MOL_PROPERTY
Tether
SciTegic.value.DoubleValue
0.000

@<TRIPOS>MOLECULE
guest-s9_confgen4.mol2 : confsearch ligand conformer 847
          20          19           1
SMALL
USER_CHARGES
 
@<TRIPOS>ATOM
       1    C1      19.624947   20.910023   22.904448 C.3        1 MOL1        -0.2224
       2    H1      19.462704   20.054998   23.572740 H          1 MOL1         0.1052
       3    H2      20.087406   21.709865   23.497208 H          1 MOL1         0.1052
       4    H3      18.645143   21.269783   22.564406 H          1 MOL1         0.1052
       5    C2      20.525575   20.533637   21.705544 C.3        1 MOL1        -0.1209
       6    H4      21.498486   20.178151   22.071171 H          1 MOL1         0.1041
       7    H5      20.735538   21.438926   21.118711 H          1 MOL1         0.1041
       8    C3      19.885644   19.473590   20.774530 C.3        1 MOL1        -0.1274
       9    H6      18.966527   19.885387   20.337022 H          1 MOL1         0.1041
      10    H7      20.561051   19.272311   19.932475 H          1 MOL1         0.1041
      11    C4      19.543007   18.144220   21.479044 C.3        1 MOL1         0.0313
      12    H8      19.069533   17.466799   20.763877 H          1 MOL1         0.1015
      13    H9      18.834539   18.329449   22.289926 H          1 MOL1         0.1015
      14    N1      20.745960   17.428528   22.063246 N.4        1 MOL1        -0.4809
      15    H10     21.225674   18.040413   22.739975 H          1 MOL1         0.3726
      16    H11     21.439583   17.237521   21.324123 H          1 MOL1         0.3726
      17    C5      20.306388   16.133338   22.732407 C.3        1 MOL1        -0.0677
      18    H12     19.829599   15.489041   21.990573 H          1 MOL1         0.1026
      19    H13     21.181423   15.629778   23.149192 H          1 MOL1         0.1026
      20    H14     19.598497   16.363359   23.531620 H          1 MOL1         0.1026
@<TRIPOS>BOND
    1     1     2    1
    2     1     3    1
    3     1     4    1
    4     1     5    1
    5     5     6    1
    6     5     7    1
    7     5     8    1
    8     8     9    1
    9     8    10    1
   10     8    11    1
   11    11    12    1
   12    11    13    1
   13    11    14    1
   14    14    15    1
   15    14    16    1
   16    14    17    1
   17    17    18    1
   18    17    19    1
   19    17    20    1
@<TRIPOS>SUBSTRUCTURE
       1 MOL1            1 RESIDUE      1      MOL     
@<SCITEGIC>MOL_PROPERTY
VConf Rank
SciTegic.value.IntegerValue
847

@<SCITEGIC>MOL_PROPERTY
Conf_Id
SciTegic.value.IntegerValue
23

@<SCITEGIC>MOL_PROPERTY
Delta U+W
SciTegic.value.DoubleValue
0.896

@<SCITEGIC>MOL_PROPERTY
U+W
SciTegic.value.DoubleValue
16.234

@<SCITEGIC>MOL_PROPERTY
Grad RMS
SciTegic.value.DoubleValue
0.000000

@<SCITEGIC>MOL_PROPERTY
U
SciTegic.value.DoubleValue
70.374

@<SCITEGIC>MOL_PROPERTY
W
SciTegic.value.DoubleValue
-54.140

@<SCITEGIC>MOL_PROPERTY
W(PB)
SciTegic.value.DoubleValue
-56.046

@<SCITEGIC>MOL_PROPERTY
W(SA)
SciTegic.value.DoubleValue
1.907

@<SCITEGIC>MOL_PROPERTY
Valence
SciTegic.value.DoubleValue
1.257

@<SCITEGIC>MOL_PROPERTY
Coulomb
SciTegic.value.DoubleValue
69.240

@<SCITEGIC>MOL_PROPERTY
VdW
SciTegic.value.DoubleValue
-0.123

@<SCITEGIC>MOL_PROPERTY
VdW6
SciTegic.value.DoubleValue
-4.336

@<SCITEGIC>MOL_PROPERTY
VdW12
SciTegic.value.DoubleValue
4.213

@<SCITEGIC>MOL_PROPERTY
Bond
SciTegic.value.DoubleValue
0.128

@<SCITEGIC>MOL_PROPERTY
Angle
SciTegic.value.DoubleValue
0.603

@<SCITEGIC>MOL_PROPERTY
Pdih
SciTegic.value.DoubleValue
0.526

@<SCITEGIC>MOL_PROPERTY
Idih
SciTegic.value.DoubleValue
0.000

@<SCITEGIC>MOL_PROPERTY
Tether
SciTegic.value.DoubleValue
0.000

@<TRIPOS>MOLECULE
guest-s9_confgen4.mol2 : confsearch ligand conformer 848
          20          19           1
SMALL
USER_CHARGES
 
@<TRIPOS>ATOM
       1    C1      17.886237   17.991557   21.796339 C.3        1 MOL1        -0.2224
       2    H1      17.668860   17.730257   20.752528 H          1 MOL1         0.1052
       3    H2      17.000769   17.741300   22.394917 H          1 MOL1         0.1052
       4    H3      18.028449   19.077999   21.854858 H          1 MOL1         0.1052
       5    C2      19.125218   17.225717   22.314590 C.3        1 MOL1        -0.1209
       6    H4      18.901416   16.149697   22.324513 H          1 MOL1         0.1041
       7    H5      19.321221   17.503223   23.359188 H          1 MOL1         0.1041
       8    C3      20.390453   17.463576   21.452847 C.3        1 MOL1        -0.1274
       9    H6      21.223148   16.872445   21.856488 H          1 MOL1         0.1041
      10    H7      20.211728   17.085635   20.437473 H          1 MOL1         0.1041
      11    C4      20.817292   18.943457   21.359419 C.3        1 MOL1         0.0313
      12    H8      20.010737   19.531724   20.915374 H          1 MOL1         0.1015
      13    H9      21.693746   19.027465   20.711878 H          1 MOL1         0.1015
      14    N1      21.171120   19.568257   22.695472 N.4        1 MOL1        -0.4809
      15    H10     21.931361   19.036653   23.146392 H          1 MOL1         0.3726
      16    H11     20.368791   19.501672   23.339151 H          1 MOL1         0.3726
      17    C5      21.578471   21.022121   22.498318 C.3        1 MOL1        -0.0677
      18    H12     20.747352   21.571229   22.050567 H          1 MOL1         0.1026
      19    H13     21.829030   21.459203   23.467415 H          1 MOL1         0.1026
      20    H14     22.448069   21.065775   21.839031 H          1 MOL1         0.1026
@<TRIPOS>BOND
    1     1     2    1
    2     1     3    1
    3     1     4    1
    4     1     5    1
    5     5     6    1
    6     5     7    1
    7     5     8    1
    8     8     9    1
    9     8    10    1
   10     8    11    1
   11    11    12    1
   12    11    13    1
   13    11    14    1
   14    14    15    1
   15    14    16    1
   16    14    17    1
   17    17    18    1
   18    17    19    1
   19    17    20    1
@<TRIPOS>SUBSTRUCTURE
       1 MOL1            1 RESIDUE      1      MOL     
@<SCITEGIC>MOL_PROPERTY
VConf Rank
SciTegic.value.IntegerValue
848

@<SCITEGIC>MOL_PROPERTY
Conf_Id
SciTegic.value.IntegerValue
24

@<SCITEGIC>MOL_PROPERTY
Delta U+W
SciTegic.value.DoubleValue
0.792

@<SCITEGIC>MOL_PROPERTY
U+W
SciTegic.value.DoubleValue
16.130

@<SCITEGIC>MOL_PROPERTY
Grad RMS
SciTegic.value.DoubleValue
0.000000

@<SCITEGIC>MOL_PROPERTY
U
SciTegic.value.DoubleValue
70.374

@<SCITEGIC>MOL_PROPERTY
W
SciTegic.value.DoubleValue
-54.243

@<SCITEGIC>MOL_PROPERTY
W(PB)
SciTegic.value.DoubleValue
-56.130

@<SCITEGIC>MOL_PROPERTY
W(SA)
SciTegic.value.DoubleValue
1.887

@<SCITEGIC>MOL_PROPERTY
Valence
SciTegic.value.DoubleValue
1.257

@<SCITEGIC>MOL_PROPERTY
Coulomb
SciTegic.value.DoubleValue
69.240

@<SCITEGIC>MOL_PROPERTY
VdW
SciTegic.value.DoubleValue
-0.123

@<SCITEGIC>MOL_PROPERTY
VdW6
SciTegic.value.DoubleValue
-4.336

@<SCITEGIC>MOL_PROPERTY
VdW12
SciTegic.value.DoubleValue
4.213

@<SCITEGIC>MOL_PROPERTY
Bond
SciTegic.value.DoubleValue
0.128

@<SCITEGIC>MOL_PROPERTY
Angle
SciTegic.value.DoubleValue
0.603

@<SCITEGIC>MOL_PROPERTY
Pdih
SciTegic.value.DoubleValue
0.526

@<SCITEGIC>MOL_PROPERTY
Idih
SciTegic.value.DoubleValue
0.000

@<SCITEGIC>MOL_PROPERTY
Tether
SciTegic.value.DoubleValue
0.000

@<TRIPOS>MOLECULE
guest-s9_confgen4.mol2 : confsearch ligand conformer 849
          20          19           1
SMALL
USER_CHARGES
 
@<TRIPOS>ATOM
       1    C1      21.073411   16.938772   21.640396 C.3        1 MOL1        -0.2224
       2    H1      21.886660   16.209561   21.530406 H          1 MOL1         0.1052
       3    H2      21.087790   17.280553   22.682043 H          1 MOL1         0.1052
       4    H3      20.128426   16.413097   21.451101 H          1 MOL1         0.1052
       5    C2      21.270937   18.112867   20.654523 C.3        1 MOL1        -0.1209
       6    H4      21.462801   17.701526   19.653497 H          1 MOL1         0.1041
       7    H5      22.175085   18.673665   20.930433 H          1 MOL1         0.1041
       8    C3      20.065167   19.082515   20.561043 C.3        1 MOL1        -0.1274
       9    H6      20.290340   19.828100   19.786951 H          1 MOL1         0.1041
      10    H7      19.171118   18.548245   20.213282 H          1 MOL1         0.1041
      11    C4      19.752499   19.840398   21.868766 C.3        1 MOL1         0.0313
      12    H8      19.172033   20.735845   21.632596 H          1 MOL1         0.1015
      13    H9      20.684339   20.156276   22.344350 H          1 MOL1         0.1015
      14    N1      18.945088   19.043616   22.875852 N.4        1 MOL1        -0.4809
      15    H10     19.426349   18.159368   23.092900 H          1 MOL1         0.3726
      16    H11     18.038923   18.769442   22.466336 H          1 MOL1         0.3726
      17    C5      18.733736   19.864385   24.140796 C.3        1 MOL1        -0.0677
      18    H12     19.704605   20.114805   24.573775 H          1 MOL1         0.1026
      19    H13     18.194140   20.780018   23.889366 H          1 MOL1         0.1026
      20    H14     18.151643   19.278716   24.855729 H          1 MOL1         0.1026
@<TRIPOS>BOND
    1     1     2    1
    2     1     3    1
    3     1     4    1
    4     1     5    1
    5     5     6    1
    6     5     7    1
    7     5     8    1
    8     8     9    1
    9     8    10    1
   10     8    11    1
   11    11    12    1
   12    11    13    1
   13    11    14    1
   14    14    15    1
   15    14    16    1
   16    14    17    1
   17    17    18    1
   18    17    19    1
   19    17    20    1
@<TRIPOS>SUBSTRUCTURE
       1 MOL1            1 RESIDUE      1      MOL     
@<SCITEGIC>MOL_PROPERTY
VConf Rank
SciTegic.value.IntegerValue
849

@<SCITEGIC>MOL_PROPERTY
Conf_Id
SciTegic.value.IntegerValue
26

@<SCITEGIC>MOL_PROPERTY
Delta U+W
SciTegic.value.DoubleValue
2.888

@<SCITEGIC>MOL_PROPERTY
U+W
SciTegic.value.DoubleValue
18.226

@<SCITEGIC>MOL_PROPERTY
Grad RMS
SciTegic.value.DoubleValue
0.000000

@<SCITEGIC>MOL_PROPERTY
U
SciTegic.value.DoubleValue
72.042

@<SCITEGIC>MOL_PROPERTY
W
SciTegic.value.DoubleValue
-53.816

@<SCITEGIC>MOL_PROPERTY
W(PB)
SciTegic.value.DoubleValue
-55.689

@<SCITEGIC>MOL_PROPERTY
W(SA)
SciTegic.value.DoubleValue
1.873

@<SCITEGIC>MOL_PROPERTY
Valence
SciTegic.value.DoubleValue
2.428

@<SCITEGIC>MOL_PROPERTY
Coulomb
SciTegic.value.DoubleValue
69.829

@<SCITEGIC>MOL_PROPERTY
VdW
SciTegic.value.DoubleValue
-0.215

@<SCITEGIC>MOL_PROPERTY
VdW6
SciTegic.value.DoubleValue
-4.563

@<SCITEGIC>MOL_PROPERTY
VdW12
SciTegic.value.DoubleValue
4.348

@<SCITEGIC>MOL_PROPERTY
Bond
SciTegic.value.DoubleValue
0.137

@<SCITEGIC>MOL_PROPERTY
Angle
SciTegic.value.DoubleValue
0.936

@<SCITEGIC>MOL_PROPERTY
Pdih
SciTegic.value.DoubleValue
1.356

@<SCITEGIC>MOL_PROPERTY
Idih
SciTegic.value.DoubleValue
0.000

@<SCITEGIC>MOL_PROPERTY
Tether
SciTegic.value.DoubleValue
0.000

@<TRIPOS>MOLECULE
guest-s9_confgen4.mol2 : confsearch ligand conformer 850
          20          19           1
SMALL
USER_CHARGES
 
@<TRIPOS>ATOM
       1    C1      22.156220   19.202967   21.418636 C.3        1 MOL1        -0.2224
       2    H1      23.240978   19.370975   21.435726 H          1 MOL1         0.1052
       3    H2      21.834041   19.221173   20.369334 H          1 MOL1         0.1052
       4    H3      21.693000   20.044229   21.947555 H          1 MOL1         0.1052
       5    C2      21.813571   17.852735   22.088655 C.3        1 MOL1        -0.1209
       6    H4      22.061869   17.902030   23.158246 H          1 MOL1         0.1041
       7    H5      22.462677   17.075059   21.662103 H          1 MOL1         0.1041
       8    C3      20.339099   17.406481   21.916530 C.3        1 MOL1        -0.1274
       9    H6      20.099622   17.280544   20.852342 H          1 MOL1         0.1041
      10    H7      20.232145   16.411605   22.368858 H          1 MOL1         0.1041
      11    C4      19.307289   18.340863   22.583299 C.3        1 MOL1         0.0313
      12    H8      19.679446   18.666362   23.557894 H          1 MOL1         0.1015
      13    H9      18.376932   17.789852   22.742565 H          1 MOL1         0.1015
      14    N1      18.957897   19.570821   21.767131 N.4        1 MOL1        -0.4809
      15    H10     18.562183   19.291287   20.856485 H          1 MOL1         0.3726
      16    H11     19.812709   20.099901   21.543543 H          1 MOL1         0.3726
      17    C5      17.972198   20.442207   22.533614 C.3        1 MOL1        -0.0677
      18    H12     18.424719   20.752359   23.477965 H          1 MOL1         0.1026
      19    H13     17.730124   21.322764   21.934456 H          1 MOL1         0.1026
      20    H14     17.063225   19.869537   22.730038 H          1 MOL1         0.1026
@<TRIPOS>BOND
    1     1     2    1
    2     1     3    1
    3     1     4    1
    4     1     5    1
    5     5     6    1
    6     5     7    1
    7     5     8    1
    8     8     9    1
    9     8    10    1
   10     8    11    1
   11    11    12    1
   12    11    13    1
   13    11    14    1
   14    14    15    1
   15    14    16    1
   16    14    17    1
   17    17    18    1
   18    17    19    1
   19    17    20    1
@<TRIPOS>SUBSTRUCTURE
       1 MOL1            1 RESIDUE      1      MOL     
@<SCITEGIC>MOL_PROPERTY
VConf Rank
SciTegic.value.IntegerValue
850

@<SCITEGIC>MOL_PROPERTY
Conf_Id
SciTegic.value.IntegerValue
5

@<SCITEGIC>MOL_PROPERTY
Delta U+W
SciTegic.value.DoubleValue
2.950

@<SCITEGIC>MOL_PROPERTY
U+W
SciTegic.value.DoubleValue
18.289

@<SCITEGIC>MOL_PROPERTY
Grad RMS
SciTegic.value.DoubleValue
0.000000

@<SCITEGIC>MOL_PROPERTY
U
SciTegic.value.DoubleValue
72.042

@<SCITEGIC>MOL_PROPERTY
W
SciTegic.value.DoubleValue
-53.753

@<SCITEGIC>MOL_PROPERTY
W(PB)
SciTegic.value.DoubleValue
-55.644

@<SCITEGIC>MOL_PROPERTY
W(SA)
SciTegic.value.DoubleValue
1.891

@<SCITEGIC>MOL_PROPERTY
Valence
SciTegic.value.DoubleValue
2.428

@<SCITEGIC>MOL_PROPERTY
Coulomb
SciTegic.value.DoubleValue
69.829

@<SCITEGIC>MOL_PROPERTY
VdW
SciTegic.value.DoubleValue
-0.215

@<SCITEGIC>MOL_PROPERTY
VdW6
SciTegic.value.DoubleValue
-4.563

@<SCITEGIC>MOL_PROPERTY
VdW12
SciTegic.value.DoubleValue
4.348

@<SCITEGIC>MOL_PROPERTY
Bond
SciTegic.value.DoubleValue
0.137

@<SCITEGIC>MOL_PROPERTY
Angle
SciTegic.value.DoubleValue
0.936

@<SCITEGIC>MOL_PROPERTY
Pdih
SciTegic.value.DoubleValue
1.356

@<SCITEGIC>MOL_PROPERTY
Idih
SciTegic.value.DoubleValue
0.000

@<SCITEGIC>MOL_PROPERTY
Tether
SciTegic.value.DoubleValue
0.000

@<TRIPOS>MOLECULE
guest-s9_confgen4.mol2 : confsearch ligand conformer 851
          20          19           1
SMALL
USER_CHARGES
 
@<TRIPOS>ATOM
       1    C1      19.035505   18.406443   24.176840 C.3        1 MOL1        -0.2224
       2    H1      19.021186   17.339254   24.433665 H          1 MOL1         0.1052
       3    H2      20.043367   18.792343   24.374509 H          1 MOL1         0.1052
       4    H3      18.344442   18.922841   24.855612 H          1 MOL1         0.1052
       5    C2      18.617756   18.629228   22.705108 C.3        1 MOL1        -0.1209
       6    H4      18.635888   19.702769   22.472847 H          1 MOL1         0.1041
       7    H5      17.573923   18.309641   22.577944 H          1 MOL1         0.1041
       8    C3      19.502970   17.853028   21.698527 C.3        1 MOL1        -0.1274
       9    H6      19.399545   16.775649   21.883162 H          1 MOL1         0.1041
      10    H7      19.129801   18.021330   20.680112 H          1 MOL1         0.1041
      11    C4      21.002727   18.221467   21.765708 C.3        1 MOL1         0.0313
      12    H8      21.556188   17.636105   21.027161 H          1 MOL1         0.1015
      13    H9      21.388722   17.961769   22.754467 H          1 MOL1         0.1015
      14    N1      21.320418   19.689176   21.524406 N.4        1 MOL1        -0.4809
      15    H10     22.317205   19.865077   21.725725 H          1 MOL1         0.3726
      16    H11     20.804311   20.276662   22.195671 H          1 MOL1         0.3726
      17    C5      21.000727   20.096202   20.090268 C.3        1 MOL1        -0.0677
      18    H12     19.932601   19.964714   19.906403 H          1 MOL1         0.1026
      19    H13     21.271045   21.144685   19.947024 H          1 MOL1         0.1026
      20    H14     21.574657   19.471051   19.402937 H          1 MOL1         0.1026
@<TRIPOS>BOND
    1     1     2    1
    2     1     3    1
    3     1     4    1
    4     1     5    1
    5     5     6    1
    6     5     7    1
    7     5     8    1
    8     8     9    1
    9     8    10    1
   10     8    11    1
   11    11    12    1
   12    11    13    1
   13    11    14    1
   14    14    15    1
   15    14    16    1
   16    14    17    1
   17    17    18    1
   18    17    19    1
   19    17    20    1
@<TRIPOS>SUBSTRUCTURE
       1 MOL1            1 RESIDUE      1      MOL     
@<SCITEGIC>MOL_PROPERTY
VConf Rank
SciTegic.value.IntegerValue
851

@<SCITEGIC>MOL_PROPERTY
Conf_Id
SciTegic.value.IntegerValue
52

@<SCITEGIC>MOL_PROPERTY
Delta U+W
SciTegic.value.DoubleValue
0.784

@<SCITEGIC>MOL_PROPERTY
U+W
SciTegic.value.DoubleValue
16.122

@<SCITEGIC>MOL_PROPERTY
Grad RMS
SciTegic.value.DoubleValue
0.000000

@<SCITEGIC>MOL_PROPERTY
U
SciTegic.value.DoubleValue
70.777

@<SCITEGIC>MOL_PROPERTY
W
SciTegic.value.DoubleValue
-54.655

@<SCITEGIC>MOL_PROPERTY
W(PB)
SciTegic.value.DoubleValue
-56.491

@<SCITEGIC>MOL_PROPERTY
W(SA)
SciTegic.value.DoubleValue
1.836

@<SCITEGIC>MOL_PROPERTY
Valence
SciTegic.value.DoubleValue
1.529

@<SCITEGIC>MOL_PROPERTY
Coulomb
SciTegic.value.DoubleValue
69.166

@<SCITEGIC>MOL_PROPERTY
VdW
SciTegic.value.DoubleValue
0.082

@<SCITEGIC>MOL_PROPERTY
VdW6
SciTegic.value.DoubleValue
-5.166

@<SCITEGIC>MOL_PROPERTY
VdW12
SciTegic.value.DoubleValue
5.248

@<SCITEGIC>MOL_PROPERTY
Bond
SciTegic.value.DoubleValue
0.171

@<SCITEGIC>MOL_PROPERTY
Angle
SciTegic.value.DoubleValue
0.752

@<SCITEGIC>MOL_PROPERTY
Pdih
SciTegic.value.DoubleValue
0.605

@<SCITEGIC>MOL_PROPERTY
Idih
SciTegic.value.DoubleValue
0.000

@<SCITEGIC>MOL_PROPERTY
Tether
SciTegic.value.DoubleValue
0.000

@<TRIPOS>MOLECULE
guest-s9_confgen4.mol2 : confsearch ligand conformer 852
          20          19           1
SMALL
USER_CHARGES
 
@<TRIPOS>ATOM
       1    C1      20.364334   17.561299   23.610585 C.3        1 MOL1        -0.2224
       2    H1      20.437245   16.739585   24.334906 H          1 MOL1         0.1052
       3    H2      21.301450   17.571290   23.042371 H          1 MOL1         0.1052
       4    H3      20.282593   18.498033   24.177291 H          1 MOL1         0.1052
       5    C2      19.141627   17.354295   22.687818 C.3        1 MOL1        -0.1209
       6    H4      18.268842   17.118955   23.313027 H          1 MOL1         0.1041
       7    H5      19.305974   16.472715   22.052346 H          1 MOL1         0.1041
       8    C3      18.790224   18.578261   21.803936 C.3        1 MOL1        -0.1274
       9    H6      17.859365   18.349814   21.268307 H          1 MOL1         0.1041
      10    H7      18.564590   19.448537   22.432913 H          1 MOL1         0.1041
      11    C4      19.860655   18.936984   20.747031 C.3        1 MOL1         0.0313
      12    H8      19.407664   19.563901   19.974893 H          1 MOL1         0.1015
      13    H9      20.210314   18.019006   20.267945 H          1 MOL1         0.1015
      14    N1      21.078212   19.684982   21.267188 N.4        1 MOL1        -0.4809
      15    H10     21.807682   19.707285   20.537439 H          1 MOL1         0.3726
      16    H11     21.498504   19.171422   22.054242 H          1 MOL1         0.3726
      17    C5      20.718012   21.107413   21.681518 C.3        1 MOL1        -0.0677
      18    H12     20.289241   21.633144   20.825711 H          1 MOL1         0.1026
      19    H13     19.993492   21.075697   22.497411 H          1 MOL1         0.1026
      20    H14     21.621700   21.622672   22.014336 H          1 MOL1         0.1026
@<TRIPOS>BOND
    1     1     2    1
    2     1     3    1
    3     1     4    1
    4     1     5    1
    5     5     6    1
    6     5     7    1
    7     5     8    1
    8     8     9    1
    9     8    10    1
   10     8    11    1
   11    11    12    1
   12    11    13    1
   13    11    14    1
   14    14    15    1
   15    14    16    1
   16    14    17    1
   17    17    18    1
   18    17    19    1
   19    17    20    1
@<TRIPOS>SUBSTRUCTURE
       1 MOL1            1 RESIDUE      1      MOL     
@<SCITEGIC>MOL_PROPERTY
VConf Rank
SciTegic.value.IntegerValue
852

@<SCITEGIC>MOL_PROPERTY
Conf_Id
SciTegic.value.IntegerValue
55

@<SCITEGIC>MOL_PROPERTY
Delta U+W
SciTegic.value.DoubleValue
2.745

@<SCITEGIC>MOL_PROPERTY
U+W
SciTegic.value.DoubleValue
18.083

@<SCITEGIC>MOL_PROPERTY
Grad RMS
SciTegic.value.DoubleValue
0.000000

@<SCITEGIC>MOL_PROPERTY
U
SciTegic.value.DoubleValue
72.490

@<SCITEGIC>MOL_PROPERTY
W
SciTegic.value.DoubleValue
-54.407

@<SCITEGIC>MOL_PROPERTY
W(PB)
SciTegic.value.DoubleValue
-56.269

@<SCITEGIC>MOL_PROPERTY
W(SA)
SciTegic.value.DoubleValue
1.861

@<SCITEGIC>MOL_PROPERTY
Valence
SciTegic.value.DoubleValue
2.738

@<SCITEGIC>MOL_PROPERTY
Coulomb
SciTegic.value.DoubleValue
69.795

@<SCITEGIC>MOL_PROPERTY
VdW
SciTegic.value.DoubleValue
-0.043

@<SCITEGIC>MOL_PROPERTY
VdW6
SciTegic.value.DoubleValue
-5.333

@<SCITEGIC>MOL_PROPERTY
VdW12
SciTegic.value.DoubleValue
5.290

@<SCITEGIC>MOL_PROPERTY
Bond
SciTegic.value.DoubleValue
0.182

@<SCITEGIC>MOL_PROPERTY
Angle
SciTegic.value.DoubleValue
1.135

@<SCITEGIC>MOL_PROPERTY
Pdih
SciTegic.value.DoubleValue
1.422

@<SCITEGIC>MOL_PROPERTY
Idih
SciTegic.value.DoubleValue
0.000

@<SCITEGIC>MOL_PROPERTY
Tether
SciTegic.value.DoubleValue
0.000

@<TRIPOS>MOLECULE
guest-s9_confgen4.mol2 : confsearch ligand conformer 853
          20          19           1
SMALL
USER_CHARGES
 
@<TRIPOS>ATOM
       1    C1      19.946677   16.760820   22.414241 C.3        1 MOL1        -0.2224
       2    H1      20.122832   15.697619   22.623383 H          1 MOL1         0.1052
       3    H2      19.024934   17.053785   22.933731 H          1 MOL1         0.1052
       4    H3      19.789102   16.852686   21.333555 H          1 MOL1         0.1052
       5    C2      21.151292   17.606007   22.887456 C.3        1 MOL1        -0.1209
       6    H4      22.030091   17.370794   22.270686 H          1 MOL1         0.1041
       7    H5      21.409549   17.302129   23.911657 H          1 MOL1         0.1041
       8    C3      20.903045   19.136100   22.882704 C.3        1 MOL1        -0.1274
       9    H6      20.064565   19.386760   23.544536 H          1 MOL1         0.1041
      10    H7      21.784183   19.620885   23.323344 H          1 MOL1         0.1041
      11    C4      20.686752   19.748324   21.479153 C.3        1 MOL1         0.0313
      12    H8      21.423084   19.327980   20.789519 H          1 MOL1         0.1015
      13    H9      20.853969   20.827255   21.527825 H          1 MOL1         0.1015
      14    N1      19.307657   19.540572   20.872982 N.4        1 MOL1        -0.4809
      15    H10     19.067482   18.539502   20.876671 H          1 MOL1         0.3726
      16    H11     19.323494   19.812019   19.877379 H          1 MOL1         0.3726
      17    C5      18.250250   20.352174   21.613192 C.3        1 MOL1        -0.0677
      18    H12     18.194190   20.015846   22.650187 H          1 MOL1         0.1026
      19    H13     18.521335   21.409582   21.580946 H          1 MOL1         0.1026
      20    H14     17.282670   20.205816   21.128136 H          1 MOL1         0.1026
@<TRIPOS>BOND
    1     1     2    1
    2     1     3    1
    3     1     4    1
    4     1     5    1
    5     5     6    1
    6     5     7    1
    7     5     8    1
    8     8     9    1
    9     8    10    1
   10     8    11    1
   11    11    12    1
   12    11    13    1
   13    11    14    1
   14    14    15    1
   15    14    16    1
   16    14    17    1
   17    17    18    1
   18    17    19    1
   19    17    20    1
@<TRIPOS>SUBSTRUCTURE
       1 MOL1            1 RESIDUE      1      MOL     
@<SCITEGIC>MOL_PROPERTY
VConf Rank
SciTegic.value.IntegerValue
853

@<SCITEGIC>MOL_PROPERTY
Conf_Id
SciTegic.value.IntegerValue
76

@<SCITEGIC>MOL_PROPERTY
Delta U+W
SciTegic.value.DoubleValue
2.799

@<SCITEGIC>MOL_PROPERTY
U+W
SciTegic.value.DoubleValue
18.137

@<SCITEGIC>MOL_PROPERTY
Grad RMS
SciTegic.value.DoubleValue
0.000000

@<SCITEGIC>MOL_PROPERTY
U
SciTegic.value.DoubleValue
72.490

@<SCITEGIC>MOL_PROPERTY
W
SciTegic.value.DoubleValue
-54.353

@<SCITEGIC>MOL_PROPERTY
W(PB)
SciTegic.value.DoubleValue
-56.201

@<SCITEGIC>MOL_PROPERTY
W(SA)
SciTegic.value.DoubleValue
1.848

@<SCITEGIC>MOL_PROPERTY
Valence
SciTegic.value.DoubleValue
2.738

@<SCITEGIC>MOL_PROPERTY
Coulomb
SciTegic.value.DoubleValue
69.795

@<SCITEGIC>MOL_PROPERTY
VdW
SciTegic.value.DoubleValue
-0.043

@<SCITEGIC>MOL_PROPERTY
VdW6
SciTegic.value.DoubleValue
-5.334

@<SCITEGIC>MOL_PROPERTY
VdW12
SciTegic.value.DoubleValue
5.290

@<SCITEGIC>MOL_PROPERTY
Bond
SciTegic.value.DoubleValue
0.182

@<SCITEGIC>MOL_PROPERTY
Angle
SciTegic.value.DoubleValue
1.135

@<SCITEGIC>MOL_PROPERTY
Pdih
SciTegic.value.DoubleValue
1.421

@<SCITEGIC>MOL_PROPERTY
Idih
SciTegic.value.DoubleValue
0.000

@<SCITEGIC>MOL_PROPERTY
Tether
SciTegic.value.DoubleValue
0.000

@<TRIPOS>MOLECULE
guest-s9_confgen4.mol2 : confsearch ligand conformer 854
          20          19           1
SMALL
USER_CHARGES
 
@<TRIPOS>ATOM
       1    C1      18.876843   17.283314   20.960535 C.3        1 MOL1        -0.2224
       2    H1      19.937675   17.289797   20.681889 H          1 MOL1         0.1052
       3    H2      18.671000   16.347939   21.496868 H          1 MOL1         0.1052
       4    H3      18.290390   17.272768   20.032738 H          1 MOL1         0.1052
       5    C2      18.504657   18.510934   21.823663 C.3        1 MOL1        -0.1209
       6    H4      17.422372   18.494761   22.014003 H          1 MOL1         0.1041
       7    H5      18.694762   19.436760   21.265570 H          1 MOL1         0.1041
       8    C3      19.245807   18.545059   23.182699 C.3        1 MOL1        -0.1274
       9    H6      18.904855   19.413939   23.760805 H          1 MOL1         0.1041
      10    H7      18.951088   17.662187   23.765214 H          1 MOL1         0.1041
      11    C4      20.789899   18.571268   23.094527 C.3        1 MOL1         0.0313
      12    H8      21.156082   17.720515   22.515134 H          1 MOL1         0.1015
      13    H9      21.183751   18.472683   24.109331 H          1 MOL1         0.1015
      14    N1      21.394234   19.843264   22.518552 N.4        1 MOL1        -0.4809
      15    H10     22.314220   20.009579   22.955318 H          1 MOL1         0.3726
      16    H11     20.826356   20.662077   22.782569 H          1 MOL1         0.3726
      17    C5      21.568063   19.751283   21.006411 C.3        1 MOL1        -0.0677
      18    H12     22.031170   20.671631   20.643894 H          1 MOL1         0.1026
      19    H13     22.210987   18.900456   20.771180 H          1 MOL1         0.1026
      20    H14     20.595761   19.619878   20.530614 H          1 MOL1         0.1026
@<TRIPOS>BOND
    1     1     2    1
    2     1     3    1
    3     1     4    1
    4     1     5    1
    5     5     6    1
    6     5     7    1
    7     5     8    1
    8     8     9    1
    9     8    10    1
   10     8    11    1
   11    11    12    1
   12    11    13    1
   13    11    14    1
   14    14    15    1
   15    14    16    1
   16    14    17    1
   17    17    18    1
   18    17    19    1
   19    17    20    1
@<TRIPOS>SUBSTRUCTURE
       1 MOL1            1 RESIDUE      1      MOL     
@<SCITEGIC>MOL_PROPERTY
VConf Rank
SciTegic.value.IntegerValue
854

@<SCITEGIC>MOL_PROPERTY
Conf_Id
SciTegic.value.IntegerValue
60

@<SCITEGIC>MOL_PROPERTY
Delta U+W
SciTegic.value.DoubleValue
1.788

@<SCITEGIC>MOL_PROPERTY
U+W
SciTegic.value.DoubleValue
17.127

@<SCITEGIC>MOL_PROPERTY
Grad RMS
SciTegic.value.DoubleValue
0.000000

@<SCITEGIC>MOL_PROPERTY
U
SciTegic.value.DoubleValue
72.122

@<SCITEGIC>MOL_PROPERTY
W
SciTegic.value.DoubleValue
-54.995

@<SCITEGIC>MOL_PROPERTY
W(PB)
SciTegic.value.DoubleValue
-56.810

@<SCITEGIC>MOL_PROPERTY
W(SA)
SciTegic.value.DoubleValue
1.815

@<SCITEGIC>MOL_PROPERTY
Valence
SciTegic.value.DoubleValue
3.197

@<SCITEGIC>MOL_PROPERTY
Coulomb
SciTegic.value.DoubleValue
69.115

@<SCITEGIC>MOL_PROPERTY
VdW
SciTegic.value.DoubleValue
-0.190

@<SCITEGIC>MOL_PROPERTY
VdW6
SciTegic.value.DoubleValue
-5.585

@<SCITEGIC>MOL_PROPERTY
VdW12
SciTegic.value.DoubleValue
5.395

@<SCITEGIC>MOL_PROPERTY
Bond
SciTegic.value.DoubleValue
0.177

@<SCITEGIC>MOL_PROPERTY
Angle
SciTegic.value.DoubleValue
1.207

@<SCITEGIC>MOL_PROPERTY
Pdih
SciTegic.value.DoubleValue
1.813

@<SCITEGIC>MOL_PROPERTY
Idih
SciTegic.value.DoubleValue
0.000

@<SCITEGIC>MOL_PROPERTY
Tether
SciTegic.value.DoubleValue
0.000

@<TRIPOS>MOLECULE
guest-s9_confgen4.mol2 : confsearch ligand conformer 855
          20          19           1
SMALL
USER_CHARGES
 
@<TRIPOS>ATOM
       1    C1      22.087933   19.162643   22.819781 C.3        1 MOL1        -0.2224
       2    H1      23.008290   19.646489   22.468100 H          1 MOL1         0.1052
       3    H2      22.215425   18.936860   23.886420 H          1 MOL1         0.1052
       4    H3      21.985933   18.213031   22.280443 H          1 MOL1         0.1052
       5    C2      20.868338   20.084796   22.590036 C.3        1 MOL1        -0.1209
       6    H4      20.767885   20.319387   21.522498 H          1 MOL1         0.1041
       7    H5      21.052160   21.045971   23.090221 H          1 MOL1         0.1041
       8    C3      19.545976   19.489399   23.132542 C.3        1 MOL1        -0.1274
       9    H6      19.635994   19.368297   24.220143 H          1 MOL1         0.1041
      10    H7      18.732248   20.209817   22.976809 H          1 MOL1         0.1041
      11    C4      19.136260   18.125946   22.527724 C.3        1 MOL1         0.0313
      12    H8      18.262241   17.766484   23.076854 H          1 MOL1         0.1015
      13    H9      19.933863   17.391348   22.660987 H          1 MOL1         0.1015
      14    N1      18.742982   18.149928   21.058133 N.4        1 MOL1        -0.4809
      15    H10     18.273847   19.038120   20.826456 H          1 MOL1         0.3726
      16    H11     18.030528   17.423619   20.885844 H          1 MOL1         0.3726
      17    C5      19.941372   17.900301   20.148851 C.3        1 MOL1        -0.0677
      18    H12     20.381799   16.931794   20.395040 H          1 MOL1         0.1026
      19    H13     19.605908   17.896589   19.109440 H          1 MOL1         0.1026
      20    H14     20.682296   18.687689   20.290528 H          1 MOL1         0.1026
@<TRIPOS>BOND
    1     1     2    1
    2     1     3    1
    3     1     4    1
    4     1     5    1
    5     5     6    1
    6     5     7    1
    7     5     8    1
    8     8     9    1
    9     8    10    1
   10     8    11    1
   11    11    12    1
   12    11    13    1
   13    11    14    1
   14    14    15    1
   15    14    16    1
   16    14    17    1
   17    17    18    1
   18    17    19    1
   19    17    20    1
@<TRIPOS>SUBSTRUCTURE
       1 MOL1            1 RESIDUE      1      MOL     
@<SCITEGIC>MOL_PROPERTY
VConf Rank
SciTegic.value.IntegerValue
855

@<SCITEGIC>MOL_PROPERTY
Conf_Id
SciTegic.value.IntegerValue
54

@<SCITEGIC>MOL_PROPERTY
Delta U+W
SciTegic.value.DoubleValue
1.880

@<SCITEGIC>MOL_PROPERTY
U+W
SciTegic.value.DoubleValue
17.218

@<SCITEGIC>MOL_PROPERTY
Grad RMS
SciTegic.value.DoubleValue
0.000000

@<SCITEGIC>MOL_PROPERTY
U
SciTegic.value.DoubleValue
72.122

@<SCITEGIC>MOL_PROPERTY
W
SciTegic.value.DoubleValue
-54.903

@<SCITEGIC>MOL_PROPERTY
W(PB)
SciTegic.value.DoubleValue
-56.724

@<SCITEGIC>MOL_PROPERTY
W(SA)
SciTegic.value.DoubleValue
1.821

@<SCITEGIC>MOL_PROPERTY
Valence
SciTegic.value.DoubleValue
3.197

@<SCITEGIC>MOL_PROPERTY
Coulomb
SciTegic.value.DoubleValue
69.115

@<SCITEGIC>MOL_PROPERTY
VdW
SciTegic.value.DoubleValue
-0.190

@<SCITEGIC>MOL_PROPERTY
VdW6
SciTegic.value.DoubleValue
-5.585

@<SCITEGIC>MOL_PROPERTY
VdW12
SciTegic.value.DoubleValue
5.395

@<SCITEGIC>MOL_PROPERTY
Bond
SciTegic.value.DoubleValue
0.177

@<SCITEGIC>MOL_PROPERTY
Angle
SciTegic.value.DoubleValue
1.207

@<SCITEGIC>MOL_PROPERTY
Pdih
SciTegic.value.DoubleValue
1.813

@<SCITEGIC>MOL_PROPERTY
Idih
SciTegic.value.DoubleValue
0.000

@<SCITEGIC>MOL_PROPERTY
Tether
SciTegic.value.DoubleValue
0.000

@<TRIPOS>MOLECULE
guest-s9_confgen4.mol2 : confsearch ligand conformer 856
          20          19           1
SMALL
USER_CHARGES
 
@<TRIPOS>ATOM
       1    C1      18.712472   20.524266   19.633840 C.3        1 MOL1        -0.2224
       2    H1      18.354371   19.673538   19.039531 H          1 MOL1         0.1052
       3    H2      17.967620   21.326731   19.554648 H          1 MOL1         0.1052
       4    H3      19.645883   20.886552   19.183653 H          1 MOL1         0.1052
       5    C2      18.925974   20.121664   21.109157 C.3        1 MOL1        -0.1209
       6    H4      17.968719   19.797176   21.541271 H          1 MOL1         0.1041
       7    H5      19.250154   21.000612   21.684231 H          1 MOL1         0.1041
       8    C3      19.970425   18.992638   21.251227 C.3        1 MOL1        -0.1274
       9    H6      19.644132   18.113765   20.679317 H          1 MOL1         0.1041
      10    H7      20.927309   19.318810   20.822333 H          1 MOL1         0.1041
      11    C4      20.177739   18.596986   22.725018 C.3        1 MOL1         0.0313
      12    H8      19.230245   18.257074   23.150699 H          1 MOL1         0.1015
      13    H9      20.517685   19.465923   23.294116 H          1 MOL1         0.1015
      14    N1      21.196263   17.489860   22.913658 N.4        1 MOL1        -0.4809
      15    H10     22.105854   17.770526   22.516130 H          1 MOL1         0.3726
      16    H11     20.913826   16.651288   22.383394 H          1 MOL1         0.3726
      17    C5      21.339253   17.162010   24.393943 C.3        1 MOL1        -0.0677
      18    H12     20.373463   16.834742   24.785034 H          1 MOL1         0.1026
      19    H13     22.075024   16.363923   24.515223 H          1 MOL1         0.1026
      20    H14     21.671905   18.053765   24.929599 H          1 MOL1         0.1026
@<TRIPOS>BOND
    1     1     2    1
    2     1     3    1
    3     1     4    1
    4     1     5    1
    5     5     6    1
    6     5     7    1
    7     5     8    1
    8     8     9    1
    9     8    10    1
   10     8    11    1
   11    11    12    1
   12    11    13    1
   13    11    14    1
   14    14    15    1
   15    14    16    1
   16    14    17    1
   17    17    18    1
   18    17    19    1
   19    17    20    1
@<TRIPOS>SUBSTRUCTURE
       1 MOL1            1 RESIDUE      1      MOL     
@<SCITEGIC>MOL_PROPERTY
VConf Rank
SciTegic.value.IntegerValue
856

@<SCITEGIC>MOL_PROPERTY
Conf_Id
SciTegic.value.IntegerValue
67

@<SCITEGIC>MOL_PROPERTY
Delta U+W
SciTegic.value.DoubleValue
0.000

@<SCITEGIC>MOL_PROPERTY
U+W
SciTegic.value.DoubleValue
15.338

@<SCITEGIC>MOL_PROPERTY
Grad RMS
SciTegic.value.DoubleValue
0.000000

@<SCITEGIC>MOL_PROPERTY
U
SciTegic.value.DoubleValue
69.277

@<SCITEGIC>MOL_PROPERTY
W
SciTegic.value.DoubleValue
-53.939

@<SCITEGIC>MOL_PROPERTY
W(PB)
SciTegic.value.DoubleValue
-55.889

@<SCITEGIC>MOL_PROPERTY
W(SA)
SciTegic.value.DoubleValue
1.950

@<SCITEGIC>MOL_PROPERTY
Valence
SciTegic.value.DoubleValue
0.846

@<SCITEGIC>MOL_PROPERTY
Coulomb
SciTegic.value.DoubleValue
68.557

@<SCITEGIC>MOL_PROPERTY
VdW
SciTegic.value.DoubleValue
-0.127

@<SCITEGIC>MOL_PROPERTY
VdW6
SciTegic.value.DoubleValue
-3.008

@<SCITEGIC>MOL_PROPERTY
VdW12
SciTegic.value.DoubleValue
2.882

@<SCITEGIC>MOL_PROPERTY
Bond
SciTegic.value.DoubleValue
0.088

@<SCITEGIC>MOL_PROPERTY
Angle
SciTegic.value.DoubleValue
0.332

@<SCITEGIC>MOL_PROPERTY
Pdih
SciTegic.value.DoubleValue
0.426

@<SCITEGIC>MOL_PROPERTY
Idih
SciTegic.value.DoubleValue
0.000

@<SCITEGIC>MOL_PROPERTY
Tether
SciTegic.value.DoubleValue
0.000

@<TRIPOS>MOLECULE
guest-s9_confgen4.mol2 : confsearch ligand conformer 857
          20          19           1
SMALL
USER_CHARGES
 
@<TRIPOS>ATOM
       1    C1      17.993623   16.778899   21.487009 C.3        1 MOL1        -0.2224
       2    H1      18.576957   16.052012   22.067118 H          1 MOL1         0.1052
       3    H2      16.929797   16.562656   21.649902 H          1 MOL1         0.1052
       4    H3      18.209952   16.618897   20.422693 H          1 MOL1         0.1052
       5    C2      18.327491   18.225583   21.911166 C.3        1 MOL1        -0.1209
       6    H4      18.068587   18.364530   22.970405 H          1 MOL1         0.1041
       7    H5      17.703739   18.926923   21.339009 H          1 MOL1         0.1041
       8    C3      19.819807   18.558609   21.692584 C.3        1 MOL1        -0.1274
       9    H6      20.438535   17.855992   22.265524 H          1 MOL1         0.1041
      10    H7      20.076652   18.423786   20.633587 H          1 MOL1         0.1041
      11    C4      20.143067   20.005936   22.117698 C.3        1 MOL1         0.0313
      12    H8      19.935768   20.134979   23.182948 H          1 MOL1         0.1015
      13    H9      19.497536   20.691173   21.562345 H          1 MOL1         0.1015
      14    N1      21.579575   20.434073   21.864900 N.4        1 MOL1        -0.4809
      15    H10     21.669058   21.450538   22.020075 H          1 MOL1         0.3726
      16    H11     21.824244   20.296210   20.872476 H          1 MOL1         0.3726
      17    C5      22.549649   19.685015   22.772305 C.3        1 MOL1        -0.0677
      18    H12     22.497290   18.616256   22.555741 H          1 MOL1         0.1026
      19    H13     23.563637   20.046588   22.587742 H          1 MOL1         0.1026
      20    H14     22.278971   19.865494   23.814835 H          1 MOL1         0.1026
@<TRIPOS>BOND
    1     1     2    1
    2     1     3    1
    3     1     4    1
    4     1     5    1
    5     5     6    1
    6     5     7    1
    7     5     8    1
    8     8     9    1
    9     8    10    1
   10     8    11    1
   11    11    12    1
   12    11    13    1
   13    11    14    1
   14    14    15    1
   15    14    16    1
   16    14    17    1
   17    17    18    1
   18    17    19    1
   19    17    20    1
@<TRIPOS>SUBSTRUCTURE
       1 MOL1            1 RESIDUE      1      MOL     
@<SCITEGIC>MOL_PROPERTY
VConf Rank
SciTegic.value.IntegerValue
857

@<SCITEGIC>MOL_PROPERTY
Conf_Id
SciTegic.value.IntegerValue
37

@<SCITEGIC>MOL_PROPERTY
Delta U+W
SciTegic.value.DoubleValue
-0.021

@<SCITEGIC>MOL_PROPERTY
U+W
SciTegic.value.DoubleValue
15.318

@<SCITEGIC>MOL_PROPERTY
Grad RMS
SciTegic.value.DoubleValue
0.000000

@<SCITEGIC>MOL_PROPERTY
U
SciTegic.value.DoubleValue
69.657

@<SCITEGIC>MOL_PROPERTY
W
SciTegic.value.DoubleValue
-54.340

@<SCITEGIC>MOL_PROPERTY
W(PB)
SciTegic.value.DoubleValue
-56.238

@<SCITEGIC>MOL_PROPERTY
W(SA)
SciTegic.value.DoubleValue
1.899

@<SCITEGIC>MOL_PROPERTY
Valence
SciTegic.value.DoubleValue
1.137

@<SCITEGIC>MOL_PROPERTY
Coulomb
SciTegic.value.DoubleValue
68.383

@<SCITEGIC>MOL_PROPERTY
VdW
SciTegic.value.DoubleValue
0.138

@<SCITEGIC>MOL_PROPERTY
VdW6
SciTegic.value.DoubleValue
-3.703

@<SCITEGIC>MOL_PROPERTY
VdW12
SciTegic.value.DoubleValue
3.841

@<SCITEGIC>MOL_PROPERTY
Bond
SciTegic.value.DoubleValue
0.125

@<SCITEGIC>MOL_PROPERTY
Angle
SciTegic.value.DoubleValue
0.468

@<SCITEGIC>MOL_PROPERTY
Pdih
SciTegic.value.DoubleValue
0.543

@<SCITEGIC>MOL_PROPERTY
Idih
SciTegic.value.DoubleValue
0.000

@<SCITEGIC>MOL_PROPERTY
Tether
SciTegic.value.DoubleValue
0.000

@<TRIPOS>MOLECULE
guest-s9_confgen4.mol2 : confsearch ligand conformer 858
          20          19           1
SMALL
USER_CHARGES
 
@<TRIPOS>ATOM
       1    C1      17.652919   19.930132   23.491557 C.3        1 MOL1        -0.2224
       2    H1      16.766416   20.563783   23.358818 H          1 MOL1         0.1052
       3    H2      17.308240   18.917216   23.737253 H          1 MOL1         0.1052
       4    H3      18.216786   20.316743   24.350483 H          1 MOL1         0.1052
       5    C2      18.518702   19.928364   22.213009 C.3        1 MOL1        -0.1209
       6    H4      18.818528   20.958490   21.973735 H          1 MOL1         0.1041
       7    H5      17.917665   19.569482   21.365491 H          1 MOL1         0.1041
       8    C3      19.775072   19.043913   22.371020 C.3        1 MOL1        -0.1274
       9    H6      20.377111   19.405584   23.215037 H          1 MOL1         0.1041
      10    H7      19.470895   18.016681   22.609818 H          1 MOL1         0.1041
      11    C4      20.634048   19.049811   21.089578 C.3        1 MOL1         0.0313
      12    H8      20.902248   20.081325   20.847242 H          1 MOL1         0.1015
      13    H9      20.057079   18.645485   20.254109 H          1 MOL1         0.1015
      14    N1      21.928137   18.258776   21.191337 N.4        1 MOL1        -0.4809
      15    H10     22.488004   18.590753   21.991409 H          1 MOL1         0.3726
      16    H11     22.513967   18.447520   20.362805 H          1 MOL1         0.3726
      17    C5      21.656413   16.762343   21.302566 C.3        1 MOL1        -0.0677
      18    H12     21.080724   16.435948   20.433799 H          1 MOL1         0.1026
      19    H13     22.608187   16.227516   21.335097 H          1 MOL1         0.1026
      20    H14     21.093250   16.562801   22.216304 H          1 MOL1         0.1026
@<TRIPOS>BOND
    1     1     2    1
    2     1     3    1
    3     1     4    1
    4     1     5    1
    5     5     6    1
    6     5     7    1
    7     5     8    1
    8     8     9    1
    9     8    10    1
   10     8    11    1
   11    11    12    1
   12    11    13    1
   13    11    14    1
   14    14    15    1
   15    14    16    1
   16    14    17    1
   17    17    18    1
   18    17    19    1
   19    17    20    1
@<TRIPOS>SUBSTRUCTURE
       1 MOL1            1 RESIDUE      1      MOL     
@<SCITEGIC>MOL_PROPERTY
VConf Rank
SciTegic.value.IntegerValue
858

@<SCITEGIC>MOL_PROPERTY
Conf_Id
SciTegic.value.IntegerValue
2

@<SCITEGIC>MOL_PROPERTY
Delta U+W
SciTegic.value.DoubleValue
0.069

@<SCITEGIC>MOL_PROPERTY
U+W
SciTegic.value.DoubleValue
15.407

@<SCITEGIC>MOL_PROPERTY
Grad RMS
SciTegic.value.DoubleValue
0.000000

@<SCITEGIC>MOL_PROPERTY
U
SciTegic.value.DoubleValue
69.657

@<SCITEGIC>MOL_PROPERTY
W
SciTegic.value.DoubleValue
-54.250

@<SCITEGIC>MOL_PROPERTY
W(PB)
SciTegic.value.DoubleValue
-56.176

@<SCITEGIC>MOL_PROPERTY
W(SA)
SciTegic.value.DoubleValue
1.926

@<SCITEGIC>MOL_PROPERTY
Valence
SciTegic.value.DoubleValue
1.137

@<SCITEGIC>MOL_PROPERTY
Coulomb
SciTegic.value.DoubleValue
68.383

@<SCITEGIC>MOL_PROPERTY
VdW
SciTegic.value.DoubleValue
0.138

@<SCITEGIC>MOL_PROPERTY
VdW6
SciTegic.value.DoubleValue
-3.703

@<SCITEGIC>MOL_PROPERTY
VdW12
SciTegic.value.DoubleValue
3.841

@<SCITEGIC>MOL_PROPERTY
Bond
SciTegic.value.DoubleValue
0.125

@<SCITEGIC>MOL_PROPERTY
Angle
SciTegic.value.DoubleValue
0.468

@<SCITEGIC>MOL_PROPERTY
Pdih
SciTegic.value.DoubleValue
0.543

@<SCITEGIC>MOL_PROPERTY
Idih
SciTegic.value.DoubleValue
0.000

@<SCITEGIC>MOL_PROPERTY
Tether
SciTegic.value.DoubleValue
0.000

@<TRIPOS>MOLECULE
guest-s9_confgen4.mol2 : confsearch ligand conformer 859
          20          19           1
SMALL
USER_CHARGES
 
@<TRIPOS>ATOM
       1    C1      18.177363   17.075271   22.978008 C.3        1 MOL1        -0.2224
       2    H1      18.999114   16.529485   22.497482 H          1 MOL1         0.1052
       3    H2      18.431284   17.214940   24.036835 H          1 MOL1         0.1052
       4    H3      17.284612   16.438387   22.929362 H          1 MOL1         0.1052
       5    C2      17.913751   18.431986   22.285100 C.3        1 MOL1        -0.1209
       6    H4      17.027442   18.899074   22.737093 H          1 MOL1         0.1041
       7    H5      17.668348   18.264407   21.226847 H          1 MOL1         0.1041
       8    C3      19.107628   19.409120   22.394853 C.3        1 MOL1        -0.1274
       9    H6      18.822681   20.372553   21.951615 H          1 MOL1         0.1041
      10    H7      19.328832   19.602538   23.452928 H          1 MOL1         0.1041
      11    C4      20.372662   18.882634   21.689341 C.3        1 MOL1         0.0313
      12    H8      20.152965   18.692482   20.635800 H          1 MOL1         0.1015
      13    H9      20.687254   17.943112   22.149881 H          1 MOL1         0.1015
      14    N1      21.542740   19.844452   21.754869 N.4        1 MOL1        -0.4809
      15    H10     21.775106   20.056824   22.737210 H          1 MOL1         0.3726
      16    H11     21.284191   20.749912   21.333682 H          1 MOL1         0.3726
      17    C5      22.746783   19.247258   21.038817 C.3        1 MOL1        -0.0677
      18    H12     22.488935   19.062740   19.993700 H          1 MOL1         0.1026
      19    H13     23.581439   19.949656   21.093506 H          1 MOL1         0.1026
      20    H14     23.023852   18.308067   21.522505 H          1 MOL1         0.1026
@<TRIPOS>BOND
    1     1     2    1
    2     1     3    1
    3     1     4    1
    4     1     5    1
    5     5     6    1
    6     5     7    1
    7     5     8    1
    8     8     9    1
    9     8    10    1
   10     8    11    1
   11    11    12    1
   12    11    13    1
   13    11    14    1
   14    14    15    1
   15    14    16    1
   16    14    17    1
   17    17    18    1
   18    17    19    1
   19    17    20    1
@<TRIPOS>SUBSTRUCTURE
       1 MOL1            1 RESIDUE      1      MOL     
@<SCITEGIC>MOL_PROPERTY
VConf Rank
SciTegic.value.IntegerValue
859

@<SCITEGIC>MOL_PROPERTY
Conf_Id
SciTegic.value.IntegerValue
34

@<SCITEGIC>MOL_PROPERTY
Delta U+W
SciTegic.value.DoubleValue
0.276

@<SCITEGIC>MOL_PROPERTY
U+W
SciTegic.value.DoubleValue
15.615

@<SCITEGIC>MOL_PROPERTY
Grad RMS
SciTegic.value.DoubleValue
0.000000

@<SCITEGIC>MOL_PROPERTY
U
SciTegic.value.DoubleValue
69.798

@<SCITEGIC>MOL_PROPERTY
W
SciTegic.value.DoubleValue
-54.184

@<SCITEGIC>MOL_PROPERTY
W(PB)
SciTegic.value.DoubleValue
-56.116

@<SCITEGIC>MOL_PROPERTY
W(SA)
SciTegic.value.DoubleValue
1.933

@<SCITEGIC>MOL_PROPERTY
Valence
SciTegic.value.DoubleValue
1.134

@<SCITEGIC>MOL_PROPERTY
Coulomb
SciTegic.value.DoubleValue
68.735

@<SCITEGIC>MOL_PROPERTY
VdW
SciTegic.value.DoubleValue
-0.070

@<SCITEGIC>MOL_PROPERTY
VdW6
SciTegic.value.DoubleValue
-3.565

@<SCITEGIC>MOL_PROPERTY
VdW12
SciTegic.value.DoubleValue
3.494

@<SCITEGIC>MOL_PROPERTY
Bond
SciTegic.value.DoubleValue
0.108

@<SCITEGIC>MOL_PROPERTY
Angle
SciTegic.value.DoubleValue
0.456

@<SCITEGIC>MOL_PROPERTY
Pdih
SciTegic.value.DoubleValue
0.569

@<SCITEGIC>MOL_PROPERTY
Idih
SciTegic.value.DoubleValue
0.000

@<SCITEGIC>MOL_PROPERTY
Tether
SciTegic.value.DoubleValue
0.000

@<TRIPOS>MOLECULE
guest-s9_confgen4.mol2 : confsearch ligand conformer 860
          20          19           1
SMALL
USER_CHARGES
 
@<TRIPOS>ATOM
       1    C1      20.410491   21.373662   20.444002 C.3        1 MOL1        -0.2224
       2    H1      19.494659   21.974392   20.518467 H          1 MOL1         0.1052
       3    H2      21.266778   22.052545   20.548482 H          1 MOL1         0.1052
       4    H3      20.450200   20.934824   19.438504 H          1 MOL1         0.1052
       5    C2      20.447254   20.277637   21.530925 C.3        1 MOL1        -0.1209
       6    H4      20.438377   20.749097   22.523885 H          1 MOL1         0.1041
       7    H5      21.393065   19.724885   21.450899 H          1 MOL1         0.1041
       8    C3      19.249821   19.306300   21.405056 C.3        1 MOL1        -0.1274
       9    H6      18.313142   19.877876   21.447667 H          1 MOL1         0.1041
      10    H7      19.268220   18.810271   20.425529 H          1 MOL1         0.1041
      11    C4      19.222339   18.242785   22.521175 C.3        1 MOL1         0.0313
      12    H8      18.310361   17.647265   22.430234 H          1 MOL1         0.1015
      13    H9      19.211188   18.734650   23.497074 H          1 MOL1         0.1015
      14    N1      20.398544   17.284874   22.492306 N.4        1 MOL1        -0.4809
      15    H10     21.283685   17.806138   22.577534 H          1 MOL1         0.3726
      16    H11     20.446748   16.808599   21.578586 H          1 MOL1         0.3726
      17    C5      20.268427   16.268134   23.618427 C.3        1 MOL1        -0.0677
      18    H12     20.252690   16.792223   24.576484 H          1 MOL1         0.1026
      19    H13     19.341259   15.705463   23.489791 H          1 MOL1         0.1026
      20    H14     21.120599   15.585679   23.586045 H          1 MOL1         0.1026
@<TRIPOS>BOND
    1     1     2    1
    2     1     3    1
    3     1     4    1
    4     1     5    1
    5     5     6    1
    6     5     7    1
    7     5     8    1
    8     8     9    1
    9     8    10    1
   10     8    11    1
   11    11    12    1
   12    11    13    1
   13    11    14    1
   14    14    15    1
   15    14    16    1
   16    14    17    1
   17    17    18    1
   18    17    19    1
   19    17    20    1
@<TRIPOS>SUBSTRUCTURE
       1 MOL1            1 RESIDUE      1      MOL     
@<SCITEGIC>MOL_PROPERTY
VConf Rank
SciTegic.value.IntegerValue
860

@<SCITEGIC>MOL_PROPERTY
Conf_Id
SciTegic.value.IntegerValue
50

@<SCITEGIC>MOL_PROPERTY
Delta U+W
SciTegic.value.DoubleValue
0.319

@<SCITEGIC>MOL_PROPERTY
U+W
SciTegic.value.DoubleValue
15.657

@<SCITEGIC>MOL_PROPERTY
Grad RMS
SciTegic.value.DoubleValue
0.000000

@<SCITEGIC>MOL_PROPERTY
U
SciTegic.value.DoubleValue
69.962

@<SCITEGIC>MOL_PROPERTY
W
SciTegic.value.DoubleValue
-54.305

@<SCITEGIC>MOL_PROPERTY
W(PB)
SciTegic.value.DoubleValue
-56.223

@<SCITEGIC>MOL_PROPERTY
W(SA)
SciTegic.value.DoubleValue
1.918

@<SCITEGIC>MOL_PROPERTY
Valence
SciTegic.value.DoubleValue
0.982

@<SCITEGIC>MOL_PROPERTY
Coulomb
SciTegic.value.DoubleValue
69.058

@<SCITEGIC>MOL_PROPERTY
VdW
SciTegic.value.DoubleValue
-0.078

@<SCITEGIC>MOL_PROPERTY
VdW6
SciTegic.value.DoubleValue
-3.548

@<SCITEGIC>MOL_PROPERTY
VdW12
SciTegic.value.DoubleValue
3.471

@<SCITEGIC>MOL_PROPERTY
Bond
SciTegic.value.DoubleValue
0.105

@<SCITEGIC>MOL_PROPERTY
Angle
SciTegic.value.DoubleValue
0.408

@<SCITEGIC>MOL_PROPERTY
Pdih
SciTegic.value.DoubleValue
0.469

@<SCITEGIC>MOL_PROPERTY
Idih
SciTegic.value.DoubleValue
0.000

@<SCITEGIC>MOL_PROPERTY
Tether
SciTegic.value.DoubleValue
0.000

@<TRIPOS>MOLECULE
guest-s9_confgen4.mol2 : confsearch ligand conformer 861
          20          19           1
SMALL
USER_CHARGES
 
@<TRIPOS>ATOM
       1    C1      18.179241   16.572147   21.299194 C.3        1 MOL1        -0.2224
       2    H1      17.510944   16.065343   22.007400 H          1 MOL1         0.1052
       3    H2      17.582634   16.865360   20.425549 H          1 MOL1         0.1052
       4    H3      18.933136   15.845407   20.969538 H          1 MOL1         0.1052
       5    C2      18.842266   17.800936   21.958360 C.3        1 MOL1        -0.1209
       6    H4      19.395803   17.474870   22.849299 H          1 MOL1         0.1041
       7    H5      18.062140   18.493283   22.305323 H          1 MOL1         0.1041
       8    C3      19.790669   18.533309   20.979917 C.3        1 MOL1        -0.1274
       9    H6      20.589443   17.855424   20.650845 H          1 MOL1         0.1041
      10    H7      19.232172   18.818112   20.078335 H          1 MOL1         0.1041
      11    C4      20.412729   19.805730   21.589450 C.3        1 MOL1         0.0313
      12    H8      19.619136   20.478605   21.923944 H          1 MOL1         0.1015
      13    H9      20.997740   20.323560   20.825098 H          1 MOL1         0.1015
      14    N1      21.331521   19.542082   22.767669 N.4        1 MOL1        -0.4809
      15    H10     22.089684   18.899895   22.490479 H          1 MOL1         0.3726
      16    H11     20.818144   19.054170   23.516561 H          1 MOL1         0.3726
      17    C5      21.905350   20.855040   23.283131 C.3        1 MOL1        -0.0677
      18    H12     22.563943   20.650898   24.130226 H          1 MOL1         0.1026
      19    H13     22.472204   21.338173   22.484354 H          1 MOL1         0.1026
      20    H14     21.087383   21.505148   23.601066 H          1 MOL1         0.1026
@<TRIPOS>BOND
    1     1     2    1
    2     1     3    1
    3     1     4    1
    4     1     5    1
    5     5     6    1
    6     5     7    1
    7     5     8    1
    8     8     9    1
    9     8    10    1
   10     8    11    1
   11    11    12    1
   12    11    13    1
   13    11    14    1
   14    14    15    1
   15    14    16    1
   16    14    17    1
   17    17    18    1
   18    17    19    1
   19    17    20    1
@<TRIPOS>SUBSTRUCTURE
       1 MOL1            1 RESIDUE      1      MOL     
@<SCITEGIC>MOL_PROPERTY
VConf Rank
SciTegic.value.IntegerValue
861

@<SCITEGIC>MOL_PROPERTY
Conf_Id
SciTegic.value.IntegerValue
35

@<SCITEGIC>MOL_PROPERTY
Delta U+W
SciTegic.value.DoubleValue
0.360

@<SCITEGIC>MOL_PROPERTY
U+W
SciTegic.value.DoubleValue
15.698

@<SCITEGIC>MOL_PROPERTY
Grad RMS
SciTegic.value.DoubleValue
0.000000

@<SCITEGIC>MOL_PROPERTY
U
SciTegic.value.DoubleValue
69.962

@<SCITEGIC>MOL_PROPERTY
W
SciTegic.value.DoubleValue
-54.264

@<SCITEGIC>MOL_PROPERTY
W(PB)
SciTegic.value.DoubleValue
-56.166

@<SCITEGIC>MOL_PROPERTY
W(SA)
SciTegic.value.DoubleValue
1.902

@<SCITEGIC>MOL_PROPERTY
Valence
SciTegic.value.DoubleValue
0.982

@<SCITEGIC>MOL_PROPERTY
Coulomb
SciTegic.value.DoubleValue
69.058

@<SCITEGIC>MOL_PROPERTY
VdW
SciTegic.value.DoubleValue
-0.078

@<SCITEGIC>MOL_PROPERTY
VdW6
SciTegic.value.DoubleValue
-3.548

@<SCITEGIC>MOL_PROPERTY
VdW12
SciTegic.value.DoubleValue
3.471

@<SCITEGIC>MOL_PROPERTY
Bond
SciTegic.value.DoubleValue
0.105

@<SCITEGIC>MOL_PROPERTY
Angle
SciTegic.value.DoubleValue
0.408

@<SCITEGIC>MOL_PROPERTY
Pdih
SciTegic.value.DoubleValue
0.469

@<SCITEGIC>MOL_PROPERTY
Idih
SciTegic.value.DoubleValue
0.000

@<SCITEGIC>MOL_PROPERTY
Tether
SciTegic.value.DoubleValue
0.000

@<TRIPOS>MOLECULE
guest-s9_confgen4.mol2 : confsearch ligand conformer 862
          20          19           1
SMALL
USER_CHARGES
 
@<TRIPOS>ATOM
       1    C1      19.008253   20.728490   23.269807 C.3        1 MOL1        -0.2224
       2    H1      18.586721   20.806636   22.259721 H          1 MOL1         0.1052
       3    H2      18.362874   21.307274   23.943207 H          1 MOL1         0.1052
       4    H3      19.998325   21.202658   23.265685 H          1 MOL1         0.1052
       5    C2      19.097779   19.257215   23.736224 C.3        1 MOL1        -0.1209
       6    H4      18.095931   18.805141   23.726374 H          1 MOL1         0.1041
       7    H5      19.437318   19.232299   24.781249 H          1 MOL1         0.1041
       8    C3      20.061342   18.408356   22.874330 C.3        1 MOL1        -0.1274
       9    H6      21.068076   18.843395   22.918344 H          1 MOL1         0.1041
      10    H7      20.134545   17.401556   23.306200 H          1 MOL1         0.1041
      11    C4      19.599285   18.295636   21.405568 C.3        1 MOL1         0.0313
      12    H8      19.586393   19.285233   20.942655 H          1 MOL1         0.1015
      13    H9      18.581324   17.898334   21.383762 H          1 MOL1         0.1015
      14    N1      20.458217   17.387858   20.540368 N.4        1 MOL1        -0.4809
      15    H10     19.994283   17.237497   19.630772 H          1 MOL1         0.3726
      16    H11     20.523090   16.448837   20.961972 H          1 MOL1         0.3726
      17    C5      21.845569   17.981831   20.321696 C.3        1 MOL1        -0.0677
      18    H12     22.355094   18.076594   21.282577 H          1 MOL1         0.1026
      19    H13     22.418365   17.321159   19.667188 H          1 MOL1         0.1026
      20    H14     21.746480   18.964880   19.856409 H          1 MOL1         0.1026
@<TRIPOS>BOND
    1     1     2    1
    2     1     3    1
    3     1     4    1
    4     1     5    1
    5     5     6    1
    6     5     7    1
    7     5     8    1
    8     8     9    1
    9     8    10    1
   10     8    11    1
   11    11    12    1
   12    11    13    1
   13    11    14    1
   14    14    15    1
   15    14    16    1
   16    14    17    1
   17    17    18    1
   18    17    19    1
   19    17    20    1
@<TRIPOS>SUBSTRUCTURE
       1 MOL1            1 RESIDUE      1      MOL     
@<SCITEGIC>MOL_PROPERTY
VConf Rank
SciTegic.value.IntegerValue
862

@<SCITEGIC>MOL_PROPERTY
Conf_Id
SciTegic.value.IntegerValue
33

@<SCITEGIC>MOL_PROPERTY
Delta U+W
SciTegic.value.DoubleValue
0.372

@<SCITEGIC>MOL_PROPERTY
U+W
SciTegic.value.DoubleValue
15.711

@<SCITEGIC>MOL_PROPERTY
Grad RMS
SciTegic.value.DoubleValue
0.000000

@<SCITEGIC>MOL_PROPERTY
U
SciTegic.value.DoubleValue
70.163

@<SCITEGIC>MOL_PROPERTY
W
SciTegic.value.DoubleValue
-54.452

@<SCITEGIC>MOL_PROPERTY
W(PB)
SciTegic.value.DoubleValue
-56.363

@<SCITEGIC>MOL_PROPERTY
W(SA)
SciTegic.value.DoubleValue
1.911

@<SCITEGIC>MOL_PROPERTY
Valence
SciTegic.value.DoubleValue
1.420

@<SCITEGIC>MOL_PROPERTY
Coulomb
SciTegic.value.DoubleValue
68.566

@<SCITEGIC>MOL_PROPERTY
VdW
SciTegic.value.DoubleValue
0.177

@<SCITEGIC>MOL_PROPERTY
VdW6
SciTegic.value.DoubleValue
-4.267

@<SCITEGIC>MOL_PROPERTY
VdW12
SciTegic.value.DoubleValue
4.445

@<SCITEGIC>MOL_PROPERTY
Bond
SciTegic.value.DoubleValue
0.146

@<SCITEGIC>MOL_PROPERTY
Angle
SciTegic.value.DoubleValue
0.581

@<SCITEGIC>MOL_PROPERTY
Pdih
SciTegic.value.DoubleValue
0.693

@<SCITEGIC>MOL_PROPERTY
Idih
SciTegic.value.DoubleValue
0.000

@<SCITEGIC>MOL_PROPERTY
Tether
SciTegic.value.DoubleValue
0.000

@<TRIPOS>MOLECULE
guest-s9_confgen4.mol2 : confsearch ligand conformer 863
          20          19           1
SMALL
USER_CHARGES
 
@<TRIPOS>ATOM
       1    C1      17.568177   18.625824   21.783530 C.3        1 MOL1        -0.2224
       2    H1      16.532339   18.838923   21.489246 H          1 MOL1         0.1052
       3    H2      17.954304   17.857838   21.101495 H          1 MOL1         0.1052
       4    H3      17.548222   18.205219   22.797328 H          1 MOL1         0.1052
       5    C2      18.422370   19.913420   21.731940 C.3        1 MOL1        -0.1209
       6    H4      17.949058   20.683112   22.357667 H          1 MOL1         0.1041
       7    H5      18.430028   20.310614   20.707076 H          1 MOL1         0.1041
       8    C3      19.874439   19.694286   22.217075 C.3        1 MOL1        -0.1274
       9    H6      20.397681   20.659501   22.226720 H          1 MOL1         0.1041
      10    H7      19.861289   19.333322   23.253532 H          1 MOL1         0.1041
      11    C4      20.654639   18.705630   21.324153 C.3        1 MOL1         0.0313
      12    H8      20.623309   19.060647   20.290931 H          1 MOL1         0.1015
      13    H9      20.182151   17.721075   21.358239 H          1 MOL1         0.1015
      14    N1      22.117455   18.533495   21.699575 N.4        1 MOL1        -0.4809
      15    H10     22.593563   19.448319   21.711306 H          1 MOL1         0.3726
      16    H11     22.601269   17.993364   20.965144 H          1 MOL1         0.3726
      17    C5      22.264914   17.827435   23.043116 C.3        1 MOL1        -0.0677
      18    H12     23.326457   17.689312   23.259936 H          1 MOL1         0.1026
      19    H13     21.807989   18.436900   23.825203 H          1 MOL1         0.1026
      20    H14     21.769928   16.855157   22.994501 H          1 MOL1         0.1026
@<TRIPOS>BOND
    1     1     2    1
    2     1     3    1
    3     1     4    1
    4     1     5    1
    5     5     6    1
    6     5     7    1
    7     5     8    1
    8     8     9    1
    9     8    10    1
   10     8    11    1
   11    11    12    1
   12    11    13    1
   13    11    14    1
   14    14    15    1
   15    14    16    1
   16    14    17    1
   17    17    18    1
   18    17    19    1
   19    17    20    1
@<TRIPOS>SUBSTRUCTURE
       1 MOL1            1 RESIDUE      1      MOL     
@<SCITEGIC>MOL_PROPERTY
VConf Rank
SciTegic.value.IntegerValue
863

@<SCITEGIC>MOL_PROPERTY
Conf_Id
SciTegic.value.IntegerValue
53

@<SCITEGIC>MOL_PROPERTY
Delta U+W
SciTegic.value.DoubleValue
0.379

@<SCITEGIC>MOL_PROPERTY
U+W
SciTegic.value.DoubleValue
15.717

@<SCITEGIC>MOL_PROPERTY
Grad RMS
SciTegic.value.DoubleValue
0.000000

@<SCITEGIC>MOL_PROPERTY
U
SciTegic.value.DoubleValue
70.163

@<SCITEGIC>MOL_PROPERTY
W
SciTegic.value.DoubleValue
-54.446

@<SCITEGIC>MOL_PROPERTY
W(PB)
SciTegic.value.DoubleValue
-56.322

@<SCITEGIC>MOL_PROPERTY
W(SA)
SciTegic.value.DoubleValue
1.876

@<SCITEGIC>MOL_PROPERTY
Valence
SciTegic.value.DoubleValue
1.420

@<SCITEGIC>MOL_PROPERTY
Coulomb
SciTegic.value.DoubleValue
68.566

@<SCITEGIC>MOL_PROPERTY
VdW
SciTegic.value.DoubleValue
0.177

@<SCITEGIC>MOL_PROPERTY
VdW6
SciTegic.value.DoubleValue
-4.267

@<SCITEGIC>MOL_PROPERTY
VdW12
SciTegic.value.DoubleValue
4.445

@<SCITEGIC>MOL_PROPERTY
Bond
SciTegic.value.DoubleValue
0.146

@<SCITEGIC>MOL_PROPERTY
Angle
SciTegic.value.DoubleValue
0.581

@<SCITEGIC>MOL_PROPERTY
Pdih
SciTegic.value.DoubleValue
0.693

@<SCITEGIC>MOL_PROPERTY
Idih
SciTegic.value.DoubleValue
0.000

@<SCITEGIC>MOL_PROPERTY
Tether
SciTegic.value.DoubleValue
0.000

@<TRIPOS>MOLECULE
guest-s9_confgen4.mol2 : confsearch ligand conformer 864
          20          19           1
SMALL
USER_CHARGES
 
@<TRIPOS>ATOM
       1    C1      21.010691   16.660854   20.483934 C.3        1 MOL1        -0.2224
       2    H1      21.567050   15.782829   20.836835 H          1 MOL1         0.1052
       3    H2      20.247064   16.312500   19.776355 H          1 MOL1         0.1052
       4    H3      21.711860   17.306504   19.939269 H          1 MOL1         0.1052
       5    C2      20.368965   17.413054   21.669828 C.3        1 MOL1        -0.1209
       6    H4      21.157519   17.711543   22.373918 H          1 MOL1         0.1041
       7    H5      19.698127   16.732586   22.213078 H          1 MOL1         0.1041
       8    C3      19.579799   18.657356   21.199027 C.3        1 MOL1        -0.1274
       9    H6      20.250881   19.353296   20.679357 H          1 MOL1         0.1041
      10    H7      18.824618   18.350939   20.463189 H          1 MOL1         0.1041
      11    C4      18.861536   19.386388   22.356296 C.3        1 MOL1         0.0313
      12    H8      18.155666   18.696706   22.826100 H          1 MOL1         0.1015
      13    H9      18.290888   20.228964   21.957648 H          1 MOL1         0.1015
      14    N1      19.769878   19.923631   23.452158 N.4        1 MOL1        -0.4809
      15    H10     20.331271   19.159309   23.855494 H          1 MOL1         0.3726
      16    H11     19.195818   20.273155   24.235429 H          1 MOL1         0.3726
      17    C5      20.668755   21.039194   22.930167 C.3        1 MOL1        -0.0677
      18    H12     20.047854   21.842270   22.527415 H          1 MOL1         0.1026
      19    H13     21.277974   21.421971   23.751912 H          1 MOL1         0.1026
      20    H14     21.317835   20.644055   22.146218 H          1 MOL1         0.1026
@<TRIPOS>BOND
    1     1     2    1
    2     1     3    1
    3     1     4    1
    4     1     5    1
    5     5     6    1
    6     5     7    1
    7     5     8    1
    8     8     9    1
    9     8    10    1
   10     8    11    1
   11    11    12    1
   12    11    13    1
   13    11    14    1
   14    14    15    1
   15    14    16    1
   16    14    17    1
   17    17    18    1
   18    17    19    1
   19    17    20    1
@<TRIPOS>SUBSTRUCTURE
       1 MOL1            1 RESIDUE      1      MOL     
@<SCITEGIC>MOL_PROPERTY
VConf Rank
SciTegic.value.IntegerValue
864

@<SCITEGIC>MOL_PROPERTY
Conf_Id
SciTegic.value.IntegerValue
49

@<SCITEGIC>MOL_PROPERTY
Delta U+W
SciTegic.value.DoubleValue
0.268

@<SCITEGIC>MOL_PROPERTY
U+W
SciTegic.value.DoubleValue
15.607

@<SCITEGIC>MOL_PROPERTY
Grad RMS
SciTegic.value.DoubleValue
0.000000

@<SCITEGIC>MOL_PROPERTY
U
SciTegic.value.DoubleValue
70.298

@<SCITEGIC>MOL_PROPERTY
W
SciTegic.value.DoubleValue
-54.692

@<SCITEGIC>MOL_PROPERTY
W(PB)
SciTegic.value.DoubleValue
-56.576

@<SCITEGIC>MOL_PROPERTY
W(SA)
SciTegic.value.DoubleValue
1.885

@<SCITEGIC>MOL_PROPERTY
Valence
SciTegic.value.DoubleValue
1.245

@<SCITEGIC>MOL_PROPERTY
Coulomb
SciTegic.value.DoubleValue
68.933

@<SCITEGIC>MOL_PROPERTY
VdW
SciTegic.value.DoubleValue
0.120

@<SCITEGIC>MOL_PROPERTY
VdW6
SciTegic.value.DoubleValue
-4.430

@<SCITEGIC>MOL_PROPERTY
VdW12
SciTegic.value.DoubleValue
4.550

@<SCITEGIC>MOL_PROPERTY
Bond
SciTegic.value.DoubleValue
0.148

@<SCITEGIC>MOL_PROPERTY
Angle
SciTegic.value.DoubleValue
0.587

@<SCITEGIC>MOL_PROPERTY
Pdih
SciTegic.value.DoubleValue
0.509

@<SCITEGIC>MOL_PROPERTY
Idih
SciTegic.value.DoubleValue
0.000

@<SCITEGIC>MOL_PROPERTY
Tether
SciTegic.value.DoubleValue
0.000

@<TRIPOS>MOLECULE
guest-s9_confgen4.mol2 : confsearch ligand conformer 865
          20          19           1
SMALL
USER_CHARGES
 
@<TRIPOS>ATOM
       1    C1      20.319542   20.254308   19.654653 C.3        1 MOL1        -0.2224
       2    H1      19.372149   20.808764   19.640664 H          1 MOL1         0.1052
       3    H2      21.137860   20.978817   19.757527 H          1 MOL1         0.1052
       4    H3      20.432169   19.756615   18.682739 H          1 MOL1         0.1052
       5    C2      20.342328   19.221486   20.802298 C.3        1 MOL1        -0.1209
       6    H4      21.289163   18.664120   20.773396 H          1 MOL1         0.1041
       7    H5      19.535432   18.494640   20.640550 H          1 MOL1         0.1041
       8    C3      20.174238   19.896379   22.183561 C.3        1 MOL1        -0.1274
       9    H6      20.915978   20.700018   22.282271 H          1 MOL1         0.1041
      10    H7      19.189263   20.377716   22.244340 H          1 MOL1         0.1041
      11    C4      20.351223   18.936384   23.381859 C.3        1 MOL1         0.0313
      12    H8      20.277492   19.525949   24.299312 H          1 MOL1         0.1015
      13    H9      21.344301   18.480716   23.360376 H          1 MOL1         0.1015
      14    N1      19.318846   17.824957   23.492263 N.4        1 MOL1        -0.4809
      15    H10     18.405860   18.145250   23.136302 H          1 MOL1         0.3726
      16    H11     19.153458   17.611920   24.488391 H          1 MOL1         0.3726
      17    C5      19.783810   16.559189   22.779321 C.3        1 MOL1        -0.0677
      18    H12     19.026553   15.781743   22.902189 H          1 MOL1         0.1026
      19    H13     19.927921   16.764524   21.718011 H          1 MOL1         0.1026
      20    H14     20.725649   16.225732   23.220270 H          1 MOL1         0.1026
@<TRIPOS>BOND
    1     1     2    1
    2     1     3    1
    3     1     4    1
    4     1     5    1
    5     5     6    1
    6     5     7    1
    7     5     8    1
    8     8     9    1
    9     8    10    1
   10     8    11    1
   11    11    12    1
   12    11    13    1
   13    11    14    1
   14    14    15    1
   15    14    16    1
   16    14    17    1
   17    17    18    1
   18    17    19    1
   19    17    20    1
@<TRIPOS>SUBSTRUCTURE
       1 MOL1            1 RESIDUE      1      MOL     
@<SCITEGIC>MOL_PROPERTY
VConf Rank
SciTegic.value.IntegerValue
865

@<SCITEGIC>MOL_PROPERTY
Conf_Id
SciTegic.value.IntegerValue
65

@<SCITEGIC>MOL_PROPERTY
Delta U+W
SciTegic.value.DoubleValue
1.775

@<SCITEGIC>MOL_PROPERTY
U+W
SciTegic.value.DoubleValue
17.114

@<SCITEGIC>MOL_PROPERTY
Grad RMS
SciTegic.value.DoubleValue
0.000000

@<SCITEGIC>MOL_PROPERTY
U
SciTegic.value.DoubleValue
71.726

@<SCITEGIC>MOL_PROPERTY
W
SciTegic.value.DoubleValue
-54.613

@<SCITEGIC>MOL_PROPERTY
W(PB)
SciTegic.value.DoubleValue
-56.495

@<SCITEGIC>MOL_PROPERTY
W(SA)
SciTegic.value.DoubleValue
1.883

@<SCITEGIC>MOL_PROPERTY
Valence
SciTegic.value.DoubleValue
2.885

@<SCITEGIC>MOL_PROPERTY
Coulomb
SciTegic.value.DoubleValue
68.822

@<SCITEGIC>MOL_PROPERTY
VdW
SciTegic.value.DoubleValue
0.019

@<SCITEGIC>MOL_PROPERTY
VdW6
SciTegic.value.DoubleValue
-4.600

@<SCITEGIC>MOL_PROPERTY
VdW12
SciTegic.value.DoubleValue
4.619

@<SCITEGIC>MOL_PROPERTY
Bond
SciTegic.value.DoubleValue
0.152

@<SCITEGIC>MOL_PROPERTY
Angle
SciTegic.value.DoubleValue
0.862

@<SCITEGIC>MOL_PROPERTY
Pdih
SciTegic.value.DoubleValue
1.871

@<SCITEGIC>MOL_PROPERTY
Idih
SciTegic.value.DoubleValue
0.000

@<SCITEGIC>MOL_PROPERTY
Tether
SciTegic.value.DoubleValue
0.000

@<TRIPOS>MOLECULE
guest-s9_confgen4.mol2 : confsearch ligand conformer 866
          20          19           1
SMALL
USER_CHARGES
 
@<TRIPOS>ATOM
       1    C1      21.119953   18.408905   24.141909 C.3        1 MOL1        -0.2224
       2    H1      20.045162   18.199380   24.071716 H          1 MOL1         0.1052
       3    H2      21.571334   17.619095   24.756266 H          1 MOL1         0.1052
       4    H3      21.249423   19.360758   24.673214 H          1 MOL1         0.1052
       5    C2      21.783804   18.456473   22.746485 C.3        1 MOL1        -0.1209
       6    H4      21.641445   17.494170   22.236275 H          1 MOL1         0.1041
       7    H5      22.869348   18.574752   22.871429 H          1 MOL1         0.1041
       8    C3      21.255139   19.612974   21.861602 C.3        1 MOL1        -0.1274
       9    H6      21.497951   20.571964   22.338200 H          1 MOL1         0.1041
      10    H7      21.784451   19.607478   20.899551 H          1 MOL1         0.1041
      11    C4      19.734553   19.561972   21.604338 C.3        1 MOL1         0.0313
      12    H8      19.439935   20.425078   21.002019 H          1 MOL1         0.1015
      13    H9      19.198570   19.613823   22.555023 H          1 MOL1         0.1015
      14    N1      19.274442   18.313963   20.875386 N.4        1 MOL1        -0.4809
      15    H10     19.541525   17.474551   21.410684 H          1 MOL1         0.3726
      16    H11     19.762117   18.230679   19.970324 H          1 MOL1         0.3726
      17    C5      17.766505   18.358285   20.668797 C.3        1 MOL1        -0.0677
      18    H12     17.510696   19.237564   20.073655 H          1 MOL1         0.1026
      19    H13     17.449354   17.454073   20.144596 H          1 MOL1         0.1026
      20    H14     17.271514   18.413180   21.640770 H          1 MOL1         0.1026
@<TRIPOS>BOND
    1     1     2    1
    2     1     3    1
    3     1     4    1
    4     1     5    1
    5     5     6    1
    6     5     7    1
    7     5     8    1
    8     8     9    1
    9     8    10    1
   10     8    11    1
   11    11    12    1
   12    11    13    1
   13    11    14    1
   14    14    15    1
   15    14    16    1
   16    14    17    1
   17    17    18    1
   18    17    19    1
   19    17    20    1
@<TRIPOS>SUBSTRUCTURE
       1 MOL1            1 RESIDUE      1      MOL     
@<SCITEGIC>MOL_PROPERTY
VConf Rank
SciTegic.value.IntegerValue
866

@<SCITEGIC>MOL_PROPERTY
Conf_Id
SciTegic.value.IntegerValue
23

@<SCITEGIC>MOL_PROPERTY
Delta U+W
SciTegic.value.DoubleValue
0.896

@<SCITEGIC>MOL_PROPERTY
U+W
SciTegic.value.DoubleValue
16.234

@<SCITEGIC>MOL_PROPERTY
Grad RMS
SciTegic.value.DoubleValue
0.000000

@<SCITEGIC>MOL_PROPERTY
U
SciTegic.value.DoubleValue
70.374

@<SCITEGIC>MOL_PROPERTY
W
SciTegic.value.DoubleValue
-54.140

@<SCITEGIC>MOL_PROPERTY
W(PB)
SciTegic.value.DoubleValue
-56.046

@<SCITEGIC>MOL_PROPERTY
W(SA)
SciTegic.value.DoubleValue
1.907

@<SCITEGIC>MOL_PROPERTY
Valence
SciTegic.value.DoubleValue
1.257

@<SCITEGIC>MOL_PROPERTY
Coulomb
SciTegic.value.DoubleValue
69.240

@<SCITEGIC>MOL_PROPERTY
VdW
SciTegic.value.DoubleValue
-0.123

@<SCITEGIC>MOL_PROPERTY
VdW6
SciTegic.value.DoubleValue
-4.336

@<SCITEGIC>MOL_PROPERTY
VdW12
SciTegic.value.DoubleValue
4.213

@<SCITEGIC>MOL_PROPERTY
Bond
SciTegic.value.DoubleValue
0.128

@<SCITEGIC>MOL_PROPERTY
Angle
SciTegic.value.DoubleValue
0.603

@<SCITEGIC>MOL_PROPERTY
Pdih
SciTegic.value.DoubleValue
0.526

@<SCITEGIC>MOL_PROPERTY
Idih
SciTegic.value.DoubleValue
0.000

@<SCITEGIC>MOL_PROPERTY
Tether
SciTegic.value.DoubleValue
0.000

@<TRIPOS>MOLECULE
guest-s9_confgen4.mol2 : confsearch ligand conformer 867
          20          19           1
SMALL
USER_CHARGES
 
@<TRIPOS>ATOM
       1    C1      21.755901   20.055640   20.871912 C.3        1 MOL1        -0.2224
       2    H1      21.320725   20.979423   20.469025 H          1 MOL1         0.1052
       3    H2      22.830360   20.066685   20.647421 H          1 MOL1         0.1052
       4    H3      21.314745   19.206638   20.334715 H          1 MOL1         0.1052
       5    C2      21.521544   19.949590   22.396379 C.3        1 MOL1        -0.1209
       6    H4      22.058496   20.767047   22.897829 H          1 MOL1         0.1041
       7    H5      21.965993   19.019142   22.774984 H          1 MOL1         0.1041
       8    C3      20.024274   20.023403   22.787186 C.3        1 MOL1        -0.1274
       9    H6      19.929437   19.970451   23.879864 H          1 MOL1         0.1041
      10    H7      19.622383   21.001999   22.492906 H          1 MOL1         0.1041
      11    C4      19.153639   18.921189   22.148370 C.3        1 MOL1         0.0313
      12    H8      19.205679   18.995989   21.059581 H          1 MOL1         0.1015
      13    H9      18.112206   19.062993   22.448118 H          1 MOL1         0.1015
      14    N1      19.557203   17.512599   22.540309 N.4        1 MOL1        -0.4809
      15    H10     19.521007   17.404609   23.565456 H          1 MOL1         0.3726
      16    H11     20.539812   17.342148   22.279704 H          1 MOL1         0.3726
      17    C5      18.641910   16.501685   21.862949 C.3        1 MOL1        -0.0677
      18    H12     18.721983   16.613046   20.779460 H          1 MOL1         0.1026
      19    H13     18.944432   15.493004   22.152798 H          1 MOL1         0.1026
      20    H14     17.611746   16.681681   22.177792 H          1 MOL1         0.1026
@<TRIPOS>BOND
    1     1     2    1
    2     1     3    1
    3     1     4    1
    4     1     5    1
    5     5     6    1
    6     5     7    1
    7     5     8    1
    8     8     9    1
    9     8    10    1
   10     8    11    1
   11    11    12    1
   12    11    13    1
   13    11    14    1
   14    14    15    1
   15    14    16    1
   16    14    17    1
   17    17    18    1
   18    17    19    1
   19    17    20    1
@<TRIPOS>SUBSTRUCTURE
       1 MOL1            1 RESIDUE      1      MOL     
@<SCITEGIC>MOL_PROPERTY
VConf Rank
SciTegic.value.IntegerValue
867

@<SCITEGIC>MOL_PROPERTY
Conf_Id
SciTegic.value.IntegerValue
24

@<SCITEGIC>MOL_PROPERTY
Delta U+W
SciTegic.value.DoubleValue
0.792

@<SCITEGIC>MOL_PROPERTY
U+W
SciTegic.value.DoubleValue
16.130

@<SCITEGIC>MOL_PROPERTY
Grad RMS
SciTegic.value.DoubleValue
0.000000

@<SCITEGIC>MOL_PROPERTY
U
SciTegic.value.DoubleValue
70.374

@<SCITEGIC>MOL_PROPERTY
W
SciTegic.value.DoubleValue
-54.243

@<SCITEGIC>MOL_PROPERTY
W(PB)
SciTegic.value.DoubleValue
-56.130

@<SCITEGIC>MOL_PROPERTY
W(SA)
SciTegic.value.DoubleValue
1.887

@<SCITEGIC>MOL_PROPERTY
Valence
SciTegic.value.DoubleValue
1.257

@<SCITEGIC>MOL_PROPERTY
Coulomb
SciTegic.value.DoubleValue
69.240

@<SCITEGIC>MOL_PROPERTY
VdW
SciTegic.value.DoubleValue
-0.123

@<SCITEGIC>MOL_PROPERTY
VdW6
SciTegic.value.DoubleValue
-4.336

@<SCITEGIC>MOL_PROPERTY
VdW12
SciTegic.value.DoubleValue
4.213

@<SCITEGIC>MOL_PROPERTY
Bond
SciTegic.value.DoubleValue
0.128

@<SCITEGIC>MOL_PROPERTY
Angle
SciTegic.value.DoubleValue
0.603

@<SCITEGIC>MOL_PROPERTY
Pdih
SciTegic.value.DoubleValue
0.526

@<SCITEGIC>MOL_PROPERTY
Idih
SciTegic.value.DoubleValue
0.000

@<SCITEGIC>MOL_PROPERTY
Tether
SciTegic.value.DoubleValue
0.000

@<TRIPOS>MOLECULE
guest-s9_confgen4.mol2 : confsearch ligand conformer 868
          20          19           1
SMALL
USER_CHARGES
 
@<TRIPOS>ATOM
       1    C1      20.213940   20.904082   22.453919 C.3        1 MOL1        -0.2224
       2    H1      20.644898   21.870274   22.747123 H          1 MOL1         0.1052
       3    H2      20.842434   20.503308   21.649914 H          1 MOL1         0.1052
       4    H3      19.208208   21.095778   22.057788 H          1 MOL1         0.1052
       5    C2      20.167267   19.948758   23.668266 C.3        1 MOL1        -0.1209
       6    H4      19.711848   20.480706   24.515433 H          1 MOL1         0.1041
       7    H5      21.192340   19.703343   23.979877 H          1 MOL1         0.1041
       8    C3      19.369585   18.641785   23.426683 C.3        1 MOL1        -0.1274
       9    H6      19.346543   18.080647   24.370300 H          1 MOL1         0.1041
      10    H7      18.322814   18.871544   23.187546 H          1 MOL1         0.1041
      11    C4      19.968618   17.719095   22.344053 C.3        1 MOL1         0.0313
      12    H8      19.594279   16.703187   22.493535 H          1 MOL1         0.1015
      13    H9      21.057082   17.696567   22.439040 H          1 MOL1         0.1015
      14    N1      19.618466   18.113948   20.921912 N.4        1 MOL1        -0.4809
      15    H10     19.904201   19.087618   20.746010 H          1 MOL1         0.3726
      16    H11     18.595253   18.100571   20.792046 H          1 MOL1         0.3726
      17    C5      20.294793   17.169718   19.937319 C.3        1 MOL1        -0.0677
      18    H12     21.377289   17.225188   20.071087 H          1 MOL1         0.1026
      19    H13     19.951357   16.149822   20.123405 H          1 MOL1         0.1026
      20    H14     20.033878   17.465835   18.918884 H          1 MOL1         0.1026
@<TRIPOS>BOND
    1     1     2    1
    2     1     3    1
    3     1     4    1
    4     1     5    1
    5     5     6    1
    6     5     7    1
    7     5     8    1
    8     8     9    1
    9     8    10    1
   10     8    11    1
   11    11    12    1
   12    11    13    1
   13    11    14    1
   14    14    15    1
   15    14    16    1
   16    14    17    1
   17    17    18    1
   18    17    19    1
   19    17    20    1
@<TRIPOS>SUBSTRUCTURE
       1 MOL1            1 RESIDUE      1      MOL     
@<SCITEGIC>MOL_PROPERTY
VConf Rank
SciTegic.value.IntegerValue
868

@<SCITEGIC>MOL_PROPERTY
Conf_Id
SciTegic.value.IntegerValue
26

@<SCITEGIC>MOL_PROPERTY
Delta U+W
SciTegic.value.DoubleValue
2.888

@<SCITEGIC>MOL_PROPERTY
U+W
SciTegic.value.DoubleValue
18.226

@<SCITEGIC>MOL_PROPERTY
Grad RMS
SciTegic.value.DoubleValue
0.000000

@<SCITEGIC>MOL_PROPERTY
U
SciTegic.value.DoubleValue
72.042

@<SCITEGIC>MOL_PROPERTY
W
SciTegic.value.DoubleValue
-53.816

@<SCITEGIC>MOL_PROPERTY
W(PB)
SciTegic.value.DoubleValue
-55.689

@<SCITEGIC>MOL_PROPERTY
W(SA)
SciTegic.value.DoubleValue
1.873

@<SCITEGIC>MOL_PROPERTY
Valence
SciTegic.value.DoubleValue
2.428

@<SCITEGIC>MOL_PROPERTY
Coulomb
SciTegic.value.DoubleValue
69.829

@<SCITEGIC>MOL_PROPERTY
VdW
SciTegic.value.DoubleValue
-0.215

@<SCITEGIC>MOL_PROPERTY
VdW6
SciTegic.value.DoubleValue
-4.563

@<SCITEGIC>MOL_PROPERTY
VdW12
SciTegic.value.DoubleValue
4.348

@<SCITEGIC>MOL_PROPERTY
Bond
SciTegic.value.DoubleValue
0.137

@<SCITEGIC>MOL_PROPERTY
Angle
SciTegic.value.DoubleValue
0.936

@<SCITEGIC>MOL_PROPERTY
Pdih
SciTegic.value.DoubleValue
1.356

@<SCITEGIC>MOL_PROPERTY
Idih
SciTegic.value.DoubleValue
0.000

@<SCITEGIC>MOL_PROPERTY
Tether
SciTegic.value.DoubleValue
0.000

@<TRIPOS>MOLECULE
guest-s9_confgen4.mol2 : confsearch ligand conformer 869
          20          19           1
SMALL
USER_CHARGES
 
@<TRIPOS>ATOM
       1    C1      19.259362   20.633106   23.069246 C.3        1 MOL1        -0.2224
       2    H1      18.995006   21.362779   23.845720 H          1 MOL1         0.1052
       3    H2      18.744507   20.929584   22.146104 H          1 MOL1         0.1052
       4    H3      18.871105   19.661461   23.396677 H          1 MOL1         0.1052
       5    C2      20.791890   20.594842   22.870866 C.3        1 MOL1        -0.1209
       6    H4      21.268643   20.204519   23.781064 H          1 MOL1         0.1041
       7    H5      21.156259   21.625390   22.755653 H          1 MOL1         0.1041
       8    C3      21.260085   19.771404   21.643846 C.3        1 MOL1        -0.1274
       9    H6      20.850193   20.197561   20.718597 H          1 MOL1         0.1041
      10    H7      22.350594   19.873161   21.564767 H          1 MOL1         0.1041
      11    C4      20.931659   18.265348   21.722690 C.3        1 MOL1         0.0313
      12    H8      21.110029   17.901121   22.737484 H          1 MOL1         0.1015
      13    H9      21.593481   17.719523   21.045483 H          1 MOL1         0.1015
      14    N1      19.509556   17.913737   21.328997 N.4        1 MOL1        -0.4809
      15    H10     19.327735   18.208000   20.357217 H          1 MOL1         0.3726
      16    H11     18.842467   18.445774   21.905668 H          1 MOL1         0.3726
      17    C5      19.280275   16.416688   21.486114 C.3        1 MOL1        -0.0677
      18    H12     19.446528   16.134490   22.527983 H          1 MOL1         0.1026
      19    H13     18.253576   16.178674   21.199391 H          1 MOL1         0.1026
      20    H14     19.976994   15.876592   20.841409 H          1 MOL1         0.1026
@<TRIPOS>BOND
    1     1     2    1
    2     1     3    1
    3     1     4    1
    4     1     5    1
    5     5     6    1
    6     5     7    1
    7     5     8    1
    8     8     9    1
    9     8    10    1
   10     8    11    1
   11    11    12    1
   12    11    13    1
   13    11    14    1
   14    14    15    1
   15    14    16    1
   16    14    17    1
   17    17    18    1
   18    17    19    1
   19    17    20    1
@<TRIPOS>SUBSTRUCTURE
       1 MOL1            1 RESIDUE      1      MOL     
@<SCITEGIC>MOL_PROPERTY
VConf Rank
SciTegic.value.IntegerValue
869

@<SCITEGIC>MOL_PROPERTY
Conf_Id
SciTegic.value.IntegerValue
5

@<SCITEGIC>MOL_PROPERTY
Delta U+W
SciTegic.value.DoubleValue
2.950

@<SCITEGIC>MOL_PROPERTY
U+W
SciTegic.value.DoubleValue
18.289

@<SCITEGIC>MOL_PROPERTY
Grad RMS
SciTegic.value.DoubleValue
0.000000

@<SCITEGIC>MOL_PROPERTY
U
SciTegic.value.DoubleValue
72.042

@<SCITEGIC>MOL_PROPERTY
W
SciTegic.value.DoubleValue
-53.753

@<SCITEGIC>MOL_PROPERTY
W(PB)
SciTegic.value.DoubleValue
-55.644

@<SCITEGIC>MOL_PROPERTY
W(SA)
SciTegic.value.DoubleValue
1.891

@<SCITEGIC>MOL_PROPERTY
Valence
SciTegic.value.DoubleValue
2.428

@<SCITEGIC>MOL_PROPERTY
Coulomb
SciTegic.value.DoubleValue
69.829

@<SCITEGIC>MOL_PROPERTY
VdW
SciTegic.value.DoubleValue
-0.215

@<SCITEGIC>MOL_PROPERTY
VdW6
SciTegic.value.DoubleValue
-4.563

@<SCITEGIC>MOL_PROPERTY
VdW12
SciTegic.value.DoubleValue
4.348

@<SCITEGIC>MOL_PROPERTY
Bond
SciTegic.value.DoubleValue
0.137

@<SCITEGIC>MOL_PROPERTY
Angle
SciTegic.value.DoubleValue
0.936

@<SCITEGIC>MOL_PROPERTY
Pdih
SciTegic.value.DoubleValue
1.356

@<SCITEGIC>MOL_PROPERTY
Idih
SciTegic.value.DoubleValue
0.000

@<SCITEGIC>MOL_PROPERTY
Tether
SciTegic.value.DoubleValue
0.000

@<TRIPOS>MOLECULE
guest-s9_confgen4.mol2 : confsearch ligand conformer 870
          20          19           1
SMALL
USER_CHARGES
 
@<TRIPOS>ATOM
       1    C1      21.690260   18.773017   20.178608 C.3        1 MOL1        -0.2224
       2    H1      21.606193   19.626880   19.493839 H          1 MOL1         0.1052
       3    H2      22.231592   19.104298   21.073588 H          1 MOL1         0.1052
       4    H3      22.303618   18.008001   19.685142 H          1 MOL1         0.1052
       5    C2      20.296421   18.205377   20.532360 C.3        1 MOL1        -0.1209
       6    H4      20.405986   17.351143   21.214300 H          1 MOL1         0.1041
       7    H5      19.831238   17.806564   19.619974 H          1 MOL1         0.1041
       8    C3      19.349965   19.262698   21.153317 C.3        1 MOL1        -0.1274
       9    H6      19.174637   20.063368   20.422755 H          1 MOL1         0.1041
      10    H7      18.369311   18.807382   21.342408 H          1 MOL1         0.1041
      11    C4      19.884627   19.896244   22.458035 C.3        1 MOL1         0.0313
      12    H8      19.162236   20.625766   22.832691 H          1 MOL1         0.1015
      13    H9      20.813784   20.428462   22.240112 H          1 MOL1         0.1015
      14    N1      20.175699   18.914525   23.582682 N.4        1 MOL1        -0.4809
      15    H10     20.655193   19.404409   24.354145 H          1 MOL1         0.3726
      16    H11     20.845630   18.199897   23.262365 H          1 MOL1         0.3726
      17    C5      18.895167   18.265543   24.096180 C.3        1 MOL1        -0.0677
      18    H12     18.427753   17.698772   23.288539 H          1 MOL1         0.1026
      19    H13     19.140499   17.593465   24.921425 H          1 MOL1         0.1026
      20    H14     18.213177   19.043622   24.445633 H          1 MOL1         0.1026
@<TRIPOS>BOND
    1     1     2    1
    2     1     3    1
    3     1     4    1
    4     1     5    1
    5     5     6    1
    6     5     7    1
    7     5     8    1
    8     8     9    1
    9     8    10    1
   10     8    11    1
   11    11    12    1
   12    11    13    1
   13    11    14    1
   14    14    15    1
   15    14    16    1
   16    14    17    1
   17    17    18    1
   18    17    19    1
   19    17    20    1
@<TRIPOS>SUBSTRUCTURE
       1 MOL1            1 RESIDUE      1      MOL     
@<SCITEGIC>MOL_PROPERTY
VConf Rank
SciTegic.value.IntegerValue
870

@<SCITEGIC>MOL_PROPERTY
Conf_Id
SciTegic.value.IntegerValue
52

@<SCITEGIC>MOL_PROPERTY
Delta U+W
SciTegic.value.DoubleValue
0.784

@<SCITEGIC>MOL_PROPERTY
U+W
SciTegic.value.DoubleValue
16.122

@<SCITEGIC>MOL_PROPERTY
Grad RMS
SciTegic.value.DoubleValue
0.000000

@<SCITEGIC>MOL_PROPERTY
U
SciTegic.value.DoubleValue
70.777

@<SCITEGIC>MOL_PROPERTY
W
SciTegic.value.DoubleValue
-54.655

@<SCITEGIC>MOL_PROPERTY
W(PB)
SciTegic.value.DoubleValue
-56.491

@<SCITEGIC>MOL_PROPERTY
W(SA)
SciTegic.value.DoubleValue
1.836

@<SCITEGIC>MOL_PROPERTY
Valence
SciTegic.value.DoubleValue
1.529

@<SCITEGIC>MOL_PROPERTY
Coulomb
SciTegic.value.DoubleValue
69.166

@<SCITEGIC>MOL_PROPERTY
VdW
SciTegic.value.DoubleValue
0.082

@<SCITEGIC>MOL_PROPERTY
VdW6
SciTegic.value.DoubleValue
-5.166

@<SCITEGIC>MOL_PROPERTY
VdW12
SciTegic.value.DoubleValue
5.248

@<SCITEGIC>MOL_PROPERTY
Bond
SciTegic.value.DoubleValue
0.171

@<SCITEGIC>MOL_PROPERTY
Angle
SciTegic.value.DoubleValue
0.752

@<SCITEGIC>MOL_PROPERTY
Pdih
SciTegic.value.DoubleValue
0.605

@<SCITEGIC>MOL_PROPERTY
Idih
SciTegic.value.DoubleValue
0.000

@<SCITEGIC>MOL_PROPERTY
Tether
SciTegic.value.DoubleValue
0.000

@<TRIPOS>MOLECULE
guest-s9_confgen4.mol2 : confsearch ligand conformer 871
          20          19           1
SMALL
USER_CHARGES
 
@<TRIPOS>ATOM
       1    C1      18.088121   19.612826   21.679166 C.3        1 MOL1        -0.2224
       2    H1      17.017577   19.845557   21.608881 H          1 MOL1         0.1052
       3    H2      18.520673   20.311436   22.404422 H          1 MOL1         0.1052
       4    H3      18.534942   19.801480   20.694245 H          1 MOL1         0.1052
       5    C2      18.288788   18.143452   22.115098 C.3        1 MOL1        -0.1209
       6    H4      17.646493   17.504370   21.492960 H          1 MOL1         0.1041
       7    H5      17.935158   18.015025   23.147799 H          1 MOL1         0.1041
       8    C3      19.746897   17.631552   21.993857 C.3        1 MOL1        -0.1274
       9    H6      19.748601   16.560999   22.237781 H          1 MOL1         0.1041
      10    H7      20.087727   17.699173   20.953105 H          1 MOL1         0.1041
      11    C4      20.753557   18.327133   22.939560 C.3        1 MOL1         0.0313
      12    H8      21.646260   17.704017   23.035627 H          1 MOL1         0.1015
      13    H9      20.304533   18.420888   23.931556 H          1 MOL1         0.1015
      14    N1      21.221407   19.707779   22.506613 N.4        1 MOL1        -0.4809
      15    H10     21.729797   20.159408   23.282970 H          1 MOL1         0.3726
      16    H11     20.409951   20.314802   22.325217 H          1 MOL1         0.3726
      17    C5      22.120501   19.626880   21.277871 C.3        1 MOL1        -0.0677
      18    H12     22.979198   18.990579   21.502372 H          1 MOL1         0.1026
      19    H13     21.557065   19.207100   20.442442 H          1 MOL1         0.1026
      20    H14     22.464474   20.630836   21.019669 H          1 MOL1         0.1026
@<TRIPOS>BOND
    1     1     2    1
    2     1     3    1
    3     1     4    1
    4     1     5    1
    5     5     6    1
    6     5     7    1
    7     5     8    1
    8     8     9    1
    9     8    10    1
   10     8    11    1
   11    11    12    1
   12    11    13    1
   13    11    14    1
   14    14    15    1
   15    14    16    1
   16    14    17    1
   17    17    18    1
   18    17    19    1
   19    17    20    1
@<TRIPOS>SUBSTRUCTURE
       1 MOL1            1 RESIDUE      1      MOL     
@<SCITEGIC>MOL_PROPERTY
VConf Rank
SciTegic.value.IntegerValue
871

@<SCITEGIC>MOL_PROPERTY
Conf_Id
SciTegic.value.IntegerValue
55

@<SCITEGIC>MOL_PROPERTY
Delta U+W
SciTegic.value.DoubleValue
2.745

@<SCITEGIC>MOL_PROPERTY
U+W
SciTegic.value.DoubleValue
18.083

@<SCITEGIC>MOL_PROPERTY
Grad RMS
SciTegic.value.DoubleValue
0.000000

@<SCITEGIC>MOL_PROPERTY
U
SciTegic.value.DoubleValue
72.490

@<SCITEGIC>MOL_PROPERTY
W
SciTegic.value.DoubleValue
-54.407

@<SCITEGIC>MOL_PROPERTY
W(PB)
SciTegic.value.DoubleValue
-56.269

@<SCITEGIC>MOL_PROPERTY
W(SA)
SciTegic.value.DoubleValue
1.861

@<SCITEGIC>MOL_PROPERTY
Valence
SciTegic.value.DoubleValue
2.738

@<SCITEGIC>MOL_PROPERTY
Coulomb
SciTegic.value.DoubleValue
69.795

@<SCITEGIC>MOL_PROPERTY
VdW
SciTegic.value.DoubleValue
-0.043

@<SCITEGIC>MOL_PROPERTY
VdW6
SciTegic.value.DoubleValue
-5.333

@<SCITEGIC>MOL_PROPERTY
VdW12
SciTegic.value.DoubleValue
5.290

@<SCITEGIC>MOL_PROPERTY
Bond
SciTegic.value.DoubleValue
0.182

@<SCITEGIC>MOL_PROPERTY
Angle
SciTegic.value.DoubleValue
1.135

@<SCITEGIC>MOL_PROPERTY
Pdih
SciTegic.value.DoubleValue
1.422

@<SCITEGIC>MOL_PROPERTY
Idih
SciTegic.value.DoubleValue
0.000

@<SCITEGIC>MOL_PROPERTY
Tether
SciTegic.value.DoubleValue
0.000

@<TRIPOS>MOLECULE
guest-s9_confgen4.mol2 : confsearch ligand conformer 872
          20          19           1
SMALL
USER_CHARGES
 
@<TRIPOS>ATOM
       1    C1      18.425717   20.041175   22.807098 C.3        1 MOL1        -0.2224
       2    H1      17.561667   20.519632   23.286331 H          1 MOL1         0.1052
       3    H2      19.267899   20.743292   22.862501 H          1 MOL1         0.1052
       4    H3      18.162536   19.885514   21.754645 H          1 MOL1         0.1052
       5    C2      18.758792   18.707271   23.513590 C.3        1 MOL1        -0.1209
       6    H4      17.945903   17.987677   23.342086 H          1 MOL1         0.1041
       7    H5      18.783626   18.883862   24.598128 H          1 MOL1         0.1041
       8    C3      20.111691   18.078526   23.092665 C.3        1 MOL1        -0.1274
       9    H6      20.936305   18.766757   23.316836 H          1 MOL1         0.1041
      10    H7      20.282406   17.195588   23.722637 H          1 MOL1         0.1041
      11    C4      20.176053   17.618655   21.617562 C.3        1 MOL1         0.0313
      12    H8      19.248104   17.099326   21.365220 H          1 MOL1         0.1015
      13    H9      20.998207   16.908621   21.497823 H          1 MOL1         0.1015
      14    N1      20.388633   18.719990   20.590732 N.4        1 MOL1        -0.4809
      15    H10     19.681861   19.458399   20.713468 H          1 MOL1         0.3726
      16    H11     20.226913   18.344587   19.643063 H          1 MOL1         0.3726
      17    C5      21.796055   19.298931   20.684067 C.3        1 MOL1        -0.0677
      18    H12     21.938402   19.751119   21.667368 H          1 MOL1         0.1026
      19    H13     22.524213   18.498708   20.535514 H          1 MOL1         0.1026
      20    H14     21.922172   20.059026   19.909948 H          1 MOL1         0.1026
@<TRIPOS>BOND
    1     1     2    1
    2     1     3    1
    3     1     4    1
    4     1     5    1
    5     5     6    1
    6     5     7    1
    7     5     8    1
    8     8     9    1
    9     8    10    1
   10     8    11    1
   11    11    12    1
   12    11    13    1
   13    11    14    1
   14    14    15    1
   15    14    16    1
   16    14    17    1
   17    17    18    1
   18    17    19    1
   19    17    20    1
@<TRIPOS>SUBSTRUCTURE
       1 MOL1            1 RESIDUE      1      MOL     
@<SCITEGIC>MOL_PROPERTY
VConf Rank
SciTegic.value.IntegerValue
872

@<SCITEGIC>MOL_PROPERTY
Conf_Id
SciTegic.value.IntegerValue
76

@<SCITEGIC>MOL_PROPERTY
Delta U+W
SciTegic.value.DoubleValue
2.799

@<SCITEGIC>MOL_PROPERTY
U+W
SciTegic.value.DoubleValue
18.137

@<SCITEGIC>MOL_PROPERTY
Grad RMS
SciTegic.value.DoubleValue
0.000000

@<SCITEGIC>MOL_PROPERTY
U
SciTegic.value.DoubleValue
72.490

@<SCITEGIC>MOL_PROPERTY
W
SciTegic.value.DoubleValue
-54.353

@<SCITEGIC>MOL_PROPERTY
W(PB)
SciTegic.value.DoubleValue
-56.201

@<SCITEGIC>MOL_PROPERTY
W(SA)
SciTegic.value.DoubleValue
1.848

@<SCITEGIC>MOL_PROPERTY
Valence
SciTegic.value.DoubleValue
2.738

@<SCITEGIC>MOL_PROPERTY
Coulomb
SciTegic.value.DoubleValue
69.795

@<SCITEGIC>MOL_PROPERTY
VdW
SciTegic.value.DoubleValue
-0.043

@<SCITEGIC>MOL_PROPERTY
VdW6
SciTegic.value.DoubleValue
-5.334

@<SCITEGIC>MOL_PROPERTY
VdW12
SciTegic.value.DoubleValue
5.290

@<SCITEGIC>MOL_PROPERTY
Bond
SciTegic.value.DoubleValue
0.182

@<SCITEGIC>MOL_PROPERTY
Angle
SciTegic.value.DoubleValue
1.135

@<SCITEGIC>MOL_PROPERTY
Pdih
SciTegic.value.DoubleValue
1.421

@<SCITEGIC>MOL_PROPERTY
Idih
SciTegic.value.DoubleValue
0.000

@<SCITEGIC>MOL_PROPERTY
Tether
SciTegic.value.DoubleValue
0.000

@<TRIPOS>MOLECULE
guest-s9_confgen4.mol2 : confsearch ligand conformer 873
          20          19           1
SMALL
USER_CHARGES
 
@<TRIPOS>ATOM
       1    C1      20.968655   20.585712   22.572239 C.3        1 MOL1        -0.2224
       2    H1      21.349214   19.704521   23.103018 H          1 MOL1         0.1052
       3    H2      21.768126   20.963461   21.921774 H          1 MOL1         0.1052
       4    H3      20.755014   21.358010   23.322411 H          1 MOL1         0.1052
       5    C2      19.697902   20.256748   21.755212 C.3        1 MOL1        -0.1209
       6    H4      19.317694   21.183711   21.303534 H          1 MOL1         0.1041
       7    H5      18.901346   19.902206   22.421966 H          1 MOL1         0.1041
       8    C3      19.950230   19.224591   20.628967 C.3        1 MOL1        -0.1274
       9    H6      19.022090   19.069878   20.063257 H          1 MOL1         0.1041
      10    H7      20.668676   19.651300   19.916647 H          1 MOL1         0.1041
      11    C4      20.491405   17.853062   21.096643 C.3        1 MOL1         0.0313
      12    H8      21.411924   17.979019   21.671399 H          1 MOL1         0.1015
      13    H9      20.736706   17.269693   20.205479 H          1 MOL1         0.1015
      14    N1      19.524592   17.008259   21.913052 N.4        1 MOL1        -0.4809
      15    H10     19.711243   16.009553   21.732643 H          1 MOL1         0.3726
      16    H11     18.556968   17.157030   21.590226 H          1 MOL1         0.3726
      17    C5      19.660308   17.280189   23.407335 C.3        1 MOL1        -0.0677
      18    H12     18.970741   16.631582   23.952067 H          1 MOL1         0.1026
      19    H13     20.685498   17.067977   23.718048 H          1 MOL1         0.1026
      20    H14     19.421641   18.323590   23.615597 H          1 MOL1         0.1026
@<TRIPOS>BOND
    1     1     2    1
    2     1     3    1
    3     1     4    1
    4     1     5    1
    5     5     6    1
    6     5     7    1
    7     5     8    1
    8     8     9    1
    9     8    10    1
   10     8    11    1
   11    11    12    1
   12    11    13    1
   13    11    14    1
   14    14    15    1
   15    14    16    1
   16    14    17    1
   17    17    18    1
   18    17    19    1
   19    17    20    1
@<TRIPOS>SUBSTRUCTURE
       1 MOL1            1 RESIDUE      1      MOL     
@<SCITEGIC>MOL_PROPERTY
VConf Rank
SciTegic.value.IntegerValue
873

@<SCITEGIC>MOL_PROPERTY
Conf_Id
SciTegic.value.IntegerValue
60

@<SCITEGIC>MOL_PROPERTY
Delta U+W
SciTegic.value.DoubleValue
1.788

@<SCITEGIC>MOL_PROPERTY
U+W
SciTegic.value.DoubleValue
17.127

@<SCITEGIC>MOL_PROPERTY
Grad RMS
SciTegic.value.DoubleValue
0.000000

@<SCITEGIC>MOL_PROPERTY
U
SciTegic.value.DoubleValue
72.122

@<SCITEGIC>MOL_PROPERTY
W
SciTegic.value.DoubleValue
-54.995

@<SCITEGIC>MOL_PROPERTY
W(PB)
SciTegic.value.DoubleValue
-56.810

@<SCITEGIC>MOL_PROPERTY
W(SA)
SciTegic.value.DoubleValue
1.815

@<SCITEGIC>MOL_PROPERTY
Valence
SciTegic.value.DoubleValue
3.197

@<SCITEGIC>MOL_PROPERTY
Coulomb
SciTegic.value.DoubleValue
69.115

@<SCITEGIC>MOL_PROPERTY
VdW
SciTegic.value.DoubleValue
-0.190

@<SCITEGIC>MOL_PROPERTY
VdW6
SciTegic.value.DoubleValue
-5.585

@<SCITEGIC>MOL_PROPERTY
VdW12
SciTegic.value.DoubleValue
5.395

@<SCITEGIC>MOL_PROPERTY
Bond
SciTegic.value.DoubleValue
0.177

@<SCITEGIC>MOL_PROPERTY
Angle
SciTegic.value.DoubleValue
1.207

@<SCITEGIC>MOL_PROPERTY
Pdih
SciTegic.value.DoubleValue
1.813

@<SCITEGIC>MOL_PROPERTY
Idih
SciTegic.value.DoubleValue
0.000

@<SCITEGIC>MOL_PROPERTY
Tether
SciTegic.value.DoubleValue
0.000

@<TRIPOS>MOLECULE
guest-s9_confgen4.mol2 : confsearch ligand conformer 874
          20          19           1
SMALL
USER_CHARGES
 
@<TRIPOS>ATOM
       1    C1      18.120284   18.087605   21.976537 C.3        1 MOL1        -0.2224
       2    H1      17.332950   17.941026   22.727179 H          1 MOL1         0.1052
       3    H2      17.672874   17.927428   20.987033 H          1 MOL1         0.1052
       4    H3      18.879272   17.312152   22.136725 H          1 MOL1         0.1052
       5    C2      18.720717   19.507847   22.090351 C.3        1 MOL1        -0.1209
       6    H4      19.143524   19.660118   23.091756 H          1 MOL1         0.1041
       7    H5      17.910004   20.243610   21.994277 H          1 MOL1         0.1041
       8    C3      19.788771   19.804148   21.009187 C.3        1 MOL1        -0.1274
       9    H6      19.311664   19.753133   20.021558 H          1 MOL1         0.1041
      10    H7      20.140630   20.838251   21.119796 H          1 MOL1         0.1041
      11    C4      21.008689   18.853117   21.005187 C.3        1 MOL1         0.0313
      12    H8      21.616985   19.094420   20.129735 H          1 MOL1         0.1015
      13    H9      20.685572   17.814268   20.905414 H          1 MOL1         0.1015
      14    N1      21.928650   18.958454   22.212464 N.4        1 MOL1        -0.4809
      15    H10     21.968225   19.931715   22.549871 H          1 MOL1         0.3726
      16    H11     22.894867   18.741288   21.922525 H          1 MOL1         0.3726
      17    C5      21.513158   18.000947   23.324126 C.3        1 MOL1        -0.0677
      18    H12     21.527520   16.978786   22.939976 H          1 MOL1         0.1026
      19    H13     22.217739   18.090379   24.153881 H          1 MOL1         0.1026
      20    H14     20.509186   18.249815   23.669272 H          1 MOL1         0.1026
@<TRIPOS>BOND
    1     1     2    1
    2     1     3    1
    3     1     4    1
    4     1     5    1
    5     5     6    1
    6     5     7    1
    7     5     8    1
    8     8     9    1
    9     8    10    1
   10     8    11    1
   11    11    12    1
   12    11    13    1
   13    11    14    1
   14    14    15    1
   15    14    16    1
   16    14    17    1
   17    17    18    1
   18    17    19    1
   19    17    20    1
@<TRIPOS>SUBSTRUCTURE
       1 MOL1            1 RESIDUE      1      MOL     
@<SCITEGIC>MOL_PROPERTY
VConf Rank
SciTegic.value.IntegerValue
874

@<SCITEGIC>MOL_PROPERTY
Conf_Id
SciTegic.value.IntegerValue
54

@<SCITEGIC>MOL_PROPERTY
Delta U+W
SciTegic.value.DoubleValue
1.880

@<SCITEGIC>MOL_PROPERTY
U+W
SciTegic.value.DoubleValue
17.218

@<SCITEGIC>MOL_PROPERTY
Grad RMS
SciTegic.value.DoubleValue
0.000000

@<SCITEGIC>MOL_PROPERTY
U
SciTegic.value.DoubleValue
72.122

@<SCITEGIC>MOL_PROPERTY
W
SciTegic.value.DoubleValue
-54.903

@<SCITEGIC>MOL_PROPERTY
W(PB)
SciTegic.value.DoubleValue
-56.724

@<SCITEGIC>MOL_PROPERTY
W(SA)
SciTegic.value.DoubleValue
1.821

@<SCITEGIC>MOL_PROPERTY
Valence
SciTegic.value.DoubleValue
3.197

@<SCITEGIC>MOL_PROPERTY
Coulomb
SciTegic.value.DoubleValue
69.115

@<SCITEGIC>MOL_PROPERTY
VdW
SciTegic.value.DoubleValue
-0.190

@<SCITEGIC>MOL_PROPERTY
VdW6
SciTegic.value.DoubleValue
-5.585

@<SCITEGIC>MOL_PROPERTY
VdW12
SciTegic.value.DoubleValue
5.395

@<SCITEGIC>MOL_PROPERTY
Bond
SciTegic.value.DoubleValue
0.177

@<SCITEGIC>MOL_PROPERTY
Angle
SciTegic.value.DoubleValue
1.207

@<SCITEGIC>MOL_PROPERTY
Pdih
SciTegic.value.DoubleValue
1.813

@<SCITEGIC>MOL_PROPERTY
Idih
SciTegic.value.DoubleValue
0.000

@<SCITEGIC>MOL_PROPERTY
Tether
SciTegic.value.DoubleValue
0.000

@<TRIPOS>MOLECULE
guest-s9_confgen4.mol2 : confsearch ligand conformer 875
          20          19           1
SMALL
USER_CHARGES
 
@<TRIPOS>ATOM
       1    C1      20.389434   19.510729   18.887688 C.3        1 MOL1        -0.2224
       2    H1      19.410067   19.985860   18.745325 H          1 MOL1         0.1052
       3    H2      21.117929   20.050555   18.268892 H          1 MOL1         0.1052
       4    H3      20.327246   18.480985   18.512273 H          1 MOL1         0.1052
       5    C2      20.809775   19.536853   20.373239 C.3        1 MOL1        -0.1209
       6    H4      20.897132   20.579698   20.709684 H          1 MOL1         0.1041
       7    H5      21.807040   19.086588   20.478477 H          1 MOL1         0.1041
       8    C3      19.801612   18.783781   21.268923 C.3        1 MOL1        -0.1274
       9    H6      18.806378   19.236394   21.165890 H          1 MOL1         0.1041
      10    H7      19.717427   17.741244   20.934265 H          1 MOL1         0.1041
      11    C4      20.227780   18.814242   22.748462 C.3        1 MOL1         0.0313
      12    H8      20.297510   19.850350   23.089207 H          1 MOL1         0.1015
      13    H9      21.211381   18.350270   22.856850 H          1 MOL1         0.1015
      14    N1      19.266195   18.086139   23.667115 N.4        1 MOL1        -0.4809
      15    H10     19.167025   17.102557   23.372345 H          1 MOL1         0.3726
      16    H11     18.320929   18.491466   23.587514 H          1 MOL1         0.3726
      17    C5      19.761121   18.164859   25.105179 C.3        1 MOL1        -0.0677
      18    H12     19.825458   19.212556   25.406838 H          1 MOL1         0.1026
      19    H13     19.059912   17.637039   25.755349 H          1 MOL1         0.1026
      20    H14     20.746965   17.699685   25.172509 H          1 MOL1         0.1026
@<TRIPOS>BOND
    1     1     2    1
    2     1     3    1
    3     1     4    1
    4     1     5    1
    5     5     6    1
    6     5     7    1
    7     5     8    1
    8     8     9    1
    9     8    10    1
   10     8    11    1
   11    11    12    1
   12    11    13    1
   13    11    14    1
   14    14    15    1
   15    14    16    1
   16    14    17    1
   17    17    18    1
   18    17    19    1
   19    17    20    1
@<TRIPOS>SUBSTRUCTURE
       1 MOL1            1 RESIDUE      1      MOL     
@<SCITEGIC>MOL_PROPERTY
VConf Rank
SciTegic.value.IntegerValue
875

@<SCITEGIC>MOL_PROPERTY
Conf_Id
SciTegic.value.IntegerValue
67

@<SCITEGIC>MOL_PROPERTY
Delta U+W
SciTegic.value.DoubleValue
0.000

@<SCITEGIC>MOL_PROPERTY
U+W
SciTegic.value.DoubleValue
15.338

@<SCITEGIC>MOL_PROPERTY
Grad RMS
SciTegic.value.DoubleValue
0.000000

@<SCITEGIC>MOL_PROPERTY
U
SciTegic.value.DoubleValue
69.277

@<SCITEGIC>MOL_PROPERTY
W
SciTegic.value.DoubleValue
-53.939

@<SCITEGIC>MOL_PROPERTY
W(PB)
SciTegic.value.DoubleValue
-55.889

@<SCITEGIC>MOL_PROPERTY
W(SA)
SciTegic.value.DoubleValue
1.950

@<SCITEGIC>MOL_PROPERTY
Valence
SciTegic.value.DoubleValue
0.846

@<SCITEGIC>MOL_PROPERTY
Coulomb
SciTegic.value.DoubleValue
68.557

@<SCITEGIC>MOL_PROPERTY
VdW
SciTegic.value.DoubleValue
-0.127

@<SCITEGIC>MOL_PROPERTY
VdW6
SciTegic.value.DoubleValue
-3.008

@<SCITEGIC>MOL_PROPERTY
VdW12
SciTegic.value.DoubleValue
2.882

@<SCITEGIC>MOL_PROPERTY
Bond
SciTegic.value.DoubleValue
0.088

@<SCITEGIC>MOL_PROPERTY
Angle
SciTegic.value.DoubleValue
0.332

@<SCITEGIC>MOL_PROPERTY
Pdih
SciTegic.value.DoubleValue
0.426

@<SCITEGIC>MOL_PROPERTY
Idih
SciTegic.value.DoubleValue
0.000

@<SCITEGIC>MOL_PROPERTY
Tether
SciTegic.value.DoubleValue
0.000

@<TRIPOS>MOLECULE
guest-s9_confgen4.mol2 : confsearch ligand conformer 876
          20          19           1
SMALL
USER_CHARGES
 
@<TRIPOS>ATOM
       1    C1      21.008285   19.108532   24.840836 C.3        1 MOL1        -0.2224
       2    H1      21.203623   18.028637   24.869820 H          1 MOL1         0.1052
       3    H2      21.761594   19.603212   25.467602 H          1 MOL1         0.1052
       4    H3      20.024075   19.289799   25.292102 H          1 MOL1         0.1052
       5    C2      21.064334   19.645418   23.394155 C.3        1 MOL1        -0.1209
       6    H4      22.070059   19.480651   22.982215 H          1 MOL1         0.1041
       7    H5      20.900284   20.732313   23.401525 H          1 MOL1         0.1041
       8    C3      20.013646   18.966514   22.488156 C.3        1 MOL1        -0.1274
       9    H6      20.181284   17.881786   22.483936 H          1 MOL1         0.1041
      10    H7      19.008999   19.135175   22.897863 H          1 MOL1         0.1041
      11    C4      20.076464   19.510391   21.045856 C.3        1 MOL1         0.0313
      12    H8      21.058489   19.303015   20.613418 H          1 MOL1         0.1015
      13    H9      19.939700   20.594557   21.069473 H          1 MOL1         0.1015
      14    N1      19.022734   18.942650   20.108793 N.4        1 MOL1        -0.4809
      15    H10     19.027461   19.472224   19.222895 H          1 MOL1         0.3726
      16    H11     18.079799   19.090734   20.499586 H          1 MOL1         0.3726
      17    C5      19.268195   17.463873   19.828645 C.3        1 MOL1        -0.0677
      18    H12     19.195729   16.901025   20.761296 H          1 MOL1         0.1026
      19    H13     18.515196   17.103552   19.124278 H          1 MOL1         0.1026
      20    H14     20.263984   17.340088   19.397613 H          1 MOL1         0.1026
@<TRIPOS>BOND
    1     1     2    1
    2     1     3    1
    3     1     4    1
    4     1     5    1
    5     5     6    1
    6     5     7    1
    7     5     8    1
    8     8     9    1
    9     8    10    1
   10     8    11    1
   11    11    12    1
   12    11    13    1
   13    11    14    1
   14    14    15    1
   15    14    16    1
   16    14    17    1
   17    17    18    1
   18    17    19    1
   19    17    20    1
@<TRIPOS>SUBSTRUCTURE
       1 MOL1            1 RESIDUE      1      MOL     
@<SCITEGIC>MOL_PROPERTY
VConf Rank
SciTegic.value.IntegerValue
876

@<SCITEGIC>MOL_PROPERTY
Conf_Id
SciTegic.value.IntegerValue
37

@<SCITEGIC>MOL_PROPERTY
Delta U+W
SciTegic.value.DoubleValue
-0.021

@<SCITEGIC>MOL_PROPERTY
U+W
SciTegic.value.DoubleValue
15.318

@<SCITEGIC>MOL_PROPERTY
Grad RMS
SciTegic.value.DoubleValue
0.000000

@<SCITEGIC>MOL_PROPERTY
U
SciTegic.value.DoubleValue
69.657

@<SCITEGIC>MOL_PROPERTY
W
SciTegic.value.DoubleValue
-54.340

@<SCITEGIC>MOL_PROPERTY
W(PB)
SciTegic.value.DoubleValue
-56.238

@<SCITEGIC>MOL_PROPERTY
W(SA)
SciTegic.value.DoubleValue
1.899

@<SCITEGIC>MOL_PROPERTY
Valence
SciTegic.value.DoubleValue
1.137

@<SCITEGIC>MOL_PROPERTY
Coulomb
SciTegic.value.DoubleValue
68.383

@<SCITEGIC>MOL_PROPERTY
VdW
SciTegic.value.DoubleValue
0.138

@<SCITEGIC>MOL_PROPERTY
VdW6
SciTegic.value.DoubleValue
-3.703

@<SCITEGIC>MOL_PROPERTY
VdW12
SciTegic.value.DoubleValue
3.841

@<SCITEGIC>MOL_PROPERTY
Bond
SciTegic.value.DoubleValue
0.125

@<SCITEGIC>MOL_PROPERTY
Angle
SciTegic.value.DoubleValue
0.468

@<SCITEGIC>MOL_PROPERTY
Pdih
SciTegic.value.DoubleValue
0.543

@<SCITEGIC>MOL_PROPERTY
Idih
SciTegic.value.DoubleValue
0.000

@<SCITEGIC>MOL_PROPERTY
Tether
SciTegic.value.DoubleValue
0.000

@<TRIPOS>MOLECULE
guest-s9_confgen4.mol2 : confsearch ligand conformer 877
          20          19           1
SMALL
USER_CHARGES
 
@<TRIPOS>ATOM
       1    C1      18.407324   16.313599   21.335164 C.3        1 MOL1        -0.2224
       2    H1      17.389130   15.976249   21.101720 H          1 MOL1         0.1052
       3    H2      19.029936   16.142264   20.447376 H          1 MOL1         0.1052
       4    H3      18.791667   15.684315   22.148461 H          1 MOL1         0.1052
       5    C2      18.409465   17.804532   21.736887 C.3        1 MOL1        -0.1209
       6    H4      17.751110   17.949612   22.605122 H          1 MOL1         0.1041
       7    H5      17.988229   18.404109   20.917500 H          1 MOL1         0.1041
       8    C3      19.830982   18.307397   22.071700 C.3        1 MOL1        -0.1274
       9    H6      20.249431   17.710867   22.893086 H          1 MOL1         0.1041
      10    H7      20.484563   18.160541   21.202206 H          1 MOL1         0.1041
      11    C4      19.822566   19.796927   22.473196 C.3        1 MOL1         0.0313
      12    H8      19.143745   19.932312   23.319098 H          1 MOL1         0.1015
      13    H9      19.452510   20.403154   21.642576 H          1 MOL1         0.1015
      14    N1      21.176969   20.348264   22.888378 N.4        1 MOL1        -0.4809
      15    H10     21.575158   19.780586   23.651898 H          1 MOL1         0.3726
      16    H11     21.056609   21.289508   23.294407 H          1 MOL1         0.3726
      17    C5      22.135681   20.414526   21.704319 C.3        1 MOL1        -0.0677
      18    H12     21.697515   21.037208   20.921386 H          1 MOL1         0.1026
      19    H13     23.081636   20.849759   22.034038 H          1 MOL1         0.1026
      20    H14     22.310163   19.406937   21.321950 H          1 MOL1         0.1026
@<TRIPOS>BOND
    1     1     2    1
    2     1     3    1
    3     1     4    1
    4     1     5    1
    5     5     6    1
    6     5     7    1
    7     5     8    1
    8     8     9    1
    9     8    10    1
   10     8    11    1
   11    11    12    1
   12    11    13    1
   13    11    14    1
   14    14    15    1
   15    14    16    1
   16    14    17    1
   17    17    18    1
   18    17    19    1
   19    17    20    1
@<TRIPOS>SUBSTRUCTURE
       1 MOL1            1 RESIDUE      1      MOL     
@<SCITEGIC>MOL_PROPERTY
VConf Rank
SciTegic.value.IntegerValue
877

@<SCITEGIC>MOL_PROPERTY
Conf_Id
SciTegic.value.IntegerValue
2

@<SCITEGIC>MOL_PROPERTY
Delta U+W
SciTegic.value.DoubleValue
0.069

@<SCITEGIC>MOL_PROPERTY
U+W
SciTegic.value.DoubleValue
15.407

@<SCITEGIC>MOL_PROPERTY
Grad RMS
SciTegic.value.DoubleValue
0.000000

@<SCITEGIC>MOL_PROPERTY
U
SciTegic.value.DoubleValue
69.657

@<SCITEGIC>MOL_PROPERTY
W
SciTegic.value.DoubleValue
-54.250

@<SCITEGIC>MOL_PROPERTY
W(PB)
SciTegic.value.DoubleValue
-56.176

@<SCITEGIC>MOL_PROPERTY
W(SA)
SciTegic.value.DoubleValue
1.926

@<SCITEGIC>MOL_PROPERTY
Valence
SciTegic.value.DoubleValue
1.137

@<SCITEGIC>MOL_PROPERTY
Coulomb
SciTegic.value.DoubleValue
68.383

@<SCITEGIC>MOL_PROPERTY
VdW
SciTegic.value.DoubleValue
0.138

@<SCITEGIC>MOL_PROPERTY
VdW6
SciTegic.value.DoubleValue
-3.703

@<SCITEGIC>MOL_PROPERTY
VdW12
SciTegic.value.DoubleValue
3.841

@<SCITEGIC>MOL_PROPERTY
Bond
SciTegic.value.DoubleValue
0.125

@<SCITEGIC>MOL_PROPERTY
Angle
SciTegic.value.DoubleValue
0.468

@<SCITEGIC>MOL_PROPERTY
Pdih
SciTegic.value.DoubleValue
0.543

@<SCITEGIC>MOL_PROPERTY
Idih
SciTegic.value.DoubleValue
0.000

@<SCITEGIC>MOL_PROPERTY
Tether
SciTegic.value.DoubleValue
0.000

@<TRIPOS>MOLECULE
guest-s9_confgen4.mol2 : confsearch ligand conformer 878
          20          19           1
SMALL
USER_CHARGES
 
@<TRIPOS>ATOM
       1    C1      20.205613   21.234692   22.970071 C.3        1 MOL1        -0.2224
       2    H1      19.179230   21.002911   22.658821 H          1 MOL1         0.1052
       3    H2      20.317095   20.949257   24.024205 H          1 MOL1         0.1052
       4    H3      20.333572   22.322857   22.902895 H          1 MOL1         0.1052
       5    C2      21.245754   20.510889   22.084349 C.3        1 MOL1        -0.1209
       6    H4      22.253511   20.843595   22.370259 H          1 MOL1         0.1041
       7    H5      21.108477   20.808993   21.035304 H          1 MOL1         0.1041
       8    C3      21.173010   18.970436   22.202213 C.3        1 MOL1        -0.1274
       9    H6      21.985326   18.528087   21.610329 H          1 MOL1         0.1041
      10    H7      21.345141   18.672589   23.245057 H          1 MOL1         0.1041
      11    C4      19.825803   18.400711   21.716732 C.3        1 MOL1         0.0313
      12    H8      19.655799   18.695218   20.678110 H          1 MOL1         0.1015
      13    H9      19.013907   18.804992   22.325952 H          1 MOL1         0.1015
      14    N1      19.750364   16.888306   21.790294 N.4        1 MOL1        -0.4809
      15    H10     19.915853   16.569696   22.757346 H          1 MOL1         0.3726
      16    H11     20.506826   16.465794   21.230514 H          1 MOL1         0.3726
      17    C5      18.390989   16.411397   21.296585 C.3        1 MOL1        -0.0677
      18    H12     18.252014   16.730084   20.261246 H          1 MOL1         0.1026
      19    H13     18.350325   15.321461   21.354806 H          1 MOL1         0.1026
      20    H14     17.608371   16.842936   21.924345 H          1 MOL1         0.1026
@<TRIPOS>BOND
    1     1     2    1
    2     1     3    1
    3     1     4    1
    4     1     5    1
    5     5     6    1
    6     5     7    1
    7     5     8    1
    8     8     9    1
    9     8    10    1
   10     8    11    1
   11    11    12    1
   12    11    13    1
   13    11    14    1
   14    14    15    1
   15    14    16    1
   16    14    17    1
   17    17    18    1
   18    17    19    1
   19    17    20    1
@<TRIPOS>SUBSTRUCTURE
       1 MOL1            1 RESIDUE      1      MOL     
@<SCITEGIC>MOL_PROPERTY
VConf Rank
SciTegic.value.IntegerValue
878

@<SCITEGIC>MOL_PROPERTY
Conf_Id
SciTegic.value.IntegerValue
34

@<SCITEGIC>MOL_PROPERTY
Delta U+W
SciTegic.value.DoubleValue
0.276

@<SCITEGIC>MOL_PROPERTY
U+W
SciTegic.value.DoubleValue
15.615

@<SCITEGIC>MOL_PROPERTY
Grad RMS
SciTegic.value.DoubleValue
0.000000

@<SCITEGIC>MOL_PROPERTY
U
SciTegic.value.DoubleValue
69.798

@<SCITEGIC>MOL_PROPERTY
W
SciTegic.value.DoubleValue
-54.184

@<SCITEGIC>MOL_PROPERTY
W(PB)
SciTegic.value.DoubleValue
-56.116

@<SCITEGIC>MOL_PROPERTY
W(SA)
SciTegic.value.DoubleValue
1.933

@<SCITEGIC>MOL_PROPERTY
Valence
SciTegic.value.DoubleValue
1.134

@<SCITEGIC>MOL_PROPERTY
Coulomb
SciTegic.value.DoubleValue
68.735

@<SCITEGIC>MOL_PROPERTY
VdW
SciTegic.value.DoubleValue
-0.070

@<SCITEGIC>MOL_PROPERTY
VdW6
SciTegic.value.DoubleValue
-3.565

@<SCITEGIC>MOL_PROPERTY
VdW12
SciTegic.value.DoubleValue
3.494

@<SCITEGIC>MOL_PROPERTY
Bond
SciTegic.value.DoubleValue
0.108

@<SCITEGIC>MOL_PROPERTY
Angle
SciTegic.value.DoubleValue
0.456

@<SCITEGIC>MOL_PROPERTY
Pdih
SciTegic.value.DoubleValue
0.569

@<SCITEGIC>MOL_PROPERTY
Idih
SciTegic.value.DoubleValue
0.000

@<SCITEGIC>MOL_PROPERTY
Tether
SciTegic.value.DoubleValue
0.000

@<TRIPOS>MOLECULE
guest-s9_confgen4.mol2 : confsearch ligand conformer 879
          20          19           1
SMALL
USER_CHARGES
 
@<TRIPOS>ATOM
       1    C1      20.657911   16.015931   23.045563 C.3        1 MOL1        -0.2224
       2    H1      19.778621   15.374552   22.901853 H          1 MOL1         0.1052
       3    H2      21.547648   15.430373   22.780016 H          1 MOL1         0.1052
       4    H3      20.726769   16.267036   24.112046 H          1 MOL1         0.1052
       5    C2      20.564863   17.290509   22.179065 C.3        1 MOL1        -0.1209
       6    H4      20.529470   17.007346   21.117514 H          1 MOL1         0.1041
       7    H5      21.477333   17.885971   22.318061 H          1 MOL1         0.1041
       8    C3      19.318140   18.134585   22.534596 C.3        1 MOL1        -0.1274
       9    H6      18.418053   17.514535   22.428459 H          1 MOL1         0.1041
      10    H7      19.360731   18.444962   23.587074 H          1 MOL1         0.1041
      11    C4      19.161458   19.377958   21.636257 C.3        1 MOL1         0.0313
      12    H8      18.220667   19.880213   21.875574 H          1 MOL1         0.1015
      13    H9      19.126034   19.071529   20.587791 H          1 MOL1         0.1015
      14    N1      20.275334   20.396600   21.789673 N.4        1 MOL1        -0.4809
      15    H10     21.185070   19.964220   21.570851 H          1 MOL1         0.3726
      16    H11     20.345147   20.701660   22.772582 H          1 MOL1         0.3726
      17    C5      20.018736   21.588550   20.877395 C.3        1 MOL1        -0.0677
      18    H12     19.981759   21.246952   19.840702 H          1 MOL1         0.1026
      19    H13     19.066985   22.050665   21.148327 H          1 MOL1         0.1026
      20    H14     20.827118   22.313149   20.997671 H          1 MOL1         0.1026
@<TRIPOS>BOND
    1     1     2    1
    2     1     3    1
    3     1     4    1
    4     1     5    1
    5     5     6    1
    6     5     7    1
    7     5     8    1
    8     8     9    1
    9     8    10    1
   10     8    11    1
   11    11    12    1
   12    11    13    1
   13    11    14    1
   14    14    15    1
   15    14    16    1
   16    14    17    1
   17    17    18    1
   18    17    19    1
   19    17    20    1
@<TRIPOS>SUBSTRUCTURE
       1 MOL1            1 RESIDUE      1      MOL     
@<SCITEGIC>MOL_PROPERTY
VConf Rank
SciTegic.value.IntegerValue
879

@<SCITEGIC>MOL_PROPERTY
Conf_Id
SciTegic.value.IntegerValue
50

@<SCITEGIC>MOL_PROPERTY
Delta U+W
SciTegic.value.DoubleValue
0.319

@<SCITEGIC>MOL_PROPERTY
U+W
SciTegic.value.DoubleValue
15.657

@<SCITEGIC>MOL_PROPERTY
Grad RMS
SciTegic.value.DoubleValue
0.000000

@<SCITEGIC>MOL_PROPERTY
U
SciTegic.value.DoubleValue
69.962

@<SCITEGIC>MOL_PROPERTY
W
SciTegic.value.DoubleValue
-54.305

@<SCITEGIC>MOL_PROPERTY
W(PB)
SciTegic.value.DoubleValue
-56.223

@<SCITEGIC>MOL_PROPERTY
W(SA)
SciTegic.value.DoubleValue
1.918

@<SCITEGIC>MOL_PROPERTY
Valence
SciTegic.value.DoubleValue
0.982

@<SCITEGIC>MOL_PROPERTY
Coulomb
SciTegic.value.DoubleValue
69.058

@<SCITEGIC>MOL_PROPERTY
VdW
SciTegic.value.DoubleValue
-0.078

@<SCITEGIC>MOL_PROPERTY
VdW6
SciTegic.value.DoubleValue
-3.548

@<SCITEGIC>MOL_PROPERTY
VdW12
SciTegic.value.DoubleValue
3.471

@<SCITEGIC>MOL_PROPERTY
Bond
SciTegic.value.DoubleValue
0.105

@<SCITEGIC>MOL_PROPERTY
Angle
SciTegic.value.DoubleValue
0.408

@<SCITEGIC>MOL_PROPERTY
Pdih
SciTegic.value.DoubleValue
0.469

@<SCITEGIC>MOL_PROPERTY
Idih
SciTegic.value.DoubleValue
0.000

@<SCITEGIC>MOL_PROPERTY
Tether
SciTegic.value.DoubleValue
0.000

@<TRIPOS>MOLECULE
guest-s9_confgen4.mol2 : confsearch ligand conformer 880
          20          19           1
SMALL
USER_CHARGES
 
@<TRIPOS>ATOM
       1    C1      20.804614   15.942184   22.542983 C.3        1 MOL1        -0.2224
       2    H1      21.026440   15.521523   23.532359 H          1 MOL1         0.1052
       3    H2      20.064029   15.291586   22.059840 H          1 MOL1         0.1052
       4    H3      21.727316   15.909076   21.949093 H          1 MOL1         0.1052
       5    C2      20.276896   17.387625   22.670410 C.3        1 MOL1        -0.1209
       6    H4      21.025859   17.998014   23.192881 H          1 MOL1         0.1041
       7    H5      19.372628   17.391342   23.295397 H          1 MOL1         0.1041
       8    C3      19.956938   18.004104   21.288105 C.3        1 MOL1        -0.1274
       9    H6      20.862824   18.029557   20.667960 H          1 MOL1         0.1041
      10    H7      19.237186   17.362435   20.762654 H          1 MOL1         0.1041
      11    C4      19.361182   19.422697   21.389163 C.3        1 MOL1         0.0313
      12    H8      18.463298   19.400531   22.011858 H          1 MOL1         0.1015
      13    H9      19.074778   19.766049   20.391816 H          1 MOL1         0.1015
      14    N1      20.310671   20.452591   21.971983 N.4        1 MOL1        -0.4809
      15    H10     21.177018   20.493544   21.413578 H          1 MOL1         0.3726
      16    H11     20.606413   20.168449   22.917633 H          1 MOL1         0.3726
      17    C5      19.636118   21.817214   22.012239 C.3        1 MOL1        -0.0677
      18    H12     20.329779   22.548174   22.433571 H          1 MOL1         0.1026
      19    H13     19.361520   22.112897   20.997373 H          1 MOL1         0.1026
      20    H14     18.740775   21.757897   22.634842 H          1 MOL1         0.1026
@<TRIPOS>BOND
    1     1     2    1
    2     1     3    1
    3     1     4    1
    4     1     5    1
    5     5     6    1
    6     5     7    1
    7     5     8    1
    8     8     9    1
    9     8    10    1
   10     8    11    1
   11    11    12    1
   12    11    13    1
   13    11    14    1
   14    14    15    1
   15    14    16    1
   16    14    17    1
   17    17    18    1
   18    17    19    1
   19    17    20    1
@<TRIPOS>SUBSTRUCTURE
       1 MOL1            1 RESIDUE      1      MOL     
@<SCITEGIC>MOL_PROPERTY
VConf Rank
SciTegic.value.IntegerValue
880

@<SCITEGIC>MOL_PROPERTY
Conf_Id
SciTegic.value.IntegerValue
35

@<SCITEGIC>MOL_PROPERTY
Delta U+W
SciTegic.value.DoubleValue
0.360

@<SCITEGIC>MOL_PROPERTY
U+W
SciTegic.value.DoubleValue
15.698

@<SCITEGIC>MOL_PROPERTY
Grad RMS
SciTegic.value.DoubleValue
0.000000

@<SCITEGIC>MOL_PROPERTY
U
SciTegic.value.DoubleValue
69.962

@<SCITEGIC>MOL_PROPERTY
W
SciTegic.value.DoubleValue
-54.264

@<SCITEGIC>MOL_PROPERTY
W(PB)
SciTegic.value.DoubleValue
-56.166

@<SCITEGIC>MOL_PROPERTY
W(SA)
SciTegic.value.DoubleValue
1.902

@<SCITEGIC>MOL_PROPERTY
Valence
SciTegic.value.DoubleValue
0.982

@<SCITEGIC>MOL_PROPERTY
Coulomb
SciTegic.value.DoubleValue
69.058

@<SCITEGIC>MOL_PROPERTY
VdW
SciTegic.value.DoubleValue
-0.078

@<SCITEGIC>MOL_PROPERTY
VdW6
SciTegic.value.DoubleValue
-3.548

@<SCITEGIC>MOL_PROPERTY
VdW12
SciTegic.value.DoubleValue
3.471

@<SCITEGIC>MOL_PROPERTY
Bond
SciTegic.value.DoubleValue
0.105

@<SCITEGIC>MOL_PROPERTY
Angle
SciTegic.value.DoubleValue
0.408

@<SCITEGIC>MOL_PROPERTY
Pdih
SciTegic.value.DoubleValue
0.469

@<SCITEGIC>MOL_PROPERTY
Idih
SciTegic.value.DoubleValue
0.000

@<SCITEGIC>MOL_PROPERTY
Tether
SciTegic.value.DoubleValue
0.000

@<TRIPOS>MOLECULE
guest-s9_confgen4.mol2 : confsearch ligand conformer 881
          20          19           1
SMALL
USER_CHARGES
 
@<TRIPOS>ATOM
       1    C1      19.744899   18.908041   24.553504 C.3        1 MOL1        -0.2224
       2    H1      19.283449   19.827124   24.170854 H          1 MOL1         0.1052
       3    H2      19.355718   18.739295   25.565945 H          1 MOL1         0.1052
       4    H3      20.826758   19.075705   24.634521 H          1 MOL1         0.1052
       5    C2      19.436103   17.695936   23.644848 C.3        1 MOL1        -0.1209
       6    H4      18.348374   17.553270   23.576586 H          1 MOL1         0.1041
       7    H5      19.837985   16.785876   24.112039 H          1 MOL1         0.1041
       8    C3      20.033436   17.837991   22.225381 C.3        1 MOL1        -0.1274
       9    H6      21.123619   17.942507   22.298098 H          1 MOL1         0.1041
      10    H7      19.842756   16.914372   21.663166 H          1 MOL1         0.1041
      11    C4      19.439618   19.033365   21.449542 C.3        1 MOL1         0.0313
      12    H8      19.680127   19.966964   21.963648 H          1 MOL1         0.1015
      13    H9      18.351658   18.932646   21.421813 H          1 MOL1         0.1015
      14    N1      19.919724   19.155889   20.012573 N.4        1 MOL1        -0.4809
      15    H10     19.358997   19.869234   19.520707 H          1 MOL1         0.3726
      16    H11     19.740186   18.279275   19.499704 H          1 MOL1         0.3726
      17    C5      21.397496   19.527265   19.952272 C.3        1 MOL1        -0.0677
      18    H12     21.989514   18.736107   20.416462 H          1 MOL1         0.1026
      19    H13     21.695043   19.642173   18.907654 H          1 MOL1         0.1026
      20    H14     21.553800   20.467842   20.484795 H          1 MOL1         0.1026
@<TRIPOS>BOND
    1     1     2    1
    2     1     3    1
    3     1     4    1
    4     1     5    1
    5     5     6    1
    6     5     7    1
    7     5     8    1
    8     8     9    1
    9     8    10    1
   10     8    11    1
   11    11    12    1
   12    11    13    1
   13    11    14    1
   14    14    15    1
   15    14    16    1
   16    14    17    1
   17    17    18    1
   18    17    19    1
   19    17    20    1
@<TRIPOS>SUBSTRUCTURE
       1 MOL1            1 RESIDUE      1      MOL     
@<SCITEGIC>MOL_PROPERTY
VConf Rank
SciTegic.value.IntegerValue
881

@<SCITEGIC>MOL_PROPERTY
Conf_Id
SciTegic.value.IntegerValue
33

@<SCITEGIC>MOL_PROPERTY
Delta U+W
SciTegic.value.DoubleValue
0.372

@<SCITEGIC>MOL_PROPERTY
U+W
SciTegic.value.DoubleValue
15.711

@<SCITEGIC>MOL_PROPERTY
Grad RMS
SciTegic.value.DoubleValue
0.000000

@<SCITEGIC>MOL_PROPERTY
U
SciTegic.value.DoubleValue
70.163

@<SCITEGIC>MOL_PROPERTY
W
SciTegic.value.DoubleValue
-54.452

@<SCITEGIC>MOL_PROPERTY
W(PB)
SciTegic.value.DoubleValue
-56.363

@<SCITEGIC>MOL_PROPERTY
W(SA)
SciTegic.value.DoubleValue
1.911

@<SCITEGIC>MOL_PROPERTY
Valence
SciTegic.value.DoubleValue
1.420

@<SCITEGIC>MOL_PROPERTY
Coulomb
SciTegic.value.DoubleValue
68.566

@<SCITEGIC>MOL_PROPERTY
VdW
SciTegic.value.DoubleValue
0.177

@<SCITEGIC>MOL_PROPERTY
VdW6
SciTegic.value.DoubleValue
-4.267

@<SCITEGIC>MOL_PROPERTY
VdW12
SciTegic.value.DoubleValue
4.445

@<SCITEGIC>MOL_PROPERTY
Bond
SciTegic.value.DoubleValue
0.146

@<SCITEGIC>MOL_PROPERTY
Angle
SciTegic.value.DoubleValue
0.581

@<SCITEGIC>MOL_PROPERTY
Pdih
SciTegic.value.DoubleValue
0.693

@<SCITEGIC>MOL_PROPERTY
Idih
SciTegic.value.DoubleValue
0.000

@<SCITEGIC>MOL_PROPERTY
Tether
SciTegic.value.DoubleValue
0.000

@<TRIPOS>MOLECULE
guest-s9_confgen4.mol2 : confsearch ligand conformer 882
          20          19           1
SMALL
USER_CHARGES
 
@<TRIPOS>ATOM
       1    C1      22.547377   18.920457   21.148646 C.3        1 MOL1        -0.2224
       2    H1      23.490114   19.310186   20.743268 H          1 MOL1         0.1052
       3    H2      22.652966   18.868636   22.239624 H          1 MOL1         0.1052
       4    H3      22.416317   17.899149   20.768054 H          1 MOL1         0.1052
       5    C2      21.363929   19.824892   20.734325 C.3        1 MOL1        -0.1209
       6    H4      21.352143   19.920995   19.639514 H          1 MOL1         0.1041
       7    H5      21.517035   20.838308   21.131454 H          1 MOL1         0.1041
       8    C3      19.994953   19.281388   21.205904 C.3        1 MOL1        -0.1274
       9    H6      19.199113   19.927956   20.813344 H          1 MOL1         0.1041
      10    H7      19.831327   18.284877   20.775901 H          1 MOL1         0.1041
      11    C4      19.880957   19.217211   22.744198 C.3        1 MOL1         0.0313
      12    H8      20.085583   20.208563   23.156409 H          1 MOL1         0.1015
      13    H9      20.625204   18.524262   23.143787 H          1 MOL1         0.1015
      14    N1      18.517957   18.785011   23.259792 N.4        1 MOL1        -0.4809
      15    H10     17.780718   19.396533   22.877382 H          1 MOL1         0.3726
      16    H11     18.474501   18.925969   24.281286 H          1 MOL1         0.3726
      17    C5      18.237931   17.323490   22.926763 C.3        1 MOL1        -0.0677
      18    H12     17.269150   17.040773   23.344490 H          1 MOL1         0.1026
      19    H13     18.220397   17.195448   21.842703 H          1 MOL1         0.1026
      20    H14     19.021910   16.699288   23.360868 H          1 MOL1         0.1026
@<TRIPOS>BOND
    1     1     2    1
    2     1     3    1
    3     1     4    1
    4     1     5    1
    5     5     6    1
    6     5     7    1
    7     5     8    1
    8     8     9    1
    9     8    10    1
   10     8    11    1
   11    11    12    1
   12    11    13    1
   13    11    14    1
   14    14    15    1
   15    14    16    1
   16    14    17    1
   17    17    18    1
   18    17    19    1
   19    17    20    1
@<TRIPOS>SUBSTRUCTURE
       1 MOL1            1 RESIDUE      1      MOL     
@<SCITEGIC>MOL_PROPERTY
VConf Rank
SciTegic.value.IntegerValue
882

@<SCITEGIC>MOL_PROPERTY
Conf_Id
SciTegic.value.IntegerValue
53

@<SCITEGIC>MOL_PROPERTY
Delta U+W
SciTegic.value.DoubleValue
0.379

@<SCITEGIC>MOL_PROPERTY
U+W
SciTegic.value.DoubleValue
15.717

@<SCITEGIC>MOL_PROPERTY
Grad RMS
SciTegic.value.DoubleValue
0.000000

@<SCITEGIC>MOL_PROPERTY
U
SciTegic.value.DoubleValue
70.163

@<SCITEGIC>MOL_PROPERTY
W
SciTegic.value.DoubleValue
-54.446

@<SCITEGIC>MOL_PROPERTY
W(PB)
SciTegic.value.DoubleValue
-56.322

@<SCITEGIC>MOL_PROPERTY
W(SA)
SciTegic.value.DoubleValue
1.876

@<SCITEGIC>MOL_PROPERTY
Valence
SciTegic.value.DoubleValue
1.420

@<SCITEGIC>MOL_PROPERTY
Coulomb
SciTegic.value.DoubleValue
68.566

@<SCITEGIC>MOL_PROPERTY
VdW
SciTegic.value.DoubleValue
0.177

@<SCITEGIC>MOL_PROPERTY
VdW6
SciTegic.value.DoubleValue
-4.267

@<SCITEGIC>MOL_PROPERTY
VdW12
SciTegic.value.DoubleValue
4.445

@<SCITEGIC>MOL_PROPERTY
Bond
SciTegic.value.DoubleValue
0.146

@<SCITEGIC>MOL_PROPERTY
Angle
SciTegic.value.DoubleValue
0.581

@<SCITEGIC>MOL_PROPERTY
Pdih
SciTegic.value.DoubleValue
0.693

@<SCITEGIC>MOL_PROPERTY
Idih
SciTegic.value.DoubleValue
0.000

@<SCITEGIC>MOL_PROPERTY
Tether
SciTegic.value.DoubleValue
0.000

@<TRIPOS>MOLECULE
guest-s9_confgen4.mol2 : confsearch ligand conformer 883
          20          19           1
SMALL
USER_CHARGES
 
@<TRIPOS>ATOM
       1    C1      17.621576   19.027997   23.232330 C.3        1 MOL1        -0.2224
       2    H1      17.390650   19.449433   24.219277 H          1 MOL1         0.1052
       3    H2      16.840275   19.357677   22.535174 H          1 MOL1         0.1052
       4    H3      17.568164   17.934462   23.312895 H          1 MOL1         0.1052
       5    C2      19.018794   19.482836   22.758131 C.3        1 MOL1        -0.1209
       6    H4      19.767959   19.169587   23.497917 H          1 MOL1         0.1041
       7    H5      19.050670   20.580821   22.718195 H          1 MOL1         0.1041
       8    C3      19.369696   18.900190   21.368845 C.3        1 MOL1        -0.1274
       9    H6      19.365986   17.803349   21.409688 H          1 MOL1         0.1041
      10    H7      18.590441   19.183859   20.649165 H          1 MOL1         0.1041
      11    C4      20.729664   19.400847   20.833597 C.3        1 MOL1         0.0313
      12    H8      20.696639   20.489705   20.744559 H          1 MOL1         0.1015
      13    H9      20.902651   18.988778   19.836216 H          1 MOL1         0.1015
      14    N1      21.936684   19.051276   21.691229 N.4        1 MOL1        -0.4809
      15    H10     21.813675   19.419811   22.645735 H          1 MOL1         0.3726
      16    H11     22.771550   19.535390   21.325366 H          1 MOL1         0.3726
      17    C5      22.180521   17.546372   21.718511 C.3        1 MOL1        -0.0677
      18    H12     22.326542   17.187379   20.697502 H          1 MOL1         0.1026
      19    H13     23.073310   17.339198   22.312596 H          1 MOL1         0.1026
      20    H14     21.318604   17.048138   22.166702 H          1 MOL1         0.1026
@<TRIPOS>BOND
    1     1     2    1
    2     1     3    1
    3     1     4    1
    4     1     5    1
    5     5     6    1
    6     5     7    1
    7     5     8    1
    8     8     9    1
    9     8    10    1
   10     8    11    1
   11    11    12    1
   12    11    13    1
   13    11    14    1
   14    14    15    1
   15    14    16    1
   16    14    17    1
   17    17    18    1
   18    17    19    1
   19    17    20    1
@<TRIPOS>SUBSTRUCTURE
       1 MOL1            1 RESIDUE      1      MOL     
@<SCITEGIC>MOL_PROPERTY
VConf Rank
SciTegic.value.IntegerValue
883

@<SCITEGIC>MOL_PROPERTY
Conf_Id
SciTegic.value.IntegerValue
49

@<SCITEGIC>MOL_PROPERTY
Delta U+W
SciTegic.value.DoubleValue
0.268

@<SCITEGIC>MOL_PROPERTY
U+W
SciTegic.value.DoubleValue
15.607

@<SCITEGIC>MOL_PROPERTY
Grad RMS
SciTegic.value.DoubleValue
0.000000

@<SCITEGIC>MOL_PROPERTY
U
SciTegic.value.DoubleValue
70.298

@<SCITEGIC>MOL_PROPERTY
W
SciTegic.value.DoubleValue
-54.692

@<SCITEGIC>MOL_PROPERTY
W(PB)
SciTegic.value.DoubleValue
-56.576

@<SCITEGIC>MOL_PROPERTY
W(SA)
SciTegic.value.DoubleValue
1.885

@<SCITEGIC>MOL_PROPERTY
Valence
SciTegic.value.DoubleValue
1.245

@<SCITEGIC>MOL_PROPERTY
Coulomb
SciTegic.value.DoubleValue
68.933

@<SCITEGIC>MOL_PROPERTY
VdW
SciTegic.value.DoubleValue
0.120

@<SCITEGIC>MOL_PROPERTY
VdW6
SciTegic.value.DoubleValue
-4.430

@<SCITEGIC>MOL_PROPERTY
VdW12
SciTegic.value.DoubleValue
4.550

@<SCITEGIC>MOL_PROPERTY
Bond
SciTegic.value.DoubleValue
0.148

@<SCITEGIC>MOL_PROPERTY
Angle
SciTegic.value.DoubleValue
0.587

@<SCITEGIC>MOL_PROPERTY
Pdih
SciTegic.value.DoubleValue
0.509

@<SCITEGIC>MOL_PROPERTY
Idih
SciTegic.value.DoubleValue
0.000

@<SCITEGIC>MOL_PROPERTY
Tether
SciTegic.value.DoubleValue
0.000

@<TRIPOS>MOLECULE
guest-s9_confgen4.mol2 : confsearch ligand conformer 884
          20          19           1
SMALL
USER_CHARGES
 
@<TRIPOS>ATOM
       1    C1      21.304828   19.068778   19.516257 C.3        1 MOL1        -0.2224
       2    H1      20.468028   18.922430   18.820902 H          1 MOL1         0.1052
       3    H2      21.669746   20.097578   19.399875 H          1 MOL1         0.1052
       4    H3      22.113679   18.389877   19.216502 H          1 MOL1         0.1052
       5    C2      20.872299   18.792483   20.972591 C.3        1 MOL1        -0.1209
       6    H4      21.735894   18.919438   21.640481 H          1 MOL1         0.1041
       7    H5      20.552832   17.745203   21.054407 H          1 MOL1         0.1041
       8    C3      19.724923   19.729407   21.416803 C.3        1 MOL1        -0.1274
       9    H6      20.015469   20.769882   21.219950 H          1 MOL1         0.1041
      10    H7      18.832279   19.538593   20.806613 H          1 MOL1         0.1041
      11    C4      19.357828   19.613492   22.913678 C.3        1 MOL1         0.0313
      12    H8      18.588560   20.359150   23.130391 H          1 MOL1         0.1015
      13    H9      20.225814   19.842963   23.536768 H          1 MOL1         0.1015
      14    N1      18.798670   18.268537   23.351512 N.4        1 MOL1        -0.4809
      15    H10     18.257384   17.837826   22.587092 H          1 MOL1         0.3726
      16    H11     18.113782   18.415235   24.109415 H          1 MOL1         0.3726
      17    C5      19.902970   17.339987   23.846447 C.3        1 MOL1        -0.0677
      18    H12     19.457484   16.397244   24.171617 H          1 MOL1         0.1026
      19    H13     20.614168   17.149811   23.041872 H          1 MOL1         0.1026
      20    H14     20.416599   17.811311   24.687117 H          1 MOL1         0.1026
@<TRIPOS>BOND
    1     1     2    1
    2     1     3    1
    3     1     4    1
    4     1     5    1
    5     5     6    1
    6     5     7    1
    7     5     8    1
    8     8     9    1
    9     8    10    1
   10     8    11    1
   11    11    12    1
   12    11    13    1
   13    11    14    1
   14    14    15    1
   15    14    16    1
   16    14    17    1
   17    17    18    1
   18    17    19    1
   19    17    20    1
@<TRIPOS>SUBSTRUCTURE
       1 MOL1            1 RESIDUE      1      MOL     
@<SCITEGIC>MOL_PROPERTY
VConf Rank
SciTegic.value.IntegerValue
884

@<SCITEGIC>MOL_PROPERTY
Conf_Id
SciTegic.value.IntegerValue
65

@<SCITEGIC>MOL_PROPERTY
Delta U+W
SciTegic.value.DoubleValue
1.775

@<SCITEGIC>MOL_PROPERTY
U+W
SciTegic.value.DoubleValue
17.114

@<SCITEGIC>MOL_PROPERTY
Grad RMS
SciTegic.value.DoubleValue
0.000000

@<SCITEGIC>MOL_PROPERTY
U
SciTegic.value.DoubleValue
71.726

@<SCITEGIC>MOL_PROPERTY
W
SciTegic.value.DoubleValue
-54.613

@<SCITEGIC>MOL_PROPERTY
W(PB)
SciTegic.value.DoubleValue
-56.495

@<SCITEGIC>MOL_PROPERTY
W(SA)
SciTegic.value.DoubleValue
1.883

@<SCITEGIC>MOL_PROPERTY
Valence
SciTegic.value.DoubleValue
2.885

@<SCITEGIC>MOL_PROPERTY
Coulomb
SciTegic.value.DoubleValue
68.822

@<SCITEGIC>MOL_PROPERTY
VdW
SciTegic.value.DoubleValue
0.019

@<SCITEGIC>MOL_PROPERTY
VdW6
SciTegic.value.DoubleValue
-4.600

@<SCITEGIC>MOL_PROPERTY
VdW12
SciTegic.value.DoubleValue
4.619

@<SCITEGIC>MOL_PROPERTY
Bond
SciTegic.value.DoubleValue
0.152

@<SCITEGIC>MOL_PROPERTY
Angle
SciTegic.value.DoubleValue
0.862

@<SCITEGIC>MOL_PROPERTY
Pdih
SciTegic.value.DoubleValue
1.871

@<SCITEGIC>MOL_PROPERTY
Idih
SciTegic.value.DoubleValue
0.000

@<SCITEGIC>MOL_PROPERTY
Tether
SciTegic.value.DoubleValue
0.000

@<TRIPOS>MOLECULE
guest-s9_confgen4.mol2 : confsearch ligand conformer 885
          20          19           1
SMALL
USER_CHARGES
 
@<TRIPOS>ATOM
       1    C1      21.392190   17.238770   20.734679 C.3        1 MOL1        -0.2224
       2    H1      21.699727   17.398459   21.775795 H          1 MOL1         0.1052
       3    H2      21.497527   16.167534   20.519419 H          1 MOL1         0.1052
       4    H3      22.090860   17.780728   20.084131 H          1 MOL1         0.1052
       5    C2      19.936399   17.699773   20.493183 C.3        1 MOL1        -0.1209
       6    H4      19.257892   17.143367   21.153978 H          1 MOL1         0.1041
       7    H5      19.643696   17.435270   19.467333 H          1 MOL1         0.1041
       8    C3      19.741609   19.224068   20.689602 C.3        1 MOL1        -0.1274
       9    H6      20.349692   19.763605   19.951428 H          1 MOL1         0.1041
      10    H7      18.697344   19.488756   20.477007 H          1 MOL1         0.1041
      11    C4      20.115947   19.728314   22.099060 C.3        1 MOL1         0.0313
      12    H8      19.980443   20.811903   22.143941 H          1 MOL1         0.1015
      13    H9      21.167344   19.510024   22.300755 H          1 MOL1         0.1015
      14    N1      19.288843   19.114978   23.212758 N.4        1 MOL1        -0.4809
      15    H10     19.384917   18.088788   23.198897 H          1 MOL1         0.3726
      16    H11     18.286563   19.300340   23.054725 H          1 MOL1         0.3726
      17    C5      19.731093   19.674697   24.557989 C.3        1 MOL1        -0.0677
      18    H12     19.591134   20.757827   24.560452 H          1 MOL1         0.1026
      19    H13     19.128714   19.223958   25.349786 H          1 MOL1         0.1026
      20    H14     20.785289   19.437959   24.717321 H          1 MOL1         0.1026
@<TRIPOS>BOND
    1     1     2    1
    2     1     3    1
    3     1     4    1
    4     1     5    1
    5     5     6    1
    6     5     7    1
    7     5     8    1
    8     8     9    1
    9     8    10    1
   10     8    11    1
   11    11    12    1
   12    11    13    1
   13    11    14    1
   14    14    15    1
   15    14    16    1
   16    14    17    1
   17    17    18    1
   18    17    19    1
   19    17    20    1
@<TRIPOS>SUBSTRUCTURE
       1 MOL1            1 RESIDUE      1      MOL     
@<SCITEGIC>MOL_PROPERTY
VConf Rank
SciTegic.value.IntegerValue
885

@<SCITEGIC>MOL_PROPERTY
Conf_Id
SciTegic.value.IntegerValue
23

@<SCITEGIC>MOL_PROPERTY
Delta U+W
SciTegic.value.DoubleValue
0.896

@<SCITEGIC>MOL_PROPERTY
U+W
SciTegic.value.DoubleValue
16.234

@<SCITEGIC>MOL_PROPERTY
Grad RMS
SciTegic.value.DoubleValue
0.000000

@<SCITEGIC>MOL_PROPERTY
U
SciTegic.value.DoubleValue
70.374

@<SCITEGIC>MOL_PROPERTY
W
SciTegic.value.DoubleValue
-54.140

@<SCITEGIC>MOL_PROPERTY
W(PB)
SciTegic.value.DoubleValue
-56.046

@<SCITEGIC>MOL_PROPERTY
W(SA)
SciTegic.value.DoubleValue
1.907

@<SCITEGIC>MOL_PROPERTY
Valence
SciTegic.value.DoubleValue
1.257

@<SCITEGIC>MOL_PROPERTY
Coulomb
SciTegic.value.DoubleValue
69.240

@<SCITEGIC>MOL_PROPERTY
VdW
SciTegic.value.DoubleValue
-0.123

@<SCITEGIC>MOL_PROPERTY
VdW6
SciTegic.value.DoubleValue
-4.336

@<SCITEGIC>MOL_PROPERTY
VdW12
SciTegic.value.DoubleValue
4.213

@<SCITEGIC>MOL_PROPERTY
Bond
SciTegic.value.DoubleValue
0.128

@<SCITEGIC>MOL_PROPERTY
Angle
SciTegic.value.DoubleValue
0.603

@<SCITEGIC>MOL_PROPERTY
Pdih
SciTegic.value.DoubleValue
0.526

@<SCITEGIC>MOL_PROPERTY
Idih
SciTegic.value.DoubleValue
0.000

@<SCITEGIC>MOL_PROPERTY
Tether
SciTegic.value.DoubleValue
0.000

@<TRIPOS>MOLECULE
guest-s9_confgen4.mol2 : confsearch ligand conformer 886
          20          19           1
SMALL
USER_CHARGES
 
@<TRIPOS>ATOM
       1    C1      22.169819   18.021527   21.096620 C.3        1 MOL1        -0.2224
       2    H1      22.361224   16.974996   21.367188 H          1 MOL1         0.1052
       3    H2      22.978244   18.347500   20.429410 H          1 MOL1         0.1052
       4    H3      22.229920   18.627655   22.009308 H          1 MOL1         0.1052
       5    C2      20.797759   18.173669   20.400577 C.3        1 MOL1        -0.1209
       6    H4      20.818018   17.625834   19.447964 H          1 MOL1         0.1041
       7    H5      20.630333   19.227462   20.139617 H          1 MOL1         0.1041
       8    C3      19.620590   17.642235   21.256058 C.3        1 MOL1        -0.1274
       9    H6      18.682904   17.753812   20.695667 H          1 MOL1         0.1041
      10    H7      19.751701   16.564465   21.420343 H          1 MOL1         0.1041
      11    C4      19.477797   18.335570   22.627140 C.3        1 MOL1         0.0313
      12    H8      20.390290   18.189631   23.210084 H          1 MOL1         0.1015
      13    H9      18.648659   17.883291   23.177152 H          1 MOL1         0.1015
      14    N1      19.212335   19.826338   22.539126 N.4        1 MOL1        -0.4809
      15    H10     18.355664   20.003283   21.992589 H          1 MOL1         0.3726
      16    H11     19.971980   20.289415   22.018561 H          1 MOL1         0.3726
      17    C5      19.086477   20.415804   23.937416 C.3        1 MOL1        -0.0677
      18    H12     20.015940   20.245233   24.484923 H          1 MOL1         0.1026
      19    H13     18.896921   21.488593   23.858913 H          1 MOL1         0.1026
      20    H14     18.256894   19.932648   24.458104 H          1 MOL1         0.1026
@<TRIPOS>BOND
    1     1     2    1
    2     1     3    1
    3     1     4    1
    4     1     5    1
    5     5     6    1
    6     5     7    1
    7     5     8    1
    8     8     9    1
    9     8    10    1
   10     8    11    1
   11    11    12    1
   12    11    13    1
   13    11    14    1
   14    14    15    1
   15    14    16    1
   16    14    17    1
   17    17    18    1
   18    17    19    1
   19    17    20    1
@<TRIPOS>SUBSTRUCTURE
       1 MOL1            1 RESIDUE      1      MOL     
@<SCITEGIC>MOL_PROPERTY
VConf Rank
SciTegic.value.IntegerValue
886

@<SCITEGIC>MOL_PROPERTY
Conf_Id
SciTegic.value.IntegerValue
24

@<SCITEGIC>MOL_PROPERTY
Delta U+W
SciTegic.value.DoubleValue
0.792

@<SCITEGIC>MOL_PROPERTY
U+W
SciTegic.value.DoubleValue
16.130

@<SCITEGIC>MOL_PROPERTY
Grad RMS
SciTegic.value.DoubleValue
0.000000

@<SCITEGIC>MOL_PROPERTY
U
SciTegic.value.DoubleValue
70.374

@<SCITEGIC>MOL_PROPERTY
W
SciTegic.value.DoubleValue
-54.243

@<SCITEGIC>MOL_PROPERTY
W(PB)
SciTegic.value.DoubleValue
-56.130

@<SCITEGIC>MOL_PROPERTY
W(SA)
SciTegic.value.DoubleValue
1.887

@<SCITEGIC>MOL_PROPERTY
Valence
SciTegic.value.DoubleValue
1.257

@<SCITEGIC>MOL_PROPERTY
Coulomb
SciTegic.value.DoubleValue
69.240

@<SCITEGIC>MOL_PROPERTY
VdW
SciTegic.value.DoubleValue
-0.123

@<SCITEGIC>MOL_PROPERTY
VdW6
SciTegic.value.DoubleValue
-4.336

@<SCITEGIC>MOL_PROPERTY
VdW12
SciTegic.value.DoubleValue
4.213

@<SCITEGIC>MOL_PROPERTY
Bond
SciTegic.value.DoubleValue
0.128

@<SCITEGIC>MOL_PROPERTY
Angle
SciTegic.value.DoubleValue
0.603

@<SCITEGIC>MOL_PROPERTY
Pdih
SciTegic.value.DoubleValue
0.526

@<SCITEGIC>MOL_PROPERTY
Idih
SciTegic.value.DoubleValue
0.000

@<SCITEGIC>MOL_PROPERTY
Tether
SciTegic.value.DoubleValue
0.000

@<TRIPOS>MOLECULE
guest-s9_confgen4.mol2 : confsearch ligand conformer 887
          20          19           1
SMALL
USER_CHARGES
 
@<TRIPOS>ATOM
       1    C1      17.795133   18.920241   22.012113 C.3        1 MOL1        -0.2224
       2    H1      16.729042   18.660127   22.043941 H          1 MOL1         0.1052
       3    H2      18.234072   18.591042   22.961328 H          1 MOL1         0.1052
       4    H3      17.868164   20.013625   21.946220 H          1 MOL1         0.1052
       5    C2      18.476362   18.237426   20.804160 C.3        1 MOL1        -0.1209
       6    H4      17.871834   18.428948   19.906422 H          1 MOL1         0.1041
       7    H5      18.468861   17.147783   20.948125 H          1 MOL1         0.1041
       8    C3      19.924725   18.716202   20.528739 C.3        1 MOL1        -0.1274
       9    H6      20.277229   18.218567   19.615548 H          1 MOL1         0.1041
      10    H7      19.936378   19.791952   20.308892 H          1 MOL1         0.1041
      11    C4      20.928212   18.396630   21.657089 C.3        1 MOL1         0.0313
      12    H8      21.942143   18.416404   21.249541 H          1 MOL1         0.1015
      13    H9      20.738958   17.393160   22.046336 H          1 MOL1         0.1015
      14    N1      20.898925   19.374974   22.815961 N.4        1 MOL1        -0.4809
      15    H10     19.946648   19.433557   23.203717 H          1 MOL1         0.3726
      16    H11     21.118369   20.326112   22.482510 H          1 MOL1         0.3726
      17    C5      21.889603   18.942490   23.888308 C.3        1 MOL1        -0.0677
      18    H12     21.618388   17.947875   24.248796 H          1 MOL1         0.1026
      19    H13     22.894488   18.919302   23.461186 H          1 MOL1         0.1026
      20    H14     21.857559   19.655355   24.715210 H          1 MOL1         0.1026
@<TRIPOS>BOND
    1     1     2    1
    2     1     3    1
    3     1     4    1
    4     1     5    1
    5     5     6    1
    6     5     7    1
    7     5     8    1
    8     8     9    1
    9     8    10    1
   10     8    11    1
   11    11    12    1
   12    11    13    1
   13    11    14    1
   14    14    15    1
   15    14    16    1
   16    14    17    1
   17    17    18    1
   18    17    19    1
   19    17    20    1
@<TRIPOS>SUBSTRUCTURE
       1 MOL1            1 RESIDUE      1      MOL     
@<SCITEGIC>MOL_PROPERTY
VConf Rank
SciTegic.value.IntegerValue
887

@<SCITEGIC>MOL_PROPERTY
Conf_Id
SciTegic.value.IntegerValue
26

@<SCITEGIC>MOL_PROPERTY
Delta U+W
SciTegic.value.DoubleValue
2.888

@<SCITEGIC>MOL_PROPERTY
U+W
SciTegic.value.DoubleValue
18.226

@<SCITEGIC>MOL_PROPERTY
Grad RMS
SciTegic.value.DoubleValue
0.000000

@<SCITEGIC>MOL_PROPERTY
U
SciTegic.value.DoubleValue
72.042

@<SCITEGIC>MOL_PROPERTY
W
SciTegic.value.DoubleValue
-53.816

@<SCITEGIC>MOL_PROPERTY
W(PB)
SciTegic.value.DoubleValue
-55.689

@<SCITEGIC>MOL_PROPERTY
W(SA)
SciTegic.value.DoubleValue
1.873

@<SCITEGIC>MOL_PROPERTY
Valence
SciTegic.value.DoubleValue
2.428

@<SCITEGIC>MOL_PROPERTY
Coulomb
SciTegic.value.DoubleValue
69.829

@<SCITEGIC>MOL_PROPERTY
VdW
SciTegic.value.DoubleValue
-0.215

@<SCITEGIC>MOL_PROPERTY
VdW6
SciTegic.value.DoubleValue
-4.563

@<SCITEGIC>MOL_PROPERTY
VdW12
SciTegic.value.DoubleValue
4.348

@<SCITEGIC>MOL_PROPERTY
Bond
SciTegic.value.DoubleValue
0.137

@<SCITEGIC>MOL_PROPERTY
Angle
SciTegic.value.DoubleValue
0.936

@<SCITEGIC>MOL_PROPERTY
Pdih
SciTegic.value.DoubleValue
1.356

@<SCITEGIC>MOL_PROPERTY
Idih
SciTegic.value.DoubleValue
0.000

@<SCITEGIC>MOL_PROPERTY
Tether
SciTegic.value.DoubleValue
0.000

@<TRIPOS>MOLECULE
guest-s9_confgen4.mol2 : confsearch ligand conformer 888
          20          19           1
SMALL
USER_CHARGES
 
@<TRIPOS>ATOM
       1    C1      18.795473   20.200333   20.874971 C.3        1 MOL1        -0.2224
       2    H1      17.910796   20.640536   20.396655 H          1 MOL1         0.1052
       3    H2      19.673525   20.760874   20.528586 H          1 MOL1         0.1052
       4    H3      18.870945   19.165920   20.519523 H          1 MOL1         0.1052
       5    C2      18.658892   20.263799   22.413405 C.3        1 MOL1        -0.1209
       6    H4      17.829610   19.617423   22.733709 H          1 MOL1         0.1041
       7    H5      18.373821   21.286416   22.698106 H          1 MOL1         0.1041
       8    C3      19.945859   19.882010   23.188512 C.3        1 MOL1        -0.1274
       9    H6      20.763728   20.568745   22.933184 H          1 MOL1         0.1041
      10    H7      19.751901   20.029878   24.259182 H          1 MOL1         0.1041
      11    C4      20.401288   18.420777   22.989351 C.3        1 MOL1         0.0313
      12    H8      19.531728   17.758875   22.995346 H          1 MOL1         0.1015
      13    H9      21.051864   18.133168   23.819156 H          1 MOL1         0.1015
      14    N1      21.181641   18.177368   21.711540 N.4        1 MOL1        -0.4809
      15    H10     22.033289   18.759234   21.700013 H          1 MOL1         0.3726
      16    H11     20.629669   18.483552   20.897783 H          1 MOL1         0.3726
      17    C5      21.540220   16.702332   21.592798 C.3        1 MOL1        -0.0677
      18    H12     20.623255   16.109377   21.574137 H          1 MOL1         0.1026
      19    H13     22.101106   16.542407   20.669325 H          1 MOL1         0.1026
      20    H14     22.151335   16.410726   22.449693 H          1 MOL1         0.1026
@<TRIPOS>BOND
    1     1     2    1
    2     1     3    1
    3     1     4    1
    4     1     5    1
    5     5     6    1
    6     5     7    1
    7     5     8    1
    8     8     9    1
    9     8    10    1
   10     8    11    1
   11    11    12    1
   12    11    13    1
   13    11    14    1
   14    14    15    1
   15    14    16    1
   16    14    17    1
   17    17    18    1
   18    17    19    1
   19    17    20    1
@<TRIPOS>SUBSTRUCTURE
       1 MOL1            1 RESIDUE      1      MOL     
@<SCITEGIC>MOL_PROPERTY
VConf Rank
SciTegic.value.IntegerValue
888

@<SCITEGIC>MOL_PROPERTY
Conf_Id
SciTegic.value.IntegerValue
5

@<SCITEGIC>MOL_PROPERTY
Delta U+W
SciTegic.value.DoubleValue
2.950

@<SCITEGIC>MOL_PROPERTY
U+W
SciTegic.value.DoubleValue
18.289

@<SCITEGIC>MOL_PROPERTY
Grad RMS
SciTegic.value.DoubleValue
0.000000

@<SCITEGIC>MOL_PROPERTY
U
SciTegic.value.DoubleValue
72.042

@<SCITEGIC>MOL_PROPERTY
W
SciTegic.value.DoubleValue
-53.753

@<SCITEGIC>MOL_PROPERTY
W(PB)
SciTegic.value.DoubleValue
-55.644

@<SCITEGIC>MOL_PROPERTY
W(SA)
SciTegic.value.DoubleValue
1.891

@<SCITEGIC>MOL_PROPERTY
Valence
SciTegic.value.DoubleValue
2.428

@<SCITEGIC>MOL_PROPERTY
Coulomb
SciTegic.value.DoubleValue
69.829

@<SCITEGIC>MOL_PROPERTY
VdW
SciTegic.value.DoubleValue
-0.215

@<SCITEGIC>MOL_PROPERTY
VdW6
SciTegic.value.DoubleValue
-4.563

@<SCITEGIC>MOL_PROPERTY
VdW12
SciTegic.value.DoubleValue
4.348

@<SCITEGIC>MOL_PROPERTY
Bond
SciTegic.value.DoubleValue
0.137

@<SCITEGIC>MOL_PROPERTY
Angle
SciTegic.value.DoubleValue
0.936

@<SCITEGIC>MOL_PROPERTY
Pdih
SciTegic.value.DoubleValue
1.356

@<SCITEGIC>MOL_PROPERTY
Idih
SciTegic.value.DoubleValue
0.000

@<SCITEGIC>MOL_PROPERTY
Tether
SciTegic.value.DoubleValue
0.000

@<TRIPOS>MOLECULE
guest-s9_confgen4.mol2 : confsearch ligand conformer 889
          20          19           1
SMALL
USER_CHARGES
 
@<TRIPOS>ATOM
       1    C1      21.229409   20.368816   23.540623 C.3        1 MOL1        -0.2224
       2    H1      22.240585   20.028588   23.799130 H          1 MOL1         0.1052
       3    H2      21.266634   20.825721   22.543814 H          1 MOL1         0.1052
       4    H3      20.948366   21.154098   24.254285 H          1 MOL1         0.1052
       5    C2      20.219155   19.199814   23.595043 C.3        1 MOL1        -0.1209
       6    H4      19.215618   19.564532   23.336863 H          1 MOL1         0.1041
       7    H5      20.151511   18.834209   24.629283 H          1 MOL1         0.1041
       8    C3      20.608186   18.017692   22.672796 C.3        1 MOL1        -0.1274
       9    H6      21.569516   17.603126   23.003723 H          1 MOL1         0.1041
      10    H7      19.875372   17.208813   22.788771 H          1 MOL1         0.1041
      11    C4      20.724892   18.397600   21.178948 C.3        1 MOL1         0.0313
      12    H8      20.998491   17.513619   20.597449 H          1 MOL1         0.1015
      13    H9      21.522863   19.134734   21.060817 H          1 MOL1         0.1015
      14    N1      19.466378   18.986436   20.560290 N.4        1 MOL1        -0.4809
      15    H10     19.677632   19.335887   19.612497 H          1 MOL1         0.3726
      16    H11     19.168047   19.817685   21.091447 H          1 MOL1         0.3726
      17    C5      18.346324   17.954024   20.495291 C.3        1 MOL1        -0.0677
      18    H12     18.087898   17.636348   21.507362 H          1 MOL1         0.1026
      19    H13     17.472762   18.403169   20.017730 H          1 MOL1         0.1026
      20    H14     18.683345   17.094522   19.911932 H          1 MOL1         0.1026
@<TRIPOS>BOND
    1     1     2    1
    2     1     3    1
    3     1     4    1
    4     1     5    1
    5     5     6    1
    6     5     7    1
    7     5     8    1
    8     8     9    1
    9     8    10    1
   10     8    11    1
   11    11    12    1
   12    11    13    1
   13    11    14    1
   14    14    15    1
   15    14    16    1
   16    14    17    1
   17    17    18    1
   18    17    19    1
   19    17    20    1
@<TRIPOS>SUBSTRUCTURE
       1 MOL1            1 RESIDUE      1      MOL     
@<SCITEGIC>MOL_PROPERTY
VConf Rank
SciTegic.value.IntegerValue
889

@<SCITEGIC>MOL_PROPERTY
Conf_Id
SciTegic.value.IntegerValue
52

@<SCITEGIC>MOL_PROPERTY
Delta U+W
SciTegic.value.DoubleValue
0.784

@<SCITEGIC>MOL_PROPERTY
U+W
SciTegic.value.DoubleValue
16.122

@<SCITEGIC>MOL_PROPERTY
Grad RMS
SciTegic.value.DoubleValue
0.000000

@<SCITEGIC>MOL_PROPERTY
U
SciTegic.value.DoubleValue
70.777

@<SCITEGIC>MOL_PROPERTY
W
SciTegic.value.DoubleValue
-54.655

@<SCITEGIC>MOL_PROPERTY
W(PB)
SciTegic.value.DoubleValue
-56.491

@<SCITEGIC>MOL_PROPERTY
W(SA)
SciTegic.value.DoubleValue
1.836

@<SCITEGIC>MOL_PROPERTY
Valence
SciTegic.value.DoubleValue
1.529

@<SCITEGIC>MOL_PROPERTY
Coulomb
SciTegic.value.DoubleValue
69.166

@<SCITEGIC>MOL_PROPERTY
VdW
SciTegic.value.DoubleValue
0.082

@<SCITEGIC>MOL_PROPERTY
VdW6
SciTegic.value.DoubleValue
-5.166

@<SCITEGIC>MOL_PROPERTY
VdW12
SciTegic.value.DoubleValue
5.248

@<SCITEGIC>MOL_PROPERTY
Bond
SciTegic.value.DoubleValue
0.171

@<SCITEGIC>MOL_PROPERTY
Angle
SciTegic.value.DoubleValue
0.752

@<SCITEGIC>MOL_PROPERTY
Pdih
SciTegic.value.DoubleValue
0.605

@<SCITEGIC>MOL_PROPERTY
Idih
SciTegic.value.DoubleValue
0.000

@<SCITEGIC>MOL_PROPERTY
Tether
SciTegic.value.DoubleValue
0.000

@<TRIPOS>MOLECULE
guest-s9_confgen4.mol2 : confsearch ligand conformer 890
          20          19           1
SMALL
USER_CHARGES
 
@<TRIPOS>ATOM
       1    C1      21.743103   19.816091   21.189352 C.3        1 MOL1        -0.2224
       2    H1      22.581405   20.435936   20.845534 H          1 MOL1         0.1052
       3    H2      22.121566   19.189807   22.005248 H          1 MOL1         0.1052
       4    H3      21.443502   19.169041   20.354563 H          1 MOL1         0.1052
       5    C2      20.571854   20.710819   21.655186 C.3        1 MOL1        -0.1209
       6    H4      20.387459   21.472846   20.884902 H          1 MOL1         0.1041
       7    H5      20.866514   21.259936   22.560539 H          1 MOL1         0.1041
       8    C3      19.246200   19.949882   21.912948 C.3        1 MOL1        -0.1274
       9    H6      18.471561   20.693011   22.143773 H          1 MOL1         0.1041
      10    H7      18.912043   19.448056   20.996209 H          1 MOL1         0.1041
      11    C4      19.297745   18.948569   23.090347 C.3        1 MOL1         0.0313
      12    H8      18.278755   18.717973   23.411135 H          1 MOL1         0.1015
      13    H9      19.814552   19.415140   23.932779 H          1 MOL1         0.1015
      14    N1      19.981797   17.621817   22.799981 N.4        1 MOL1        -0.4809
      15    H10     20.133269   17.110611   23.683657 H          1 MOL1         0.3726
      16    H11     20.923436   17.786238   22.417720 H          1 MOL1         0.3726
      17    C5      19.152868   16.769522   21.845416 C.3        1 MOL1        -0.0677
      18    H12     18.166372   16.598092   22.281396 H          1 MOL1         0.1026
      19    H13     19.050483   17.288600   20.890590 H          1 MOL1         0.1026
      20    H14     19.657235   15.813304   21.689939 H          1 MOL1         0.1026
@<TRIPOS>BOND
    1     1     2    1
    2     1     3    1
    3     1     4    1
    4     1     5    1
    5     5     6    1
    6     5     7    1
    7     5     8    1
    8     8     9    1
    9     8    10    1
   10     8    11    1
   11    11    12    1
   12    11    13    1
   13    11    14    1
   14    14    15    1
   15    14    16    1
   16    14    17    1
   17    17    18    1
   18    17    19    1
   19    17    20    1
@<TRIPOS>SUBSTRUCTURE
       1 MOL1            1 RESIDUE      1      MOL     
@<SCITEGIC>MOL_PROPERTY
VConf Rank
SciTegic.value.IntegerValue
890

@<SCITEGIC>MOL_PROPERTY
Conf_Id
SciTegic.value.IntegerValue
55

@<SCITEGIC>MOL_PROPERTY
Delta U+W
SciTegic.value.DoubleValue
2.745

@<SCITEGIC>MOL_PROPERTY
U+W
SciTegic.value.DoubleValue
18.083

@<SCITEGIC>MOL_PROPERTY
Grad RMS
SciTegic.value.DoubleValue
0.000000

@<SCITEGIC>MOL_PROPERTY
U
SciTegic.value.DoubleValue
72.490

@<SCITEGIC>MOL_PROPERTY
W
SciTegic.value.DoubleValue
-54.407

@<SCITEGIC>MOL_PROPERTY
W(PB)
SciTegic.value.DoubleValue
-56.269

@<SCITEGIC>MOL_PROPERTY
W(SA)
SciTegic.value.DoubleValue
1.861

@<SCITEGIC>MOL_PROPERTY
Valence
SciTegic.value.DoubleValue
2.738

@<SCITEGIC>MOL_PROPERTY
Coulomb
SciTegic.value.DoubleValue
69.795

@<SCITEGIC>MOL_PROPERTY
VdW
SciTegic.value.DoubleValue
-0.043

@<SCITEGIC>MOL_PROPERTY
VdW6
SciTegic.value.DoubleValue
-5.333

@<SCITEGIC>MOL_PROPERTY
VdW12
SciTegic.value.DoubleValue
5.290

@<SCITEGIC>MOL_PROPERTY
Bond
SciTegic.value.DoubleValue
0.182

@<SCITEGIC>MOL_PROPERTY
Angle
SciTegic.value.DoubleValue
1.135

@<SCITEGIC>MOL_PROPERTY
Pdih
SciTegic.value.DoubleValue
1.422

@<SCITEGIC>MOL_PROPERTY
Idih
SciTegic.value.DoubleValue
0.000

@<SCITEGIC>MOL_PROPERTY
Tether
SciTegic.value.DoubleValue
0.000

@<TRIPOS>MOLECULE
guest-s9_confgen4.mol2 : confsearch ligand conformer 891
          20          19           1
SMALL
USER_CHARGES
 
@<TRIPOS>ATOM
       1    C1      19.648522   16.828174   22.600248 C.3        1 MOL1        -0.2224
       2    H1      19.330979   15.844815   22.970844 H          1 MOL1         0.1052
       3    H2      20.173798   16.671451   21.649022 H          1 MOL1         0.1052
       4    H3      20.355517   17.233453   23.333091 H          1 MOL1         0.1052
       5    C2      18.423304   17.753189   22.419803 C.3        1 MOL1        -0.1209
       6    H4      17.988784   17.983389   23.402767 H          1 MOL1         0.1041
       7    H5      17.648970   17.202428   21.867451 H          1 MOL1         0.1041
       8    C3      18.720065   19.069894   21.657535 C.3        1 MOL1        -0.1274
       9    H6      19.097510   18.849207   20.651187 H          1 MOL1         0.1041
      10    H7      17.766884   19.594178   21.508674 H          1 MOL1         0.1041
      11    C4      19.675072   20.038147   22.393742 C.3        1 MOL1         0.0313
      12    H8      19.389691   20.087752   23.447575 H          1 MOL1         0.1015
      13    H9      19.566442   21.040429   21.971778 H          1 MOL1         0.1015
      14    N1      21.153107   19.686866   22.326485 N.4        1 MOL1        -0.4809
      15    H10     21.300388   18.717747   22.641055 H          1 MOL1         0.3726
      16    H11     21.677968   20.271870   22.995403 H          1 MOL1         0.3726
      17    C5      21.705804   19.887731   20.919751 C.3        1 MOL1        -0.0677
      18    H12     21.189781   19.219458   20.227833 H          1 MOL1         0.1026
      19    H13     21.550376   20.925592   20.617552 H          1 MOL1         0.1026
      20    H14     22.774191   19.660882   20.919489 H          1 MOL1         0.1026
@<TRIPOS>BOND
    1     1     2    1
    2     1     3    1
    3     1     4    1
    4     1     5    1
    5     5     6    1
    6     5     7    1
    7     5     8    1
    8     8     9    1
    9     8    10    1
   10     8    11    1
   11    11    12    1
   12    11    13    1
   13    11    14    1
   14    14    15    1
   15    14    16    1
   16    14    17    1
   17    17    18    1
   18    17    19    1
   19    17    20    1
@<TRIPOS>SUBSTRUCTURE
       1 MOL1            1 RESIDUE      1      MOL     
@<SCITEGIC>MOL_PROPERTY
VConf Rank
SciTegic.value.IntegerValue
891

@<SCITEGIC>MOL_PROPERTY
Conf_Id
SciTegic.value.IntegerValue
76

@<SCITEGIC>MOL_PROPERTY
Delta U+W
SciTegic.value.DoubleValue
2.799

@<SCITEGIC>MOL_PROPERTY
U+W
SciTegic.value.DoubleValue
18.137

@<SCITEGIC>MOL_PROPERTY
Grad RMS
SciTegic.value.DoubleValue
0.000000

@<SCITEGIC>MOL_PROPERTY
U
SciTegic.value.DoubleValue
72.490

@<SCITEGIC>MOL_PROPERTY
W
SciTegic.value.DoubleValue
-54.353

@<SCITEGIC>MOL_PROPERTY
W(PB)
SciTegic.value.DoubleValue
-56.201

@<SCITEGIC>MOL_PROPERTY
W(SA)
SciTegic.value.DoubleValue
1.848

@<SCITEGIC>MOL_PROPERTY
Valence
SciTegic.value.DoubleValue
2.738

@<SCITEGIC>MOL_PROPERTY
Coulomb
SciTegic.value.DoubleValue
69.795

@<SCITEGIC>MOL_PROPERTY
VdW
SciTegic.value.DoubleValue
-0.043

@<SCITEGIC>MOL_PROPERTY
VdW6
SciTegic.value.DoubleValue
-5.334

@<SCITEGIC>MOL_PROPERTY
VdW12
SciTegic.value.DoubleValue
5.290

@<SCITEGIC>MOL_PROPERTY
Bond
SciTegic.value.DoubleValue
0.182

@<SCITEGIC>MOL_PROPERTY
Angle
SciTegic.value.DoubleValue
1.135

@<SCITEGIC>MOL_PROPERTY
Pdih
SciTegic.value.DoubleValue
1.421

@<SCITEGIC>MOL_PROPERTY
Idih
SciTegic.value.DoubleValue
0.000

@<SCITEGIC>MOL_PROPERTY
Tether
SciTegic.value.DoubleValue
0.000

@<TRIPOS>MOLECULE
guest-s9_confgen4.mol2 : confsearch ligand conformer 892
          20          19           1
SMALL
USER_CHARGES
 
@<TRIPOS>ATOM
       1    C1      19.801561   16.639008   22.404195 C.3        1 MOL1        -0.2224
       2    H1      20.840682   16.944679   22.231445 H          1 MOL1         0.1052
       3    H2      19.699251   16.361035   23.461180 H          1 MOL1         0.1052
       4    H3      19.616051   15.739875   21.802539 H          1 MOL1         0.1052
       5    C2      18.805399   17.759541   22.026529 C.3        1 MOL1        -0.1209
       6    H4      17.781643   17.379087   22.149045 H          1 MOL1         0.1041
       7    H5      18.904305   18.010112   20.962483 H          1 MOL1         0.1041
       8    C3      18.967092   19.033102   22.892176 C.3        1 MOL1        -0.1274
       9    H6      18.204966   19.768444   22.602620 H          1 MOL1         0.1041
      10    H7      18.754122   18.775646   23.938123 H          1 MOL1         0.1041
      11    C4      20.361181   19.700798   22.834073 C.3        1 MOL1         0.0313
      12    H8      21.140882   18.986746   23.109321 H          1 MOL1         0.1015
      13    H9      20.376419   20.506200   23.572829 H          1 MOL1         0.1015
      14    N1      20.733332   20.331269   21.500298 N.4        1 MOL1        -0.4809
      15    H10     21.345100   21.144994   21.668793 H          1 MOL1         0.3726
      16    H11     19.896739   20.722144   21.042069 H          1 MOL1         0.3726
      17    C5      21.455157   19.343062   20.590538 C.3        1 MOL1        -0.0677
      18    H12     21.727963   19.847544   19.661021 H          1 MOL1         0.1026
      19    H13     22.357363   18.987508   21.092731 H          1 MOL1         0.1026
      20    H14     20.800767   18.499297   20.369507 H          1 MOL1         0.1026
@<TRIPOS>BOND
    1     1     2    1
    2     1     3    1
    3     1     4    1
    4     1     5    1
    5     5     6    1
    6     5     7    1
    7     5     8    1
    8     8     9    1
    9     8    10    1
   10     8    11    1
   11    11    12    1
   12    11    13    1
   13    11    14    1
   14    14    15    1
   15    14    16    1
   16    14    17    1
   17    17    18    1
   18    17    19    1
   19    17    20    1
@<TRIPOS>SUBSTRUCTURE
       1 MOL1            1 RESIDUE      1      MOL     
@<SCITEGIC>MOL_PROPERTY
VConf Rank
SciTegic.value.IntegerValue
892

@<SCITEGIC>MOL_PROPERTY
Conf_Id
SciTegic.value.IntegerValue
60

@<SCITEGIC>MOL_PROPERTY
Delta U+W
SciTegic.value.DoubleValue
1.788

@<SCITEGIC>MOL_PROPERTY
U+W
SciTegic.value.DoubleValue
17.127

@<SCITEGIC>MOL_PROPERTY
Grad RMS
SciTegic.value.DoubleValue
0.000000

@<SCITEGIC>MOL_PROPERTY
U
SciTegic.value.DoubleValue
72.122

@<SCITEGIC>MOL_PROPERTY
W
SciTegic.value.DoubleValue
-54.995

@<SCITEGIC>MOL_PROPERTY
W(PB)
SciTegic.value.DoubleValue
-56.810

@<SCITEGIC>MOL_PROPERTY
W(SA)
SciTegic.value.DoubleValue
1.815

@<SCITEGIC>MOL_PROPERTY
Valence
SciTegic.value.DoubleValue
3.197

@<SCITEGIC>MOL_PROPERTY
Coulomb
SciTegic.value.DoubleValue
69.115

@<SCITEGIC>MOL_PROPERTY
VdW
SciTegic.value.DoubleValue
-0.190

@<SCITEGIC>MOL_PROPERTY
VdW6
SciTegic.value.DoubleValue
-5.585

@<SCITEGIC>MOL_PROPERTY
VdW12
SciTegic.value.DoubleValue
5.395

@<SCITEGIC>MOL_PROPERTY
Bond
SciTegic.value.DoubleValue
0.177

@<SCITEGIC>MOL_PROPERTY
Angle
SciTegic.value.DoubleValue
1.207

@<SCITEGIC>MOL_PROPERTY
Pdih
SciTegic.value.DoubleValue
1.813

@<SCITEGIC>MOL_PROPERTY
Idih
SciTegic.value.DoubleValue
0.000

@<SCITEGIC>MOL_PROPERTY
Tether
SciTegic.value.DoubleValue
0.000

@<TRIPOS>MOLECULE
guest-s9_confgen4.mol2 : confsearch ligand conformer 893
          20          19           1
SMALL
USER_CHARGES
 
@<TRIPOS>ATOM
       1    C1      20.625666   18.440714   19.939781 C.3        1 MOL1        -0.2224
       2    H1      20.706619   19.060491   19.037468 H          1 MOL1         0.1052
       3    H2      20.998618   17.438572   19.691651 H          1 MOL1         0.1052
       4    H3      19.560893   18.355828   20.188986 H          1 MOL1         0.1052
       5    C2      21.436783   19.062803   21.099805 C.3        1 MOL1        -0.1209
       6    H4      21.066840   20.072330   21.320623 H          1 MOL1         0.1041
       7    H5      22.478418   19.191917   20.773984 H          1 MOL1         0.1041
       8    C3      21.423323   18.196692   22.383206 C.3        1 MOL1        -0.1274
       9    H6      21.899644   17.232688   22.160809 H          1 MOL1         0.1041
      10    H7      22.050312   18.672020   23.148945 H          1 MOL1         0.1041
      11    C4      20.023418   17.916933   22.978754 C.3        1 MOL1         0.0313
      12    H8      20.146007   17.205164   23.799134 H          1 MOL1         0.1015
      13    H9      19.374770   17.451353   22.233063 H          1 MOL1         0.1015
      14    N1      19.302277   19.124496   23.559004 N.4        1 MOL1        -0.4809
      15    H10     19.978683   19.778205   23.980651 H          1 MOL1         0.3726
      16    H11     18.707263   18.818892   24.344729 H          1 MOL1         0.3726
      17    C5      18.434221   19.818978   22.515252 C.3        1 MOL1        -0.0677
      18    H12     17.703165   19.106874   22.126597 H          1 MOL1         0.1026
      19    H13     17.915100   20.657884   22.983949 H          1 MOL1         0.1026
      20    H14     19.059257   20.185674   21.700460 H          1 MOL1         0.1026
@<TRIPOS>BOND
    1     1     2    1
    2     1     3    1
    3     1     4    1
    4     1     5    1
    5     5     6    1
    6     5     7    1
    7     5     8    1
    8     8     9    1
    9     8    10    1
   10     8    11    1
   11    11    12    1
   12    11    13    1
   13    11    14    1
   14    14    15    1
   15    14    16    1
   16    14    17    1
   17    17    18    1
   18    17    19    1
   19    17    20    1
@<TRIPOS>SUBSTRUCTURE
       1 MOL1            1 RESIDUE      1      MOL     
@<SCITEGIC>MOL_PROPERTY
VConf Rank
SciTegic.value.IntegerValue
893

@<SCITEGIC>MOL_PROPERTY
Conf_Id
SciTegic.value.IntegerValue
54

@<SCITEGIC>MOL_PROPERTY
Delta U+W
SciTegic.value.DoubleValue
1.880

@<SCITEGIC>MOL_PROPERTY
U+W
SciTegic.value.DoubleValue
17.218

@<SCITEGIC>MOL_PROPERTY
Grad RMS
SciTegic.value.DoubleValue
0.000000

@<SCITEGIC>MOL_PROPERTY
U
SciTegic.value.DoubleValue
72.122

@<SCITEGIC>MOL_PROPERTY
W
SciTegic.value.DoubleValue
-54.903

@<SCITEGIC>MOL_PROPERTY
W(PB)
SciTegic.value.DoubleValue
-56.724

@<SCITEGIC>MOL_PROPERTY
W(SA)
SciTegic.value.DoubleValue
1.821

@<SCITEGIC>MOL_PROPERTY
Valence
SciTegic.value.DoubleValue
3.197

@<SCITEGIC>MOL_PROPERTY
Coulomb
SciTegic.value.DoubleValue
69.115

@<SCITEGIC>MOL_PROPERTY
VdW
SciTegic.value.DoubleValue
-0.190

@<SCITEGIC>MOL_PROPERTY
VdW6
SciTegic.value.DoubleValue
-5.585

@<SCITEGIC>MOL_PROPERTY
VdW12
SciTegic.value.DoubleValue
5.395

@<SCITEGIC>MOL_PROPERTY
Bond
SciTegic.value.DoubleValue
0.177

@<SCITEGIC>MOL_PROPERTY
Angle
SciTegic.value.DoubleValue
1.207

@<SCITEGIC>MOL_PROPERTY
Pdih
SciTegic.value.DoubleValue
1.813

@<SCITEGIC>MOL_PROPERTY
Idih
SciTegic.value.DoubleValue
0.000

@<SCITEGIC>MOL_PROPERTY
Tether
SciTegic.value.DoubleValue
0.000

@<TRIPOS>MOLECULE
guest-s9_confgen4.mol2 : confsearch ligand conformer 894
          20          19           1
SMALL
USER_CHARGES
 
@<TRIPOS>ATOM
       1    C1      20.944576   17.831073   24.926178 C.3        1 MOL1        -0.2224
       2    H1      21.752989   18.558836   25.074523 H          1 MOL1         0.1052
       3    H2      20.454695   17.670810   25.895383 H          1 MOL1         0.1052
       4    H3      21.394733   16.879160   24.615703 H          1 MOL1         0.1052
       5    C2      19.928592   18.334124   23.877871 C.3        1 MOL1        -0.1209
       6    H4      19.470386   19.268297   24.232440 H          1 MOL1         0.1041
       7    H5      19.115009   17.601804   23.777164 H          1 MOL1         0.1041
       8    C3      20.590864   18.568691   22.502322 C.3        1 MOL1        -0.1274
       9    H6      21.401189   19.302977   22.603134 H          1 MOL1         0.1041
      10    H7      21.045460   17.634206   22.147291 H          1 MOL1         0.1041
      11    C4      19.571418   19.070001   21.462611 C.3        1 MOL1         0.0313
      12    H8      19.128254   20.008283   21.805716 H          1 MOL1         0.1015
      13    H9      18.771497   18.334102   21.348301 H          1 MOL1         0.1015
      14    N1      20.177450   19.314641   20.094554 N.4        1 MOL1        -0.4809
      15    H10     20.614487   18.450737   19.738425 H          1 MOL1         0.3726
      16    H11     20.944748   20.000840   20.161927 H          1 MOL1         0.3726
      17    C5      19.105045   19.806241   19.131510 C.3        1 MOL1        -0.0677
      18    H12     18.680887   20.738548   19.510590 H          1 MOL1         0.1026
      19    H13     19.554814   19.978318   18.151150 H          1 MOL1         0.1026
      20    H14     18.321221   19.050160   19.049230 H          1 MOL1         0.1026
@<TRIPOS>BOND
    1     1     2    1
    2     1     3    1
    3     1     4    1
    4     1     5    1
    5     5     6    1
    6     5     7    1
    7     5     8    1
    8     8     9    1
    9     8    10    1
   10     8    11    1
   11    11    12    1
   12    11    13    1
   13    11    14    1
   14    14    15    1
   15    14    16    1
   16    14    17    1
   17    17    18    1
   18    17    19    1
   19    17    20    1
@<TRIPOS>SUBSTRUCTURE
       1 MOL1            1 RESIDUE      1      MOL     
@<SCITEGIC>MOL_PROPERTY
VConf Rank
SciTegic.value.IntegerValue
894

@<SCITEGIC>MOL_PROPERTY
Conf_Id
SciTegic.value.IntegerValue
67

@<SCITEGIC>MOL_PROPERTY
Delta U+W
SciTegic.value.DoubleValue
0.000

@<SCITEGIC>MOL_PROPERTY
U+W
SciTegic.value.DoubleValue
15.338

@<SCITEGIC>MOL_PROPERTY
Grad RMS
SciTegic.value.DoubleValue
0.000000

@<SCITEGIC>MOL_PROPERTY
U
SciTegic.value.DoubleValue
69.277

@<SCITEGIC>MOL_PROPERTY
W
SciTegic.value.DoubleValue
-53.939

@<SCITEGIC>MOL_PROPERTY
W(PB)
SciTegic.value.DoubleValue
-55.889

@<SCITEGIC>MOL_PROPERTY
W(SA)
SciTegic.value.DoubleValue
1.950

@<SCITEGIC>MOL_PROPERTY
Valence
SciTegic.value.DoubleValue
0.846

@<SCITEGIC>MOL_PROPERTY
Coulomb
SciTegic.value.DoubleValue
68.557

@<SCITEGIC>MOL_PROPERTY
VdW
SciTegic.value.DoubleValue
-0.127

@<SCITEGIC>MOL_PROPERTY
VdW6
SciTegic.value.DoubleValue
-3.008

@<SCITEGIC>MOL_PROPERTY
VdW12
SciTegic.value.DoubleValue
2.882

@<SCITEGIC>MOL_PROPERTY
Bond
SciTegic.value.DoubleValue
0.088

@<SCITEGIC>MOL_PROPERTY
Angle
SciTegic.value.DoubleValue
0.332

@<SCITEGIC>MOL_PROPERTY
Pdih
SciTegic.value.DoubleValue
0.426

@<SCITEGIC>MOL_PROPERTY
Idih
SciTegic.value.DoubleValue
0.000

@<SCITEGIC>MOL_PROPERTY
Tether
SciTegic.value.DoubleValue
0.000

@<TRIPOS>MOLECULE
guest-s9_confgen4.mol2 : confsearch ligand conformer 895
          20          19           1
SMALL
USER_CHARGES
 
@<TRIPOS>ATOM
       1    C1      22.666532   18.236023   20.591787 C.3        1 MOL1        -0.2224
       2    H1      22.132709   18.142584   19.637077 H          1 MOL1         0.1052
       3    H2      23.661294   18.649821   20.381455 H          1 MOL1         0.1052
       4    H3      22.802420   17.228931   21.007081 H          1 MOL1         0.1052
       5    C2      21.894739   19.143410   21.574262 C.3        1 MOL1        -0.1209
       6    H4      21.804855   20.151870   21.146179 H          1 MOL1         0.1041
       7    H5      22.469959   19.245729   22.505370 H          1 MOL1         0.1041
       8    C3      20.489498   18.585023   21.889207 C.3        1 MOL1        -0.1274
       9    H6      19.919033   18.484548   20.956882 H          1 MOL1         0.1041
      10    H7      20.580254   17.579469   22.320769 H          1 MOL1         0.1041
      11    C4      19.727151   19.497336   22.872307 C.3        1 MOL1         0.0313
      12    H8      19.589921   20.487152   22.429799 H          1 MOL1         0.1015
      13    H9      20.321708   19.613352   23.782098 H          1 MOL1         0.1015
      14    N1      18.360951   18.977110   23.288992 N.4        1 MOL1        -0.4809
      15    H10     17.993795   19.552955   24.062869 H          1 MOL1         0.3726
      16    H11     18.445032   18.027842   23.683451 H          1 MOL1         0.3726
      17    C5      17.380640   18.994774   22.121005 C.3        1 MOL1        -0.0677
      18    H12     17.742891   18.331381   21.333242 H          1 MOL1         0.1026
      19    H13     16.403967   18.650931   22.468645 H          1 MOL1         0.1026
      20    H14     17.296586   20.013907   21.737586 H          1 MOL1         0.1026
@<TRIPOS>BOND
    1     1     2    1
    2     1     3    1
    3     1     4    1
    4     1     5    1
    5     5     6    1
    6     5     7    1
    7     5     8    1
    8     8     9    1
    9     8    10    1
   10     8    11    1
   11    11    12    1
   12    11    13    1
   13    11    14    1
   14    14    15    1
   15    14    16    1
   16    14    17    1
   17    17    18    1
   18    17    19    1
   19    17    20    1
@<TRIPOS>SUBSTRUCTURE
       1 MOL1            1 RESIDUE      1      MOL     
@<SCITEGIC>MOL_PROPERTY
VConf Rank
SciTegic.value.IntegerValue
895

@<SCITEGIC>MOL_PROPERTY
Conf_Id
SciTegic.value.IntegerValue
37

@<SCITEGIC>MOL_PROPERTY
Delta U+W
SciTegic.value.DoubleValue
-0.021

@<SCITEGIC>MOL_PROPERTY
U+W
SciTegic.value.DoubleValue
15.318

@<SCITEGIC>MOL_PROPERTY
Grad RMS
SciTegic.value.DoubleValue
0.000000

@<SCITEGIC>MOL_PROPERTY
U
SciTegic.value.DoubleValue
69.657

@<SCITEGIC>MOL_PROPERTY
W
SciTegic.value.DoubleValue
-54.340

@<SCITEGIC>MOL_PROPERTY
W(PB)
SciTegic.value.DoubleValue
-56.238

@<SCITEGIC>MOL_PROPERTY
W(SA)
SciTegic.value.DoubleValue
1.899

@<SCITEGIC>MOL_PROPERTY
Valence
SciTegic.value.DoubleValue
1.137

@<SCITEGIC>MOL_PROPERTY
Coulomb
SciTegic.value.DoubleValue
68.383

@<SCITEGIC>MOL_PROPERTY
VdW
SciTegic.value.DoubleValue
0.138

@<SCITEGIC>MOL_PROPERTY
VdW6
SciTegic.value.DoubleValue
-3.703

@<SCITEGIC>MOL_PROPERTY
VdW12
SciTegic.value.DoubleValue
3.841

@<SCITEGIC>MOL_PROPERTY
Bond
SciTegic.value.DoubleValue
0.125

@<SCITEGIC>MOL_PROPERTY
Angle
SciTegic.value.DoubleValue
0.468

@<SCITEGIC>MOL_PROPERTY
Pdih
SciTegic.value.DoubleValue
0.543

@<SCITEGIC>MOL_PROPERTY
Idih
SciTegic.value.DoubleValue
0.000

@<SCITEGIC>MOL_PROPERTY
Tether
SciTegic.value.DoubleValue
0.000

@<TRIPOS>MOLECULE
guest-s9_confgen4.mol2 : confsearch ligand conformer 896
          20          19           1
SMALL
USER_CHARGES
 
@<TRIPOS>ATOM
       1    C1      18.059202   17.911915   19.852928 C.3        1 MOL1        -0.2224
       2    H1      17.475756   17.044104   19.518990 H          1 MOL1         0.1052
       3    H2      17.352601   18.691829   20.165367 H          1 MOL1         0.1052
       4    H3      18.624485   18.288788   18.990611 H          1 MOL1         0.1052
       5    C2      19.004229   17.521475   21.009971 C.3        1 MOL1        -0.1209
       6    H4      19.674584   16.716097   20.677858 H          1 MOL1         0.1041
       7    H5      18.413011   17.116618   21.843566 H          1 MOL1         0.1041
       8    C3      19.839258   18.724597   21.500795 C.3        1 MOL1        -0.1274
       9    H6      20.432786   19.125781   20.668690 H          1 MOL1         0.1041
      10    H7      19.165944   19.525976   21.831241 H          1 MOL1         0.1041
      11    C4      20.781008   18.324346   22.655297 C.3        1 MOL1         0.0313
      12    H8      21.422834   17.505010   22.321491 H          1 MOL1         0.1015
      13    H9      20.194673   17.969079   23.506402 H          1 MOL1         0.1015
      14    N1      21.690438   19.439276   23.145834 N.4        1 MOL1        -0.4809
      15    H10     22.239158   19.823962   22.361807 H          1 MOL1         0.3726
      16    H11     22.393211   19.051095   23.794457 H          1 MOL1         0.3726
      17    C5      20.894953   20.538136   23.842415 C.3        1 MOL1        -0.0677
      18    H12     20.341150   20.106031   24.678653 H          1 MOL1         0.1026
      19    H13     21.585175   21.299399   24.212610 H          1 MOL1         0.1026
      20    H14     20.199934   20.989152   23.131485 H          1 MOL1         0.1026
@<TRIPOS>BOND
    1     1     2    1
    2     1     3    1
    3     1     4    1
    4     1     5    1
    5     5     6    1
    6     5     7    1
    7     5     8    1
    8     8     9    1
    9     8    10    1
   10     8    11    1
   11    11    12    1
   12    11    13    1
   13    11    14    1
   14    14    15    1
   15    14    16    1
   16    14    17    1
   17    17    18    1
   18    17    19    1
   19    17    20    1
@<TRIPOS>SUBSTRUCTURE
       1 MOL1            1 RESIDUE      1      MOL     
@<SCITEGIC>MOL_PROPERTY
VConf Rank
SciTegic.value.IntegerValue
896

@<SCITEGIC>MOL_PROPERTY
Conf_Id
SciTegic.value.IntegerValue
2

@<SCITEGIC>MOL_PROPERTY
Delta U+W
SciTegic.value.DoubleValue
0.069

@<SCITEGIC>MOL_PROPERTY
U+W
SciTegic.value.DoubleValue
15.407

@<SCITEGIC>MOL_PROPERTY
Grad RMS
SciTegic.value.DoubleValue
0.000000

@<SCITEGIC>MOL_PROPERTY
U
SciTegic.value.DoubleValue
69.657

@<SCITEGIC>MOL_PROPERTY
W
SciTegic.value.DoubleValue
-54.250

@<SCITEGIC>MOL_PROPERTY
W(PB)
SciTegic.value.DoubleValue
-56.176

@<SCITEGIC>MOL_PROPERTY
W(SA)
SciTegic.value.DoubleValue
1.926

@<SCITEGIC>MOL_PROPERTY
Valence
SciTegic.value.DoubleValue
1.137

@<SCITEGIC>MOL_PROPERTY
Coulomb
SciTegic.value.DoubleValue
68.383

@<SCITEGIC>MOL_PROPERTY
VdW
SciTegic.value.DoubleValue
0.138

@<SCITEGIC>MOL_PROPERTY
VdW6
SciTegic.value.DoubleValue
-3.703

@<SCITEGIC>MOL_PROPERTY
VdW12
SciTegic.value.DoubleValue
3.841

@<SCITEGIC>MOL_PROPERTY
Bond
SciTegic.value.DoubleValue
0.125

@<SCITEGIC>MOL_PROPERTY
Angle
SciTegic.value.DoubleValue
0.468

@<SCITEGIC>MOL_PROPERTY
Pdih
SciTegic.value.DoubleValue
0.543

@<SCITEGIC>MOL_PROPERTY
Idih
SciTegic.value.DoubleValue
0.000

@<SCITEGIC>MOL_PROPERTY
Tether
SciTegic.value.DoubleValue
0.000

@<TRIPOS>MOLECULE
guest-s9_confgen4.mol2 : confsearch ligand conformer 897
          20          19           1
SMALL
USER_CHARGES
 
@<TRIPOS>ATOM
       1    C1      18.804789   18.316171   19.688082 C.3        1 MOL1        -0.2224
       2    H1      18.295985   19.100627   20.262372 H          1 MOL1         0.1052
       3    H2      19.574538   18.791102   19.065967 H          1 MOL1         0.1052
       4    H3      18.063278   17.864817   19.016196 H          1 MOL1         0.1052
       5    C2      19.421602   17.242695   20.614083 C.3        1 MOL1        -0.1209
       6    H4      19.836846   16.433152   19.997458 H          1 MOL1         0.1041
       7    H5      18.632152   16.788118   21.229172 H          1 MOL1         0.1041
       8    C3      20.537583   17.801180   21.527791 C.3        1 MOL1        -0.1274
       9    H6      20.980123   16.973544   22.097909 H          1 MOL1         0.1041
      10    H7      21.341618   18.223569   20.910554 H          1 MOL1         0.1041
      11    C4      20.021430   18.871695   22.509029 C.3        1 MOL1         0.0313
      12    H8      19.222897   18.450428   23.124864 H          1 MOL1         0.1015
      13    H9      19.614575   19.717925   21.950343 H          1 MOL1         0.1015
      14    N1      21.094653   19.403932   23.438215 N.4        1 MOL1        -0.4809
      15    H10     21.873419   19.802896   22.891918 H          1 MOL1         0.3726
      16    H11     21.510134   18.632281   23.982306 H          1 MOL1         0.3726
      17    C5      20.502278   20.454168   24.368370 C.3        1 MOL1        -0.0677
      18    H12     19.703946   20.001420   24.960390 H          1 MOL1         0.1026
      19    H13     21.285215   20.828635   25.031535 H          1 MOL1         0.1026
      20    H14     20.099919   21.276542   23.772880 H          1 MOL1         0.1026
@<TRIPOS>BOND
    1     1     2    1
    2     1     3    1
    3     1     4    1
    4     1     5    1
    5     5     6    1
    6     5     7    1
    7     5     8    1
    8     8     9    1
    9     8    10    1
   10     8    11    1
   11    11    12    1
   12    11    13    1
   13    11    14    1
   14    14    15    1
   15    14    16    1
   16    14    17    1
   17    17    18    1
   18    17    19    1
   19    17    20    1
@<TRIPOS>SUBSTRUCTURE
       1 MOL1            1 RESIDUE      1      MOL     
@<SCITEGIC>MOL_PROPERTY
VConf Rank
SciTegic.value.IntegerValue
897

@<SCITEGIC>MOL_PROPERTY
Conf_Id
SciTegic.value.IntegerValue
34

@<SCITEGIC>MOL_PROPERTY
Delta U+W
SciTegic.value.DoubleValue
0.276

@<SCITEGIC>MOL_PROPERTY
U+W
SciTegic.value.DoubleValue
15.615

@<SCITEGIC>MOL_PROPERTY
Grad RMS
SciTegic.value.DoubleValue
0.000000

@<SCITEGIC>MOL_PROPERTY
U
SciTegic.value.DoubleValue
69.798

@<SCITEGIC>MOL_PROPERTY
W
SciTegic.value.DoubleValue
-54.184

@<SCITEGIC>MOL_PROPERTY
W(PB)
SciTegic.value.DoubleValue
-56.116

@<SCITEGIC>MOL_PROPERTY
W(SA)
SciTegic.value.DoubleValue
1.933

@<SCITEGIC>MOL_PROPERTY
Valence
SciTegic.value.DoubleValue
1.134

@<SCITEGIC>MOL_PROPERTY
Coulomb
SciTegic.value.DoubleValue
68.735

@<SCITEGIC>MOL_PROPERTY
VdW
SciTegic.value.DoubleValue
-0.070

@<SCITEGIC>MOL_PROPERTY
VdW6
SciTegic.value.DoubleValue
-3.565

@<SCITEGIC>MOL_PROPERTY
VdW12
SciTegic.value.DoubleValue
3.494

@<SCITEGIC>MOL_PROPERTY
Bond
SciTegic.value.DoubleValue
0.108

@<SCITEGIC>MOL_PROPERTY
Angle
SciTegic.value.DoubleValue
0.456

@<SCITEGIC>MOL_PROPERTY
Pdih
SciTegic.value.DoubleValue
0.569

@<SCITEGIC>MOL_PROPERTY
Idih
SciTegic.value.DoubleValue
0.000

@<SCITEGIC>MOL_PROPERTY
Tether
SciTegic.value.DoubleValue
0.000

@<TRIPOS>MOLECULE
guest-s9_confgen4.mol2 : confsearch ligand conformer 898
          20          19           1
SMALL
USER_CHARGES
 
@<TRIPOS>ATOM
       1    C1      19.889921   19.218507   25.008461 C.3        1 MOL1        -0.2224
       2    H1      19.069514   18.613138   25.415436 H          1 MOL1         0.1052
       3    H2      20.741507   19.135664   25.696185 H          1 MOL1         0.1052
       4    H3      19.567315   20.267789   24.997821 H          1 MOL1         0.1052
       5    C2      20.283339   18.743323   23.593030 C.3        1 MOL1        -0.1209
       6    H4      20.631067   17.701692   23.642171 H          1 MOL1         0.1041
       7    H5      21.130800   19.343912   23.235821 H          1 MOL1         0.1041
       8    C3      19.099133   18.850738   22.603432 C.3        1 MOL1        -0.1274
       9    H6      18.247507   18.277527   22.993362 H          1 MOL1         0.1041
      10    H7      18.764550   19.893905   22.527841 H          1 MOL1         0.1041
      11    C4      19.443194   18.316479   21.198537 C.3        1 MOL1         0.0313
      12    H8      18.545762   18.335932   20.574953 H          1 MOL1         0.1015
      13    H9      19.783218   17.280462   21.272613 H          1 MOL1         0.1015
      14    N1      20.516625   19.112021   20.479688 N.4        1 MOL1        -0.4809
      15    H10     21.385503   19.118604   21.034180 H          1 MOL1         0.3726
      16    H11     20.233339   20.100730   20.400626 H          1 MOL1         0.3726
      17    C5      20.768932   18.516787   19.100966 C.3        1 MOL1        -0.0677
      18    H12     21.099039   17.481531   19.210803 H          1 MOL1         0.1026
      19    H13     19.844724   18.550248   18.520014 H          1 MOL1         0.1026
      20    H14     21.542856   19.098306   18.595132 H          1 MOL1         0.1026
@<TRIPOS>BOND
    1     1     2    1
    2     1     3    1
    3     1     4    1
    4     1     5    1
    5     5     6    1
    6     5     7    1
    7     5     8    1
    8     8     9    1
    9     8    10    1
   10     8    11    1
   11    11    12    1
   12    11    13    1
   13    11    14    1
   14    14    15    1
   15    14    16    1
   16    14    17    1
   17    17    18    1
   18    17    19    1
   19    17    20    1
@<TRIPOS>SUBSTRUCTURE
       1 MOL1            1 RESIDUE      1      MOL     
@<SCITEGIC>MOL_PROPERTY
VConf Rank
SciTegic.value.IntegerValue
898

@<SCITEGIC>MOL_PROPERTY
Conf_Id
SciTegic.value.IntegerValue
50

@<SCITEGIC>MOL_PROPERTY
Delta U+W
SciTegic.value.DoubleValue
0.319

@<SCITEGIC>MOL_PROPERTY
U+W
SciTegic.value.DoubleValue
15.657

@<SCITEGIC>MOL_PROPERTY
Grad RMS
SciTegic.value.DoubleValue
0.000000

@<SCITEGIC>MOL_PROPERTY
U
SciTegic.value.DoubleValue
69.962

@<SCITEGIC>MOL_PROPERTY
W
SciTegic.value.DoubleValue
-54.305

@<SCITEGIC>MOL_PROPERTY
W(PB)
SciTegic.value.DoubleValue
-56.223

@<SCITEGIC>MOL_PROPERTY
W(SA)
SciTegic.value.DoubleValue
1.918

@<SCITEGIC>MOL_PROPERTY
Valence
SciTegic.value.DoubleValue
0.982

@<SCITEGIC>MOL_PROPERTY
Coulomb
SciTegic.value.DoubleValue
69.058

@<SCITEGIC>MOL_PROPERTY
VdW
SciTegic.value.DoubleValue
-0.078

@<SCITEGIC>MOL_PROPERTY
VdW6
SciTegic.value.DoubleValue
-3.548

@<SCITEGIC>MOL_PROPERTY
VdW12
SciTegic.value.DoubleValue
3.471

@<SCITEGIC>MOL_PROPERTY
Bond
SciTegic.value.DoubleValue
0.105

@<SCITEGIC>MOL_PROPERTY
Angle
SciTegic.value.DoubleValue
0.408

@<SCITEGIC>MOL_PROPERTY
Pdih
SciTegic.value.DoubleValue
0.469

@<SCITEGIC>MOL_PROPERTY
Idih
SciTegic.value.DoubleValue
0.000

@<SCITEGIC>MOL_PROPERTY
Tether
SciTegic.value.DoubleValue
0.000

@<TRIPOS>MOLECULE
guest-s9_confgen4.mol2 : confsearch ligand conformer 899
          20          19           1
SMALL
USER_CHARGES
 
@<TRIPOS>ATOM
       1    C1      19.711099   17.161049   19.502332 C.3        1 MOL1        -0.2224
       2    H1      20.157309   17.385171   18.524736 H          1 MOL1         0.1052
       3    H2      19.933565   16.112762   19.740603 H          1 MOL1         0.1052
       4    H3      18.622487   17.265939   19.406928 H          1 MOL1         0.1052
       5    C2      20.268152   18.108712   20.586607 C.3        1 MOL1        -0.1209
       6    H4      20.062589   19.147524   20.294875 H          1 MOL1         0.1041
       7    H5      21.361229   18.003344   20.635638 H          1 MOL1         0.1041
       8    C3      19.653828   17.813474   21.975357 C.3        1 MOL1        -0.1274
       9    H6      18.564083   17.944358   21.940981 H          1 MOL1         0.1041
      10    H7      19.833602   16.761812   22.235301 H          1 MOL1         0.1041
      11    C4      20.244551   18.698581   23.091231 C.3        1 MOL1         0.0313
      12    H8      21.329988   18.574902   23.122310 H          1 MOL1         0.1015
      13    H9      19.838694   18.382758   24.055677 H          1 MOL1         0.1015
      14    N1      19.945521   20.177434   22.931656 N.4        1 MOL1        -0.4809
      15    H10     18.926476   20.331352   22.887989 H          1 MOL1         0.3726
      16    H11     20.313928   20.519512   22.031815 H          1 MOL1         0.3726
      17    C5      20.554627   20.958516   24.088263 C.3        1 MOL1        -0.0677
      18    H12     20.332234   22.020263   23.960894 H          1 MOL1         0.1026
      19    H13     20.126107   20.602898   25.027780 H          1 MOL1         0.1026
      20    H14     21.636214   20.807129   24.094764 H          1 MOL1         0.1026
@<TRIPOS>BOND
    1     1     2    1
    2     1     3    1
    3     1     4    1
    4     1     5    1
    5     5     6    1
    6     5     7    1
    7     5     8    1
    8     8     9    1
    9     8    10    1
   10     8    11    1
   11    11    12    1
   12    11    13    1
   13    11    14    1
   14    14    15    1
   15    14    16    1
   16    14    17    1
   17    17    18    1
   18    17    19    1
   19    17    20    1
@<TRIPOS>SUBSTRUCTURE
       1 MOL1            1 RESIDUE      1      MOL     
@<SCITEGIC>MOL_PROPERTY
VConf Rank
SciTegic.value.IntegerValue
899

@<SCITEGIC>MOL_PROPERTY
Conf_Id
SciTegic.value.IntegerValue
35

@<SCITEGIC>MOL_PROPERTY
Delta U+W
SciTegic.value.DoubleValue
0.360

@<SCITEGIC>MOL_PROPERTY
U+W
SciTegic.value.DoubleValue
15.698

@<SCITEGIC>MOL_PROPERTY
Grad RMS
SciTegic.value.DoubleValue
0.000000

@<SCITEGIC>MOL_PROPERTY
U
SciTegic.value.DoubleValue
69.962

@<SCITEGIC>MOL_PROPERTY
W
SciTegic.value.DoubleValue
-54.264

@<SCITEGIC>MOL_PROPERTY
W(PB)
SciTegic.value.DoubleValue
-56.166

@<SCITEGIC>MOL_PROPERTY
W(SA)
SciTegic.value.DoubleValue
1.902

@<SCITEGIC>MOL_PROPERTY
Valence
SciTegic.value.DoubleValue
0.982

@<SCITEGIC>MOL_PROPERTY
Coulomb
SciTegic.value.DoubleValue
69.058

@<SCITEGIC>MOL_PROPERTY
VdW
SciTegic.value.DoubleValue
-0.078

@<SCITEGIC>MOL_PROPERTY
VdW6
SciTegic.value.DoubleValue
-3.548

@<SCITEGIC>MOL_PROPERTY
VdW12
SciTegic.value.DoubleValue
3.471

@<SCITEGIC>MOL_PROPERTY
Bond
SciTegic.value.DoubleValue
0.105

@<SCITEGIC>MOL_PROPERTY
Angle
SciTegic.value.DoubleValue
0.408

@<SCITEGIC>MOL_PROPERTY
Pdih
SciTegic.value.DoubleValue
0.469

@<SCITEGIC>MOL_PROPERTY
Idih
SciTegic.value.DoubleValue
0.000

@<SCITEGIC>MOL_PROPERTY
Tether
SciTegic.value.DoubleValue
0.000

@<TRIPOS>MOLECULE
guest-s9_confgen4.mol2 : confsearch ligand conformer 900
          20          19           1
SMALL
USER_CHARGES
 
@<TRIPOS>ATOM
       1    C1      19.274912   16.332045   22.453474 C.3        1 MOL1        -0.2224
       2    H1      19.957446   16.552335   23.283949 H          1 MOL1         0.1052
       3    H2      18.651082   15.480646   22.755019 H          1 MOL1         0.1052
       4    H3      19.875713   16.017504   21.590227 H          1 MOL1         0.1052
       5    C2      18.393475   17.552851   22.102885 C.3        1 MOL1        -0.1209
       6    H4      17.807190   17.850127   22.983831 H          1 MOL1         0.1041
       7    H5      17.666165   17.260647   21.332416 H          1 MOL1         0.1041
       8    C3      19.211753   18.760569   21.589357 C.3        1 MOL1        -0.1274
       9    H6      19.765701   18.468051   20.688089 H          1 MOL1         0.1041
      10    H7      18.520523   19.558834   21.288537 H          1 MOL1         0.1041
      11    C4      20.186839   19.310686   22.652393 C.3        1 MOL1         0.0313
      12    H8      20.923392   18.546718   22.912391 H          1 MOL1         0.1015
      13    H9      19.623407   19.559042   23.555407 H          1 MOL1         0.1015
      14    N1      20.941519   20.561128   22.231386 N.4        1 MOL1        -0.4809
      15    H10     21.439778   20.954275   23.045254 H          1 MOL1         0.3726
      16    H11     20.279811   21.298772   21.945476 H          1 MOL1         0.3726
      17    C5      21.933851   20.258972   21.113645 C.3        1 MOL1        -0.0677
      18    H12     21.392579   19.905760   20.233784 H          1 MOL1         0.1026
      19    H13     22.481153   21.170918   20.865093 H          1 MOL1         0.1026
      20    H14     22.632970   19.490997   21.451495 H          1 MOL1         0.1026
@<TRIPOS>BOND
    1     1     2    1
    2     1     3    1
    3     1     4    1
    4     1     5    1
    5     5     6    1
    6     5     7    1
    7     5     8    1
    8     8     9    1
    9     8    10    1
   10     8    11    1
   11    11    12    1
   12    11    13    1
   13    11    14    1
   14    14    15    1
   15    14    16    1
   16    14    17    1
   17    17    18    1
   18    17    19    1
   19    17    20    1
@<TRIPOS>SUBSTRUCTURE
       1 MOL1            1 RESIDUE      1      MOL     
@<SCITEGIC>MOL_PROPERTY
VConf Rank
SciTegic.value.IntegerValue
900

@<SCITEGIC>MOL_PROPERTY
Conf_Id
SciTegic.value.IntegerValue
33

@<SCITEGIC>MOL_PROPERTY
Delta U+W
SciTegic.value.DoubleValue
0.372

@<SCITEGIC>MOL_PROPERTY
U+W
SciTegic.value.DoubleValue
15.711

@<SCITEGIC>MOL_PROPERTY
Grad RMS
SciTegic.value.DoubleValue
0.000000

@<SCITEGIC>MOL_PROPERTY
U
SciTegic.value.DoubleValue
70.163

@<SCITEGIC>MOL_PROPERTY
W
SciTegic.value.DoubleValue
-54.452

@<SCITEGIC>MOL_PROPERTY
W(PB)
SciTegic.value.DoubleValue
-56.363

@<SCITEGIC>MOL_PROPERTY
W(SA)
SciTegic.value.DoubleValue
1.911

@<SCITEGIC>MOL_PROPERTY
Valence
SciTegic.value.DoubleValue
1.420

@<SCITEGIC>MOL_PROPERTY
Coulomb
SciTegic.value.DoubleValue
68.566

@<SCITEGIC>MOL_PROPERTY
VdW
SciTegic.value.DoubleValue
0.177

@<SCITEGIC>MOL_PROPERTY
VdW6
SciTegic.value.DoubleValue
-4.267

@<SCITEGIC>MOL_PROPERTY
VdW12
SciTegic.value.DoubleValue
4.445

@<SCITEGIC>MOL_PROPERTY
Bond
SciTegic.value.DoubleValue
0.146

@<SCITEGIC>MOL_PROPERTY
Angle
SciTegic.value.DoubleValue
0.581

@<SCITEGIC>MOL_PROPERTY
Pdih
SciTegic.value.DoubleValue
0.693

@<SCITEGIC>MOL_PROPERTY
Idih
SciTegic.value.DoubleValue
0.000

@<SCITEGIC>MOL_PROPERTY
Tether
SciTegic.value.DoubleValue
0.000

@<TRIPOS>MOLECULE
guest-s9_confgen4.mol2 : confsearch ligand conformer 901
          20          19           1
SMALL
USER_CHARGES
 
@<TRIPOS>ATOM
       1    C1      18.287262   18.273718   20.289912 C.3        1 MOL1        -0.2224
       2    H1      17.662423   17.717690   19.579009 H          1 MOL1         0.1052
       3    H2      17.756610   18.295049   21.250132 H          1 MOL1         0.1052
       4    H3      18.374445   19.304842   19.923473 H          1 MOL1         0.1052
       5    C2      19.677710   17.611102   20.423356 C.3        1 MOL1        -0.1209
       6    H4      20.132903   17.528713   19.426362 H          1 MOL1         0.1041
       7    H5      19.562759   16.583444   20.796012 H          1 MOL1         0.1041
       8    C3      20.634739   18.397539   21.349365 C.3        1 MOL1        -0.1274
       9    H6      21.621040   17.915289   21.336720 H          1 MOL1         0.1041
      10    H7      20.775012   19.410859   20.951603 H          1 MOL1         0.1041
      11    C4      20.125604   18.468199   22.805130 C.3        1 MOL1         0.0313
      12    H8      19.954324   17.452413   23.170385 H          1 MOL1         0.1015
      13    H9      19.175004   19.005620   22.841096 H          1 MOL1         0.1015
      14    N1      21.079646   19.143797   23.776610 N.4        1 MOL1        -0.4809
      15    H10     22.002861   18.684886   23.748450 H          1 MOL1         0.3726
      16    H11     20.744760   19.004363   24.742848 H          1 MOL1         0.3726
      17    C5      21.205312   20.634823   23.482638 C.3        1 MOL1        -0.0677
      18    H12     21.867709   21.090517   24.221918 H          1 MOL1         0.1026
      19    H13     21.622019   20.773572   22.483142 H          1 MOL1         0.1026
      20    H14     20.217440   21.096957   23.539553 H          1 MOL1         0.1026
@<TRIPOS>BOND
    1     1     2    1
    2     1     3    1
    3     1     4    1
    4     1     5    1
    5     5     6    1
    6     5     7    1
    7     5     8    1
    8     8     9    1
    9     8    10    1
   10     8    11    1
   11    11    12    1
   12    11    13    1
   13    11    14    1
   14    14    15    1
   15    14    16    1
   16    14    17    1
   17    17    18    1
   18    17    19    1
   19    17    20    1
@<TRIPOS>SUBSTRUCTURE
       1 MOL1            1 RESIDUE      1      MOL     
@<SCITEGIC>MOL_PROPERTY
VConf Rank
SciTegic.value.IntegerValue
901

@<SCITEGIC>MOL_PROPERTY
Conf_Id
SciTegic.value.IntegerValue
53

@<SCITEGIC>MOL_PROPERTY
Delta U+W
SciTegic.value.DoubleValue
0.379

@<SCITEGIC>MOL_PROPERTY
U+W
SciTegic.value.DoubleValue
15.717

@<SCITEGIC>MOL_PROPERTY
Grad RMS
SciTegic.value.DoubleValue
0.000000

@<SCITEGIC>MOL_PROPERTY
U
SciTegic.value.DoubleValue
70.163

@<SCITEGIC>MOL_PROPERTY
W
SciTegic.value.DoubleValue
-54.446

@<SCITEGIC>MOL_PROPERTY
W(PB)
SciTegic.value.DoubleValue
-56.322

@<SCITEGIC>MOL_PROPERTY
W(SA)
SciTegic.value.DoubleValue
1.876

@<SCITEGIC>MOL_PROPERTY
Valence
SciTegic.value.DoubleValue
1.420

@<SCITEGIC>MOL_PROPERTY
Coulomb
SciTegic.value.DoubleValue
68.566

@<SCITEGIC>MOL_PROPERTY
VdW
SciTegic.value.DoubleValue
0.177

@<SCITEGIC>MOL_PROPERTY
VdW6
SciTegic.value.DoubleValue
-4.267

@<SCITEGIC>MOL_PROPERTY
VdW12
SciTegic.value.DoubleValue
4.445

@<SCITEGIC>MOL_PROPERTY
Bond
SciTegic.value.DoubleValue
0.146

@<SCITEGIC>MOL_PROPERTY
Angle
SciTegic.value.DoubleValue
0.581

@<SCITEGIC>MOL_PROPERTY
Pdih
SciTegic.value.DoubleValue
0.693

@<SCITEGIC>MOL_PROPERTY
Idih
SciTegic.value.DoubleValue
0.000

@<SCITEGIC>MOL_PROPERTY
Tether
SciTegic.value.DoubleValue
0.000

@<TRIPOS>MOLECULE
guest-s9_confgen4.mol2 : confsearch ligand conformer 902
          20          19           1
SMALL
USER_CHARGES
 
@<TRIPOS>ATOM
       1    C1      20.959753   21.180537   20.698312 C.3        1 MOL1        -0.2224
       2    H1      20.855978   22.216609   21.045856 H          1 MOL1         0.1052
       3    H2      21.963791   21.069413   20.268538 H          1 MOL1         0.1052
       4    H3      20.225872   21.019350   19.897937 H          1 MOL1         0.1052
       5    C2      20.739611   20.189990   21.862062 C.3        1 MOL1        -0.1209
       6    H4      19.742047   20.356585   22.290744 H          1 MOL1         0.1041
       7    H5      21.467290   20.396862   22.659476 H          1 MOL1         0.1041
       8    C3      20.878546   18.721047   21.397704 C.3        1 MOL1        -0.1274
       9    H6      20.135745   18.501050   20.620151 H          1 MOL1         0.1041
      10    H7      21.862702   18.579407   20.931847 H          1 MOL1         0.1041
      11    C4      20.740459   17.709068   22.556794 C.3        1 MOL1         0.0313
      12    H8      21.522910   17.905526   23.294225 H          1 MOL1         0.1015
      13    H9      20.887489   16.695597   22.175018 H          1 MOL1         0.1015
      14    N1      19.407729   17.735334   23.290122 N.4        1 MOL1        -0.4809
      15    H10     19.226703   18.677846   23.665529 H          1 MOL1         0.3726
      16    H11     19.458803   17.124286   24.120325 H          1 MOL1         0.3726
      17    C5      18.267188   17.284511   22.384108 C.3        1 MOL1        -0.0677
      18    H12     18.476165   16.277292   22.017370 H          1 MOL1         0.1026
      19    H13     17.336067   17.282394   22.955020 H          1 MOL1         0.1026
      20    H14     18.179200   17.974401   21.542488 H          1 MOL1         0.1026
@<TRIPOS>BOND
    1     1     2    1
    2     1     3    1
    3     1     4    1
    4     1     5    1
    5     5     6    1
    6     5     7    1
    7     5     8    1
    8     8     9    1
    9     8    10    1
   10     8    11    1
   11    11    12    1
   12    11    13    1
   13    11    14    1
   14    14    15    1
   15    14    16    1
   16    14    17    1
   17    17    18    1
   18    17    19    1
   19    17    20    1
@<TRIPOS>SUBSTRUCTURE
       1 MOL1            1 RESIDUE      1      MOL     
@<SCITEGIC>MOL_PROPERTY
VConf Rank
SciTegic.value.IntegerValue
902

@<SCITEGIC>MOL_PROPERTY
Conf_Id
SciTegic.value.IntegerValue
49

@<SCITEGIC>MOL_PROPERTY
Delta U+W
SciTegic.value.DoubleValue
0.268

@<SCITEGIC>MOL_PROPERTY
U+W
SciTegic.value.DoubleValue
15.607

@<SCITEGIC>MOL_PROPERTY
Grad RMS
SciTegic.value.DoubleValue
0.000000

@<SCITEGIC>MOL_PROPERTY
U
SciTegic.value.DoubleValue
70.298

@<SCITEGIC>MOL_PROPERTY
W
SciTegic.value.DoubleValue
-54.692

@<SCITEGIC>MOL_PROPERTY
W(PB)
SciTegic.value.DoubleValue
-56.576

@<SCITEGIC>MOL_PROPERTY
W(SA)
SciTegic.value.DoubleValue
1.885

@<SCITEGIC>MOL_PROPERTY
Valence
SciTegic.value.DoubleValue
1.245

@<SCITEGIC>MOL_PROPERTY
Coulomb
SciTegic.value.DoubleValue
68.933

@<SCITEGIC>MOL_PROPERTY
VdW
SciTegic.value.DoubleValue
0.120

@<SCITEGIC>MOL_PROPERTY
VdW6
SciTegic.value.DoubleValue
-4.430

@<SCITEGIC>MOL_PROPERTY
VdW12
SciTegic.value.DoubleValue
4.550

@<SCITEGIC>MOL_PROPERTY
Bond
SciTegic.value.DoubleValue
0.148

@<SCITEGIC>MOL_PROPERTY
Angle
SciTegic.value.DoubleValue
0.587

@<SCITEGIC>MOL_PROPERTY
Pdih
SciTegic.value.DoubleValue
0.509

@<SCITEGIC>MOL_PROPERTY
Idih
SciTegic.value.DoubleValue
0.000

@<SCITEGIC>MOL_PROPERTY
Tether
SciTegic.value.DoubleValue
0.000

@<TRIPOS>MOLECULE
guest-s9_confgen4.mol2 : confsearch ligand conformer 903
          20          19           1
SMALL
USER_CHARGES
 
@<TRIPOS>ATOM
       1    C1      22.781604   19.131544   21.650754 C.3        1 MOL1        -0.2224
       2    H1      22.871209   19.173715   20.557428 H          1 MOL1         0.1052
       3    H2      23.085556   20.105378   22.056216 H          1 MOL1         0.1052
       4    H3      23.491621   18.378950   22.017467 H          1 MOL1         0.1052
       5    C2      21.340809   18.775698   22.077148 C.3        1 MOL1        -0.1209
       6    H4      21.289086   18.713385   23.173246 H          1 MOL1         0.1041
       7    H5      21.091257   17.780707   21.685657 H          1 MOL1         0.1041
       8    C3      20.318086   19.815663   21.563206 C.3        1 MOL1        -0.1274
       9    H6      20.645277   20.819411   21.865188 H          1 MOL1         0.1041
      10    H7      20.305928   19.813424   20.465298 H          1 MOL1         0.1041
      11    C4      18.881510   19.604612   22.092864 C.3        1 MOL1         0.0313
      12    H8      18.262173   20.425648   21.722638 H          1 MOL1         0.1015
      13    H9      18.868930   19.647115   23.184804 H          1 MOL1         0.1015
      14    N1      18.203052   18.314717   21.657976 N.4        1 MOL1        -0.4809
      15    H10     18.518954   18.042132   20.715244 H          1 MOL1         0.3726
      16    H11     17.189262   18.480215   21.558743 H          1 MOL1         0.3726
      17    C5      18.431820   17.195959   22.669258 C.3        1 MOL1        -0.0677
      18    H12     17.910573   16.297513   22.331540 H          1 MOL1         0.1026
      19    H13     19.498962   16.988564   22.755881 H          1 MOL1         0.1026
      20    H14     18.037568   17.504876   23.639734 H          1 MOL1         0.1026
@<TRIPOS>BOND
    1     1     2    1
    2     1     3    1
    3     1     4    1
    4     1     5    1
    5     5     6    1
    6     5     7    1
    7     5     8    1
    8     8     9    1
    9     8    10    1
   10     8    11    1
   11    11    12    1
   12    11    13    1
   13    11    14    1
   14    14    15    1
   15    14    16    1
   16    14    17    1
   17    17    18    1
   18    17    19    1
   19    17    20    1
@<TRIPOS>SUBSTRUCTURE
       1 MOL1            1 RESIDUE      1      MOL     
@<SCITEGIC>MOL_PROPERTY
VConf Rank
SciTegic.value.IntegerValue
903

@<SCITEGIC>MOL_PROPERTY
Conf_Id
SciTegic.value.IntegerValue
65

@<SCITEGIC>MOL_PROPERTY
Delta U+W
SciTegic.value.DoubleValue
1.775

@<SCITEGIC>MOL_PROPERTY
U+W
SciTegic.value.DoubleValue
17.114

@<SCITEGIC>MOL_PROPERTY
Grad RMS
SciTegic.value.DoubleValue
0.000000

@<SCITEGIC>MOL_PROPERTY
U
SciTegic.value.DoubleValue
71.726

@<SCITEGIC>MOL_PROPERTY
W
SciTegic.value.DoubleValue
-54.613

@<SCITEGIC>MOL_PROPERTY
W(PB)
SciTegic.value.DoubleValue
-56.495

@<SCITEGIC>MOL_PROPERTY
W(SA)
SciTegic.value.DoubleValue
1.883

@<SCITEGIC>MOL_PROPERTY
Valence
SciTegic.value.DoubleValue
2.885

@<SCITEGIC>MOL_PROPERTY
Coulomb
SciTegic.value.DoubleValue
68.822

@<SCITEGIC>MOL_PROPERTY
VdW
SciTegic.value.DoubleValue
0.019

@<SCITEGIC>MOL_PROPERTY
VdW6
SciTegic.value.DoubleValue
-4.600

@<SCITEGIC>MOL_PROPERTY
VdW12
SciTegic.value.DoubleValue
4.619

@<SCITEGIC>MOL_PROPERTY
Bond
SciTegic.value.DoubleValue
0.152

@<SCITEGIC>MOL_PROPERTY
Angle
SciTegic.value.DoubleValue
0.862

@<SCITEGIC>MOL_PROPERTY
Pdih
SciTegic.value.DoubleValue
1.871

@<SCITEGIC>MOL_PROPERTY
Idih
SciTegic.value.DoubleValue
0.000

@<SCITEGIC>MOL_PROPERTY
Tether
SciTegic.value.DoubleValue
0.000

@<TRIPOS>MOLECULE
guest-s9_confgen4.mol2 : confsearch ligand conformer 904
          20          19           1
SMALL
USER_CHARGES
 
@<TRIPOS>ATOM
       1    C1      19.189183   20.628735   23.172674 C.3        1 MOL1        -0.2224
       2    H1      20.168486   20.757596   22.694799 H          1 MOL1         0.1052
       3    H2      18.610388   21.543889   22.992485 H          1 MOL1         0.1052
       4    H3      19.345492   20.539867   24.255606 H          1 MOL1         0.1052
       5    C2      18.441073   19.395594   22.616019 C.3        1 MOL1        -0.1209
       6    H4      18.296416   19.508640   21.533012 H          1 MOL1         0.1041
       7    H5      17.433464   19.361728   23.053720 H          1 MOL1         0.1041
       8    C3      19.162189   18.058911   22.921416 C.3        1 MOL1        -0.1274
       9    H6      19.206211   17.912931   24.008852 H          1 MOL1         0.1041
      10    H7      18.567802   17.224955   22.525225 H          1 MOL1         0.1041
      11    C4      20.594993   17.974859   22.354870 C.3        1 MOL1         0.0313
      12    H8      21.041695   17.018939   22.639851 H          1 MOL1         0.1015
      13    H9      21.206331   18.774338   22.780154 H          1 MOL1         0.1015
      14    N1      20.667494   18.083962   20.843763 N.4        1 MOL1        -0.4809
      15    H10     20.247508   18.972892   20.534080 H          1 MOL1         0.3726
      16    H11     20.098886   17.342998   20.406092 H          1 MOL1         0.3726
      17    C5      22.116041   17.988922   20.384203 C.3        1 MOL1        -0.0677
      18    H12     22.529911   17.027490   20.695848 H          1 MOL1         0.1026
      19    H13     22.153264   18.070163   19.295633 H          1 MOL1         0.1026
      20    H14     22.690394   18.801706   20.833939 H          1 MOL1         0.1026
@<TRIPOS>BOND
    1     1     2    1
    2     1     3    1
    3     1     4    1
    4     1     5    1
    5     5     6    1
    6     5     7    1
    7     5     8    1
    8     8     9    1
    9     8    10    1
   10     8    11    1
   11    11    12    1
   12    11    13    1
   13    11    14    1
   14    14    15    1
   15    14    16    1
   16    14    17    1
   17    17    18    1
   18    17    19    1
   19    17    20    1
@<TRIPOS>SUBSTRUCTURE
       1 MOL1            1 RESIDUE      1      MOL     
@<SCITEGIC>MOL_PROPERTY
VConf Rank
SciTegic.value.IntegerValue
904

@<SCITEGIC>MOL_PROPERTY
Conf_Id
SciTegic.value.IntegerValue
23

@<SCITEGIC>MOL_PROPERTY
Delta U+W
SciTegic.value.DoubleValue
0.896

@<SCITEGIC>MOL_PROPERTY
U+W
SciTegic.value.DoubleValue
16.234

@<SCITEGIC>MOL_PROPERTY
Grad RMS
SciTegic.value.DoubleValue
0.000000

@<SCITEGIC>MOL_PROPERTY
U
SciTegic.value.DoubleValue
70.374

@<SCITEGIC>MOL_PROPERTY
W
SciTegic.value.DoubleValue
-54.140

@<SCITEGIC>MOL_PROPERTY
W(PB)
SciTegic.value.DoubleValue
-56.046

@<SCITEGIC>MOL_PROPERTY
W(SA)
SciTegic.value.DoubleValue
1.907

@<SCITEGIC>MOL_PROPERTY
Valence
SciTegic.value.DoubleValue
1.257

@<SCITEGIC>MOL_PROPERTY
Coulomb
SciTegic.value.DoubleValue
69.240

@<SCITEGIC>MOL_PROPERTY
VdW
SciTegic.value.DoubleValue
-0.123

@<SCITEGIC>MOL_PROPERTY
VdW6
SciTegic.value.DoubleValue
-4.336

@<SCITEGIC>MOL_PROPERTY
VdW12
SciTegic.value.DoubleValue
4.213

@<SCITEGIC>MOL_PROPERTY
Bond
SciTegic.value.DoubleValue
0.128

@<SCITEGIC>MOL_PROPERTY
Angle
SciTegic.value.DoubleValue
0.603

@<SCITEGIC>MOL_PROPERTY
Pdih
SciTegic.value.DoubleValue
0.526

@<SCITEGIC>MOL_PROPERTY
Idih
SciTegic.value.DoubleValue
0.000

@<SCITEGIC>MOL_PROPERTY
Tether
SciTegic.value.DoubleValue
0.000

@<TRIPOS>MOLECULE
guest-s9_confgen4.mol2 : confsearch ligand conformer 905
          20          19           1
SMALL
USER_CHARGES
 
@<TRIPOS>ATOM
       1    C1      18.871375   19.841420   20.305213 C.3        1 MOL1        -0.2224
       2    H1      19.169982   20.892127   20.196038 H          1 MOL1         0.1052
       3    H2      18.126691   19.623162   19.528818 H          1 MOL1         0.1052
       4    H3      18.378045   19.724998   21.278391 H          1 MOL1         0.1052
       5    C2      20.090017   18.900067   20.167606 C.3        1 MOL1        -0.1209
       6    H4      20.492499   18.983809   19.148292 H          1 MOL1         0.1041
       7    H5      19.765720   17.856567   20.279635 H          1 MOL1         0.1041
       8    C3      21.220697   19.218843   21.177527 C.3        1 MOL1        -0.1274
       9    H6      22.063589   18.535538   21.009093 H          1 MOL1         0.1041
      10    H7      21.603506   20.229554   20.983394 H          1 MOL1         0.1041
      11    C4      20.785197   19.132638   22.655322 C.3        1 MOL1         0.0313
      12    H8      19.976952   19.843520   22.842812 H          1 MOL1         0.1015
      13    H9      21.627884   19.400952   23.297525 H          1 MOL1         0.1015
      14    N1      20.305424   17.756947   23.077100 N.4        1 MOL1        -0.4809
      15    H10     21.044756   17.056726   22.912854 H          1 MOL1         0.3726
      16    H11     19.512469   17.464105   22.487222 H          1 MOL1         0.3726
      17    C5      19.901276   17.774357   24.545053 C.3        1 MOL1        -0.0677
      18    H12     19.096124   18.498247   24.688138 H          1 MOL1         0.1026
      19    H13     19.557210   16.778932   24.834393 H          1 MOL1         0.1026
      20    H14     20.764059   18.056453   25.152334 H          1 MOL1         0.1026
@<TRIPOS>BOND
    1     1     2    1
    2     1     3    1
    3     1     4    1
    4     1     5    1
    5     5     6    1
    6     5     7    1
    7     5     8    1
    8     8     9    1
    9     8    10    1
   10     8    11    1
   11    11    12    1
   12    11    13    1
   13    11    14    1
   14    14    15    1
   15    14    16    1
   16    14    17    1
   17    17    18    1
   18    17    19    1
   19    17    20    1
@<TRIPOS>SUBSTRUCTURE
       1 MOL1            1 RESIDUE      1      MOL     
@<SCITEGIC>MOL_PROPERTY
VConf Rank
SciTegic.value.IntegerValue
905

@<SCITEGIC>MOL_PROPERTY
Conf_Id
SciTegic.value.IntegerValue
24

@<SCITEGIC>MOL_PROPERTY
Delta U+W
SciTegic.value.DoubleValue
0.792

@<SCITEGIC>MOL_PROPERTY
U+W
SciTegic.value.DoubleValue
16.130

@<SCITEGIC>MOL_PROPERTY
Grad RMS
SciTegic.value.DoubleValue
0.000000

@<SCITEGIC>MOL_PROPERTY
U
SciTegic.value.DoubleValue
70.374

@<SCITEGIC>MOL_PROPERTY
W
SciTegic.value.DoubleValue
-54.243

@<SCITEGIC>MOL_PROPERTY
W(PB)
SciTegic.value.DoubleValue
-56.130

@<SCITEGIC>MOL_PROPERTY
W(SA)
SciTegic.value.DoubleValue
1.887

@<SCITEGIC>MOL_PROPERTY
Valence
SciTegic.value.DoubleValue
1.257

@<SCITEGIC>MOL_PROPERTY
Coulomb
SciTegic.value.DoubleValue
69.240

@<SCITEGIC>MOL_PROPERTY
VdW
SciTegic.value.DoubleValue
-0.123

@<SCITEGIC>MOL_PROPERTY
VdW6
SciTegic.value.DoubleValue
-4.336

@<SCITEGIC>MOL_PROPERTY
VdW12
SciTegic.value.DoubleValue
4.213

@<SCITEGIC>MOL_PROPERTY
Bond
SciTegic.value.DoubleValue
0.128

@<SCITEGIC>MOL_PROPERTY
Angle
SciTegic.value.DoubleValue
0.603

@<SCITEGIC>MOL_PROPERTY
Pdih
SciTegic.value.DoubleValue
0.526

@<SCITEGIC>MOL_PROPERTY
Idih
SciTegic.value.DoubleValue
0.000

@<SCITEGIC>MOL_PROPERTY
Tether
SciTegic.value.DoubleValue
0.000

@<TRIPOS>MOLECULE
guest-s9_confgen4.mol2 : confsearch ligand conformer 906
          20          19           1
SMALL
USER_CHARGES
 
@<TRIPOS>ATOM
       1    C1      19.053822   17.191237   23.225747 C.3        1 MOL1        -0.2224
       2    H1      18.401244   16.651175   23.924100 H          1 MOL1         0.1052
       3    H2      18.404651   17.655915   22.474282 H          1 MOL1         0.1052
       4    H3      19.696669   16.450806   22.732115 H          1 MOL1         0.1052
       5    C2      19.891222   18.246567   23.983706 C.3        1 MOL1        -0.1209
       6    H4      20.355538   17.765136   24.855888 H          1 MOL1         0.1041
       7    H5      19.224496   19.022861   24.384889 H          1 MOL1         0.1041
       8    C3      21.009583   18.907175   23.137713 C.3        1 MOL1        -0.1274
       9    H6      21.576558   19.580706   23.794000 H          1 MOL1         0.1041
      10    H7      21.725820   18.149735   22.792757 H          1 MOL1         0.1041
      11    C4      20.498895   19.735751   21.939822 C.3        1 MOL1         0.0313
      12    H8      21.274713   20.444388   21.639016 H          1 MOL1         0.1015
      13    H9      19.614982   20.306325   22.235501 H          1 MOL1         0.1015
      14    N1      20.151980   18.913727   20.713068 N.4        1 MOL1        -0.4809
      15    H10     19.459351   18.191668   20.957021 H          1 MOL1         0.3726
      16    H11     20.982844   18.397452   20.385753 H          1 MOL1         0.3726
      17    C5      19.617742   19.820074   19.612370 C.3        1 MOL1        -0.0677
      18    H12     18.720971   20.330573   19.970090 H          1 MOL1         0.1026
      19    H13     20.381407   20.555322   19.349707 H          1 MOL1         0.1026
      20    H14     19.372604   19.215179   18.736597 H          1 MOL1         0.1026
@<TRIPOS>BOND
    1     1     2    1
    2     1     3    1
    3     1     4    1
    4     1     5    1
    5     5     6    1
    6     5     7    1
    7     5     8    1
    8     8     9    1
    9     8    10    1
   10     8    11    1
   11    11    12    1
   12    11    13    1
   13    11    14    1
   14    14    15    1
   15    14    16    1
   16    14    17    1
   17    17    18    1
   18    17    19    1
   19    17    20    1
@<TRIPOS>SUBSTRUCTURE
       1 MOL1            1 RESIDUE      1      MOL     
@<SCITEGIC>MOL_PROPERTY
VConf Rank
SciTegic.value.IntegerValue
906

@<SCITEGIC>MOL_PROPERTY
Conf_Id
SciTegic.value.IntegerValue
26

@<SCITEGIC>MOL_PROPERTY
Delta U+W
SciTegic.value.DoubleValue
2.888

@<SCITEGIC>MOL_PROPERTY
U+W
SciTegic.value.DoubleValue
18.226

@<SCITEGIC>MOL_PROPERTY
Grad RMS
SciTegic.value.DoubleValue
0.000000

@<SCITEGIC>MOL_PROPERTY
U
SciTegic.value.DoubleValue
72.042

@<SCITEGIC>MOL_PROPERTY
W
SciTegic.value.DoubleValue
-53.816

@<SCITEGIC>MOL_PROPERTY
W(PB)
SciTegic.value.DoubleValue
-55.689

@<SCITEGIC>MOL_PROPERTY
W(SA)
SciTegic.value.DoubleValue
1.873

@<SCITEGIC>MOL_PROPERTY
Valence
SciTegic.value.DoubleValue
2.428

@<SCITEGIC>MOL_PROPERTY
Coulomb
SciTegic.value.DoubleValue
69.829

@<SCITEGIC>MOL_PROPERTY
VdW
SciTegic.value.DoubleValue
-0.215

@<SCITEGIC>MOL_PROPERTY
VdW6
SciTegic.value.DoubleValue
-4.563

@<SCITEGIC>MOL_PROPERTY
VdW12
SciTegic.value.DoubleValue
4.348

@<SCITEGIC>MOL_PROPERTY
Bond
SciTegic.value.DoubleValue
0.137

@<SCITEGIC>MOL_PROPERTY
Angle
SciTegic.value.DoubleValue
0.936

@<SCITEGIC>MOL_PROPERTY
Pdih
SciTegic.value.DoubleValue
1.356

@<SCITEGIC>MOL_PROPERTY
Idih
SciTegic.value.DoubleValue
0.000

@<SCITEGIC>MOL_PROPERTY
Tether
SciTegic.value.DoubleValue
0.000

@<TRIPOS>MOLECULE
guest-s9_confgen4.mol2 : confsearch ligand conformer 907
          20          19           1
SMALL
USER_CHARGES
 
@<TRIPOS>ATOM
       1    C1      21.525663   17.950396   20.704536 C.3        1 MOL1        -0.2224
       2    H1      22.451996   17.701946   20.170310 H          1 MOL1         0.1052
       3    H2      20.722528   17.333417   20.280891 H          1 MOL1         0.1052
       4    H3      21.309854   19.005446   20.498752 H          1 MOL1         0.1052
       5    C2      21.695369   17.690162   22.218782 C.3        1 MOL1        -0.1209
       6    H4      22.438517   18.388617   22.628658 H          1 MOL1         0.1041
       7    H5      22.116219   16.684195   22.356555 H          1 MOL1         0.1041
       8    C3      20.382889   17.786705   23.037873 C.3        1 MOL1        -0.1274
       9    H6      19.657421   17.041027   22.686634 H          1 MOL1         0.1041
      10    H7      20.612571   17.516846   24.077219 H          1 MOL1         0.1041
      11    C4      19.737375   19.188676   23.046492 C.3        1 MOL1         0.0313
      12    H8      20.513105   19.951780   23.147479 H          1 MOL1         0.1015
      13    H9      19.068967   19.268850   23.907507 H          1 MOL1         0.1015
      14    N1      18.910423   19.504211   21.814587 N.4        1 MOL1        -0.4809
      15    H10     18.141912   18.822781   21.719468 H          1 MOL1         0.3726
      16    H11     19.483780   19.390583   20.966666 H          1 MOL1         0.3726
      17    C5      18.360478   20.921182   21.904934 C.3        1 MOL1        -0.0677
      18    H12     19.191780   21.626325   21.971849 H          1 MOL1         0.1026
      19    H13     17.767974   21.133937   21.012384 H          1 MOL1         0.1026
      20    H14     17.731124   21.006669   22.793400 H          1 MOL1         0.1026
@<TRIPOS>BOND
    1     1     2    1
    2     1     3    1
    3     1     4    1
    4     1     5    1
    5     5     6    1
    6     5     7    1
    7     5     8    1
    8     8     9    1
    9     8    10    1
   10     8    11    1
   11    11    12    1
   12    11    13    1
   13    11    14    1
   14    14    15    1
   15    14    16    1
   16    14    17    1
   17    17    18    1
   18    17    19    1
   19    17    20    1
@<TRIPOS>SUBSTRUCTURE
       1 MOL1            1 RESIDUE      1      MOL     
@<SCITEGIC>MOL_PROPERTY
VConf Rank
SciTegic.value.IntegerValue
907

@<SCITEGIC>MOL_PROPERTY
Conf_Id
SciTegic.value.IntegerValue
5

@<SCITEGIC>MOL_PROPERTY
Delta U+W
SciTegic.value.DoubleValue
2.950

@<SCITEGIC>MOL_PROPERTY
U+W
SciTegic.value.DoubleValue
18.289

@<SCITEGIC>MOL_PROPERTY
Grad RMS
SciTegic.value.DoubleValue
0.000000

@<SCITEGIC>MOL_PROPERTY
U
SciTegic.value.DoubleValue
72.042

@<SCITEGIC>MOL_PROPERTY
W
SciTegic.value.DoubleValue
-53.753

@<SCITEGIC>MOL_PROPERTY
W(PB)
SciTegic.value.DoubleValue
-55.644

@<SCITEGIC>MOL_PROPERTY
W(SA)
SciTegic.value.DoubleValue
1.891

@<SCITEGIC>MOL_PROPERTY
Valence
SciTegic.value.DoubleValue
2.428

@<SCITEGIC>MOL_PROPERTY
Coulomb
SciTegic.value.DoubleValue
69.829

@<SCITEGIC>MOL_PROPERTY
VdW
SciTegic.value.DoubleValue
-0.215

@<SCITEGIC>MOL_PROPERTY
VdW6
SciTegic.value.DoubleValue
-4.563

@<SCITEGIC>MOL_PROPERTY
VdW12
SciTegic.value.DoubleValue
4.348

@<SCITEGIC>MOL_PROPERTY
Bond
SciTegic.value.DoubleValue
0.137

@<SCITEGIC>MOL_PROPERTY
Angle
SciTegic.value.DoubleValue
0.936

@<SCITEGIC>MOL_PROPERTY
Pdih
SciTegic.value.DoubleValue
1.356

@<SCITEGIC>MOL_PROPERTY
Idih
SciTegic.value.DoubleValue
0.000

@<SCITEGIC>MOL_PROPERTY
Tether
SciTegic.value.DoubleValue
0.000

@<TRIPOS>MOLECULE
guest-s9_confgen4.mol2 : confsearch ligand conformer 908
          20          19           1
SMALL
USER_CHARGES
 
@<TRIPOS>ATOM
       1    C1      18.270189   20.290099   21.198302 C.3        1 MOL1        -0.2224
       2    H1      17.404995   19.724858   20.828167 H          1 MOL1         0.1052
       3    H2      18.226241   20.303853   22.294503 H          1 MOL1         0.1052
       4    H3      18.166543   21.325901   20.849964 H          1 MOL1         0.1052
       5    C2      19.594220   19.676327   20.688042 C.3        1 MOL1        -0.1209
       6    H4      20.444061   20.259888   21.067501 H          1 MOL1         0.1041
       7    H5      19.630573   19.765542   19.593230 H          1 MOL1         0.1041
       8    C3      19.760048   18.185028   21.072522 C.3        1 MOL1        -0.1274
       9    H6      18.955712   17.600704   20.606536 H          1 MOL1         0.1041
      10    H7      20.696381   17.801245   20.647383 H          1 MOL1         0.1041
      11    C4      19.739397   17.922309   22.595704 C.3        1 MOL1         0.0313
      12    H8      19.863955   16.852940   22.783731 H          1 MOL1         0.1015
      13    H9      18.766685   18.220114   22.994732 H          1 MOL1         0.1015
      14    N1      20.803661   18.659038   23.394387 N.4        1 MOL1        -0.4809
      15    H10     20.626512   18.535270   24.403523 H          1 MOL1         0.3726
      16    H11     20.727022   19.673846   23.231925 H          1 MOL1         0.3726
      17    C5      22.201469   18.158642   23.047457 C.3        1 MOL1        -0.0677
      18    H12     22.402669   18.350289   21.991626 H          1 MOL1         0.1026
      19    H13     22.933610   18.687067   23.661983 H          1 MOL1         0.1026
      20    H14     22.259039   17.086472   23.246881 H          1 MOL1         0.1026
@<TRIPOS>BOND
    1     1     2    1
    2     1     3    1
    3     1     4    1
    4     1     5    1
    5     5     6    1
    6     5     7    1
    7     5     8    1
    8     8     9    1
    9     8    10    1
   10     8    11    1
   11    11    12    1
   12    11    13    1
   13    11    14    1
   14    14    15    1
   15    14    16    1
   16    14    17    1
   17    17    18    1
   18    17    19    1
   19    17    20    1
@<TRIPOS>SUBSTRUCTURE
       1 MOL1            1 RESIDUE      1      MOL     
@<SCITEGIC>MOL_PROPERTY
VConf Rank
SciTegic.value.IntegerValue
908

@<SCITEGIC>MOL_PROPERTY
Conf_Id
SciTegic.value.IntegerValue
52

@<SCITEGIC>MOL_PROPERTY
Delta U+W
SciTegic.value.DoubleValue
0.784

@<SCITEGIC>MOL_PROPERTY
U+W
SciTegic.value.DoubleValue
16.122

@<SCITEGIC>MOL_PROPERTY
Grad RMS
SciTegic.value.DoubleValue
0.000000

@<SCITEGIC>MOL_PROPERTY
U
SciTegic.value.DoubleValue
70.777

@<SCITEGIC>MOL_PROPERTY
W
SciTegic.value.DoubleValue
-54.655

@<SCITEGIC>MOL_PROPERTY
W(PB)
SciTegic.value.DoubleValue
-56.491

@<SCITEGIC>MOL_PROPERTY
W(SA)
SciTegic.value.DoubleValue
1.836

@<SCITEGIC>MOL_PROPERTY
Valence
SciTegic.value.DoubleValue
1.529

@<SCITEGIC>MOL_PROPERTY
Coulomb
SciTegic.value.DoubleValue
69.166

@<SCITEGIC>MOL_PROPERTY
VdW
SciTegic.value.DoubleValue
0.082

@<SCITEGIC>MOL_PROPERTY
VdW6
SciTegic.value.DoubleValue
-5.166

@<SCITEGIC>MOL_PROPERTY
VdW12
SciTegic.value.DoubleValue
5.248

@<SCITEGIC>MOL_PROPERTY
Bond
SciTegic.value.DoubleValue
0.171

@<SCITEGIC>MOL_PROPERTY
Angle
SciTegic.value.DoubleValue
0.752

@<SCITEGIC>MOL_PROPERTY
Pdih
SciTegic.value.DoubleValue
0.605

@<SCITEGIC>MOL_PROPERTY
Idih
SciTegic.value.DoubleValue
0.000

@<SCITEGIC>MOL_PROPERTY
Tether
SciTegic.value.DoubleValue
0.000

@<TRIPOS>MOLECULE
guest-s9_confgen4.mol2 : confsearch ligand conformer 909
          20          19           1
SMALL
USER_CHARGES
 
@<TRIPOS>ATOM
       1    C1      21.474050   19.571763   20.639358 C.3        1 MOL1        -0.2224
       2    H1      22.261564   19.739892   19.893220 H          1 MOL1         0.1052
       3    H2      20.515987   19.614636   20.108858 H          1 MOL1         0.1052
       4    H3      21.517694   20.397934   21.361053 H          1 MOL1         0.1052
       5    C2      21.678635   18.206613   21.334970 C.3        1 MOL1        -0.1209
       6    H4      22.729880   18.127814   21.645936 H          1 MOL1         0.1041
       7    H5      21.515332   17.396748   20.610078 H          1 MOL1         0.1041
       8    C3      20.785102   17.981234   22.581416 C.3        1 MOL1        -0.1274
       9    H6      21.083244   17.029675   23.041016 H          1 MOL1         0.1041
      10    H7      20.985950   18.751269   23.336803 H          1 MOL1         0.1041
      11    C4      19.270338   17.899746   22.280748 C.3        1 MOL1         0.0313
      12    H8      18.762407   17.418963   23.120556 H          1 MOL1         0.1015
      13    H9      19.115395   17.276178   21.396653 H          1 MOL1         0.1015
      14    N1      18.571489   19.229175   22.042547 N.4        1 MOL1        -0.4809
      15    H10     17.625167   19.059575   21.667222 H          1 MOL1         0.3726
      16    H11     19.062246   19.759705   21.309377 H          1 MOL1         0.3726
      17    C5      18.479260   20.043600   23.328209 C.3        1 MOL1        -0.0677
      18    H12     17.942069   19.464614   24.082426 H          1 MOL1         0.1026
      19    H13     19.484781   20.273982   23.685236 H          1 MOL1         0.1026
      20    H14     17.941128   20.972173   23.125530 H          1 MOL1         0.1026
@<TRIPOS>BOND
    1     1     2    1
    2     1     3    1
    3     1     4    1
    4     1     5    1
    5     5     6    1
    6     5     7    1
    7     5     8    1
    8     8     9    1
    9     8    10    1
   10     8    11    1
   11    11    12    1
   12    11    13    1
   13    11    14    1
   14    14    15    1
   15    14    16    1
   16    14    17    1
   17    17    18    1
   18    17    19    1
   19    17    20    1
@<TRIPOS>SUBSTRUCTURE
       1 MOL1            1 RESIDUE      1      MOL     
@<SCITEGIC>MOL_PROPERTY
VConf Rank
SciTegic.value.IntegerValue
909

@<SCITEGIC>MOL_PROPERTY
Conf_Id
SciTegic.value.IntegerValue
55

@<SCITEGIC>MOL_PROPERTY
Delta U+W
SciTegic.value.DoubleValue
2.745

@<SCITEGIC>MOL_PROPERTY
U+W
SciTegic.value.DoubleValue
18.083

@<SCITEGIC>MOL_PROPERTY
Grad RMS
SciTegic.value.DoubleValue
0.000000

@<SCITEGIC>MOL_PROPERTY
U
SciTegic.value.DoubleValue
72.490

@<SCITEGIC>MOL_PROPERTY
W
SciTegic.value.DoubleValue
-54.407

@<SCITEGIC>MOL_PROPERTY
W(PB)
SciTegic.value.DoubleValue
-56.269

@<SCITEGIC>MOL_PROPERTY
W(SA)
SciTegic.value.DoubleValue
1.861

@<SCITEGIC>MOL_PROPERTY
Valence
SciTegic.value.DoubleValue
2.738

@<SCITEGIC>MOL_PROPERTY
Coulomb
SciTegic.value.DoubleValue
69.795

@<SCITEGIC>MOL_PROPERTY
VdW
SciTegic.value.DoubleValue
-0.043

@<SCITEGIC>MOL_PROPERTY
VdW6
SciTegic.value.DoubleValue
-5.333

@<SCITEGIC>MOL_PROPERTY
VdW12
SciTegic.value.DoubleValue
5.290

@<SCITEGIC>MOL_PROPERTY
Bond
SciTegic.value.DoubleValue
0.182

@<SCITEGIC>MOL_PROPERTY
Angle
SciTegic.value.DoubleValue
1.135

@<SCITEGIC>MOL_PROPERTY
Pdih
SciTegic.value.DoubleValue
1.422

@<SCITEGIC>MOL_PROPERTY
Idih
SciTegic.value.DoubleValue
0.000

@<SCITEGIC>MOL_PROPERTY
Tether
SciTegic.value.DoubleValue
0.000

@<TRIPOS>MOLECULE
guest-s9_confgen4.mol2 : confsearch ligand conformer 910
          20          19           1
SMALL
USER_CHARGES
 
@<TRIPOS>ATOM
       1    C1      20.838888   18.581251   23.919834 C.3        1 MOL1        -0.2224
       2    H1      21.128983   18.464605   24.972169 H          1 MOL1         0.1052
       3    H2      21.502587   17.945455   23.319357 H          1 MOL1         0.1052
       4    H3      21.015549   19.629553   23.653365 H          1 MOL1         0.1052
       5    C2      19.356805   18.187026   23.726479 C.3        1 MOL1        -0.1209
       6    H4      18.713285   18.910712   24.246266 H          1 MOL1         0.1041
       7    H5      19.185981   17.220017   24.220179 H          1 MOL1         0.1041
       8    C3      18.913977   18.061696   22.246267 C.3        1 MOL1        -0.1274
       9    H6      19.511446   17.296696   21.734693 H          1 MOL1         0.1041
      10    H7      17.881385   17.688588   22.234843 H          1 MOL1         0.1041
      11    C4      18.939321   19.388775   21.452685 C.3        1 MOL1         0.0313
      12    H8      18.509332   20.181570   22.069981 H          1 MOL1         0.1015
      13    H9      18.316222   19.286281   20.560683 H          1 MOL1         0.1015
      14    N1      20.309822   19.852899   20.984899 N.4        1 MOL1        -0.4809
      15    H10     20.960874   19.890244   21.781501 H          1 MOL1         0.3726
      16    H11     20.246741   20.823736   20.640435 H          1 MOL1         0.3726
      17    C5      20.854193   18.948491   19.884706 C.3        1 MOL1        -0.0677
      18    H12     20.978739   17.936563   20.274716 H          1 MOL1         0.1026
      19    H13     20.152861   18.939064   19.047637 H          1 MOL1         0.1026
      20    H14     21.820163   19.333432   19.550588 H          1 MOL1         0.1026
@<TRIPOS>BOND
    1     1     2    1
    2     1     3    1
    3     1     4    1
    4     1     5    1
    5     5     6    1
    6     5     7    1
    7     5     8    1
    8     8     9    1
    9     8    10    1
   10     8    11    1
   11    11    12    1
   12    11    13    1
   13    11    14    1
   14    14    15    1
   15    14    16    1
   16    14    17    1
   17    17    18    1
   18    17    19    1
   19    17    20    1
@<TRIPOS>SUBSTRUCTURE
       1 MOL1            1 RESIDUE      1      MOL     
@<SCITEGIC>MOL_PROPERTY
VConf Rank
SciTegic.value.IntegerValue
910

@<SCITEGIC>MOL_PROPERTY
Conf_Id
SciTegic.value.IntegerValue
76

@<SCITEGIC>MOL_PROPERTY
Delta U+W
SciTegic.value.DoubleValue
2.799

@<SCITEGIC>MOL_PROPERTY
U+W
SciTegic.value.DoubleValue
18.137

@<SCITEGIC>MOL_PROPERTY
Grad RMS
SciTegic.value.DoubleValue
0.000000

@<SCITEGIC>MOL_PROPERTY
U
SciTegic.value.DoubleValue
72.490

@<SCITEGIC>MOL_PROPERTY
W
SciTegic.value.DoubleValue
-54.353

@<SCITEGIC>MOL_PROPERTY
W(PB)
SciTegic.value.DoubleValue
-56.201

@<SCITEGIC>MOL_PROPERTY
W(SA)
SciTegic.value.DoubleValue
1.848

@<SCITEGIC>MOL_PROPERTY
Valence
SciTegic.value.DoubleValue
2.738

@<SCITEGIC>MOL_PROPERTY
Coulomb
SciTegic.value.DoubleValue
69.795

@<SCITEGIC>MOL_PROPERTY
VdW
SciTegic.value.DoubleValue
-0.043

@<SCITEGIC>MOL_PROPERTY
VdW6
SciTegic.value.DoubleValue
-5.334

@<SCITEGIC>MOL_PROPERTY
VdW12
SciTegic.value.DoubleValue
5.290

@<SCITEGIC>MOL_PROPERTY
Bond
SciTegic.value.DoubleValue
0.182

@<SCITEGIC>MOL_PROPERTY
Angle
SciTegic.value.DoubleValue
1.135

@<SCITEGIC>MOL_PROPERTY
Pdih
SciTegic.value.DoubleValue
1.421

@<SCITEGIC>MOL_PROPERTY
Idih
SciTegic.value.DoubleValue
0.000

@<SCITEGIC>MOL_PROPERTY
Tether
SciTegic.value.DoubleValue
0.000

@<TRIPOS>MOLECULE
guest-s9_confgen4.mol2 : confsearch ligand conformer 911
          20          19           1
SMALL
USER_CHARGES
 
@<TRIPOS>ATOM
       1    C1      18.579212   17.389859   21.245197 C.3        1 MOL1        -0.2224
       2    H1      19.132113   17.946096   20.478417 H          1 MOL1         0.1052
       3    H2      18.863905   16.332322   21.170914 H          1 MOL1         0.1052
       4    H3      17.510975   17.466241   21.004614 H          1 MOL1         0.1052
       5    C2      18.856725   17.940605   22.663022 C.3        1 MOL1        -0.1209
       6    H4      18.226921   17.399015   23.382647 H          1 MOL1         0.1041
       7    H5      18.546092   18.991364   22.727630 H          1 MOL1         0.1041
       8    C3      20.337121   17.794173   23.092473 C.3        1 MOL1        -0.1274
       9    H6      20.455614   18.162868   24.119815 H          1 MOL1         0.1041
      10    H7      20.588654   16.725871   23.125767 H          1 MOL1         0.1041
      11    C4      21.364818   18.503407   22.179508 C.3        1 MOL1         0.0313
      12    H8      21.262245   18.160946   21.147149 H          1 MOL1         0.1015
      13    H9      22.364350   18.223250   22.521728 H          1 MOL1         0.1015
      14    N1      21.315126   20.024048   22.190627 N.4        1 MOL1        -0.4809
      15    H10     22.264151   20.395551   22.028957 H          1 MOL1         0.3726
      16    H11     21.054500   20.367923   23.126826 H          1 MOL1         0.3726
      17    C5      20.376654   20.566122   21.117932 C.3        1 MOL1        -0.0677
      18    H12     20.397208   21.657818   21.144470 H          1 MOL1         0.1026
      19    H13     20.712400   20.217155   20.139113 H          1 MOL1         0.1026
      20    H14     19.361189   20.215458   21.304711 H          1 MOL1         0.1026
@<TRIPOS>BOND
    1     1     2    1
    2     1     3    1
    3     1     4    1
    4     1     5    1
    5     5     6    1
    6     5     7    1
    7     5     8    1
    8     8     9    1
    9     8    10    1
   10     8    11    1
   11    11    12    1
   12    11    13    1
   13    11    14    1
   14    14    15    1
   15    14    16    1
   16    14    17    1
   17    17    18    1
   18    17    19    1
   19    17    20    1
@<TRIPOS>SUBSTRUCTURE
       1 MOL1            1 RESIDUE      1      MOL     
@<SCITEGIC>MOL_PROPERTY
VConf Rank
SciTegic.value.IntegerValue
911

@<SCITEGIC>MOL_PROPERTY
Conf_Id
SciTegic.value.IntegerValue
60

@<SCITEGIC>MOL_PROPERTY
Delta U+W
SciTegic.value.DoubleValue
1.788

@<SCITEGIC>MOL_PROPERTY
U+W
SciTegic.value.DoubleValue
17.127

@<SCITEGIC>MOL_PROPERTY
Grad RMS
SciTegic.value.DoubleValue
0.000000

@<SCITEGIC>MOL_PROPERTY
U
SciTegic.value.DoubleValue
72.122

@<SCITEGIC>MOL_PROPERTY
W
SciTegic.value.DoubleValue
-54.995

@<SCITEGIC>MOL_PROPERTY
W(PB)
SciTegic.value.DoubleValue
-56.810

@<SCITEGIC>MOL_PROPERTY
W(SA)
SciTegic.value.DoubleValue
1.815

@<SCITEGIC>MOL_PROPERTY
Valence
SciTegic.value.DoubleValue
3.197

@<SCITEGIC>MOL_PROPERTY
Coulomb
SciTegic.value.DoubleValue
69.115

@<SCITEGIC>MOL_PROPERTY
VdW
SciTegic.value.DoubleValue
-0.190

@<SCITEGIC>MOL_PROPERTY
VdW6
SciTegic.value.DoubleValue
-5.585

@<SCITEGIC>MOL_PROPERTY
VdW12
SciTegic.value.DoubleValue
5.395

@<SCITEGIC>MOL_PROPERTY
Bond
SciTegic.value.DoubleValue
0.177

@<SCITEGIC>MOL_PROPERTY
Angle
SciTegic.value.DoubleValue
1.207

@<SCITEGIC>MOL_PROPERTY
Pdih
SciTegic.value.DoubleValue
1.813

@<SCITEGIC>MOL_PROPERTY
Idih
SciTegic.value.DoubleValue
0.000

@<SCITEGIC>MOL_PROPERTY
Tether
SciTegic.value.DoubleValue
0.000

@<TRIPOS>MOLECULE
guest-s9_confgen4.mol2 : confsearch ligand conformer 912
          20          19           1
SMALL
USER_CHARGES
 
@<TRIPOS>ATOM
       1    C1      22.182296   18.259941   21.600810 C.3        1 MOL1        -0.2224
       2    H1      22.961217   18.604161   20.908250 H          1 MOL1         0.1052
       3    H2      22.647269   17.557461   22.304565 H          1 MOL1         0.1052
       4    H3      21.436357   17.710352   21.013801 H          1 MOL1         0.1052
       5    C2      21.552567   19.458186   22.347945 C.3        1 MOL1        -0.1209
       6    H4      21.112170   20.161917   21.629909 H          1 MOL1         0.1041
       7    H5      22.350048   20.014876   22.859758 H          1 MOL1         0.1041
       8    C3      20.494943   19.032733   23.395738 C.3        1 MOL1        -0.1274
       9    H6      20.987439   18.420151   24.162443 H          1 MOL1         0.1041
      10    H7      20.121320   19.923662   23.917329 H          1 MOL1         0.1041
      11    C4      19.294066   18.233274   22.837673 C.3        1 MOL1         0.0313
      12    H8      18.694112   17.896166   23.686837 H          1 MOL1         0.1015
      13    H9      19.638890   17.344210   22.304544 H          1 MOL1         0.1015
      14    N1      18.354553   19.008519   21.925942 N.4        1 MOL1        -0.4809
      15    H10     18.290974   19.991917   22.228484 H          1 MOL1         0.3726
      16    H11     17.397144   18.638480   22.031959 H          1 MOL1         0.3726
      17    C5      18.772305   18.902585   20.463237 C.3        1 MOL1        -0.0677
      18    H12     18.783609   17.850820   20.169552 H          1 MOL1         0.1026
      19    H13     18.053974   19.447378   19.846692 H          1 MOL1         0.1026
      20    H14     19.766026   19.331717   20.331380 H          1 MOL1         0.1026
@<TRIPOS>BOND
    1     1     2    1
    2     1     3    1
    3     1     4    1
    4     1     5    1
    5     5     6    1
    6     5     7    1
    7     5     8    1
    8     8     9    1
    9     8    10    1
   10     8    11    1
   11    11    12    1
   12    11    13    1
   13    11    14    1
   14    14    15    1
   15    14    16    1
   16    14    17    1
   17    17    18    1
   18    17    19    1
   19    17    20    1
@<TRIPOS>SUBSTRUCTURE
       1 MOL1            1 RESIDUE      1      MOL     
@<SCITEGIC>MOL_PROPERTY
VConf Rank
SciTegic.value.IntegerValue
912

@<SCITEGIC>MOL_PROPERTY
Conf_Id
SciTegic.value.IntegerValue
54

@<SCITEGIC>MOL_PROPERTY
Delta U+W
SciTegic.value.DoubleValue
1.880

@<SCITEGIC>MOL_PROPERTY
U+W
SciTegic.value.DoubleValue
17.218

@<SCITEGIC>MOL_PROPERTY
Grad RMS
SciTegic.value.DoubleValue
0.000000

@<SCITEGIC>MOL_PROPERTY
U
SciTegic.value.DoubleValue
72.122

@<SCITEGIC>MOL_PROPERTY
W
SciTegic.value.DoubleValue
-54.903

@<SCITEGIC>MOL_PROPERTY
W(PB)
SciTegic.value.DoubleValue
-56.724

@<SCITEGIC>MOL_PROPERTY
W(SA)
SciTegic.value.DoubleValue
1.821

@<SCITEGIC>MOL_PROPERTY
Valence
SciTegic.value.DoubleValue
3.197

@<SCITEGIC>MOL_PROPERTY
Coulomb
SciTegic.value.DoubleValue
69.115

@<SCITEGIC>MOL_PROPERTY
VdW
SciTegic.value.DoubleValue
-0.190

@<SCITEGIC>MOL_PROPERTY
VdW6
SciTegic.value.DoubleValue
-5.585

@<SCITEGIC>MOL_PROPERTY
VdW12
SciTegic.value.DoubleValue
5.395

@<SCITEGIC>MOL_PROPERTY
Bond
SciTegic.value.DoubleValue
0.177

@<SCITEGIC>MOL_PROPERTY
Angle
SciTegic.value.DoubleValue
1.207

@<SCITEGIC>MOL_PROPERTY
Pdih
SciTegic.value.DoubleValue
1.813

@<SCITEGIC>MOL_PROPERTY
Idih
SciTegic.value.DoubleValue
0.000

@<SCITEGIC>MOL_PROPERTY
Tether
SciTegic.value.DoubleValue
0.000

@<TRIPOS>MOLECULE
guest-s9_confgen4.mol2 : confsearch ligand conformer 913
          20          19           1
SMALL
USER_CHARGES
 
@<TRIPOS>ATOM
       1    C1      20.619611   15.835614   23.044245 C.3        1 MOL1        -0.2224
       2    H1      21.714096   15.871358   22.966770 H          1 MOL1         0.1052
       3    H2      20.364771   15.241010   23.931110 H          1 MOL1         0.1052
       4    H3      20.231926   15.307912   22.163105 H          1 MOL1         0.1052
       5    C2      20.022663   17.255756   23.149515 C.3        1 MOL1        -0.1209
       6    H4      20.401790   17.744751   24.058085 H          1 MOL1         0.1041
       7    H5      18.931288   17.185742   23.260649 H          1 MOL1         0.1041
       8    C3      20.365774   18.116279   21.913580 C.3        1 MOL1        -0.1274
       9    H6      21.456189   18.188627   21.805295 H          1 MOL1         0.1041
      10    H7      19.983784   17.628765   21.006728 H          1 MOL1         0.1041
      11    C4      19.766976   19.530623   22.026054 C.3        1 MOL1         0.0313
      12    H8      20.157161   20.024544   22.919523 H          1 MOL1         0.1015
      13    H9      18.680052   19.462886   22.118226 H          1 MOL1         0.1015
      14    N1      20.078591   20.412992   20.833147 N.4        1 MOL1        -0.4809
      15    H10     19.731567   19.975629   19.965711 H          1 MOL1         0.3726
      16    H11     21.099162   20.495689   20.707644 H          1 MOL1         0.3726
      17    C5      19.451572   21.787405   21.025532 C.3        1 MOL1        -0.0677
      18    H12     19.858626   22.245358   21.929630 H          1 MOL1         0.1026
      19    H13     19.683663   22.411976   20.160053 H          1 MOL1         0.1026
      20    H14     18.369052   21.678935   21.121420 H          1 MOL1         0.1026
@<TRIPOS>BOND
    1     1     2    1
    2     1     3    1
    3     1     4    1
    4     1     5    1
    5     5     6    1
    6     5     7    1
    7     5     8    1
    8     8     9    1
    9     8    10    1
   10     8    11    1
   11    11    12    1
   12    11    13    1
   13    11    14    1
   14    14    15    1
   15    14    16    1
   16    14    17    1
   17    17    18    1
   18    17    19    1
   19    17    20    1
@<TRIPOS>SUBSTRUCTURE
       1 MOL1            1 RESIDUE      1      MOL     
@<SCITEGIC>MOL_PROPERTY
VConf Rank
SciTegic.value.IntegerValue
913

@<SCITEGIC>MOL_PROPERTY
Conf_Id
SciTegic.value.IntegerValue
67

@<SCITEGIC>MOL_PROPERTY
Delta U+W
SciTegic.value.DoubleValue
0.000

@<SCITEGIC>MOL_PROPERTY
U+W
SciTegic.value.DoubleValue
15.338

@<SCITEGIC>MOL_PROPERTY
Grad RMS
SciTegic.value.DoubleValue
0.000000

@<SCITEGIC>MOL_PROPERTY
U
SciTegic.value.DoubleValue
69.277

@<SCITEGIC>MOL_PROPERTY
W
SciTegic.value.DoubleValue
-53.939

@<SCITEGIC>MOL_PROPERTY
W(PB)
SciTegic.value.DoubleValue
-55.889

@<SCITEGIC>MOL_PROPERTY
W(SA)
SciTegic.value.DoubleValue
1.950

@<SCITEGIC>MOL_PROPERTY
Valence
SciTegic.value.DoubleValue
0.846

@<SCITEGIC>MOL_PROPERTY
Coulomb
SciTegic.value.DoubleValue
68.557

@<SCITEGIC>MOL_PROPERTY
VdW
SciTegic.value.DoubleValue
-0.127

@<SCITEGIC>MOL_PROPERTY
VdW6
SciTegic.value.DoubleValue
-3.008

@<SCITEGIC>MOL_PROPERTY
VdW12
SciTegic.value.DoubleValue
2.882

@<SCITEGIC>MOL_PROPERTY
Bond
SciTegic.value.DoubleValue
0.088

@<SCITEGIC>MOL_PROPERTY
Angle
SciTegic.value.DoubleValue
0.332

@<SCITEGIC>MOL_PROPERTY
Pdih
SciTegic.value.DoubleValue
0.426

@<SCITEGIC>MOL_PROPERTY
Idih
SciTegic.value.DoubleValue
0.000

@<SCITEGIC>MOL_PROPERTY
Tether
SciTegic.value.DoubleValue
0.000

@<TRIPOS>MOLECULE
guest-s9_confgen4.mol2 : confsearch ligand conformer 914
          20          19           1
SMALL
USER_CHARGES
 
@<TRIPOS>ATOM
       1    C1      18.557199   18.630776   19.412158 C.3        1 MOL1        -0.2224
       2    H1      17.702921   19.153667   19.861562 H          1 MOL1         0.1052
       3    H2      18.601755   18.909770   18.351405 H          1 MOL1         0.1052
       4    H3      18.364771   17.551412   19.467964 H          1 MOL1         0.1052
       5    C2      19.874443   18.998777   20.128897 C.3        1 MOL1        -0.1209
       6    H4      20.056785   20.077930   20.026401 H          1 MOL1         0.1041
       7    H5      20.713571   18.488451   19.635197 H          1 MOL1         0.1041
       8    C3      19.840604   18.616907   21.625133 C.3        1 MOL1        -0.1274
       9    H6      19.001439   19.128568   22.113762 H          1 MOL1         0.1041
      10    H7      19.662759   17.538165   21.726664 H          1 MOL1         0.1041
      11    C4      21.161019   18.986993   22.331897 C.3        1 MOL1         0.0313
      12    H8      21.321213   20.066694   22.277428 H          1 MOL1         0.1015
      13    H9      21.989539   18.495912   21.815108 H          1 MOL1         0.1015
      14    N1      21.233421   18.575943   23.793594 N.4        1 MOL1        -0.4809
      15    H10     22.195966   18.708105   24.141913 H          1 MOL1         0.3726
      16    H11     21.054622   17.564729   23.889793 H          1 MOL1         0.3726
      17    C5      20.259693   19.382889   24.645772 C.3        1 MOL1        -0.0677
      18    H12     19.238313   19.186347   24.314047 H          1 MOL1         0.1026
      19    H13     20.368489   19.085927   25.691213 H          1 MOL1         0.1026
      20    H14     20.485411   20.446187   24.540152 H          1 MOL1         0.1026
@<TRIPOS>BOND
    1     1     2    1
    2     1     3    1
    3     1     4    1
    4     1     5    1
    5     5     6    1
    6     5     7    1
    7     5     8    1
    8     8     9    1
    9     8    10    1
   10     8    11    1
   11    11    12    1
   12    11    13    1
   13    11    14    1
   14    14    15    1
   15    14    16    1
   16    14    17    1
   17    17    18    1
   18    17    19    1
   19    17    20    1
@<TRIPOS>SUBSTRUCTURE
       1 MOL1            1 RESIDUE      1      MOL     
@<SCITEGIC>MOL_PROPERTY
VConf Rank
SciTegic.value.IntegerValue
914

@<SCITEGIC>MOL_PROPERTY
Conf_Id
SciTegic.value.IntegerValue
37

@<SCITEGIC>MOL_PROPERTY
Delta U+W
SciTegic.value.DoubleValue
-0.021

@<SCITEGIC>MOL_PROPERTY
U+W
SciTegic.value.DoubleValue
15.318

@<SCITEGIC>MOL_PROPERTY
Grad RMS
SciTegic.value.DoubleValue
0.000000

@<SCITEGIC>MOL_PROPERTY
U
SciTegic.value.DoubleValue
69.657

@<SCITEGIC>MOL_PROPERTY
W
SciTegic.value.DoubleValue
-54.340

@<SCITEGIC>MOL_PROPERTY
W(PB)
SciTegic.value.DoubleValue
-56.238

@<SCITEGIC>MOL_PROPERTY
W(SA)
SciTegic.value.DoubleValue
1.899

@<SCITEGIC>MOL_PROPERTY
Valence
SciTegic.value.DoubleValue
1.137

@<SCITEGIC>MOL_PROPERTY
Coulomb
SciTegic.value.DoubleValue
68.383

@<SCITEGIC>MOL_PROPERTY
VdW
SciTegic.value.DoubleValue
0.138

@<SCITEGIC>MOL_PROPERTY
VdW6
SciTegic.value.DoubleValue
-3.703

@<SCITEGIC>MOL_PROPERTY
VdW12
SciTegic.value.DoubleValue
3.841

@<SCITEGIC>MOL_PROPERTY
Bond
SciTegic.value.DoubleValue
0.125

@<SCITEGIC>MOL_PROPERTY
Angle
SciTegic.value.DoubleValue
0.468

@<SCITEGIC>MOL_PROPERTY
Pdih
SciTegic.value.DoubleValue
0.543

@<SCITEGIC>MOL_PROPERTY
Idih
SciTegic.value.DoubleValue
0.000

@<SCITEGIC>MOL_PROPERTY
Tether
SciTegic.value.DoubleValue
0.000

@<TRIPOS>MOLECULE
guest-s9_confgen4.mol2 : confsearch ligand conformer 915
          20          19           1
SMALL
USER_CHARGES
 
@<TRIPOS>ATOM
       1    C1      20.698632   21.587652   22.811198 C.3        1 MOL1        -0.2224
       2    H1      20.351660   22.625963   22.730320 H          1 MOL1         0.1052
       3    H2      20.642845   21.296056   23.868094 H          1 MOL1         0.1052
       4    H3      21.752412   21.560618   22.504625 H          1 MOL1         0.1052
       5    C2      19.839009   20.654972   21.930617 C.3        1 MOL1        -0.1209
       6    H4      19.887024   20.992881   20.885715 H          1 MOL1         0.1041
       7    H5      18.786453   20.729725   22.238619 H          1 MOL1         0.1041
       8    C3      20.305178   19.185424   22.024425 C.3        1 MOL1        -0.1274
       9    H6      21.355313   19.110852   21.712531 H          1 MOL1         0.1041
      10    H7      20.255589   18.852517   23.069159 H          1 MOL1         0.1041
      11    C4      19.441600   18.262013   21.140392 C.3        1 MOL1         0.0313
      12    H8      19.475504   18.624563   20.109817 H          1 MOL1         0.1015
      13    H9      18.401871   18.293349   21.475599 H          1 MOL1         0.1015
      14    N1      19.884214   16.807873   21.122303 N.4        1 MOL1        -0.4809
      15    H10     20.874058   16.739025   20.840800 H          1 MOL1         0.3726
      16    H11     19.365427   16.298380   20.389799 H          1 MOL1         0.3726
      17    C5      19.656975   16.141866   22.475194 C.3        1 MOL1        -0.0677
      18    H12     18.599131   16.212181   22.737352 H          1 MOL1         0.1026
      19    H13     19.950877   15.091894   22.410760 H          1 MOL1         0.1026
      20    H14     20.260619   16.644863   23.233149 H          1 MOL1         0.1026
@<TRIPOS>BOND
    1     1     2    1
    2     1     3    1
    3     1     4    1
    4     1     5    1
    5     5     6    1
    6     5     7    1
    7     5     8    1
    8     8     9    1
    9     8    10    1
   10     8    11    1
   11    11    12    1
   12    11    13    1
   13    11    14    1
   14    14    15    1
   15    14    16    1
   16    14    17    1
   17    17    18    1
   18    17    19    1
   19    17    20    1
@<TRIPOS>SUBSTRUCTURE
       1 MOL1            1 RESIDUE      1      MOL     
@<SCITEGIC>MOL_PROPERTY
VConf Rank
SciTegic.value.IntegerValue
915

@<SCITEGIC>MOL_PROPERTY
Conf_Id
SciTegic.value.IntegerValue
2

@<SCITEGIC>MOL_PROPERTY
Delta U+W
SciTegic.value.DoubleValue
0.069

@<SCITEGIC>MOL_PROPERTY
U+W
SciTegic.value.DoubleValue
15.407

@<SCITEGIC>MOL_PROPERTY
Grad RMS
SciTegic.value.DoubleValue
0.000000

@<SCITEGIC>MOL_PROPERTY
U
SciTegic.value.DoubleValue
69.657

@<SCITEGIC>MOL_PROPERTY
W
SciTegic.value.DoubleValue
-54.250

@<SCITEGIC>MOL_PROPERTY
W(PB)
SciTegic.value.DoubleValue
-56.176

@<SCITEGIC>MOL_PROPERTY
W(SA)
SciTegic.value.DoubleValue
1.926

@<SCITEGIC>MOL_PROPERTY
Valence
SciTegic.value.DoubleValue
1.137

@<SCITEGIC>MOL_PROPERTY
Coulomb
SciTegic.value.DoubleValue
68.383

@<SCITEGIC>MOL_PROPERTY
VdW
SciTegic.value.DoubleValue
0.138

@<SCITEGIC>MOL_PROPERTY
VdW6
SciTegic.value.DoubleValue
-3.703

@<SCITEGIC>MOL_PROPERTY
VdW12
SciTegic.value.DoubleValue
3.841

@<SCITEGIC>MOL_PROPERTY
Bond
SciTegic.value.DoubleValue
0.125

@<SCITEGIC>MOL_PROPERTY
Angle
SciTegic.value.DoubleValue
0.468

@<SCITEGIC>MOL_PROPERTY
Pdih
SciTegic.value.DoubleValue
0.543

@<SCITEGIC>MOL_PROPERTY
Idih
SciTegic.value.DoubleValue
0.000

@<SCITEGIC>MOL_PROPERTY
Tether
SciTegic.value.DoubleValue
0.000

@<TRIPOS>MOLECULE
guest-s9_confgen4.mol2 : confsearch ligand conformer 916
          20          19           1
SMALL
USER_CHARGES
 
@<TRIPOS>ATOM
       1    C1      21.281608   16.507401   21.314986 C.3        1 MOL1        -0.2224
       2    H1      21.960567   17.201363   21.826351 H          1 MOL1         0.1052
       3    H2      20.812381   15.866057   22.072352 H          1 MOL1         0.1052
       4    H3      21.891787   15.866447   20.665487 H          1 MOL1         0.1052
       5    C2      20.216095   17.261171   20.486251 C.3        1 MOL1        -0.1209
       6    H4      19.620196   16.531531   19.920086 H          1 MOL1         0.1041
       7    H5      20.711655   17.899405   19.741078 H          1 MOL1         0.1041
       8    C3      19.266969   18.117300   21.357103 C.3        1 MOL1        -0.1274
       9    H6      18.493731   18.559049   20.714594 H          1 MOL1         0.1041
      10    H7      18.746756   17.472397   22.077759 H          1 MOL1         0.1041
      11    C4      20.004066   19.243369   22.108037 C.3        1 MOL1         0.0313
      12    H8      20.519746   19.886480   21.390504 H          1 MOL1         0.1015
      13    H9      20.749397   18.811449   22.780118 H          1 MOL1         0.1015
      14    N1      19.083392   20.116235   22.938059 N.4        1 MOL1        -0.4809
      15    H10     18.569611   19.541659   23.623611 H          1 MOL1         0.3726
      16    H11     18.358254   20.540255   22.339323 H          1 MOL1         0.3726
      17    C5      19.890249   21.196811   23.645467 C.3        1 MOL1        -0.0677
      18    H12     20.397523   21.813202   22.900121 H          1 MOL1         0.1026
      19    H13     19.215515   21.817663   24.239000 H          1 MOL1         0.1026
      20    H14     20.627483   20.725653   24.299145 H          1 MOL1         0.1026
@<TRIPOS>BOND
    1     1     2    1
    2     1     3    1
    3     1     4    1
    4     1     5    1
    5     5     6    1
    6     5     7    1
    7     5     8    1
    8     8     9    1
    9     8    10    1
   10     8    11    1
   11    11    12    1
   12    11    13    1
   13    11    14    1
   14    14    15    1
   15    14    16    1
   16    14    17    1
   17    17    18    1
   18    17    19    1
   19    17    20    1
@<TRIPOS>SUBSTRUCTURE
       1 MOL1            1 RESIDUE      1      MOL     
@<SCITEGIC>MOL_PROPERTY
VConf Rank
SciTegic.value.IntegerValue
916

@<SCITEGIC>MOL_PROPERTY
Conf_Id
SciTegic.value.IntegerValue
34

@<SCITEGIC>MOL_PROPERTY
Delta U+W
SciTegic.value.DoubleValue
0.276

@<SCITEGIC>MOL_PROPERTY
U+W
SciTegic.value.DoubleValue
15.615

@<SCITEGIC>MOL_PROPERTY
Grad RMS
SciTegic.value.DoubleValue
0.000000

@<SCITEGIC>MOL_PROPERTY
U
SciTegic.value.DoubleValue
69.798

@<SCITEGIC>MOL_PROPERTY
W
SciTegic.value.DoubleValue
-54.184

@<SCITEGIC>MOL_PROPERTY
W(PB)
SciTegic.value.DoubleValue
-56.116

@<SCITEGIC>MOL_PROPERTY
W(SA)
SciTegic.value.DoubleValue
1.933

@<SCITEGIC>MOL_PROPERTY
Valence
SciTegic.value.DoubleValue
1.134

@<SCITEGIC>MOL_PROPERTY
Coulomb
SciTegic.value.DoubleValue
68.735

@<SCITEGIC>MOL_PROPERTY
VdW
SciTegic.value.DoubleValue
-0.070

@<SCITEGIC>MOL_PROPERTY
VdW6
SciTegic.value.DoubleValue
-3.565

@<SCITEGIC>MOL_PROPERTY
VdW12
SciTegic.value.DoubleValue
3.494

@<SCITEGIC>MOL_PROPERTY
Bond
SciTegic.value.DoubleValue
0.108

@<SCITEGIC>MOL_PROPERTY
Angle
SciTegic.value.DoubleValue
0.456

@<SCITEGIC>MOL_PROPERTY
Pdih
SciTegic.value.DoubleValue
0.569

@<SCITEGIC>MOL_PROPERTY
Idih
SciTegic.value.DoubleValue
0.000

@<SCITEGIC>MOL_PROPERTY
Tether
SciTegic.value.DoubleValue
0.000

@<TRIPOS>MOLECULE
guest-s9_confgen4.mol2 : confsearch ligand conformer 917
          20          19           1
SMALL
USER_CHARGES
 
@<TRIPOS>ATOM
       1    C1      17.340414   19.852821   21.070540 C.3        1 MOL1        -0.2224
       2    H1      16.977277   20.594077   21.794308 H          1 MOL1         0.1052
       3    H2      17.129512   20.235494   20.063511 H          1 MOL1         0.1052
       4    H3      16.761794   18.929978   21.207435 H          1 MOL1         0.1052
       5    C2      18.851835   19.593321   21.250244 C.3        1 MOL1        -0.1209
       6    H4      19.404868   20.527192   21.075990 H          1 MOL1         0.1041
       7    H5      19.186459   18.879338   20.485553 H          1 MOL1         0.1041
       8    C3      19.175717   19.052283   22.662887 C.3        1 MOL1        -0.1274
       9    H6      18.800642   19.757738   23.416236 H          1 MOL1         0.1041
      10    H7      18.648405   18.104283   22.833457 H          1 MOL1         0.1041
      11    C4      20.686787   18.850719   22.894362 C.3        1 MOL1         0.0313
      12    H8      20.856835   18.555106   23.932782 H          1 MOL1         0.1015
      13    H9      21.214142   19.791603   22.718100 H          1 MOL1         0.1015
      14    N1      21.312378   17.789518   22.008712 N.4        1 MOL1        -0.4809
      15    H10     21.176561   18.030015   21.015652 H          1 MOL1         0.3726
      16    H11     20.831080   16.886858   22.141386 H          1 MOL1         0.3726
      17    C5      22.795607   17.655767   22.326487 C.3        1 MOL1        -0.0677
      18    H12     23.289807   18.613108   22.147450 H          1 MOL1         0.1026
      19    H13     22.914780   17.368521   23.373422 H          1 MOL1         0.1026
      20    H14     23.232948   16.889558   21.682557 H          1 MOL1         0.1026
@<TRIPOS>BOND
    1     1     2    1
    2     1     3    1
    3     1     4    1
    4     1     5    1
    5     5     6    1
    6     5     7    1
    7     5     8    1
    8     8     9    1
    9     8    10    1
   10     8    11    1
   11    11    12    1
   12    11    13    1
   13    11    14    1
   14    14    15    1
   15    14    16    1
   16    14    17    1
   17    17    18    1
   18    17    19    1
   19    17    20    1
@<TRIPOS>SUBSTRUCTURE
       1 MOL1            1 RESIDUE      1      MOL     
@<SCITEGIC>MOL_PROPERTY
VConf Rank
SciTegic.value.IntegerValue
917

@<SCITEGIC>MOL_PROPERTY
Conf_Id
SciTegic.value.IntegerValue
50

@<SCITEGIC>MOL_PROPERTY
Delta U+W
SciTegic.value.DoubleValue
0.319

@<SCITEGIC>MOL_PROPERTY
U+W
SciTegic.value.DoubleValue
15.657

@<SCITEGIC>MOL_PROPERTY
Grad RMS
SciTegic.value.DoubleValue
0.000000

@<SCITEGIC>MOL_PROPERTY
U
SciTegic.value.DoubleValue
69.962

@<SCITEGIC>MOL_PROPERTY
W
SciTegic.value.DoubleValue
-54.305

@<SCITEGIC>MOL_PROPERTY
W(PB)
SciTegic.value.DoubleValue
-56.223

@<SCITEGIC>MOL_PROPERTY
W(SA)
SciTegic.value.DoubleValue
1.918

@<SCITEGIC>MOL_PROPERTY
Valence
SciTegic.value.DoubleValue
0.982

@<SCITEGIC>MOL_PROPERTY
Coulomb
SciTegic.value.DoubleValue
69.058

@<SCITEGIC>MOL_PROPERTY
VdW
SciTegic.value.DoubleValue
-0.078

@<SCITEGIC>MOL_PROPERTY
VdW6
SciTegic.value.DoubleValue
-3.548

@<SCITEGIC>MOL_PROPERTY
VdW12
SciTegic.value.DoubleValue
3.471

@<SCITEGIC>MOL_PROPERTY
Bond
SciTegic.value.DoubleValue
0.105

@<SCITEGIC>MOL_PROPERTY
Angle
SciTegic.value.DoubleValue
0.408

@<SCITEGIC>MOL_PROPERTY
Pdih
SciTegic.value.DoubleValue
0.469

@<SCITEGIC>MOL_PROPERTY
Idih
SciTegic.value.DoubleValue
0.000

@<SCITEGIC>MOL_PROPERTY
Tether
SciTegic.value.DoubleValue
0.000

@<TRIPOS>MOLECULE
guest-s9_confgen4.mol2 : confsearch ligand conformer 918
          20          19           1
SMALL
USER_CHARGES
 
@<TRIPOS>ATOM
       1    C1      21.433311   21.537521   22.285527 C.3        1 MOL1        -0.2224
       2    H1      22.474301   21.748970   22.008660 H          1 MOL1         0.1052
       3    H2      20.800148   22.305927   21.823114 H          1 MOL1         0.1052
       4    H3      21.348786   21.636032   23.375634 H          1 MOL1         0.1052
       5    C2      21.021617   20.123627   21.821378 C.3        1 MOL1        -0.1209
       6    H4      21.700503   19.386670   22.271382 H          1 MOL1         0.1041
       7    H5      21.147256   20.047017   20.732034 H          1 MOL1         0.1041
       8    C3      19.557025   19.800535   22.200547 C.3        1 MOL1        -0.1274
       9    H6      19.430683   19.847543   23.290356 H          1 MOL1         0.1041
      10    H7      18.895028   20.567214   21.776465 H          1 MOL1         0.1041
      11    C4      19.096411   18.421516   21.687043 C.3        1 MOL1         0.0313
      12    H8      19.228005   18.370385   20.603298 H          1 MOL1         0.1015
      13    H9      18.033803   18.290700   21.906977 H          1 MOL1         0.1015
      14    N1      19.838556   17.251478   22.305203 N.4        1 MOL1        -0.4809
      15    H10     19.744569   17.273515   23.332204 H          1 MOL1         0.3726
      16    H11     20.849180   17.333675   22.119902 H          1 MOL1         0.3726
      17    C5      19.299476   15.941066   21.747483 C.3        1 MOL1        -0.0677
      18    H12     19.841948   15.108148   22.200211 H          1 MOL1         0.1026
      19    H13     18.236330   15.859717   21.983890 H          1 MOL1         0.1026
      20    H14     19.439347   15.926234   20.664429 H          1 MOL1         0.1026
@<TRIPOS>BOND
    1     1     2    1
    2     1     3    1
    3     1     4    1
    4     1     5    1
    5     5     6    1
    6     5     7    1
    7     5     8    1
    8     8     9    1
    9     8    10    1
   10     8    11    1
   11    11    12    1
   12    11    13    1
   13    11    14    1
   14    14    15    1
   15    14    16    1
   16    14    17    1
   17    17    18    1
   18    17    19    1
   19    17    20    1
@<TRIPOS>SUBSTRUCTURE
       1 MOL1            1 RESIDUE      1      MOL     
@<SCITEGIC>MOL_PROPERTY
VConf Rank
SciTegic.value.IntegerValue
918

@<SCITEGIC>MOL_PROPERTY
Conf_Id
SciTegic.value.IntegerValue
35

@<SCITEGIC>MOL_PROPERTY
Delta U+W
SciTegic.value.DoubleValue
0.360

@<SCITEGIC>MOL_PROPERTY
U+W
SciTegic.value.DoubleValue
15.698

@<SCITEGIC>MOL_PROPERTY
Grad RMS
SciTegic.value.DoubleValue
0.000000

@<SCITEGIC>MOL_PROPERTY
U
SciTegic.value.DoubleValue
69.962

@<SCITEGIC>MOL_PROPERTY
W
SciTegic.value.DoubleValue
-54.264

@<SCITEGIC>MOL_PROPERTY
W(PB)
SciTegic.value.DoubleValue
-56.166

@<SCITEGIC>MOL_PROPERTY
W(SA)
SciTegic.value.DoubleValue
1.902

@<SCITEGIC>MOL_PROPERTY
Valence
SciTegic.value.DoubleValue
0.982

@<SCITEGIC>MOL_PROPERTY
Coulomb
SciTegic.value.DoubleValue
69.058

@<SCITEGIC>MOL_PROPERTY
VdW
SciTegic.value.DoubleValue
-0.078

@<SCITEGIC>MOL_PROPERTY
VdW6
SciTegic.value.DoubleValue
-3.548

@<SCITEGIC>MOL_PROPERTY
VdW12
SciTegic.value.DoubleValue
3.471

@<SCITEGIC>MOL_PROPERTY
Bond
SciTegic.value.DoubleValue
0.105

@<SCITEGIC>MOL_PROPERTY
Angle
SciTegic.value.DoubleValue
0.408

@<SCITEGIC>MOL_PROPERTY
Pdih
SciTegic.value.DoubleValue
0.469

@<SCITEGIC>MOL_PROPERTY
Idih
SciTegic.value.DoubleValue
0.000

@<SCITEGIC>MOL_PROPERTY
Tether
SciTegic.value.DoubleValue
0.000

@<TRIPOS>MOLECULE
guest-s9_confgen4.mol2 : confsearch ligand conformer 919
          20          19           1
SMALL
USER_CHARGES
 
@<TRIPOS>ATOM
       1    C1      18.112573   17.333882   21.063307 C.3        1 MOL1        -0.2224
       2    H1      17.766553   18.369172   20.951441 H          1 MOL1         0.1052
       3    H2      17.516144   16.710646   20.384467 H          1 MOL1         0.1052
       4    H3      17.898321   17.009909   22.090064 H          1 MOL1         0.1052
       5    C2      19.618504   17.199723   20.740221 C.3        1 MOL1        -0.1209
       6    H4      19.806450   17.534660   19.710337 H          1 MOL1         0.1041
       7    H5      19.899667   16.137797   20.775527 H          1 MOL1         0.1041
       8    C3      20.518440   17.990683   21.718164 C.3        1 MOL1        -0.1274
       9    H6      20.353684   17.626043   22.740223 H          1 MOL1         0.1041
      10    H7      21.570736   17.789291   21.478103 H          1 MOL1         0.1041
      11    C4      20.268129   19.512772   21.654490 C.3        1 MOL1         0.0313
      12    H8      19.241664   19.733925   21.956512 H          1 MOL1         0.1015
      13    H9      20.397827   19.850440   20.623118 H          1 MOL1         0.1015
      14    N1      21.198499   20.343485   22.523238 N.4        1 MOL1        -0.4809
      15    H10     21.077445   21.343959   22.300513 H          1 MOL1         0.3726
      16    H11     22.182284   20.138572   22.291080 H          1 MOL1         0.3726
      17    C5      20.929925   20.107198   24.005602 C.3        1 MOL1        -0.0677
      18    H12     21.123743   19.060257   24.246930 H          1 MOL1         0.1026
      19    H13     21.590214   20.747067   24.595135 H          1 MOL1         0.1026
      20    H14     19.888460   20.351397   24.225635 H          1 MOL1         0.1026
@<TRIPOS>BOND
    1     1     2    1
    2     1     3    1
    3     1     4    1
    4     1     5    1
    5     5     6    1
    6     5     7    1
    7     5     8    1
    8     8     9    1
    9     8    10    1
   10     8    11    1
   11    11    12    1
   12    11    13    1
   13    11    14    1
   14    14    15    1
   15    14    16    1
   16    14    17    1
   17    17    18    1
   18    17    19    1
   19    17    20    1
@<TRIPOS>SUBSTRUCTURE
       1 MOL1            1 RESIDUE      1      MOL     
@<SCITEGIC>MOL_PROPERTY
VConf Rank
SciTegic.value.IntegerValue
919

@<SCITEGIC>MOL_PROPERTY
Conf_Id
SciTegic.value.IntegerValue
33

@<SCITEGIC>MOL_PROPERTY
Delta U+W
SciTegic.value.DoubleValue
0.372

@<SCITEGIC>MOL_PROPERTY
U+W
SciTegic.value.DoubleValue
15.711

@<SCITEGIC>MOL_PROPERTY
Grad RMS
SciTegic.value.DoubleValue
0.000000

@<SCITEGIC>MOL_PROPERTY
U
SciTegic.value.DoubleValue
70.163

@<SCITEGIC>MOL_PROPERTY
W
SciTegic.value.DoubleValue
-54.452

@<SCITEGIC>MOL_PROPERTY
W(PB)
SciTegic.value.DoubleValue
-56.363

@<SCITEGIC>MOL_PROPERTY
W(SA)
SciTegic.value.DoubleValue
1.911

@<SCITEGIC>MOL_PROPERTY
Valence
SciTegic.value.DoubleValue
1.420

@<SCITEGIC>MOL_PROPERTY
Coulomb
SciTegic.value.DoubleValue
68.566

@<SCITEGIC>MOL_PROPERTY
VdW
SciTegic.value.DoubleValue
0.177

@<SCITEGIC>MOL_PROPERTY
VdW6
SciTegic.value.DoubleValue
-4.267

@<SCITEGIC>MOL_PROPERTY
VdW12
SciTegic.value.DoubleValue
4.445

@<SCITEGIC>MOL_PROPERTY
Bond
SciTegic.value.DoubleValue
0.146

@<SCITEGIC>MOL_PROPERTY
Angle
SciTegic.value.DoubleValue
0.581

@<SCITEGIC>MOL_PROPERTY
Pdih
SciTegic.value.DoubleValue
0.693

@<SCITEGIC>MOL_PROPERTY
Idih
SciTegic.value.DoubleValue
0.000

@<SCITEGIC>MOL_PROPERTY
Tether
SciTegic.value.DoubleValue
0.000

@<TRIPOS>MOLECULE
guest-s9_confgen4.mol2 : confsearch ligand conformer 920
          20          19           1
SMALL
USER_CHARGES
 
@<TRIPOS>ATOM
       1    C1      20.905815   21.246618   22.350749 C.3        1 MOL1        -0.2224
       2    H1      20.882682   22.335025   22.491492 H          1 MOL1         0.1052
       3    H2      21.018396   20.787525   23.341016 H          1 MOL1         0.1052
       4    H3      21.797246   21.004811   21.757474 H          1 MOL1         0.1052
       5    C2      19.618704   20.763854   21.643291 C.3        1 MOL1        -0.1209
       6    H4      19.499560   21.315262   20.700030 H          1 MOL1         0.1041
       7    H5      18.743135   21.013178   22.259231 H          1 MOL1         0.1041
       8    C3      19.628728   19.247146   21.341007 C.3        1 MOL1        -0.1274
       9    H6      18.724890   18.989753   20.773257 H          1 MOL1         0.1041
      10    H7      20.483940   19.010461   20.695018 H          1 MOL1         0.1041
      11    C4      19.682074   18.387907   22.622539 C.3        1 MOL1         0.0313
      12    H8      18.846391   18.665093   23.270126 H          1 MOL1         0.1015
      13    H9      20.610097   18.585251   23.164372 H          1 MOL1         0.1015
      14    N1      19.591938   16.889536   22.383449 N.4        1 MOL1        -0.4809
      15    H10     18.742546   16.664121   21.843598 H          1 MOL1         0.3726
      16    H11     19.468748   16.402699   23.285125 H          1 MOL1         0.3726
      17    C5      20.838364   16.365349   21.678454 C.3        1 MOL1        -0.0677
      18    H12     20.752753   15.283144   21.558178 H          1 MOL1         0.1026
      19    H13     20.925562   16.836758   20.697609 H          1 MOL1         0.1026
      20    H14     21.718011   16.599899   22.281700 H          1 MOL1         0.1026
@<TRIPOS>BOND
    1     1     2    1
    2     1     3    1
    3     1     4    1
    4     1     5    1
    5     5     6    1
    6     5     7    1
    7     5     8    1
    8     8     9    1
    9     8    10    1
   10     8    11    1
   11    11    12    1
   12    11    13    1
   13    11    14    1
   14    14    15    1
   15    14    16    1
   16    14    17    1
   17    17    18    1
   18    17    19    1
   19    17    20    1
@<TRIPOS>SUBSTRUCTURE
       1 MOL1            1 RESIDUE      1      MOL     
@<SCITEGIC>MOL_PROPERTY
VConf Rank
SciTegic.value.IntegerValue
920

@<SCITEGIC>MOL_PROPERTY
Conf_Id
SciTegic.value.IntegerValue
53

@<SCITEGIC>MOL_PROPERTY
Delta U+W
SciTegic.value.DoubleValue
0.379

@<SCITEGIC>MOL_PROPERTY
U+W
SciTegic.value.DoubleValue
15.717

@<SCITEGIC>MOL_PROPERTY
Grad RMS
SciTegic.value.DoubleValue
0.000000

@<SCITEGIC>MOL_PROPERTY
U
SciTegic.value.DoubleValue
70.163

@<SCITEGIC>MOL_PROPERTY
W
SciTegic.value.DoubleValue
-54.446

@<SCITEGIC>MOL_PROPERTY
W(PB)
SciTegic.value.DoubleValue
-56.322

@<SCITEGIC>MOL_PROPERTY
W(SA)
SciTegic.value.DoubleValue
1.876

@<SCITEGIC>MOL_PROPERTY
Valence
SciTegic.value.DoubleValue
1.420

@<SCITEGIC>MOL_PROPERTY
Coulomb
SciTegic.value.DoubleValue
68.566

@<SCITEGIC>MOL_PROPERTY
VdW
SciTegic.value.DoubleValue
0.177

@<SCITEGIC>MOL_PROPERTY
VdW6
SciTegic.value.DoubleValue
-4.267

@<SCITEGIC>MOL_PROPERTY
VdW12
SciTegic.value.DoubleValue
4.445

@<SCITEGIC>MOL_PROPERTY
Bond
SciTegic.value.DoubleValue
0.146

@<SCITEGIC>MOL_PROPERTY
Angle
SciTegic.value.DoubleValue
0.581

@<SCITEGIC>MOL_PROPERTY
Pdih
SciTegic.value.DoubleValue
0.693

@<SCITEGIC>MOL_PROPERTY
Idih
SciTegic.value.DoubleValue
0.000

@<SCITEGIC>MOL_PROPERTY
Tether
SciTegic.value.DoubleValue
0.000

@<TRIPOS>MOLECULE
guest-s9_confgen4.mol2 : confsearch ligand conformer 921
          20          19           1
SMALL
USER_CHARGES
 
@<TRIPOS>ATOM
       1    C1      21.826701   18.748951   19.773472 C.3        1 MOL1        -0.2224
       2    H1      21.563002   18.562308   18.724364 H          1 MOL1         0.1052
       3    H2      22.565979   19.560223   19.794755 H          1 MOL1         0.1052
       4    H3      22.303723   17.841766   20.166699 H          1 MOL1         0.1052
       5    C2      20.571932   19.117569   20.594226 C.3        1 MOL1        -0.1209
       6    H4      19.841095   18.301040   20.517978 H          1 MOL1         0.1041
       7    H5      20.099781   20.009084   20.157813 H          1 MOL1         0.1041
       8    C3      20.916467   19.383823   22.078520 C.3        1 MOL1        -0.1274
       9    H6      21.363610   18.487341   22.526989 H          1 MOL1         0.1041
      10    H7      21.679666   20.170977   22.138204 H          1 MOL1         0.1041
      11    C4      19.692537   19.831056   22.908363 C.3        1 MOL1         0.0313
      12    H8      19.294404   20.755820   22.483003 H          1 MOL1         0.1015
      13    H9      20.005306   20.042169   23.934083 H          1 MOL1         0.1015
      14    N1      18.547963   18.830875   22.973292 N.4        1 MOL1        -0.4809
      15    H10     18.222715   18.600175   22.023017 H          1 MOL1         0.3726
      16    H11     17.734005   19.267630   23.433664 H          1 MOL1         0.3726
      17    C5      18.955352   17.570016   23.727749 C.3        1 MOL1        -0.0677
      18    H12     19.276180   17.842098   24.735568 H          1 MOL1         0.1026
      19    H13     18.099127   16.894265   23.784043 H          1 MOL1         0.1026
      20    H14     19.774502   17.079919   23.197830 H          1 MOL1         0.1026
@<TRIPOS>BOND
    1     1     2    1
    2     1     3    1
    3     1     4    1
    4     1     5    1
    5     5     6    1
    6     5     7    1
    7     5     8    1
    8     8     9    1
    9     8    10    1
   10     8    11    1
   11    11    12    1
   12    11    13    1
   13    11    14    1
   14    14    15    1
   15    14    16    1
   16    14    17    1
   17    17    18    1
   18    17    19    1
   19    17    20    1
@<TRIPOS>SUBSTRUCTURE
       1 MOL1            1 RESIDUE      1      MOL     
@<SCITEGIC>MOL_PROPERTY
VConf Rank
SciTegic.value.IntegerValue
921

@<SCITEGIC>MOL_PROPERTY
Conf_Id
SciTegic.value.IntegerValue
49

@<SCITEGIC>MOL_PROPERTY
Delta U+W
SciTegic.value.DoubleValue
0.268

@<SCITEGIC>MOL_PROPERTY
U+W
SciTegic.value.DoubleValue
15.607

@<SCITEGIC>MOL_PROPERTY
Grad RMS
SciTegic.value.DoubleValue
0.000000

@<SCITEGIC>MOL_PROPERTY
U
SciTegic.value.DoubleValue
70.298

@<SCITEGIC>MOL_PROPERTY
W
SciTegic.value.DoubleValue
-54.692

@<SCITEGIC>MOL_PROPERTY
W(PB)
SciTegic.value.DoubleValue
-56.576

@<SCITEGIC>MOL_PROPERTY
W(SA)
SciTegic.value.DoubleValue
1.885

@<SCITEGIC>MOL_PROPERTY
Valence
SciTegic.value.DoubleValue
1.245

@<SCITEGIC>MOL_PROPERTY
Coulomb
SciTegic.value.DoubleValue
68.933

@<SCITEGIC>MOL_PROPERTY
VdW
SciTegic.value.DoubleValue
0.120

@<SCITEGIC>MOL_PROPERTY
VdW6
SciTegic.value.DoubleValue
-4.430

@<SCITEGIC>MOL_PROPERTY
VdW12
SciTegic.value.DoubleValue
4.550

@<SCITEGIC>MOL_PROPERTY
Bond
SciTegic.value.DoubleValue
0.148

@<SCITEGIC>MOL_PROPERTY
Angle
SciTegic.value.DoubleValue
0.587

@<SCITEGIC>MOL_PROPERTY
Pdih
SciTegic.value.DoubleValue
0.509

@<SCITEGIC>MOL_PROPERTY
Idih
SciTegic.value.DoubleValue
0.000

@<SCITEGIC>MOL_PROPERTY
Tether
SciTegic.value.DoubleValue
0.000

@<TRIPOS>MOLECULE
guest-s9_confgen4.mol2 : confsearch ligand conformer 922
          20          19           1
SMALL
USER_CHARGES
 
@<TRIPOS>ATOM
       1    C1      22.230694   20.209688   21.064246 C.3        1 MOL1        -0.2224
       2    H1      22.235649   21.056367   21.763018 H          1 MOL1         0.1052
       3    H2      23.160394   19.643608   21.206899 H          1 MOL1         0.1052
       4    H3      22.238034   20.615516   20.044320 H          1 MOL1         0.1052
       5    C2      20.993070   19.313286   21.285780 C.3        1 MOL1        -0.1209
       6    H4      21.001149   18.492297   20.555093 H          1 MOL1         0.1041
       7    H5      20.088327   19.905452   21.095182 H          1 MOL1         0.1041
       8    C3      20.952811   18.736854   22.720259 C.3        1 MOL1        -0.1274
       9    H6      21.911592   18.247303   22.936673 H          1 MOL1         0.1041
      10    H7      20.854072   19.554457   23.446435 H          1 MOL1         0.1041
      11    C4      19.827791   17.703348   22.954828 C.3        1 MOL1         0.0313
      12    H8      19.932432   17.316789   23.971867 H          1 MOL1         0.1015
      13    H9      19.936645   16.860504   22.267760 H          1 MOL1         0.1015
      14    N1      18.408707   18.237036   22.833837 N.4        1 MOL1        -0.4809
      15    H10     18.366338   19.219782   23.142472 H          1 MOL1         0.3726
      16    H11     17.796573   17.727864   23.490376 H          1 MOL1         0.3726
      17    C5      17.870172   18.072768   21.416218 C.3        1 MOL1        -0.0677
      18    H12     16.844365   18.445954   21.378661 H          1 MOL1         0.1026
      19    H13     18.489869   18.636276   20.717831 H          1 MOL1         0.1026
      20    H14     17.884555   17.014076   21.148540 H          1 MOL1         0.1026
@<TRIPOS>BOND
    1     1     2    1
    2     1     3    1
    3     1     4    1
    4     1     5    1
    5     5     6    1
    6     5     7    1
    7     5     8    1
    8     8     9    1
    9     8    10    1
   10     8    11    1
   11    11    12    1
   12    11    13    1
   13    11    14    1
   14    14    15    1
   15    14    16    1
   16    14    17    1
   17    17    18    1
   18    17    19    1
   19    17    20    1
@<TRIPOS>SUBSTRUCTURE
       1 MOL1            1 RESIDUE      1      MOL     
@<SCITEGIC>MOL_PROPERTY
VConf Rank
SciTegic.value.IntegerValue
922

@<SCITEGIC>MOL_PROPERTY
Conf_Id
SciTegic.value.IntegerValue
65

@<SCITEGIC>MOL_PROPERTY
Delta U+W
SciTegic.value.DoubleValue
1.775

@<SCITEGIC>MOL_PROPERTY
U+W
SciTegic.value.DoubleValue
17.114

@<SCITEGIC>MOL_PROPERTY
Grad RMS
SciTegic.value.DoubleValue
0.000000

@<SCITEGIC>MOL_PROPERTY
U
SciTegic.value.DoubleValue
71.726

@<SCITEGIC>MOL_PROPERTY
W
SciTegic.value.DoubleValue
-54.613

@<SCITEGIC>MOL_PROPERTY
W(PB)
SciTegic.value.DoubleValue
-56.495

@<SCITEGIC>MOL_PROPERTY
W(SA)
SciTegic.value.DoubleValue
1.883

@<SCITEGIC>MOL_PROPERTY
Valence
SciTegic.value.DoubleValue
2.885

@<SCITEGIC>MOL_PROPERTY
Coulomb
SciTegic.value.DoubleValue
68.822

@<SCITEGIC>MOL_PROPERTY
VdW
SciTegic.value.DoubleValue
0.019

@<SCITEGIC>MOL_PROPERTY
VdW6
SciTegic.value.DoubleValue
-4.600

@<SCITEGIC>MOL_PROPERTY
VdW12
SciTegic.value.DoubleValue
4.619

@<SCITEGIC>MOL_PROPERTY
Bond
SciTegic.value.DoubleValue
0.152

@<SCITEGIC>MOL_PROPERTY
Angle
SciTegic.value.DoubleValue
0.862

@<SCITEGIC>MOL_PROPERTY
Pdih
SciTegic.value.DoubleValue
1.871

@<SCITEGIC>MOL_PROPERTY
Idih
SciTegic.value.DoubleValue
0.000

@<SCITEGIC>MOL_PROPERTY
Tether
SciTegic.value.DoubleValue
0.000

@<TRIPOS>MOLECULE
guest-s9_confgen4.mol2 : confsearch ligand conformer 923
          20          19           1
SMALL
USER_CHARGES
 
@<TRIPOS>ATOM
       1    C1      19.822317   20.454987   20.392210 C.3        1 MOL1        -0.2224
       2    H1      19.813894   19.417112   20.036193 H          1 MOL1         0.1052
       3    H2      19.043323   20.999313   19.842794 H          1 MOL1         0.1052
       4    H3      20.790500   20.899893   20.128103 H          1 MOL1         0.1052
       5    C2      19.569732   20.537295   21.915232 C.3        1 MOL1        -0.1209
       6    H4      18.596432   20.087266   22.153495 H          1 MOL1         0.1041
       7    H5      19.494019   21.593983   22.207951 H          1 MOL1         0.1041
       8    C3      20.687067   19.866943   22.753198 C.3        1 MOL1        -0.1274
       9    H6      21.633884   20.395688   22.580767 H          1 MOL1         0.1041
      10    H7      20.462016   19.984270   23.821529 H          1 MOL1         0.1041
      11    C4      20.894632   18.370386   22.439827 C.3        1 MOL1         0.0313
      12    H8      21.716698   17.983692   23.047458 H          1 MOL1         0.1015
      13    H9      21.164690   18.248661   21.388153 H          1 MOL1         0.1015
      14    N1      19.676408   17.508948   22.712696 N.4        1 MOL1        -0.4809
      15    H10     18.874357   17.847992   22.161105 H          1 MOL1         0.3726
      16    H11     19.390567   17.599737   23.699586 H          1 MOL1         0.3726
      17    C5      19.980679   16.055691   22.375084 C.3        1 MOL1        -0.0677
      18    H12     20.812007   15.709364   22.992915 H          1 MOL1         0.1026
      19    H13     19.095454   15.447899   22.574925 H          1 MOL1         0.1026
      20    H14     20.248544   15.979995   21.319017 H          1 MOL1         0.1026
@<TRIPOS>BOND
    1     1     2    1
    2     1     3    1
    3     1     4    1
    4     1     5    1
    5     5     6    1
    6     5     7    1
    7     5     8    1
    8     8     9    1
    9     8    10    1
   10     8    11    1
   11    11    12    1
   12    11    13    1
   13    11    14    1
   14    14    15    1
   15    14    16    1
   16    14    17    1
   17    17    18    1
   18    17    19    1
   19    17    20    1
@<TRIPOS>SUBSTRUCTURE
       1 MOL1            1 RESIDUE      1      MOL     
@<SCITEGIC>MOL_PROPERTY
VConf Rank
SciTegic.value.IntegerValue
923

@<SCITEGIC>MOL_PROPERTY
Conf_Id
SciTegic.value.IntegerValue
23

@<SCITEGIC>MOL_PROPERTY
Delta U+W
SciTegic.value.DoubleValue
0.896

@<SCITEGIC>MOL_PROPERTY
U+W
SciTegic.value.DoubleValue
16.234

@<SCITEGIC>MOL_PROPERTY
Grad RMS
SciTegic.value.DoubleValue
0.000000

@<SCITEGIC>MOL_PROPERTY
U
SciTegic.value.DoubleValue
70.374

@<SCITEGIC>MOL_PROPERTY
W
SciTegic.value.DoubleValue
-54.140

@<SCITEGIC>MOL_PROPERTY
W(PB)
SciTegic.value.DoubleValue
-56.046

@<SCITEGIC>MOL_PROPERTY
W(SA)
SciTegic.value.DoubleValue
1.907

@<SCITEGIC>MOL_PROPERTY
Valence
SciTegic.value.DoubleValue
1.257

@<SCITEGIC>MOL_PROPERTY
Coulomb
SciTegic.value.DoubleValue
69.240

@<SCITEGIC>MOL_PROPERTY
VdW
SciTegic.value.DoubleValue
-0.123

@<SCITEGIC>MOL_PROPERTY
VdW6
SciTegic.value.DoubleValue
-4.336

@<SCITEGIC>MOL_PROPERTY
VdW12
SciTegic.value.DoubleValue
4.213

@<SCITEGIC>MOL_PROPERTY
Bond
SciTegic.value.DoubleValue
0.128

@<SCITEGIC>MOL_PROPERTY
Angle
SciTegic.value.DoubleValue
0.603

@<SCITEGIC>MOL_PROPERTY
Pdih
SciTegic.value.DoubleValue
0.526

@<SCITEGIC>MOL_PROPERTY
Idih
SciTegic.value.DoubleValue
0.000

@<SCITEGIC>MOL_PROPERTY
Tether
SciTegic.value.DoubleValue
0.000

@<TRIPOS>MOLECULE
guest-s9_confgen4.mol2 : confsearch ligand conformer 924
          20          19           1
SMALL
USER_CHARGES
 
@<TRIPOS>ATOM
       1    C1      21.898435   17.205890   22.119308 C.3        1 MOL1        -0.2224
       2    H1      22.856520   17.708389   22.305423 H          1 MOL1         0.1052
       3    H2      22.087091   16.124767   22.095592 H          1 MOL1         0.1052
       4    H3      21.544461   17.501527   21.123665 H          1 MOL1         0.1052
       5    C2      20.866603   17.552295   23.217259 C.3        1 MOL1        -0.1209
       6    H4      21.221500   17.155263   24.178726 H          1 MOL1         0.1041
       7    H5      19.918597   17.037841   23.009335 H          1 MOL1         0.1041
       8    C3      20.625837   19.075466   23.365513 C.3        1 MOL1        -0.1274
       9    H6      19.907236   19.253966   24.176373 H          1 MOL1         0.1041
      10    H7      21.561411   19.560255   23.674458 H          1 MOL1         0.1041
      11    C4      20.118639   19.759075   22.078502 C.3        1 MOL1         0.0313
      12    H8      20.850373   19.625753   21.278155 H          1 MOL1         0.1015
      13    H9      20.005135   20.831128   22.258384 H          1 MOL1         0.1015
      14    N1      18.784696   19.231820   21.585346 N.4        1 MOL1        -0.4809
      15    H10     18.066682   19.340401   22.317851 H          1 MOL1         0.3726
      16    H11     18.849268   18.217992   21.410779 H          1 MOL1         0.3726
      17    C5      18.371340   19.966829   20.317505 C.3        1 MOL1        -0.0677
      18    H12     19.129655   19.810353   19.547288 H          1 MOL1         0.1026
      19    H13     17.410978   19.576630   19.973385 H          1 MOL1         0.1026
      20    H14     18.279014   21.033323   20.533911 H          1 MOL1         0.1026
@<TRIPOS>BOND
    1     1     2    1
    2     1     3    1
    3     1     4    1
    4     1     5    1
    5     5     6    1
    6     5     7    1
    7     5     8    1
    8     8     9    1
    9     8    10    1
   10     8    11    1
   11    11    12    1
   12    11    13    1
   13    11    14    1
   14    14    15    1
   15    14    16    1
   16    14    17    1
   17    17    18    1
   18    17    19    1
   19    17    20    1
@<TRIPOS>SUBSTRUCTURE
       1 MOL1            1 RESIDUE      1      MOL     
@<SCITEGIC>MOL_PROPERTY
VConf Rank
SciTegic.value.IntegerValue
924

@<SCITEGIC>MOL_PROPERTY
Conf_Id
SciTegic.value.IntegerValue
24

@<SCITEGIC>MOL_PROPERTY
Delta U+W
SciTegic.value.DoubleValue
0.792

@<SCITEGIC>MOL_PROPERTY
U+W
SciTegic.value.DoubleValue
16.130

@<SCITEGIC>MOL_PROPERTY
Grad RMS
SciTegic.value.DoubleValue
0.000000

@<SCITEGIC>MOL_PROPERTY
U
SciTegic.value.DoubleValue
70.374

@<SCITEGIC>MOL_PROPERTY
W
SciTegic.value.DoubleValue
-54.243

@<SCITEGIC>MOL_PROPERTY
W(PB)
SciTegic.value.DoubleValue
-56.130

@<SCITEGIC>MOL_PROPERTY
W(SA)
SciTegic.value.DoubleValue
1.887

@<SCITEGIC>MOL_PROPERTY
Valence
SciTegic.value.DoubleValue
1.257

@<SCITEGIC>MOL_PROPERTY
Coulomb
SciTegic.value.DoubleValue
69.240

@<SCITEGIC>MOL_PROPERTY
VdW
SciTegic.value.DoubleValue
-0.123

@<SCITEGIC>MOL_PROPERTY
VdW6
SciTegic.value.DoubleValue
-4.336

@<SCITEGIC>MOL_PROPERTY
VdW12
SciTegic.value.DoubleValue
4.213

@<SCITEGIC>MOL_PROPERTY
Bond
SciTegic.value.DoubleValue
0.128

@<SCITEGIC>MOL_PROPERTY
Angle
SciTegic.value.DoubleValue
0.603

@<SCITEGIC>MOL_PROPERTY
Pdih
SciTegic.value.DoubleValue
0.526

@<SCITEGIC>MOL_PROPERTY
Idih
SciTegic.value.DoubleValue
0.000

@<SCITEGIC>MOL_PROPERTY
Tether
SciTegic.value.DoubleValue
0.000

@<TRIPOS>MOLECULE
guest-s9_confgen4.mol2 : confsearch ligand conformer 925
          20          19           1
SMALL
USER_CHARGES
 
@<TRIPOS>ATOM
       1    C1      21.438033   17.666876   23.212893 C.3        1 MOL1        -0.2224
       2    H1      21.977865   17.212114   24.053722 H          1 MOL1         0.1052
       3    H2      20.417029   17.267926   23.233867 H          1 MOL1         0.1052
       4    H3      21.929253   17.339716   22.287240 H          1 MOL1         0.1052
       5    C2      21.448742   19.207315   23.340935 C.3        1 MOL1        -0.1209
       6    H4      22.480376   19.536187   23.529724 H          1 MOL1         0.1041
       7    H5      20.868830   19.504560   24.226063 H          1 MOL1         0.1041
       8    C3      20.917193   19.958936   22.093795 C.3        1 MOL1        -0.1274
       9    H6      21.037030   21.035871   22.271753 H          1 MOL1         0.1041
      10    H7      21.535515   19.728296   21.216192 H          1 MOL1         0.1041
      11    C4      19.429819   19.696314   21.775934 C.3        1 MOL1         0.0313
      12    H8      19.048502   20.509899   21.153663 H          1 MOL1         0.1015
      13    H9      18.851510   19.679144   22.703052 H          1 MOL1         0.1015
      14    N1      19.169443   18.405335   21.023222 N.4        1 MOL1        -0.4809
      15    H10     19.559495   17.608051   21.545539 H          1 MOL1         0.3726
      16    H11     19.669968   18.413744   20.121327 H          1 MOL1         0.3726
      17    C5      17.673891   18.222950   20.803058 C.3        1 MOL1        -0.0677
      18    H12     17.169664   18.184247   21.771059 H          1 MOL1         0.1026
      19    H13     17.291033   19.063640   20.220456 H          1 MOL1         0.1026
      20    H14     17.501900   17.290651   20.260649 H          1 MOL1         0.1026
@<TRIPOS>BOND
    1     1     2    1
    2     1     3    1
    3     1     4    1
    4     1     5    1
    5     5     6    1
    6     5     7    1
    7     5     8    1
    8     8     9    1
    9     8    10    1
   10     8    11    1
   11    11    12    1
   12    11    13    1
   13    11    14    1
   14    14    15    1
   15    14    16    1
   16    14    17    1
   17    17    18    1
   18    17    19    1
   19    17    20    1
@<TRIPOS>SUBSTRUCTURE
       1 MOL1            1 RESIDUE      1      MOL     
@<SCITEGIC>MOL_PROPERTY
VConf Rank
SciTegic.value.IntegerValue
925

@<SCITEGIC>MOL_PROPERTY
Conf_Id
SciTegic.value.IntegerValue
26

@<SCITEGIC>MOL_PROPERTY
Delta U+W
SciTegic.value.DoubleValue
2.888

@<SCITEGIC>MOL_PROPERTY
U+W
SciTegic.value.DoubleValue
18.226

@<SCITEGIC>MOL_PROPERTY
Grad RMS
SciTegic.value.DoubleValue
0.000000

@<SCITEGIC>MOL_PROPERTY
U
SciTegic.value.DoubleValue
72.042

@<SCITEGIC>MOL_PROPERTY
W
SciTegic.value.DoubleValue
-53.816

@<SCITEGIC>MOL_PROPERTY
W(PB)
SciTegic.value.DoubleValue
-55.689

@<SCITEGIC>MOL_PROPERTY
W(SA)
SciTegic.value.DoubleValue
1.873

@<SCITEGIC>MOL_PROPERTY
Valence
SciTegic.value.DoubleValue
2.428

@<SCITEGIC>MOL_PROPERTY
Coulomb
SciTegic.value.DoubleValue
69.829

@<SCITEGIC>MOL_PROPERTY
VdW
SciTegic.value.DoubleValue
-0.215

@<SCITEGIC>MOL_PROPERTY
VdW6
SciTegic.value.DoubleValue
-4.563

@<SCITEGIC>MOL_PROPERTY
VdW12
SciTegic.value.DoubleValue
4.348

@<SCITEGIC>MOL_PROPERTY
Bond
SciTegic.value.DoubleValue
0.137

@<SCITEGIC>MOL_PROPERTY
Angle
SciTegic.value.DoubleValue
0.936

@<SCITEGIC>MOL_PROPERTY
Pdih
SciTegic.value.DoubleValue
1.356

@<SCITEGIC>MOL_PROPERTY
Idih
SciTegic.value.DoubleValue
0.000

@<SCITEGIC>MOL_PROPERTY
Tether
SciTegic.value.DoubleValue
0.000

@<TRIPOS>MOLECULE
guest-s9_confgen4.mol2 : confsearch ligand conformer 926
          20          19           1
SMALL
USER_CHARGES
 
@<TRIPOS>ATOM
       1    C1      19.593486   20.406603   20.555828 C.3        1 MOL1        -0.2224
       2    H1      19.676400   21.214039   19.816646 H          1 MOL1         0.1052
       3    H2      18.525728   20.194003   20.696749 H          1 MOL1         0.1052
       4    H3      20.007124   20.789101   21.496385 H          1 MOL1         0.1052
       5    C2      20.356495   19.154085   20.067485 C.3        1 MOL1        -0.1209
       6    H4      21.432695   19.373957   20.028064 H          1 MOL1         0.1041
       7    H5      20.052628   18.939639   19.033200 H          1 MOL1         0.1041
       8    C3      20.115847   17.882476   20.920677 C.3        1 MOL1        -0.1274
       9    H6      19.052674   17.608304   20.906594 H          1 MOL1         0.1041
      10    H7      20.647886   17.049201   20.442760 H          1 MOL1         0.1041
      11    C4      20.615250   17.987084   22.377364 C.3        1 MOL1         0.0313
      12    H8      21.581168   18.497708   22.400827 H          1 MOL1         0.1015
      13    H9      20.754020   16.980725   22.780512 H          1 MOL1         0.1015
      14    N1      19.666243   18.710873   23.313588 N.4        1 MOL1        -0.4809
      15    H10     18.757861   18.223113   23.344199 H          1 MOL1         0.3726
      16    H11     19.459944   19.651426   22.948318 H          1 MOL1         0.3726
      17    C5      20.273873   18.797427   24.707039 C.3        1 MOL1        -0.0677
      18    H12     21.217183   19.345352   24.654962 H          1 MOL1         0.1026
      19    H13     19.580320   19.320259   25.369310 H          1 MOL1         0.1026
      20    H14     20.453121   17.788378   25.084471 H          1 MOL1         0.1026
@<TRIPOS>BOND
    1     1     2    1
    2     1     3    1
    3     1     4    1
    4     1     5    1
    5     5     6    1
    6     5     7    1
    7     5     8    1
    8     8     9    1
    9     8    10    1
   10     8    11    1
   11    11    12    1
   12    11    13    1
   13    11    14    1
   14    14    15    1
   15    14    16    1
   16    14    17    1
   17    17    18    1
   18    17    19    1
   19    17    20    1
@<TRIPOS>SUBSTRUCTURE
       1 MOL1            1 RESIDUE      1      MOL     
@<SCITEGIC>MOL_PROPERTY
VConf Rank
SciTegic.value.IntegerValue
926

@<SCITEGIC>MOL_PROPERTY
Conf_Id
SciTegic.value.IntegerValue
5

@<SCITEGIC>MOL_PROPERTY
Delta U+W
SciTegic.value.DoubleValue
2.950

@<SCITEGIC>MOL_PROPERTY
U+W
SciTegic.value.DoubleValue
18.289

@<SCITEGIC>MOL_PROPERTY
Grad RMS
SciTegic.value.DoubleValue
0.000000

@<SCITEGIC>MOL_PROPERTY
U
SciTegic.value.DoubleValue
72.042

@<SCITEGIC>MOL_PROPERTY
W
SciTegic.value.DoubleValue
-53.753

@<SCITEGIC>MOL_PROPERTY
W(PB)
SciTegic.value.DoubleValue
-55.644

@<SCITEGIC>MOL_PROPERTY
W(SA)
SciTegic.value.DoubleValue
1.891

@<SCITEGIC>MOL_PROPERTY
Valence
SciTegic.value.DoubleValue
2.428

@<SCITEGIC>MOL_PROPERTY
Coulomb
SciTegic.value.DoubleValue
69.829

@<SCITEGIC>MOL_PROPERTY
VdW
SciTegic.value.DoubleValue
-0.215

@<SCITEGIC>MOL_PROPERTY
VdW6
SciTegic.value.DoubleValue
-4.563

@<SCITEGIC>MOL_PROPERTY
VdW12
SciTegic.value.DoubleValue
4.348

@<SCITEGIC>MOL_PROPERTY
Bond
SciTegic.value.DoubleValue
0.137

@<SCITEGIC>MOL_PROPERTY
Angle
SciTegic.value.DoubleValue
0.936

@<SCITEGIC>MOL_PROPERTY
Pdih
SciTegic.value.DoubleValue
1.356

@<SCITEGIC>MOL_PROPERTY
Idih
SciTegic.value.DoubleValue
0.000

@<SCITEGIC>MOL_PROPERTY
Tether
SciTegic.value.DoubleValue
0.000

@<TRIPOS>MOLECULE
guest-s9_confgen4.mol2 : confsearch ligand conformer 927
          20          19           1
SMALL
USER_CHARGES
 
@<TRIPOS>ATOM
       1    C1      17.952132   19.864833   22.681437 C.3        1 MOL1        -0.2224
       2    H1      18.080331   20.737185   23.335368 H          1 MOL1         0.1052
       3    H2      18.147983   20.179679   21.648824 H          1 MOL1         0.1052
       4    H3      16.900498   19.555492   22.739241 H          1 MOL1         0.1052
       5    C2      18.882303   18.707104   23.111071 C.3        1 MOL1        -0.1209
       6    H4      18.733815   17.845626   22.445812 H          1 MOL1         0.1041
       7    H5      18.590248   18.368177   24.114927 H          1 MOL1         0.1041
       8    C3      20.378428   19.107482   23.135676 C.3        1 MOL1        -0.1274
       9    H6      20.526264   19.905429   23.875243 H          1 MOL1         0.1041
      10    H7      20.977312   18.257079   23.486254 H          1 MOL1         0.1041
      11    C4      20.921710   19.593825   21.772648 C.3        1 MOL1         0.0313
      12    H8      21.978640   19.853451   21.872211 H          1 MOL1         0.1015
      13    H9      20.382707   20.497199   21.476893 H          1 MOL1         0.1015
      14    N1      20.796506   18.595424   20.632103 N.4        1 MOL1        -0.4809
      15    H10     21.051926   19.052327   19.742690 H          1 MOL1         0.3726
      16    H11     19.811699   18.314958   20.515492 H          1 MOL1         0.3726
      17    C5      21.683342   17.376932   20.863233 C.3        1 MOL1        -0.0677
      18    H12     21.365204   16.865381   21.773779 H          1 MOL1         0.1026
      19    H13     21.590847   16.700059   20.011063 H          1 MOL1         0.1026
      20    H14     22.721090   17.701791   20.964135 H          1 MOL1         0.1026
@<TRIPOS>BOND
    1     1     2    1
    2     1     3    1
    3     1     4    1
    4     1     5    1
    5     5     6    1
    6     5     7    1
    7     5     8    1
    8     8     9    1
    9     8    10    1
   10     8    11    1
   11    11    12    1
   12    11    13    1
   13    11    14    1
   14    14    15    1
   15    14    16    1
   16    14    17    1
   17    17    18    1
   18    17    19    1
   19    17    20    1
@<TRIPOS>SUBSTRUCTURE
       1 MOL1            1 RESIDUE      1      MOL     
@<SCITEGIC>MOL_PROPERTY
VConf Rank
SciTegic.value.IntegerValue
927

@<SCITEGIC>MOL_PROPERTY
Conf_Id
SciTegic.value.IntegerValue
52

@<SCITEGIC>MOL_PROPERTY
Delta U+W
SciTegic.value.DoubleValue
0.784

@<SCITEGIC>MOL_PROPERTY
U+W
SciTegic.value.DoubleValue
16.122

@<SCITEGIC>MOL_PROPERTY
Grad RMS
SciTegic.value.DoubleValue
0.000000

@<SCITEGIC>MOL_PROPERTY
U
SciTegic.value.DoubleValue
70.777

@<SCITEGIC>MOL_PROPERTY
W
SciTegic.value.DoubleValue
-54.655

@<SCITEGIC>MOL_PROPERTY
W(PB)
SciTegic.value.DoubleValue
-56.491

@<SCITEGIC>MOL_PROPERTY
W(SA)
SciTegic.value.DoubleValue
1.836

@<SCITEGIC>MOL_PROPERTY
Valence
SciTegic.value.DoubleValue
1.529

@<SCITEGIC>MOL_PROPERTY
Coulomb
SciTegic.value.DoubleValue
69.166

@<SCITEGIC>MOL_PROPERTY
VdW
SciTegic.value.DoubleValue
0.082

@<SCITEGIC>MOL_PROPERTY
VdW6
SciTegic.value.DoubleValue
-5.166

@<SCITEGIC>MOL_PROPERTY
VdW12
SciTegic.value.DoubleValue
5.248

@<SCITEGIC>MOL_PROPERTY
Bond
SciTegic.value.DoubleValue
0.171

@<SCITEGIC>MOL_PROPERTY
Angle
SciTegic.value.DoubleValue
0.752

@<SCITEGIC>MOL_PROPERTY
Pdih
SciTegic.value.DoubleValue
0.605

@<SCITEGIC>MOL_PROPERTY
Idih
SciTegic.value.DoubleValue
0.000

@<SCITEGIC>MOL_PROPERTY
Tether
SciTegic.value.DoubleValue
0.000

@<TRIPOS>MOLECULE
guest-s9_confgen4.mol2 : confsearch ligand conformer 928
          20          19           1
SMALL
USER_CHARGES
 
@<TRIPOS>ATOM
       1    C1      18.233956   18.418120   21.069858 C.3        1 MOL1        -0.2224
       2    H1      17.236148   18.106964   20.734104 H          1 MOL1         0.1052
       3    H2      18.200896   19.504883   21.207721 H          1 MOL1         0.1052
       4    H3      18.943689   18.183540   20.265770 H          1 MOL1         0.1052
       5    C2      18.608861   17.689480   22.380543 C.3        1 MOL1        -0.1209
       6    H4      18.401507   16.617432   22.255077 H          1 MOL1         0.1041
       7    H5      17.952052   18.032384   23.192353 H          1 MOL1         0.1041
       8    C3      20.091409   17.851333   22.803247 C.3        1 MOL1        -0.1274
       9    H6      20.260189   17.219826   23.685459 H          1 MOL1         0.1041
      10    H7      20.753947   17.454967   22.023607 H          1 MOL1         0.1041
      11    C4      20.499481   19.295136   23.178029 C.3        1 MOL1         0.0313
      12    H8      21.420024   19.267355   23.766460 H          1 MOL1         0.1015
      13    H9      19.718211   19.735711   23.802512 H          1 MOL1         0.1015
      14    N1      20.748800   20.235774   22.009461 N.4        1 MOL1        -0.4809
      15    H10     20.824710   21.204870   22.356232 H          1 MOL1         0.3726
      16    H11     19.935890   20.237363   21.377784 H          1 MOL1         0.3726
      17    C5      22.018096   19.855951   21.254911 C.3        1 MOL1        -0.0677
      18    H12     22.865307   19.876909   21.943704 H          1 MOL1         0.1026
      19    H13     21.905906   18.853987   20.836466 H          1 MOL1         0.1026
      20    H14     22.182640   20.573304   20.447914 H          1 MOL1         0.1026
@<TRIPOS>BOND
    1     1     2    1
    2     1     3    1
    3     1     4    1
    4     1     5    1
    5     5     6    1
    6     5     7    1
    7     5     8    1
    8     8     9    1
    9     8    10    1
   10     8    11    1
   11    11    12    1
   12    11    13    1
   13    11    14    1
   14    14    15    1
   15    14    16    1
   16    14    17    1
   17    17    18    1
   18    17    19    1
   19    17    20    1
@<TRIPOS>SUBSTRUCTURE
       1 MOL1            1 RESIDUE      1      MOL     
@<SCITEGIC>MOL_PROPERTY
VConf Rank
SciTegic.value.IntegerValue
928

@<SCITEGIC>MOL_PROPERTY
Conf_Id
SciTegic.value.IntegerValue
55

@<SCITEGIC>MOL_PROPERTY
Delta U+W
SciTegic.value.DoubleValue
2.745

@<SCITEGIC>MOL_PROPERTY
U+W
SciTegic.value.DoubleValue
18.083

@<SCITEGIC>MOL_PROPERTY
Grad RMS
SciTegic.value.DoubleValue
0.000000

@<SCITEGIC>MOL_PROPERTY
U
SciTegic.value.DoubleValue
72.490

@<SCITEGIC>MOL_PROPERTY
W
SciTegic.value.DoubleValue
-54.407

@<SCITEGIC>MOL_PROPERTY
W(PB)
SciTegic.value.DoubleValue
-56.269

@<SCITEGIC>MOL_PROPERTY
W(SA)
SciTegic.value.DoubleValue
1.861

@<SCITEGIC>MOL_PROPERTY
Valence
SciTegic.value.DoubleValue
2.738

@<SCITEGIC>MOL_PROPERTY
Coulomb
SciTegic.value.DoubleValue
69.795

@<SCITEGIC>MOL_PROPERTY
VdW
SciTegic.value.DoubleValue
-0.043

@<SCITEGIC>MOL_PROPERTY
VdW6
SciTegic.value.DoubleValue
-5.333

@<SCITEGIC>MOL_PROPERTY
VdW12
SciTegic.value.DoubleValue
5.290

@<SCITEGIC>MOL_PROPERTY
Bond
SciTegic.value.DoubleValue
0.182

@<SCITEGIC>MOL_PROPERTY
Angle
SciTegic.value.DoubleValue
1.135

@<SCITEGIC>MOL_PROPERTY
Pdih
SciTegic.value.DoubleValue
1.422

@<SCITEGIC>MOL_PROPERTY
Idih
SciTegic.value.DoubleValue
0.000

@<SCITEGIC>MOL_PROPERTY
Tether
SciTegic.value.DoubleValue
0.000

@<TRIPOS>MOLECULE
guest-s9_confgen4.mol2 : confsearch ligand conformer 929
          20          19           1
SMALL
USER_CHARGES
 
@<TRIPOS>ATOM
       1    C1      21.827256   18.103856   21.391921 C.3        1 MOL1        -0.2224
       2    H1      22.872767   17.843062   21.182014 H          1 MOL1         0.1052
       3    H2      21.231930   17.185257   21.307835 H          1 MOL1         0.1052
       4    H3      21.509390   18.805005   20.611854 H          1 MOL1         0.1052
       5    C2      21.703672   18.726507   22.801319 C.3        1 MOL1        -0.1209
       6    H4      22.213900   19.699837   22.819030 H          1 MOL1         0.1041
       7    H5      22.244672   18.087558   23.513421 H          1 MOL1         0.1041
       8    C3      20.246867   18.890125   23.305086 C.3        1 MOL1        -0.1274
       9    H6      19.748262   17.913703   23.348615 H          1 MOL1         0.1041
      10    H7      20.288141   19.248809   24.342019 H          1 MOL1         0.1041
      11    C4      19.395938   19.897052   22.496648 C.3        1 MOL1         0.0313
      12    H8      19.992979   20.791059   22.299764 H          1 MOL1         0.1015
      13    H9      18.531793   20.198578   23.093940 H          1 MOL1         0.1015
      14    N1      18.860320   19.391197   21.166336 N.4        1 MOL1        -0.4809
      15    H10     19.631060   19.020323   20.593405 H          1 MOL1         0.3726
      16    H11     18.476414   20.181871   20.625401 H          1 MOL1         0.3726
      17    C5      17.781954   18.332876   21.370793 C.3        1 MOL1        -0.0677
      18    H12     18.210950   17.472143   21.887243 H          1 MOL1         0.1026
      19    H13     16.971371   18.756591   21.967501 H          1 MOL1         0.1026
      20    H14     17.397518   18.021244   20.397137 H          1 MOL1         0.1026
@<TRIPOS>BOND
    1     1     2    1
    2     1     3    1
    3     1     4    1
    4     1     5    1
    5     5     6    1
    6     5     7    1
    7     5     8    1
    8     8     9    1
    9     8    10    1
   10     8    11    1
   11    11    12    1
   12    11    13    1
   13    11    14    1
   14    14    15    1
   15    14    16    1
   16    14    17    1
   17    17    18    1
   18    17    19    1
   19    17    20    1
@<TRIPOS>SUBSTRUCTURE
       1 MOL1            1 RESIDUE      1      MOL     
@<SCITEGIC>MOL_PROPERTY
VConf Rank
SciTegic.value.IntegerValue
929

@<SCITEGIC>MOL_PROPERTY
Conf_Id
SciTegic.value.IntegerValue
76

@<SCITEGIC>MOL_PROPERTY
Delta U+W
SciTegic.value.DoubleValue
2.799

@<SCITEGIC>MOL_PROPERTY
U+W
SciTegic.value.DoubleValue
18.137

@<SCITEGIC>MOL_PROPERTY
Grad RMS
SciTegic.value.DoubleValue
0.000000

@<SCITEGIC>MOL_PROPERTY
U
SciTegic.value.DoubleValue
72.490

@<SCITEGIC>MOL_PROPERTY
W
SciTegic.value.DoubleValue
-54.353

@<SCITEGIC>MOL_PROPERTY
W(PB)
SciTegic.value.DoubleValue
-56.201

@<SCITEGIC>MOL_PROPERTY
W(SA)
SciTegic.value.DoubleValue
1.848

@<SCITEGIC>MOL_PROPERTY
Valence
SciTegic.value.DoubleValue
2.738

@<SCITEGIC>MOL_PROPERTY
Coulomb
SciTegic.value.DoubleValue
69.795

@<SCITEGIC>MOL_PROPERTY
VdW
SciTegic.value.DoubleValue
-0.043

@<SCITEGIC>MOL_PROPERTY
VdW6
SciTegic.value.DoubleValue
-5.334

@<SCITEGIC>MOL_PROPERTY
VdW12
SciTegic.value.DoubleValue
5.290

@<SCITEGIC>MOL_PROPERTY
Bond
SciTegic.value.DoubleValue
0.182

@<SCITEGIC>MOL_PROPERTY
Angle
SciTegic.value.DoubleValue
1.135

@<SCITEGIC>MOL_PROPERTY
Pdih
SciTegic.value.DoubleValue
1.421

@<SCITEGIC>MOL_PROPERTY
Idih
SciTegic.value.DoubleValue
0.000

@<SCITEGIC>MOL_PROPERTY
Tether
SciTegic.value.DoubleValue
0.000

@<TRIPOS>MOLECULE
guest-s9_confgen4.mol2 : confsearch ligand conformer 930
          20          19           1
SMALL
USER_CHARGES
 
@<TRIPOS>ATOM
       1    C1      19.980661   19.289251   24.059988 C.3        1 MOL1        -0.2224
       2    H1      19.044000   19.405960   23.501334 H          1 MOL1         0.1052
       3    H2      19.847955   18.472313   24.781065 H          1 MOL1         0.1052
       4    H3      20.144993   20.213680   24.628559 H          1 MOL1         0.1052
       5    C2      21.176308   19.010606   23.120122 C.3        1 MOL1        -0.1209
       6    H4      22.096708   18.974035   23.719588 H          1 MOL1         0.1041
       7    H5      21.309772   19.845981   22.420768 H          1 MOL1         0.1041
       8    C3      21.039434   17.679231   22.341565 C.3        1 MOL1        -0.1274
       9    H6      21.937179   17.522385   21.729306 H          1 MOL1         0.1041
      10    H7      21.019305   16.851587   23.062846 H          1 MOL1         0.1041
      11    C4      19.787207   17.564504   21.440761 C.3        1 MOL1         0.0313
      12    H8      18.877964   17.726007   22.024508 H          1 MOL1         0.1015
      13    H9      19.750342   16.544796   21.048965 H          1 MOL1         0.1015
      14    N1      19.757414   18.491705   20.234796 N.4        1 MOL1        -0.4809
      15    H10     19.245509   18.031706   19.465930 H          1 MOL1         0.3726
      16    H11     20.710117   18.634051   19.867727 H          1 MOL1         0.3726
      17    C5      19.082670   19.819864   20.560316 C.3        1 MOL1        -0.0677
      18    H12     19.057954   20.437595   19.659914 H          1 MOL1         0.1026
      19    H13     18.063040   19.629076   20.901703 H          1 MOL1         0.1026
      20    H14     19.641439   20.335762   21.341756 H          1 MOL1         0.1026
@<TRIPOS>BOND
    1     1     2    1
    2     1     3    1
    3     1     4    1
    4     1     5    1
    5     5     6    1
    6     5     7    1
    7     5     8    1
    8     8     9    1
    9     8    10    1
   10     8    11    1
   11    11    12    1
   12    11    13    1
   13    11    14    1
   14    14    15    1
   15    14    16    1
   16    14    17    1
   17    17    18    1
   18    17    19    1
   19    17    20    1
@<TRIPOS>SUBSTRUCTURE
       1 MOL1            1 RESIDUE      1      MOL     
@<SCITEGIC>MOL_PROPERTY
VConf Rank
SciTegic.value.IntegerValue
930

@<SCITEGIC>MOL_PROPERTY
Conf_Id
SciTegic.value.IntegerValue
60

@<SCITEGIC>MOL_PROPERTY
Delta U+W
SciTegic.value.DoubleValue
1.788

@<SCITEGIC>MOL_PROPERTY
U+W
SciTegic.value.DoubleValue
17.127

@<SCITEGIC>MOL_PROPERTY
Grad RMS
SciTegic.value.DoubleValue
0.000000

@<SCITEGIC>MOL_PROPERTY
U
SciTegic.value.DoubleValue
72.122

@<SCITEGIC>MOL_PROPERTY
W
SciTegic.value.DoubleValue
-54.995

@<SCITEGIC>MOL_PROPERTY
W(PB)
SciTegic.value.DoubleValue
-56.810

@<SCITEGIC>MOL_PROPERTY
W(SA)
SciTegic.value.DoubleValue
1.815

@<SCITEGIC>MOL_PROPERTY
Valence
SciTegic.value.DoubleValue
3.197

@<SCITEGIC>MOL_PROPERTY
Coulomb
SciTegic.value.DoubleValue
69.115

@<SCITEGIC>MOL_PROPERTY
VdW
SciTegic.value.DoubleValue
-0.190

@<SCITEGIC>MOL_PROPERTY
VdW6
SciTegic.value.DoubleValue
-5.585

@<SCITEGIC>MOL_PROPERTY
VdW12
SciTegic.value.DoubleValue
5.395

@<SCITEGIC>MOL_PROPERTY
Bond
SciTegic.value.DoubleValue
0.177

@<SCITEGIC>MOL_PROPERTY
Angle
SciTegic.value.DoubleValue
1.207

@<SCITEGIC>MOL_PROPERTY
Pdih
SciTegic.value.DoubleValue
1.813

@<SCITEGIC>MOL_PROPERTY
Idih
SciTegic.value.DoubleValue
0.000

@<SCITEGIC>MOL_PROPERTY
Tether
SciTegic.value.DoubleValue
0.000

@<TRIPOS>MOLECULE
guest-s9_confgen4.mol2 : confsearch ligand conformer 931
          20          19           1
SMALL
USER_CHARGES
 
@<TRIPOS>ATOM
       1    C1      21.829461   17.713770   22.769590 C.3        1 MOL1        -0.2224
       2    H1      22.858126   17.524296   22.436736 H          1 MOL1         0.1052
       3    H2      21.734373   17.333417   23.794891 H          1 MOL1         0.1052
       4    H3      21.160158   17.129705   22.126199 H          1 MOL1         0.1052
       5    C2      21.508565   19.224938   22.706696 C.3        1 MOL1        -0.1209
       6    H4      21.629967   19.594525   21.680329 H          1 MOL1         0.1041
       7    H5      22.249292   19.769431   23.308929 H          1 MOL1         0.1041
       8    C3      20.093603   19.567821   23.233730 C.3        1 MOL1        -0.1274
       9    H6      20.036886   19.288006   24.293981 H          1 MOL1         0.1041
      10    H7      19.947688   20.655525   23.201861 H          1 MOL1         0.1041
      11    C4      18.925025   18.879323   22.490042 C.3        1 MOL1         0.0313
      12    H8      18.003663   19.108749   23.031450 H          1 MOL1         0.1015
      13    H9      19.050456   17.794078   22.498666 H          1 MOL1         0.1015
      14    N1      18.704559   19.328155   21.053071 N.4        1 MOL1        -0.4809
      15    H10     18.932725   20.328164   20.950259 H          1 MOL1         0.3726
      16    H11     17.699611   19.263357   20.827947 H          1 MOL1         0.3726
      17    C5      19.493801   18.473465   20.067248 C.3        1 MOL1        -0.0677
      18    H12     19.191163   17.429851   20.176191 H          1 MOL1         0.1026
      19    H13     19.280883   18.812453   19.051040 H          1 MOL1         0.1026
      20    H14     20.561277   18.569477   20.267993 H          1 MOL1         0.1026
@<TRIPOS>BOND
    1     1     2    1
    2     1     3    1
    3     1     4    1
    4     1     5    1
    5     5     6    1
    6     5     7    1
    7     5     8    1
    8     8     9    1
    9     8    10    1
   10     8    11    1
   11    11    12    1
   12    11    13    1
   13    11    14    1
   14    14    15    1
   15    14    16    1
   16    14    17    1
   17    17    18    1
   18    17    19    1
   19    17    20    1
@<TRIPOS>SUBSTRUCTURE
       1 MOL1            1 RESIDUE      1      MOL     
@<SCITEGIC>MOL_PROPERTY
VConf Rank
SciTegic.value.IntegerValue
931

@<SCITEGIC>MOL_PROPERTY
Conf_Id
SciTegic.value.IntegerValue
54

@<SCITEGIC>MOL_PROPERTY
Delta U+W
SciTegic.value.DoubleValue
1.880

@<SCITEGIC>MOL_PROPERTY
U+W
SciTegic.value.DoubleValue
17.218

@<SCITEGIC>MOL_PROPERTY
Grad RMS
SciTegic.value.DoubleValue
0.000000

@<SCITEGIC>MOL_PROPERTY
U
SciTegic.value.DoubleValue
72.122

@<SCITEGIC>MOL_PROPERTY
W
SciTegic.value.DoubleValue
-54.903

@<SCITEGIC>MOL_PROPERTY
W(PB)
SciTegic.value.DoubleValue
-56.724

@<SCITEGIC>MOL_PROPERTY
W(SA)
SciTegic.value.DoubleValue
1.821

@<SCITEGIC>MOL_PROPERTY
Valence
SciTegic.value.DoubleValue
3.197

@<SCITEGIC>MOL_PROPERTY
Coulomb
SciTegic.value.DoubleValue
69.115

@<SCITEGIC>MOL_PROPERTY
VdW
SciTegic.value.DoubleValue
-0.190

@<SCITEGIC>MOL_PROPERTY
VdW6
SciTegic.value.DoubleValue
-5.585

@<SCITEGIC>MOL_PROPERTY
VdW12
SciTegic.value.DoubleValue
5.395

@<SCITEGIC>MOL_PROPERTY
Bond
SciTegic.value.DoubleValue
0.177

@<SCITEGIC>MOL_PROPERTY
Angle
SciTegic.value.DoubleValue
1.207

@<SCITEGIC>MOL_PROPERTY
Pdih
SciTegic.value.DoubleValue
1.813

@<SCITEGIC>MOL_PROPERTY
Idih
SciTegic.value.DoubleValue
0.000

@<SCITEGIC>MOL_PROPERTY
Tether
SciTegic.value.DoubleValue
0.000

@<TRIPOS>MOLECULE
guest-s9_confgen4.mol2 : confsearch ligand conformer 932
          20          19           1
SMALL
USER_CHARGES
 
@<TRIPOS>ATOM
       1    C1      22.655647   20.273876   20.821392 C.3        1 MOL1        -0.2224
       2    H1      23.395412   19.758588   21.447814 H          1 MOL1         0.1052
       3    H2      23.100599   20.421946   19.828861 H          1 MOL1         0.1052
       4    H3      22.469456   21.264074   21.257302 H          1 MOL1         0.1052
       5    C2      21.349307   19.457245   20.717373 C.3        1 MOL1        -0.1209
       6    H4      21.561763   18.487025   20.246324 H          1 MOL1         0.1041
       7    H5      20.643069   19.980704   20.057394 H          1 MOL1         0.1041
       8    C3      20.700214   19.233012   22.100904 C.3        1 MOL1        -0.1274
       9    H6      21.405065   18.706947   22.758480 H          1 MOL1         0.1041
      10    H7      20.485237   20.202702   22.569362 H          1 MOL1         0.1041
      11    C4      19.398263   18.418196   21.988739 C.3        1 MOL1         0.0313
      12    H8      19.611283   17.446089   21.536944 H          1 MOL1         0.1015
      13    H9      18.688471   18.946711   21.347370 H          1 MOL1         0.1015
      14    N1      18.724639   18.172711   23.324655 N.4        1 MOL1        -0.4809
      15    H10     18.513647   19.069957   23.787895 H          1 MOL1         0.3726
      16    H11     19.368025   17.680538   23.963384 H          1 MOL1         0.3726
      17    C5      17.450289   17.363636   23.123148 C.3        1 MOL1        -0.0677
      18    H12     17.701356   16.405145   22.663727 H          1 MOL1         0.1026
      19    H13     16.975842   17.194228   24.092277 H          1 MOL1         0.1026
      20    H14     16.770731   17.918520   22.472676 H          1 MOL1         0.1026
@<TRIPOS>BOND
    1     1     2    1
    2     1     3    1
    3     1     4    1
    4     1     5    1
    5     5     6    1
    6     5     7    1
    7     5     8    1
    8     8     9    1
    9     8    10    1
   10     8    11    1
   11    11    12    1
   12    11    13    1
   13    11    14    1
   14    14    15    1
   15    14    16    1
   16    14    17    1
   17    17    18    1
   18    17    19    1
   19    17    20    1
@<TRIPOS>SUBSTRUCTURE
       1 MOL1            1 RESIDUE      1      MOL     
@<SCITEGIC>MOL_PROPERTY
VConf Rank
SciTegic.value.IntegerValue
932

@<SCITEGIC>MOL_PROPERTY
Conf_Id
SciTegic.value.IntegerValue
67

@<SCITEGIC>MOL_PROPERTY
Delta U+W
SciTegic.value.DoubleValue
0.000

@<SCITEGIC>MOL_PROPERTY
U+W
SciTegic.value.DoubleValue
15.338

@<SCITEGIC>MOL_PROPERTY
Grad RMS
SciTegic.value.DoubleValue
0.000000

@<SCITEGIC>MOL_PROPERTY
U
SciTegic.value.DoubleValue
69.277

@<SCITEGIC>MOL_PROPERTY
W
SciTegic.value.DoubleValue
-53.939

@<SCITEGIC>MOL_PROPERTY
W(PB)
SciTegic.value.DoubleValue
-55.889

@<SCITEGIC>MOL_PROPERTY
W(SA)
SciTegic.value.DoubleValue
1.950

@<SCITEGIC>MOL_PROPERTY
Valence
SciTegic.value.DoubleValue
0.846

@<SCITEGIC>MOL_PROPERTY
Coulomb
SciTegic.value.DoubleValue
68.557

@<SCITEGIC>MOL_PROPERTY
VdW
SciTegic.value.DoubleValue
-0.127

@<SCITEGIC>MOL_PROPERTY
VdW6
SciTegic.value.DoubleValue
-3.008

@<SCITEGIC>MOL_PROPERTY
VdW12
SciTegic.value.DoubleValue
2.882

@<SCITEGIC>MOL_PROPERTY
Bond
SciTegic.value.DoubleValue
0.088

@<SCITEGIC>MOL_PROPERTY
Angle
SciTegic.value.DoubleValue
0.332

@<SCITEGIC>MOL_PROPERTY
Pdih
SciTegic.value.DoubleValue
0.426

@<SCITEGIC>MOL_PROPERTY
Idih
SciTegic.value.DoubleValue
0.000

@<SCITEGIC>MOL_PROPERTY
Tether
SciTegic.value.DoubleValue
0.000

@<TRIPOS>MOLECULE
guest-s9_confgen4.mol2 : confsearch ligand conformer 933
          20          19           1
SMALL
USER_CHARGES
 
@<TRIPOS>ATOM
       1    C1      17.610460   19.069656   23.686837 C.3        1 MOL1        -0.2224
       2    H1      17.015236   19.324421   22.800285 H          1 MOL1         0.1052
       3    H2      16.976124   18.476681   24.358416 H          1 MOL1         0.1052
       4    H3      17.868228   20.002640   24.204781 H          1 MOL1         0.1052
       5    C2      18.879400   18.280866   23.297128 C.3        1 MOL1        -0.1209
       6    H4      18.588810   17.338011   22.812456 H          1 MOL1         0.1041
       7    H5      19.434764   18.010447   24.206387 H          1 MOL1         0.1041
       8    C3      19.792360   19.091909   22.351399 C.3        1 MOL1        -0.1274
       9    H6      19.233772   19.359638   21.445279 H          1 MOL1         0.1041
      10    H7      20.085737   20.031544   22.837854 H          1 MOL1         0.1041
      11    C4      21.057634   18.296361   21.969091 C.3        1 MOL1         0.0313
      12    H8      20.775736   17.382127   21.440800 H          1 MOL1         0.1015
      13    H9      21.585727   18.009893   22.882181 H          1 MOL1         0.1015
      14    N1      22.043656   19.056281   21.096711 N.4        1 MOL1        -0.4809
      15    H10     22.923946   18.522183   21.025197 H          1 MOL1         0.3726
      16    H11     22.309944   19.944396   21.548504 H          1 MOL1         0.3726
      17    C5      21.474994   19.304939   19.703762 C.3        1 MOL1        -0.0677
      18    H12     20.580887   19.926432   19.782533 H          1 MOL1         0.1026
      19    H13     22.225000   19.817856   19.097645 H          1 MOL1         0.1026
      20    H14     21.221520   18.347866   19.242817 H          1 MOL1         0.1026
@<TRIPOS>BOND
    1     1     2    1
    2     1     3    1
    3     1     4    1
    4     1     5    1
    5     5     6    1
    6     5     7    1
    7     5     8    1
    8     8     9    1
    9     8    10    1
   10     8    11    1
   11    11    12    1
   12    11    13    1
   13    11    14    1
   14    14    15    1
   15    14    16    1
   16    14    17    1
   17    17    18    1
   18    17    19    1
   19    17    20    1
@<TRIPOS>SUBSTRUCTURE
       1 MOL1            1 RESIDUE      1      MOL     
@<SCITEGIC>MOL_PROPERTY
VConf Rank
SciTegic.value.IntegerValue
933

@<SCITEGIC>MOL_PROPERTY
Conf_Id
SciTegic.value.IntegerValue
37

@<SCITEGIC>MOL_PROPERTY
Delta U+W
SciTegic.value.DoubleValue
-0.021

@<SCITEGIC>MOL_PROPERTY
U+W
SciTegic.value.DoubleValue
15.318

@<SCITEGIC>MOL_PROPERTY
Grad RMS
SciTegic.value.DoubleValue
0.000000

@<SCITEGIC>MOL_PROPERTY
U
SciTegic.value.DoubleValue
69.657

@<SCITEGIC>MOL_PROPERTY
W
SciTegic.value.DoubleValue
-54.340

@<SCITEGIC>MOL_PROPERTY
W(PB)
SciTegic.value.DoubleValue
-56.238

@<SCITEGIC>MOL_PROPERTY
W(SA)
SciTegic.value.DoubleValue
1.899

@<SCITEGIC>MOL_PROPERTY
Valence
SciTegic.value.DoubleValue
1.137

@<SCITEGIC>MOL_PROPERTY
Coulomb
SciTegic.value.DoubleValue
68.383

@<SCITEGIC>MOL_PROPERTY
VdW
SciTegic.value.DoubleValue
0.138

@<SCITEGIC>MOL_PROPERTY
VdW6
SciTegic.value.DoubleValue
-3.703

@<SCITEGIC>MOL_PROPERTY
VdW12
SciTegic.value.DoubleValue
3.841

@<SCITEGIC>MOL_PROPERTY
Bond
SciTegic.value.DoubleValue
0.125

@<SCITEGIC>MOL_PROPERTY
Angle
SciTegic.value.DoubleValue
0.468

@<SCITEGIC>MOL_PROPERTY
Pdih
SciTegic.value.DoubleValue
0.543

@<SCITEGIC>MOL_PROPERTY
Idih
SciTegic.value.DoubleValue
0.000

@<SCITEGIC>MOL_PROPERTY
Tether
SciTegic.value.DoubleValue
0.000

@<TRIPOS>MOLECULE
guest-s9_confgen4.mol2 : confsearch ligand conformer 934
          20          19           1
SMALL
USER_CHARGES
 
@<TRIPOS>ATOM
       1    C1      19.076907   16.039645   21.170938 C.3        1 MOL1        -0.2224
       2    H1      18.181213   15.407166   21.118756 H          1 MOL1         0.1052
       3    H2      19.417481   16.225312   20.143949 H          1 MOL1         0.1052
       4    H3      19.858776   15.472608   21.692780 H          1 MOL1         0.1052
       5    C2      18.767897   17.363840   21.902572 C.3        1 MOL1        -0.1209
       6    H4      18.396585   17.144257   22.913621 H          1 MOL1         0.1041
       7    H5      17.959400   17.891419   21.376912 H          1 MOL1         0.1041
       8    C3      20.011834   18.275114   21.991369 C.3        1 MOL1        -0.1274
       9    H6      20.817535   17.749102   22.520311 H          1 MOL1         0.1041
      10    H7      20.378953   18.491576   20.979874 H          1 MOL1         0.1041
      11    C4      19.693603   19.594375   22.725022 C.3        1 MOL1         0.0313
      12    H8      19.299706   19.361926   23.717741 H          1 MOL1         0.1015
      13    H9      18.926061   20.147512   22.177937 H          1 MOL1         0.1015
      14    N1      20.887363   20.515649   22.917239 N.4        1 MOL1        -0.4809
      15    H10     21.648493   20.017690   23.403545 H          1 MOL1         0.3726
      16    H11     20.628962   21.287352   23.552054 H          1 MOL1         0.3726
      17    C5      21.371890   21.080972   21.586390 C.3        1 MOL1        -0.0677
      18    H12     20.552544   21.618816   21.104619 H          1 MOL1         0.1026
      19    H13     22.203258   21.765157   21.769938 H          1 MOL1         0.1026
      20    H14     21.705930   20.263175   20.944898 H          1 MOL1         0.1026
@<TRIPOS>BOND
    1     1     2    1
    2     1     3    1
    3     1     4    1
    4     1     5    1
    5     5     6    1
    6     5     7    1
    7     5     8    1
    8     8     9    1
    9     8    10    1
   10     8    11    1
   11    11    12    1
   12    11    13    1
   13    11    14    1
   14    14    15    1
   15    14    16    1
   16    14    17    1
   17    17    18    1
   18    17    19    1
   19    17    20    1
@<TRIPOS>SUBSTRUCTURE
       1 MOL1            1 RESIDUE      1      MOL     
@<SCITEGIC>MOL_PROPERTY
VConf Rank
SciTegic.value.IntegerValue
934

@<SCITEGIC>MOL_PROPERTY
Conf_Id
SciTegic.value.IntegerValue
2

@<SCITEGIC>MOL_PROPERTY
Delta U+W
SciTegic.value.DoubleValue
0.069

@<SCITEGIC>MOL_PROPERTY
U+W
SciTegic.value.DoubleValue
15.407

@<SCITEGIC>MOL_PROPERTY
Grad RMS
SciTegic.value.DoubleValue
0.000000

@<SCITEGIC>MOL_PROPERTY
U
SciTegic.value.DoubleValue
69.657

@<SCITEGIC>MOL_PROPERTY
W
SciTegic.value.DoubleValue
-54.250

@<SCITEGIC>MOL_PROPERTY
W(PB)
SciTegic.value.DoubleValue
-56.176

@<SCITEGIC>MOL_PROPERTY
W(SA)
SciTegic.value.DoubleValue
1.926

@<SCITEGIC>MOL_PROPERTY
Valence
SciTegic.value.DoubleValue
1.137

@<SCITEGIC>MOL_PROPERTY
Coulomb
SciTegic.value.DoubleValue
68.383

@<SCITEGIC>MOL_PROPERTY
VdW
SciTegic.value.DoubleValue
0.138

@<SCITEGIC>MOL_PROPERTY
VdW6
SciTegic.value.DoubleValue
-3.703

@<SCITEGIC>MOL_PROPERTY
VdW12
SciTegic.value.DoubleValue
3.841

@<SCITEGIC>MOL_PROPERTY
Bond
SciTegic.value.DoubleValue
0.125

@<SCITEGIC>MOL_PROPERTY
Angle
SciTegic.value.DoubleValue
0.468

@<SCITEGIC>MOL_PROPERTY
Pdih
SciTegic.value.DoubleValue
0.543

@<SCITEGIC>MOL_PROPERTY
Idih
SciTegic.value.DoubleValue
0.000

@<SCITEGIC>MOL_PROPERTY
Tether
SciTegic.value.DoubleValue
0.000

@<TRIPOS>MOLECULE
guest-s9_confgen4.mol2 : confsearch ligand conformer 935
          20          19           1
SMALL
USER_CHARGES
 
@<TRIPOS>ATOM
       1    C1      19.596913   16.305631   23.004027 C.3        1 MOL1        -0.2224
       2    H1      19.591344   17.060837   23.800077 H          1 MOL1         0.1052
       3    H2      18.572998   16.202598   22.621820 H          1 MOL1         0.1052
       4    H3      19.882060   15.348125   23.458850 H          1 MOL1         0.1052
       5    C2      20.579055   16.681156   21.870596 C.3        1 MOL1        -0.1209
       6    H4      20.621481   15.856509   21.145220 H          1 MOL1         0.1041
       7    H5      21.593753   16.784003   22.280495 H          1 MOL1         0.1041
       8    C3      20.181347   17.980313   21.131544 C.3        1 MOL1        -0.1274
       9    H6      20.874698   18.142324   20.295557 H          1 MOL1         0.1041
      10    H7      19.181473   17.862884   20.692992 H          1 MOL1         0.1041
      11    C4      20.201208   19.216656   22.051493 C.3        1 MOL1         0.0313
      12    H8      21.197030   19.334748   22.485967 H          1 MOL1         0.1015
      13    H9      19.484873   19.081729   22.865388 H          1 MOL1         0.1015
      14    N1      19.849824   20.505697   21.334992 N.4        1 MOL1        -0.4809
      15    H10     18.916761   20.429837   20.901716 H          1 MOL1         0.3726
      16    H11     20.501841   20.667866   20.552255 H          1 MOL1         0.3726
      17    C5      19.890503   21.671712   22.313688 C.3        1 MOL1        -0.0677
      18    H12     20.895297   21.754198   22.733672 H          1 MOL1         0.1026
      19    H13     19.635809   22.592912   21.784986 H          1 MOL1         0.1026
      20    H14     19.168714   21.495164   23.114095 H          1 MOL1         0.1026
@<TRIPOS>BOND
    1     1     2    1
    2     1     3    1
    3     1     4    1
    4     1     5    1
    5     5     6    1
    6     5     7    1
    7     5     8    1
    8     8     9    1
    9     8    10    1
   10     8    11    1
   11    11    12    1
   12    11    13    1
   13    11    14    1
   14    14    15    1
   15    14    16    1
   16    14    17    1
   17    17    18    1
   18    17    19    1
   19    17    20    1
@<TRIPOS>SUBSTRUCTURE
       1 MOL1            1 RESIDUE      1      MOL     
@<SCITEGIC>MOL_PROPERTY
VConf Rank
SciTegic.value.IntegerValue
935

@<SCITEGIC>MOL_PROPERTY
Conf_Id
SciTegic.value.IntegerValue
34

@<SCITEGIC>MOL_PROPERTY
Delta U+W
SciTegic.value.DoubleValue
0.276

@<SCITEGIC>MOL_PROPERTY
U+W
SciTegic.value.DoubleValue
15.615

@<SCITEGIC>MOL_PROPERTY
Grad RMS
SciTegic.value.DoubleValue
0.000000

@<SCITEGIC>MOL_PROPERTY
U
SciTegic.value.DoubleValue
69.798

@<SCITEGIC>MOL_PROPERTY
W
SciTegic.value.DoubleValue
-54.184

@<SCITEGIC>MOL_PROPERTY
W(PB)
SciTegic.value.DoubleValue
-56.116

@<SCITEGIC>MOL_PROPERTY
W(SA)
SciTegic.value.DoubleValue
1.933

@<SCITEGIC>MOL_PROPERTY
Valence
SciTegic.value.DoubleValue
1.134

@<SCITEGIC>MOL_PROPERTY
Coulomb
SciTegic.value.DoubleValue
68.735

@<SCITEGIC>MOL_PROPERTY
VdW
SciTegic.value.DoubleValue
-0.070

@<SCITEGIC>MOL_PROPERTY
VdW6
SciTegic.value.DoubleValue
-3.565

@<SCITEGIC>MOL_PROPERTY
VdW12
SciTegic.value.DoubleValue
3.494

@<SCITEGIC>MOL_PROPERTY
Bond
SciTegic.value.DoubleValue
0.108

@<SCITEGIC>MOL_PROPERTY
Angle
SciTegic.value.DoubleValue
0.456

@<SCITEGIC>MOL_PROPERTY
Pdih
SciTegic.value.DoubleValue
0.569

@<SCITEGIC>MOL_PROPERTY
Idih
SciTegic.value.DoubleValue
0.000

@<SCITEGIC>MOL_PROPERTY
Tether
SciTegic.value.DoubleValue
0.000

@<TRIPOS>MOLECULE
guest-s9_confgen4.mol2 : confsearch ligand conformer 936
          20          19           1
SMALL
USER_CHARGES
 
@<TRIPOS>ATOM
       1    C1      21.495309   16.359090   23.063504 C.3        1 MOL1        -0.2224
       2    H1      22.252089   16.685098   23.788881 H          1 MOL1         0.1052
       3    H2      21.012065   15.458577   23.464224 H          1 MOL1         0.1052
       4    H3      22.010256   16.079392   22.135183 H          1 MOL1         0.1052
       5    C2      20.453589   17.469880   22.808574 C.3        1 MOL1        -0.1209
       6    H4      19.934219   17.704659   23.748499 H          1 MOL1         0.1041
       7    H5      19.692583   17.094524   22.111097 H          1 MOL1         0.1041
       8    C3      21.110011   18.751170   22.242366 C.3        1 MOL1        -0.1274
       9    H6      21.894424   19.091640   22.931323 H          1 MOL1         0.1041
      10    H7      21.607140   18.530041   21.288521 H          1 MOL1         0.1041
      11    C4      20.102947   19.901891   22.044371 C.3        1 MOL1         0.0313
      12    H8      20.639072   20.800937   21.729879 H          1 MOL1         0.1015
      13    H9      19.601992   20.118623   22.991211 H          1 MOL1         0.1015
      14    N1      19.036059   19.618340   21.003585 N.4        1 MOL1        -0.4809
      15    H10     18.502206   18.775411   21.262286 H          1 MOL1         0.3726
      16    H11     19.474333   19.398528   20.096035 H          1 MOL1         0.3726
      17    C5      18.107097   20.817692   20.871595 C.3        1 MOL1        -0.0677
      18    H12     17.629924   21.011068   21.834767 H          1 MOL1         0.1026
      19    H13     18.687688   21.690459   20.565036 H          1 MOL1         0.1026
      20    H14     17.344845   20.600277   20.120135 H          1 MOL1         0.1026
@<TRIPOS>BOND
    1     1     2    1
    2     1     3    1
    3     1     4    1
    4     1     5    1
    5     5     6    1
    6     5     7    1
    7     5     8    1
    8     8     9    1
    9     8    10    1
   10     8    11    1
   11    11    12    1
   12    11    13    1
   13    11    14    1
   14    14    15    1
   15    14    16    1
   16    14    17    1
   17    17    18    1
   18    17    19    1
   19    17    20    1
@<TRIPOS>SUBSTRUCTURE
       1 MOL1            1 RESIDUE      1      MOL     
@<SCITEGIC>MOL_PROPERTY
VConf Rank
SciTegic.value.IntegerValue
936

@<SCITEGIC>MOL_PROPERTY
Conf_Id
SciTegic.value.IntegerValue
50

@<SCITEGIC>MOL_PROPERTY
Delta U+W
SciTegic.value.DoubleValue
0.319

@<SCITEGIC>MOL_PROPERTY
U+W
SciTegic.value.DoubleValue
15.657

@<SCITEGIC>MOL_PROPERTY
Grad RMS
SciTegic.value.DoubleValue
0.000000

@<SCITEGIC>MOL_PROPERTY
U
SciTegic.value.DoubleValue
69.962

@<SCITEGIC>MOL_PROPERTY
W
SciTegic.value.DoubleValue
-54.305

@<SCITEGIC>MOL_PROPERTY
W(PB)
SciTegic.value.DoubleValue
-56.223

@<SCITEGIC>MOL_PROPERTY
W(SA)
SciTegic.value.DoubleValue
1.918

@<SCITEGIC>MOL_PROPERTY
Valence
SciTegic.value.DoubleValue
0.982

@<SCITEGIC>MOL_PROPERTY
Coulomb
SciTegic.value.DoubleValue
69.058

@<SCITEGIC>MOL_PROPERTY
VdW
SciTegic.value.DoubleValue
-0.078

@<SCITEGIC>MOL_PROPERTY
VdW6
SciTegic.value.DoubleValue
-3.548

@<SCITEGIC>MOL_PROPERTY
VdW12
SciTegic.value.DoubleValue
3.471

@<SCITEGIC>MOL_PROPERTY
Bond
SciTegic.value.DoubleValue
0.105

@<SCITEGIC>MOL_PROPERTY
Angle
SciTegic.value.DoubleValue
0.408

@<SCITEGIC>MOL_PROPERTY
Pdih
SciTegic.value.DoubleValue
0.469

@<SCITEGIC>MOL_PROPERTY
Idih
SciTegic.value.DoubleValue
0.000

@<SCITEGIC>MOL_PROPERTY
Tether
SciTegic.value.DoubleValue
0.000

@<TRIPOS>MOLECULE
guest-s9_confgen4.mol2 : confsearch ligand conformer 937
          20          19           1
SMALL
USER_CHARGES
 
@<TRIPOS>ATOM
       1    C1      21.260237   21.387621   23.149569 C.3        1 MOL1        -0.2224
       2    H1      22.292286   21.726792   22.991881 H          1 MOL1         0.1052
       3    H2      20.591855   22.227443   22.919057 H          1 MOL1         0.1052
       4    H3      21.145904   21.142286   24.213486 H          1 MOL1         0.1052
       5    C2      20.945591   20.165365   22.260125 C.3        1 MOL1        -0.1209
       6    H4      21.657960   19.361578   22.490237 H          1 MOL1         0.1041
       7    H5      21.099603   20.433382   21.205245 H          1 MOL1         0.1041
       8    C3      19.495363   19.667031   22.464308 C.3        1 MOL1        -0.1274
       9    H6      19.342439   19.370703   23.510568 H          1 MOL1         0.1041
      10    H7      18.797470   20.491971   22.268599 H          1 MOL1         0.1041
      11    C4      19.130865   18.490568   21.536613 C.3        1 MOL1         0.0313
      12    H8      19.289147   18.781384   20.495072 H          1 MOL1         0.1015
      13    H9      18.073594   18.244398   21.663885 H          1 MOL1         0.1015
      14    N1      19.928993   17.226821   21.797045 N.4        1 MOL1        -0.4809
      15    H10     19.811257   16.927696   22.777205 H          1 MOL1         0.3726
      16    H11     20.936582   17.413496   21.685829 H          1 MOL1         0.3726
      17    C5      19.482995   16.125117   20.845113 C.3        1 MOL1        -0.0677
      18    H12     20.065010   15.222323   21.043131 H          1 MOL1         0.1026
      19    H13     18.421817   15.920874   21.003135 H          1 MOL1         0.1026
      20    H14     19.647314   16.450642   19.815636 H          1 MOL1         0.1026
@<TRIPOS>BOND
    1     1     2    1
    2     1     3    1
    3     1     4    1
    4     1     5    1
    5     5     6    1
    6     5     7    1
    7     5     8    1
    8     8     9    1
    9     8    10    1
   10     8    11    1
   11    11    12    1
   12    11    13    1
   13    11    14    1
   14    14    15    1
   15    14    16    1
   16    14    17    1
   17    17    18    1
   18    17    19    1
   19    17    20    1
@<TRIPOS>SUBSTRUCTURE
       1 MOL1            1 RESIDUE      1      MOL     
@<SCITEGIC>MOL_PROPERTY
VConf Rank
SciTegic.value.IntegerValue
937

@<SCITEGIC>MOL_PROPERTY
Conf_Id
SciTegic.value.IntegerValue
35

@<SCITEGIC>MOL_PROPERTY
Delta U+W
SciTegic.value.DoubleValue
0.360

@<SCITEGIC>MOL_PROPERTY
U+W
SciTegic.value.DoubleValue
15.698

@<SCITEGIC>MOL_PROPERTY
Grad RMS
SciTegic.value.DoubleValue
0.000000

@<SCITEGIC>MOL_PROPERTY
U
SciTegic.value.DoubleValue
69.962

@<SCITEGIC>MOL_PROPERTY
W
SciTegic.value.DoubleValue
-54.264

@<SCITEGIC>MOL_PROPERTY
W(PB)
SciTegic.value.DoubleValue
-56.166

@<SCITEGIC>MOL_PROPERTY
W(SA)
SciTegic.value.DoubleValue
1.902

@<SCITEGIC>MOL_PROPERTY
Valence
SciTegic.value.DoubleValue
0.982

@<SCITEGIC>MOL_PROPERTY
Coulomb
SciTegic.value.DoubleValue
69.058

@<SCITEGIC>MOL_PROPERTY
VdW
SciTegic.value.DoubleValue
-0.078

@<SCITEGIC>MOL_PROPERTY
VdW6
SciTegic.value.DoubleValue
-3.548

@<SCITEGIC>MOL_PROPERTY
VdW12
SciTegic.value.DoubleValue
3.471

@<SCITEGIC>MOL_PROPERTY
Bond
SciTegic.value.DoubleValue
0.105

@<SCITEGIC>MOL_PROPERTY
Angle
SciTegic.value.DoubleValue
0.408

@<SCITEGIC>MOL_PROPERTY
Pdih
SciTegic.value.DoubleValue
0.469

@<SCITEGIC>MOL_PROPERTY
Idih
SciTegic.value.DoubleValue
0.000

@<SCITEGIC>MOL_PROPERTY
Tether
SciTegic.value.DoubleValue
0.000

@<TRIPOS>MOLECULE
guest-s9_confgen4.mol2 : confsearch ligand conformer 938
          20          19           1
SMALL
USER_CHARGES
 
@<TRIPOS>ATOM
       1    C1      21.647285   17.993049   20.133552 C.3        1 MOL1        -0.2224
       2    H1      21.828090   17.274949   20.943312 H          1 MOL1         0.1052
       3    H2      22.019554   17.543707   19.203777 H          1 MOL1         0.1052
       4    H3      22.244500   18.892266   20.333142 H          1 MOL1         0.1052
       5    C2      20.145971   18.339214   20.005356 C.3        1 MOL1        -0.1209
       6    H4      19.571011   17.422758   19.811198 H          1 MOL1         0.1041
       7    H5      20.000668   18.986188   19.128829 H          1 MOL1         0.1041
       8    C3      19.582250   19.053262   21.256047 C.3        1 MOL1        -0.1274
       9    H6      20.135760   19.986271   21.422869 H          1 MOL1         0.1041
      10    H7      18.538542   19.336318   21.066125 H          1 MOL1         0.1041
      11    C4      19.644004   18.170072   22.520811 C.3        1 MOL1         0.0313
      12    H8      20.683919   17.935936   22.760629 H          1 MOL1         0.1015
      13    H9      19.122359   17.230291   22.322652 H          1 MOL1         0.1015
      14    N1      19.009149   18.788634   23.755613 N.4        1 MOL1        -0.4809
      15    H10     18.944760   18.079616   24.502845 H          1 MOL1         0.3726
      16    H11     18.032252   19.055228   23.559858 H          1 MOL1         0.3726
      17    C5      19.811002   19.988431   24.248448 C.3        1 MOL1        -0.0677
      18    H12     19.818956   20.760939   23.477049 H          1 MOL1         0.1026
      19    H13     19.345898   20.381350   25.155231 H          1 MOL1         0.1026
      20    H14     20.833331   19.672398   24.466767 H          1 MOL1         0.1026
@<TRIPOS>BOND
    1     1     2    1
    2     1     3    1
    3     1     4    1
    4     1     5    1
    5     5     6    1
    6     5     7    1
    7     5     8    1
    8     8     9    1
    9     8    10    1
   10     8    11    1
   11    11    12    1
   12    11    13    1
   13    11    14    1
   14    14    15    1
   15    14    16    1
   16    14    17    1
   17    17    18    1
   18    17    19    1
   19    17    20    1
@<TRIPOS>SUBSTRUCTURE
       1 MOL1            1 RESIDUE      1      MOL     
@<SCITEGIC>MOL_PROPERTY
VConf Rank
SciTegic.value.IntegerValue
938

@<SCITEGIC>MOL_PROPERTY
Conf_Id
SciTegic.value.IntegerValue
33

@<SCITEGIC>MOL_PROPERTY
Delta U+W
SciTegic.value.DoubleValue
0.372

@<SCITEGIC>MOL_PROPERTY
U+W
SciTegic.value.DoubleValue
15.711

@<SCITEGIC>MOL_PROPERTY
Grad RMS
SciTegic.value.DoubleValue
0.000000

@<SCITEGIC>MOL_PROPERTY
U
SciTegic.value.DoubleValue
70.163

@<SCITEGIC>MOL_PROPERTY
W
SciTegic.value.DoubleValue
-54.452

@<SCITEGIC>MOL_PROPERTY
W(PB)
SciTegic.value.DoubleValue
-56.363

@<SCITEGIC>MOL_PROPERTY
W(SA)
SciTegic.value.DoubleValue
1.911

@<SCITEGIC>MOL_PROPERTY
Valence
SciTegic.value.DoubleValue
1.420

@<SCITEGIC>MOL_PROPERTY
Coulomb
SciTegic.value.DoubleValue
68.566

@<SCITEGIC>MOL_PROPERTY
VdW
SciTegic.value.DoubleValue
0.177

@<SCITEGIC>MOL_PROPERTY
VdW6
SciTegic.value.DoubleValue
-4.267

@<SCITEGIC>MOL_PROPERTY
VdW12
SciTegic.value.DoubleValue
4.445

@<SCITEGIC>MOL_PROPERTY
Bond
SciTegic.value.DoubleValue
0.146

@<SCITEGIC>MOL_PROPERTY
Angle
SciTegic.value.DoubleValue
0.581

@<SCITEGIC>MOL_PROPERTY
Pdih
SciTegic.value.DoubleValue
0.693

@<SCITEGIC>MOL_PROPERTY
Idih
SciTegic.value.DoubleValue
0.000

@<SCITEGIC>MOL_PROPERTY
Tether
SciTegic.value.DoubleValue
0.000

@<TRIPOS>MOLECULE
guest-s9_confgen4.mol2 : confsearch ligand conformer 939
          20          19           1
SMALL
USER_CHARGES
 
@<TRIPOS>ATOM
       1    C1      20.031323   16.790616   23.586109 C.3        1 MOL1        -0.2224
       2    H1      19.732526   15.830970   24.027440 H          1 MOL1         0.1052
       3    H2      20.920989   16.608509   22.970153 H          1 MOL1         0.1052
       4    H3      20.314253   17.462662   24.406719 H          1 MOL1         0.1052
       5    C2      18.874602   17.387339   22.751765 C.3        1 MOL1        -0.1209
       6    H4      17.979768   17.467210   23.384914 H          1 MOL1         0.1041
       7    H5      18.614623   16.698671   21.935485 H          1 MOL1         0.1041
       8    C3      19.205901   18.782159   22.171594 C.3        1 MOL1        -0.1274
       9    H6      18.318376   19.176300   21.659278 H          1 MOL1         0.1041
      10    H7      19.428075   19.474790   22.993550 H          1 MOL1         0.1041
      11    C4      20.387634   18.745503   21.178807 C.3        1 MOL1         0.0313
      12    H8      20.165476   18.022385   20.389939 H          1 MOL1         0.1015
      13    H9      21.294839   18.418249   21.692264 H          1 MOL1         0.1015
      14    N1      20.687902   20.073906   20.503834 N.4        1 MOL1        -0.4809
      15    H10     19.843966   20.434675   20.033371 H          1 MOL1         0.3726
      16    H11     21.371839   19.928759   19.744644 H          1 MOL1         0.3726
      17    C5      21.230403   21.091718   21.501390 C.3        1 MOL1        -0.0677
      18    H12     21.468364   22.017920   20.973672 H          1 MOL1         0.1026
      19    H13     20.475447   21.289200   22.264889 H          1 MOL1         0.1026
      20    H14     22.133274   20.691849   21.967895 H          1 MOL1         0.1026
@<TRIPOS>BOND
    1     1     2    1
    2     1     3    1
    3     1     4    1
    4     1     5    1
    5     5     6    1
    6     5     7    1
    7     5     8    1
    8     8     9    1
    9     8    10    1
   10     8    11    1
   11    11    12    1
   12    11    13    1
   13    11    14    1
   14    14    15    1
   15    14    16    1
   16    14    17    1
   17    17    18    1
   18    17    19    1
   19    17    20    1
@<TRIPOS>SUBSTRUCTURE
       1 MOL1            1 RESIDUE      1      MOL     
@<SCITEGIC>MOL_PROPERTY
VConf Rank
SciTegic.value.IntegerValue
939

@<SCITEGIC>MOL_PROPERTY
Conf_Id
SciTegic.value.IntegerValue
53

@<SCITEGIC>MOL_PROPERTY
Delta U+W
SciTegic.value.DoubleValue
0.379

@<SCITEGIC>MOL_PROPERTY
U+W
SciTegic.value.DoubleValue
15.717

@<SCITEGIC>MOL_PROPERTY
Grad RMS
SciTegic.value.DoubleValue
0.000000

@<SCITEGIC>MOL_PROPERTY
U
SciTegic.value.DoubleValue
70.163

@<SCITEGIC>MOL_PROPERTY
W
SciTegic.value.DoubleValue
-54.446

@<SCITEGIC>MOL_PROPERTY
W(PB)
SciTegic.value.DoubleValue
-56.322

@<SCITEGIC>MOL_PROPERTY
W(SA)
SciTegic.value.DoubleValue
1.876

@<SCITEGIC>MOL_PROPERTY
Valence
SciTegic.value.DoubleValue
1.420

@<SCITEGIC>MOL_PROPERTY
Coulomb
SciTegic.value.DoubleValue
68.566

@<SCITEGIC>MOL_PROPERTY
VdW
SciTegic.value.DoubleValue
0.177

@<SCITEGIC>MOL_PROPERTY
VdW6
SciTegic.value.DoubleValue
-4.267

@<SCITEGIC>MOL_PROPERTY
VdW12
SciTegic.value.DoubleValue
4.445

@<SCITEGIC>MOL_PROPERTY
Bond
SciTegic.value.DoubleValue
0.146

@<SCITEGIC>MOL_PROPERTY
Angle
SciTegic.value.DoubleValue
0.581

@<SCITEGIC>MOL_PROPERTY
Pdih
SciTegic.value.DoubleValue
0.693

@<SCITEGIC>MOL_PROPERTY
Idih
SciTegic.value.DoubleValue
0.000

@<SCITEGIC>MOL_PROPERTY
Tether
SciTegic.value.DoubleValue
0.000

@<TRIPOS>MOLECULE
guest-s9_confgen4.mol2 : confsearch ligand conformer 940
          20          19           1
SMALL
USER_CHARGES
 
@<TRIPOS>ATOM
       1    C1      22.591345   19.509769   23.102768 C.3        1 MOL1        -0.2224
       2    H1      22.895175   20.466179   23.547704 H          1 MOL1         0.1052
       3    H2      22.980124   18.704505   23.739593 H          1 MOL1         0.1052
       4    H3      23.071534   19.429128   22.118858 H          1 MOL1         0.1052
       5    C2      21.054382   19.429110   22.979471 C.3        1 MOL1        -0.1209
       6    H4      20.699095   20.270436   22.369063 H          1 MOL1         0.1041
       7    H5      20.602252   19.544677   23.974662 H          1 MOL1         0.1041
       8    C3      20.599736   18.090072   22.352577 C.3        1 MOL1        -0.1274
       9    H6      21.026633   17.981903   21.347191 H          1 MOL1         0.1041
      10    H7      20.998149   17.257381   22.947170 H          1 MOL1         0.1041
      11    C4      19.062729   17.948212   22.288175 C.3        1 MOL1         0.0313
      12    H8      18.658937   18.000503   23.302496 H          1 MOL1         0.1015
      13    H9      18.804163   16.969884   21.875245 H          1 MOL1         0.1015
      14    N1      18.344791   19.001942   21.458205 N.4        1 MOL1        -0.4809
      15    H10     18.564145   19.944382   21.812777 H          1 MOL1         0.3726
      16    H11     17.324976   18.902534   21.581972 H          1 MOL1         0.3726
      17    C5      18.701715   18.882088   19.980648 C.3        1 MOL1        -0.0677
      18    H12     18.440980   17.881963   19.627907 H          1 MOL1         0.1026
      19    H13     18.140838   19.629510   19.415220 H          1 MOL1         0.1026
      20    H14     19.772350   19.052924   19.851925 H          1 MOL1         0.1026
@<TRIPOS>BOND
    1     1     2    1
    2     1     3    1
    3     1     4    1
    4     1     5    1
    5     5     6    1
    6     5     7    1
    7     5     8    1
    8     8     9    1
    9     8    10    1
   10     8    11    1
   11    11    12    1
   12    11    13    1
   13    11    14    1
   14    14    15    1
   15    14    16    1
   16    14    17    1
   17    17    18    1
   18    17    19    1
   19    17    20    1
@<TRIPOS>SUBSTRUCTURE
       1 MOL1            1 RESIDUE      1      MOL     
@<SCITEGIC>MOL_PROPERTY
VConf Rank
SciTegic.value.IntegerValue
940

@<SCITEGIC>MOL_PROPERTY
Conf_Id
SciTegic.value.IntegerValue
49

@<SCITEGIC>MOL_PROPERTY
Delta U+W
SciTegic.value.DoubleValue
0.268

@<SCITEGIC>MOL_PROPERTY
U+W
SciTegic.value.DoubleValue
15.607

@<SCITEGIC>MOL_PROPERTY
Grad RMS
SciTegic.value.DoubleValue
0.000000

@<SCITEGIC>MOL_PROPERTY
U
SciTegic.value.DoubleValue
70.298

@<SCITEGIC>MOL_PROPERTY
W
SciTegic.value.DoubleValue
-54.692

@<SCITEGIC>MOL_PROPERTY
W(PB)
SciTegic.value.DoubleValue
-56.576

@<SCITEGIC>MOL_PROPERTY
W(SA)
SciTegic.value.DoubleValue
1.885

@<SCITEGIC>MOL_PROPERTY
Valence
SciTegic.value.DoubleValue
1.245

@<SCITEGIC>MOL_PROPERTY
Coulomb
SciTegic.value.DoubleValue
68.933

@<SCITEGIC>MOL_PROPERTY
VdW
SciTegic.value.DoubleValue
0.120

@<SCITEGIC>MOL_PROPERTY
VdW6
SciTegic.value.DoubleValue
-4.430

@<SCITEGIC>MOL_PROPERTY
VdW12
SciTegic.value.DoubleValue
4.550

@<SCITEGIC>MOL_PROPERTY
Bond
SciTegic.value.DoubleValue
0.148

@<SCITEGIC>MOL_PROPERTY
Angle
SciTegic.value.DoubleValue
0.587

@<SCITEGIC>MOL_PROPERTY
Pdih
SciTegic.value.DoubleValue
0.509

@<SCITEGIC>MOL_PROPERTY
Idih
SciTegic.value.DoubleValue
0.000

@<SCITEGIC>MOL_PROPERTY
Tether
SciTegic.value.DoubleValue
0.000

@<TRIPOS>MOLECULE
guest-s9_confgen4.mol2 : confsearch ligand conformer 941
          20          19           1
SMALL
USER_CHARGES
 
@<TRIPOS>ATOM
       1    C1      17.701656   17.320881   22.346006 C.3        1 MOL1        -0.2224
       2    H1      17.048256   18.082929   22.790439 H          1 MOL1         0.1052
       3    H2      17.272619   17.024281   21.380037 H          1 MOL1         0.1052
       4    H3      17.688254   16.441776   23.003268 H          1 MOL1         0.1052
       5    C2      19.141146   17.853238   22.176320 C.3        1 MOL1        -0.1209
       6    H4      19.776556   17.060815   21.756426 H          1 MOL1         0.1041
       7    H5      19.546237   18.100393   23.166453 H          1 MOL1         0.1041
       8    C3      19.186683   19.099950   21.262395 C.3        1 MOL1        -0.1274
       9    H6      18.673832   18.871322   20.318748 H          1 MOL1         0.1041
      10    H7      18.625111   19.921401   21.726519 H          1 MOL1         0.1041
      11    C4      20.615062   19.582531   20.922281 C.3        1 MOL1         0.0313
      12    H8      20.530373   20.420215   20.225246 H          1 MOL1         0.1015
      13    H9      21.174657   18.789521   20.420000 H          1 MOL1         0.1015
      14    N1      21.440587   20.075973   22.100536 N.4        1 MOL1        -0.4809
      15    H10     20.832400   20.517576   22.806181 H          1 MOL1         0.3726
      16    H11     22.068284   20.831332   21.783618 H          1 MOL1         0.3726
      17    C5      22.274849   18.951951   22.706529 C.3        1 MOL1        -0.0677
      18    H12     22.867742   19.352579   23.531716 H          1 MOL1         0.1026
      19    H13     21.618988   18.163303   23.076921 H          1 MOL1         0.1026
      20    H14     22.939943   18.547261   21.940654 H          1 MOL1         0.1026
@<TRIPOS>BOND
    1     1     2    1
    2     1     3    1
    3     1     4    1
    4     1     5    1
    5     5     6    1
    6     5     7    1
    7     5     8    1
    8     8     9    1
    9     8    10    1
   10     8    11    1
   11    11    12    1
   12    11    13    1
   13    11    14    1
   14    14    15    1
   15    14    16    1
   16    14    17    1
   17    17    18    1
   18    17    19    1
   19    17    20    1
@<TRIPOS>SUBSTRUCTURE
       1 MOL1            1 RESIDUE      1      MOL     
@<SCITEGIC>MOL_PROPERTY
VConf Rank
SciTegic.value.IntegerValue
941

@<SCITEGIC>MOL_PROPERTY
Conf_Id
SciTegic.value.IntegerValue
65

@<SCITEGIC>MOL_PROPERTY
Delta U+W
SciTegic.value.DoubleValue
1.775

@<SCITEGIC>MOL_PROPERTY
U+W
SciTegic.value.DoubleValue
17.114

@<SCITEGIC>MOL_PROPERTY
Grad RMS
SciTegic.value.DoubleValue
0.000000

@<SCITEGIC>MOL_PROPERTY
U
SciTegic.value.DoubleValue
71.726

@<SCITEGIC>MOL_PROPERTY
W
SciTegic.value.DoubleValue
-54.613

@<SCITEGIC>MOL_PROPERTY
W(PB)
SciTegic.value.DoubleValue
-56.495

@<SCITEGIC>MOL_PROPERTY
W(SA)
SciTegic.value.DoubleValue
1.883

@<SCITEGIC>MOL_PROPERTY
Valence
SciTegic.value.DoubleValue
2.885

@<SCITEGIC>MOL_PROPERTY
Coulomb
SciTegic.value.DoubleValue
68.822

@<SCITEGIC>MOL_PROPERTY
VdW
SciTegic.value.DoubleValue
0.019

@<SCITEGIC>MOL_PROPERTY
VdW6
SciTegic.value.DoubleValue
-4.600

@<SCITEGIC>MOL_PROPERTY
VdW12
SciTegic.value.DoubleValue
4.619

@<SCITEGIC>MOL_PROPERTY
Bond
SciTegic.value.DoubleValue
0.152

@<SCITEGIC>MOL_PROPERTY
Angle
SciTegic.value.DoubleValue
0.862

@<SCITEGIC>MOL_PROPERTY
Pdih
SciTegic.value.DoubleValue
1.871

@<SCITEGIC>MOL_PROPERTY
Idih
SciTegic.value.DoubleValue
0.000

@<SCITEGIC>MOL_PROPERTY
Tether
SciTegic.value.DoubleValue
0.000

@<TRIPOS>MOLECULE
guest-s9_confgen4.mol2 : confsearch ligand conformer 942
          20          19           1
SMALL
USER_CHARGES
 
@<TRIPOS>ATOM
       1    C1      18.047496   19.062066   23.205953 C.3        1 MOL1        -0.2224
       2    H1      18.699917   18.247766   23.545461 H          1 MOL1         0.1052
       3    H2      17.642326   19.555295   24.099006 H          1 MOL1         0.1052
       4    H3      17.205645   18.620342   22.657102 H          1 MOL1         0.1052
       5    C2      18.813228   20.076998   22.326329 C.3        1 MOL1        -0.1209
       6    H4      19.648552   20.504775   22.897162 H          1 MOL1         0.1041
       7    H5      18.146773   20.918244   22.089370 H          1 MOL1         0.1041
       8    C3      19.331147   19.463144   21.001587 C.3        1 MOL1        -0.1274
       9    H6      18.475258   19.133900   20.397585 H          1 MOL1         0.1041
      10    H7      19.839011   20.239314   20.413896 H          1 MOL1         0.1041
      11    C4      20.286443   18.266949   21.195216 C.3        1 MOL1         0.0313
      12    H8      20.578899   17.875033   20.217764 H          1 MOL1         0.1015
      13    H9      19.773283   17.470574   21.739477 H          1 MOL1         0.1015
      14    N1      21.555690   18.608257   21.952265 N.4        1 MOL1        -0.4809
      15    H10     21.320557   18.989594   22.880589 H          1 MOL1         0.3726
      16    H11     22.067909   19.360454   21.466745 H          1 MOL1         0.3726
      17    C5      22.428833   17.368397   22.089688 C.3        1 MOL1        -0.0677
      18    H12     22.690810   17.000941   21.095149 H          1 MOL1         0.1026
      19    H13     23.337505   17.628249   22.637195 H          1 MOL1         0.1026
      20    H14     21.877940   16.598825   22.634698 H          1 MOL1         0.1026
@<TRIPOS>BOND
    1     1     2    1
    2     1     3    1
    3     1     4    1
    4     1     5    1
    5     5     6    1
    6     5     7    1
    7     5     8    1
    8     8     9    1
    9     8    10    1
   10     8    11    1
   11    11    12    1
   12    11    13    1
   13    11    14    1
   14    14    15    1
   15    14    16    1
   16    14    17    1
   17    17    18    1
   18    17    19    1
   19    17    20    1
@<TRIPOS>SUBSTRUCTURE
       1 MOL1            1 RESIDUE      1      MOL     
@<SCITEGIC>MOL_PROPERTY
VConf Rank
SciTegic.value.IntegerValue
942

@<SCITEGIC>MOL_PROPERTY
Conf_Id
SciTegic.value.IntegerValue
23

@<SCITEGIC>MOL_PROPERTY
Delta U+W
SciTegic.value.DoubleValue
0.896

@<SCITEGIC>MOL_PROPERTY
U+W
SciTegic.value.DoubleValue
16.234

@<SCITEGIC>MOL_PROPERTY
Grad RMS
SciTegic.value.DoubleValue
0.000000

@<SCITEGIC>MOL_PROPERTY
U
SciTegic.value.DoubleValue
70.374

@<SCITEGIC>MOL_PROPERTY
W
SciTegic.value.DoubleValue
-54.140

@<SCITEGIC>MOL_PROPERTY
W(PB)
SciTegic.value.DoubleValue
-56.046

@<SCITEGIC>MOL_PROPERTY
W(SA)
SciTegic.value.DoubleValue
1.907

@<SCITEGIC>MOL_PROPERTY
Valence
SciTegic.value.DoubleValue
1.257

@<SCITEGIC>MOL_PROPERTY
Coulomb
SciTegic.value.DoubleValue
69.240

@<SCITEGIC>MOL_PROPERTY
VdW
SciTegic.value.DoubleValue
-0.123

@<SCITEGIC>MOL_PROPERTY
VdW6
SciTegic.value.DoubleValue
-4.336

@<SCITEGIC>MOL_PROPERTY
VdW12
SciTegic.value.DoubleValue
4.213

@<SCITEGIC>MOL_PROPERTY
Bond
SciTegic.value.DoubleValue
0.128

@<SCITEGIC>MOL_PROPERTY
Angle
SciTegic.value.DoubleValue
0.603

@<SCITEGIC>MOL_PROPERTY
Pdih
SciTegic.value.DoubleValue
0.526

@<SCITEGIC>MOL_PROPERTY
Idih
SciTegic.value.DoubleValue
0.000

@<SCITEGIC>MOL_PROPERTY
Tether
SciTegic.value.DoubleValue
0.000

@<TRIPOS>MOLECULE
guest-s9_confgen4.mol2 : confsearch ligand conformer 943
          20          19           1
SMALL
USER_CHARGES
 
@<TRIPOS>ATOM
       1    C1      20.537887   21.099055   21.727451 C.3        1 MOL1        -0.2224
       2    H1      19.626413   21.625723   21.416155 H          1 MOL1         0.1052
       3    H2      21.331111   21.847824   21.850420 H          1 MOL1         0.1052
       4    H3      20.840293   20.427805   20.913830 H          1 MOL1         0.1052
       5    C2      20.310723   20.327917   23.048024 C.3        1 MOL1        -0.1209
       6    H4      20.102515   21.048823   23.851111 H          1 MOL1         0.1041
       7    H5      21.235535   19.811075   23.338210 H          1 MOL1         0.1041
       8    C3      19.138037   19.318762   22.967945 C.3        1 MOL1        -0.1274
       9    H6      19.012733   18.827109   23.941762 H          1 MOL1         0.1041
      10    H7      18.204286   19.864903   22.779254 H          1 MOL1         0.1041
      11    C4      19.308928   18.243179   21.874837 C.3        1 MOL1         0.0313
      12    H8      19.387891   18.722467   20.896158 H          1 MOL1         0.1015
      13    H9      18.429316   17.594557   21.864229 H          1 MOL1         0.1015
      14    N1      20.528375   17.361161   22.063511 N.4        1 MOL1        -0.4809
      15    H10     20.488913   16.891412   22.980940 H          1 MOL1         0.3726
      16    H11     21.381381   17.939389   22.086363 H          1 MOL1         0.3726
      17    C5      20.607874   16.336156   20.940315 C.3        1 MOL1        -0.0677
      18    H12     20.681896   16.856364   19.982889 H          1 MOL1         0.1026
      19    H13     21.490182   15.709525   21.088091 H          1 MOL1         0.1026
      20    H14     19.709185   15.715755   20.955264 H          1 MOL1         0.1026
@<TRIPOS>BOND
    1     1     2    1
    2     1     3    1
    3     1     4    1
    4     1     5    1
    5     5     6    1
    6     5     7    1
    7     5     8    1
    8     8     9    1
    9     8    10    1
   10     8    11    1
   11    11    12    1
   12    11    13    1
   13    11    14    1
   14    14    15    1
   15    14    16    1
   16    14    17    1
   17    17    18    1
   18    17    19    1
   19    17    20    1
@<TRIPOS>SUBSTRUCTURE
       1 MOL1            1 RESIDUE      1      MOL     
@<SCITEGIC>MOL_PROPERTY
VConf Rank
SciTegic.value.IntegerValue
943

@<SCITEGIC>MOL_PROPERTY
Conf_Id
SciTegic.value.IntegerValue
24

@<SCITEGIC>MOL_PROPERTY
Delta U+W
SciTegic.value.DoubleValue
0.792

@<SCITEGIC>MOL_PROPERTY
U+W
SciTegic.value.DoubleValue
16.130

@<SCITEGIC>MOL_PROPERTY
Grad RMS
SciTegic.value.DoubleValue
0.000000

@<SCITEGIC>MOL_PROPERTY
U
SciTegic.value.DoubleValue
70.374

@<SCITEGIC>MOL_PROPERTY
W
SciTegic.value.DoubleValue
-54.243

@<SCITEGIC>MOL_PROPERTY
W(PB)
SciTegic.value.DoubleValue
-56.130

@<SCITEGIC>MOL_PROPERTY
W(SA)
SciTegic.value.DoubleValue
1.887

@<SCITEGIC>MOL_PROPERTY
Valence
SciTegic.value.DoubleValue
1.257

@<SCITEGIC>MOL_PROPERTY
Coulomb
SciTegic.value.DoubleValue
69.240

@<SCITEGIC>MOL_PROPERTY
VdW
SciTegic.value.DoubleValue
-0.123

@<SCITEGIC>MOL_PROPERTY
VdW6
SciTegic.value.DoubleValue
-4.336

@<SCITEGIC>MOL_PROPERTY
VdW12
SciTegic.value.DoubleValue
4.213

@<SCITEGIC>MOL_PROPERTY
Bond
SciTegic.value.DoubleValue
0.128

@<SCITEGIC>MOL_PROPERTY
Angle
SciTegic.value.DoubleValue
0.603

@<SCITEGIC>MOL_PROPERTY
Pdih
SciTegic.value.DoubleValue
0.526

@<SCITEGIC>MOL_PROPERTY
Idih
SciTegic.value.DoubleValue
0.000

@<SCITEGIC>MOL_PROPERTY
Tether
SciTegic.value.DoubleValue
0.000

@<TRIPOS>MOLECULE
guest-s9_confgen4.mol2 : confsearch ligand conformer 944
          20          19           1
SMALL
USER_CHARGES
 
@<TRIPOS>ATOM
       1    C1      20.747840   20.127577   23.567277 C.3        1 MOL1        -0.2224
       2    H1      21.349715   20.549065   24.382946 H          1 MOL1         0.1052
       3    H2      21.437576   19.892594   22.748073 H          1 MOL1         0.1052
       4    H3      20.050086   20.906397   23.232997 H          1 MOL1         0.1052
       5    C2      19.994201   18.868802   24.054075 C.3        1 MOL1        -0.1209
       6    H4      19.486551   19.107793   24.999190 H          1 MOL1         0.1041
       7    H5      20.719276   18.077418   24.290892 H          1 MOL1         0.1041
       8    C3      18.938876   18.326458   23.056583 C.3        1 MOL1        -0.1274
       9    H6      18.424341   17.482400   23.534745 H          1 MOL1         0.1041
      10    H7      18.165622   19.083220   22.869250 H          1 MOL1         0.1041
      11    C4      19.523129   17.825619   21.718639 C.3        1 MOL1         0.0313
      12    H8      18.809554   17.142754   21.250611 H          1 MOL1         0.1015
      13    H9      20.448608   17.274480   21.903079 H          1 MOL1         0.1015
      14    N1      19.809974   18.922999   20.711428 N.4        1 MOL1        -0.4809
      15    H10     20.439917   19.624996   21.124937 H          1 MOL1         0.3726
      16    H11     18.941995   19.432482   20.485491 H          1 MOL1         0.3726
      17    C5      20.423396   18.326904   19.451746 C.3        1 MOL1        -0.0677
      18    H12     21.356394   17.821453   19.710209 H          1 MOL1         0.1026
      19    H13     19.723851   17.610685   19.015362 H          1 MOL1         0.1026
      20    H14     20.624189   19.127675   18.736611 H          1 MOL1         0.1026
@<TRIPOS>BOND
    1     1     2    1
    2     1     3    1
    3     1     4    1
    4     1     5    1
    5     5     6    1
    6     5     7    1
    7     5     8    1
    8     8     9    1
    9     8    10    1
   10     8    11    1
   11    11    12    1
   12    11    13    1
   13    11    14    1
   14    14    15    1
   15    14    16    1
   16    14    17    1
   17    17    18    1
   18    17    19    1
   19    17    20    1
@<TRIPOS>SUBSTRUCTURE
       1 MOL1            1 RESIDUE      1      MOL     
@<SCITEGIC>MOL_PROPERTY
VConf Rank
SciTegic.value.IntegerValue
944

@<SCITEGIC>MOL_PROPERTY
Conf_Id
SciTegic.value.IntegerValue
26

@<SCITEGIC>MOL_PROPERTY
Delta U+W
SciTegic.value.DoubleValue
2.888

@<SCITEGIC>MOL_PROPERTY
U+W
SciTegic.value.DoubleValue
18.226

@<SCITEGIC>MOL_PROPERTY
Grad RMS
SciTegic.value.DoubleValue
0.000000

@<SCITEGIC>MOL_PROPERTY
U
SciTegic.value.DoubleValue
72.042

@<SCITEGIC>MOL_PROPERTY
W
SciTegic.value.DoubleValue
-53.816

@<SCITEGIC>MOL_PROPERTY
W(PB)
SciTegic.value.DoubleValue
-55.689

@<SCITEGIC>MOL_PROPERTY
W(SA)
SciTegic.value.DoubleValue
1.873

@<SCITEGIC>MOL_PROPERTY
Valence
SciTegic.value.DoubleValue
2.428

@<SCITEGIC>MOL_PROPERTY
Coulomb
SciTegic.value.DoubleValue
69.829

@<SCITEGIC>MOL_PROPERTY
VdW
SciTegic.value.DoubleValue
-0.215

@<SCITEGIC>MOL_PROPERTY
VdW6
SciTegic.value.DoubleValue
-4.563

@<SCITEGIC>MOL_PROPERTY
VdW12
SciTegic.value.DoubleValue
4.348

@<SCITEGIC>MOL_PROPERTY
Bond
SciTegic.value.DoubleValue
0.137

@<SCITEGIC>MOL_PROPERTY
Angle
SciTegic.value.DoubleValue
0.936

@<SCITEGIC>MOL_PROPERTY
Pdih
SciTegic.value.DoubleValue
1.356

@<SCITEGIC>MOL_PROPERTY
Idih
SciTegic.value.DoubleValue
0.000

@<SCITEGIC>MOL_PROPERTY
Tether
SciTegic.value.DoubleValue
0.000

@<TRIPOS>MOLECULE
guest-s9_confgen4.mol2 : confsearch ligand conformer 945
          20          19           1
SMALL
USER_CHARGES
 
@<TRIPOS>ATOM
       1    C1      22.239106   18.949134   21.676452 C.3        1 MOL1        -0.2224
       2    H1      23.317942   19.112190   21.797876 H          1 MOL1         0.1052
       3    H2      22.072388   18.576517   20.657371 H          1 MOL1         0.1052
       4    H3      21.753189   19.926293   21.781787 H          1 MOL1         0.1052
       5    C2      21.727925   17.943651   22.733409 C.3        1 MOL1        -0.1209
       6    H4      21.822559   18.386431   23.734956 H          1 MOL1         0.1041
       7    H5      22.386416   17.063640   22.727355 H          1 MOL1         0.1041
       8    C3      20.270526   17.464436   22.511648 C.3        1 MOL1        -0.1274
       9    H6      20.179491   16.952494   21.544522 H          1 MOL1         0.1041
      10    H7      20.043587   16.708327   23.274942 H          1 MOL1         0.1041
      11    C4      19.208320   18.578848   22.621594 C.3        1 MOL1         0.0313
      12    H8      19.454608   19.242952   23.453815 H          1 MOL1         0.1015
      13    H9      18.235033   18.125659   22.826228 H          1 MOL1         0.1015
      14    N1      19.049903   19.417972   21.367889 N.4        1 MOL1        -0.4809
      15    H10     18.773768   18.820263   20.573849 H          1 MOL1         0.3726
      16    H11     19.956537   19.826882   21.100627 H          1 MOL1         0.3726
      17    C5      18.015379   20.510909   21.599531 C.3        1 MOL1        -0.0677
      18    H12     18.344540   21.149592   22.422030 H          1 MOL1         0.1026
      19    H13     17.912063   21.106156   20.689598 H          1 MOL1         0.1026
      20    H14     17.056661   20.051407   21.849497 H          1 MOL1         0.1026
@<TRIPOS>BOND
    1     1     2    1
    2     1     3    1
    3     1     4    1
    4     1     5    1
    5     5     6    1
    6     5     7    1
    7     5     8    1
    8     8     9    1
    9     8    10    1
   10     8    11    1
   11    11    12    1
   12    11    13    1
   13    11    14    1
   14    14    15    1
   15    14    16    1
   16    14    17    1
   17    17    18    1
   18    17    19    1
   19    17    20    1
@<TRIPOS>SUBSTRUCTURE
       1 MOL1            1 RESIDUE      1      MOL     
@<SCITEGIC>MOL_PROPERTY
VConf Rank
SciTegic.value.IntegerValue
945

@<SCITEGIC>MOL_PROPERTY
Conf_Id
SciTegic.value.IntegerValue
5

@<SCITEGIC>MOL_PROPERTY
Delta U+W
SciTegic.value.DoubleValue
2.950

@<SCITEGIC>MOL_PROPERTY
U+W
SciTegic.value.DoubleValue
18.289

@<SCITEGIC>MOL_PROPERTY
Grad RMS
SciTegic.value.DoubleValue
0.000000

@<SCITEGIC>MOL_PROPERTY
U
SciTegic.value.DoubleValue
72.042

@<SCITEGIC>MOL_PROPERTY
W
SciTegic.value.DoubleValue
-53.753

@<SCITEGIC>MOL_PROPERTY
W(PB)
SciTegic.value.DoubleValue
-55.644

@<SCITEGIC>MOL_PROPERTY
W(SA)
SciTegic.value.DoubleValue
1.891

@<SCITEGIC>MOL_PROPERTY
Valence
SciTegic.value.DoubleValue
2.428

@<SCITEGIC>MOL_PROPERTY
Coulomb
SciTegic.value.DoubleValue
69.829

@<SCITEGIC>MOL_PROPERTY
VdW
SciTegic.value.DoubleValue
-0.215

@<SCITEGIC>MOL_PROPERTY
VdW6
SciTegic.value.DoubleValue
-4.563

@<SCITEGIC>MOL_PROPERTY
VdW12
SciTegic.value.DoubleValue
4.348

@<SCITEGIC>MOL_PROPERTY
Bond
SciTegic.value.DoubleValue
0.137

@<SCITEGIC>MOL_PROPERTY
Angle
SciTegic.value.DoubleValue
0.936

@<SCITEGIC>MOL_PROPERTY
Pdih
SciTegic.value.DoubleValue
1.356

@<SCITEGIC>MOL_PROPERTY
Idih
SciTegic.value.DoubleValue
0.000

@<SCITEGIC>MOL_PROPERTY
Tether
SciTegic.value.DoubleValue
0.000

@<TRIPOS>MOLECULE
guest-s9_confgen4.mol2 : confsearch ligand conformer 946
          20          19           1
SMALL
USER_CHARGES
 
@<TRIPOS>ATOM
       1    C1      20.802567   19.858310   24.115520 C.3        1 MOL1        -0.2224
       2    H1      21.631604   20.566627   23.988857 H          1 MOL1         0.1052
       3    H2      19.873755   20.362632   23.820997 H          1 MOL1         0.1052
       4    H3      20.725796   19.621392   25.184605 H          1 MOL1         0.1052
       5    C2      21.039786   18.572341   23.290805 C.3        1 MOL1        -0.1209
       6    H4      20.200655   17.878440   23.436137 H          1 MOL1         0.1041
       7    H5      21.929241   18.057430   23.680202 H          1 MOL1         0.1041
       8    C3      21.244930   18.848772   21.780574 C.3        1 MOL1        -0.1274
       9    H6      22.143213   19.465502   21.645430 H          1 MOL1         0.1041
      10    H7      21.447832   17.903177   21.261505 H          1 MOL1         0.1041
      11    C4      20.052252   19.562717   21.104309 C.3        1 MOL1         0.0313
      12    H8      20.272493   19.718518   20.045235 H          1 MOL1         0.1015
      13    H9      19.917826   20.544422   21.565032 H          1 MOL1         0.1015
      14    N1      18.722243   18.830724   21.196967 N.4        1 MOL1        -0.4809
      15    H10     17.966769   19.440051   20.846202 H          1 MOL1         0.3726
      16    H11     18.485695   18.652799   22.184130 H          1 MOL1         0.3726
      17    C5      18.750247   17.529234   20.403265 C.3        1 MOL1        -0.0677
      18    H12     19.510816   16.866824   20.821280 H          1 MOL1         0.1026
      19    H13     17.771054   17.049683   20.467440 H          1 MOL1         0.1026
      20    H14     18.984208   17.749837   19.359603 H          1 MOL1         0.1026
@<TRIPOS>BOND
    1     1     2    1
    2     1     3    1
    3     1     4    1
    4     1     5    1
    5     5     6    1
    6     5     7    1
    7     5     8    1
    8     8     9    1
    9     8    10    1
   10     8    11    1
   11    11    12    1
   12    11    13    1
   13    11    14    1
   14    14    15    1
   15    14    16    1
   16    14    17    1
   17    17    18    1
   18    17    19    1
   19    17    20    1
@<TRIPOS>SUBSTRUCTURE
       1 MOL1            1 RESIDUE      1      MOL     
@<SCITEGIC>MOL_PROPERTY
VConf Rank
SciTegic.value.IntegerValue
946

@<SCITEGIC>MOL_PROPERTY
Conf_Id
SciTegic.value.IntegerValue
52

@<SCITEGIC>MOL_PROPERTY
Delta U+W
SciTegic.value.DoubleValue
0.784

@<SCITEGIC>MOL_PROPERTY
U+W
SciTegic.value.DoubleValue
16.122

@<SCITEGIC>MOL_PROPERTY
Grad RMS
SciTegic.value.DoubleValue
0.000000

@<SCITEGIC>MOL_PROPERTY
U
SciTegic.value.DoubleValue
70.777

@<SCITEGIC>MOL_PROPERTY
W
SciTegic.value.DoubleValue
-54.655

@<SCITEGIC>MOL_PROPERTY
W(PB)
SciTegic.value.DoubleValue
-56.491

@<SCITEGIC>MOL_PROPERTY
W(SA)
SciTegic.value.DoubleValue
1.836

@<SCITEGIC>MOL_PROPERTY
Valence
SciTegic.value.DoubleValue
1.529

@<SCITEGIC>MOL_PROPERTY
Coulomb
SciTegic.value.DoubleValue
69.166

@<SCITEGIC>MOL_PROPERTY
VdW
SciTegic.value.DoubleValue
0.082

@<SCITEGIC>MOL_PROPERTY
VdW6
SciTegic.value.DoubleValue
-5.166

@<SCITEGIC>MOL_PROPERTY
VdW12
SciTegic.value.DoubleValue
5.248

@<SCITEGIC>MOL_PROPERTY
Bond
SciTegic.value.DoubleValue
0.171

@<SCITEGIC>MOL_PROPERTY
Angle
SciTegic.value.DoubleValue
0.752

@<SCITEGIC>MOL_PROPERTY
Pdih
SciTegic.value.DoubleValue
0.605

@<SCITEGIC>MOL_PROPERTY
Idih
SciTegic.value.DoubleValue
0.000

@<SCITEGIC>MOL_PROPERTY
Tether
SciTegic.value.DoubleValue
0.000

@<TRIPOS>MOLECULE
guest-s9_confgen4.mol2 : confsearch ligand conformer 947
          20          19           1
SMALL
USER_CHARGES
 
@<TRIPOS>ATOM
       1    C1      21.367039   20.046748   20.857139 C.3        1 MOL1        -0.2224
       2    H1      22.122692   20.701942   20.404505 H          1 MOL1         0.1052
       3    H2      21.788027   19.034964   20.871850 H          1 MOL1         0.1052
       4    H3      20.485039   20.054975   20.203445 H          1 MOL1         0.1052
       5    C2      21.016319   20.537804   22.280243 C.3        1 MOL1        -0.1209
       6    H4      20.824649   21.619261   22.238555 H          1 MOL1         0.1041
       7    H5      21.887239   20.409356   22.938282 H          1 MOL1         0.1041
       8    C3      19.778637   19.848977   22.909914 C.3        1 MOL1        -0.1274
       9    H6      19.572371   20.340720   23.869720 H          1 MOL1         0.1041
      10    H7      18.890362   20.023987   22.290042 H          1 MOL1         0.1041
      11    C4      19.955527   18.338094   23.188295 C.3        1 MOL1         0.0313
      12    H8      19.203723   18.015557   23.912990 H          1 MOL1         0.1015
      13    H9      20.939879   18.170284   23.632545 H          1 MOL1         0.1015
      14    N1      19.826878   17.424024   21.979810 N.4        1 MOL1        -0.4809
      15    H10     20.145985   16.474744   22.229202 H          1 MOL1         0.3726
      16    H11     20.462513   17.735435   21.232258 H          1 MOL1         0.3726
      17    C5      18.388229   17.370381   21.477681 C.3        1 MOL1        -0.0677
      18    H12     17.738959   17.023276   22.284284 H          1 MOL1         0.1026
      19    H13     18.078445   18.366371   21.155727 H          1 MOL1         0.1026
      20    H14     18.329205   16.678390   20.634724 H          1 MOL1         0.1026
@<TRIPOS>BOND
    1     1     2    1
    2     1     3    1
    3     1     4    1
    4     1     5    1
    5     5     6    1
    6     5     7    1
    7     5     8    1
    8     8     9    1
    9     8    10    1
   10     8    11    1
   11    11    12    1
   12    11    13    1
   13    11    14    1
   14    14    15    1
   15    14    16    1
   16    14    17    1
   17    17    18    1
   18    17    19    1
   19    17    20    1
@<TRIPOS>SUBSTRUCTURE
       1 MOL1            1 RESIDUE      1      MOL     
@<SCITEGIC>MOL_PROPERTY
VConf Rank
SciTegic.value.IntegerValue
947

@<SCITEGIC>MOL_PROPERTY
Conf_Id
SciTegic.value.IntegerValue
55

@<SCITEGIC>MOL_PROPERTY
Delta U+W
SciTegic.value.DoubleValue
2.745

@<SCITEGIC>MOL_PROPERTY
U+W
SciTegic.value.DoubleValue
18.083

@<SCITEGIC>MOL_PROPERTY
Grad RMS
SciTegic.value.DoubleValue
0.000000

@<SCITEGIC>MOL_PROPERTY
U
SciTegic.value.DoubleValue
72.490

@<SCITEGIC>MOL_PROPERTY
W
SciTegic.value.DoubleValue
-54.407

@<SCITEGIC>MOL_PROPERTY
W(PB)
SciTegic.value.DoubleValue
-56.269

@<SCITEGIC>MOL_PROPERTY
W(SA)
SciTegic.value.DoubleValue
1.861

@<SCITEGIC>MOL_PROPERTY
Valence
SciTegic.value.DoubleValue
2.738

@<SCITEGIC>MOL_PROPERTY
Coulomb
SciTegic.value.DoubleValue
69.795

@<SCITEGIC>MOL_PROPERTY
VdW
SciTegic.value.DoubleValue
-0.043

@<SCITEGIC>MOL_PROPERTY
VdW6
SciTegic.value.DoubleValue
-5.333

@<SCITEGIC>MOL_PROPERTY
VdW12
SciTegic.value.DoubleValue
5.290

@<SCITEGIC>MOL_PROPERTY
Bond
SciTegic.value.DoubleValue
0.182

@<SCITEGIC>MOL_PROPERTY
Angle
SciTegic.value.DoubleValue
1.135

@<SCITEGIC>MOL_PROPERTY
Pdih
SciTegic.value.DoubleValue
1.422

@<SCITEGIC>MOL_PROPERTY
Idih
SciTegic.value.DoubleValue
0.000

@<SCITEGIC>MOL_PROPERTY
Tether
SciTegic.value.DoubleValue
0.000

@<TRIPOS>MOLECULE
guest-s9_confgen4.mol2 : confsearch ligand conformer 948
          20          19           1
SMALL
USER_CHARGES
 
@<TRIPOS>ATOM
       1    C1      21.066039   17.177232   21.341246 C.3        1 MOL1        -0.2224
       2    H1      21.486964   16.258064   20.913320 H          1 MOL1         0.1052
       3    H2      21.827008   17.963736   21.253813 H          1 MOL1         0.1052
       4    H3      20.880280   16.980108   22.403219 H          1 MOL1         0.1052
       5    C2      19.767247   17.567006   20.599231 C.3        1 MOL1        -0.1209
       6    H4      18.989641   16.816880   20.800869 H          1 MOL1         0.1041
       7    H5      19.957239   17.523568   19.517546 H          1 MOL1         0.1041
       8    C3      19.231941   18.980779   20.942054 C.3        1 MOL1        -0.1274
       9    H6      19.979689   19.742096   20.686768 H          1 MOL1         0.1041
      10    H7      18.370506   19.180877   20.291303 H          1 MOL1         0.1041
      11    C4      18.761415   19.153148   22.405081 C.3        1 MOL1         0.0313
      12    H8      18.174444   18.278402   22.696205 H          1 MOL1         0.1015
      13    H9      18.110536   20.028480   22.472702 H          1 MOL1         0.1015
      14    N1      19.863591   19.339828   23.436035 N.4        1 MOL1        -0.4809
      15    H10     20.551033   18.577277   23.360021 H          1 MOL1         0.3726
      16    H11     19.467068   19.253922   24.385008 H          1 MOL1         0.3726
      17    C5      20.542442   20.696167   23.280397 C.3        1 MOL1        -0.0677
      18    H12     21.014566   20.755518   22.297953 H          1 MOL1         0.1026
      19    H13     19.794585   21.485716   23.380201 H          1 MOL1         0.1026
      20    H14     21.300919   20.807849   24.058311 H          1 MOL1         0.1026
@<TRIPOS>BOND
    1     1     2    1
    2     1     3    1
    3     1     4    1
    4     1     5    1
    5     5     6    1
    6     5     7    1
    7     5     8    1
    8     8     9    1
    9     8    10    1
   10     8    11    1
   11    11    12    1
   12    11    13    1
   13    11    14    1
   14    14    15    1
   15    14    16    1
   16    14    17    1
   17    17    18    1
   18    17    19    1
   19    17    20    1
@<TRIPOS>SUBSTRUCTURE
       1 MOL1            1 RESIDUE      1      MOL     
@<SCITEGIC>MOL_PROPERTY
VConf Rank
SciTegic.value.IntegerValue
948

@<SCITEGIC>MOL_PROPERTY
Conf_Id
SciTegic.value.IntegerValue
76

@<SCITEGIC>MOL_PROPERTY
Delta U+W
SciTegic.value.DoubleValue
2.799

@<SCITEGIC>MOL_PROPERTY
U+W
SciTegic.value.DoubleValue
18.137

@<SCITEGIC>MOL_PROPERTY
Grad RMS
SciTegic.value.DoubleValue
0.000000

@<SCITEGIC>MOL_PROPERTY
U
SciTegic.value.DoubleValue
72.490

@<SCITEGIC>MOL_PROPERTY
W
SciTegic.value.DoubleValue
-54.353

@<SCITEGIC>MOL_PROPERTY
W(PB)
SciTegic.value.DoubleValue
-56.201

@<SCITEGIC>MOL_PROPERTY
W(SA)
SciTegic.value.DoubleValue
1.848

@<SCITEGIC>MOL_PROPERTY
Valence
SciTegic.value.DoubleValue
2.738

@<SCITEGIC>MOL_PROPERTY
Coulomb
SciTegic.value.DoubleValue
69.795

@<SCITEGIC>MOL_PROPERTY
VdW
SciTegic.value.DoubleValue
-0.043

@<SCITEGIC>MOL_PROPERTY
VdW6
SciTegic.value.DoubleValue
-5.334

@<SCITEGIC>MOL_PROPERTY
VdW12
SciTegic.value.DoubleValue
5.290

@<SCITEGIC>MOL_PROPERTY
Bond
SciTegic.value.DoubleValue
0.182

@<SCITEGIC>MOL_PROPERTY
Angle
SciTegic.value.DoubleValue
1.135

@<SCITEGIC>MOL_PROPERTY
Pdih
SciTegic.value.DoubleValue
1.421

@<SCITEGIC>MOL_PROPERTY
Idih
SciTegic.value.DoubleValue
0.000

@<SCITEGIC>MOL_PROPERTY
Tether
SciTegic.value.DoubleValue
0.000

@<TRIPOS>MOLECULE
guest-s9_confgen4.mol2 : confsearch ligand conformer 949
          20          19           1
SMALL
USER_CHARGES
 
@<TRIPOS>ATOM
       1    C1      21.625867   20.197845   22.151524 C.3        1 MOL1        -0.2224
       2    H1      21.825948   19.387505   21.439929 H          1 MOL1         0.1052
       3    H2      21.474131   21.123067   21.580655 H          1 MOL1         0.1052
       4    H3      22.525391   20.328359   22.766884 H          1 MOL1         0.1052
       5    C2      20.400059   19.887937   23.041420 C.3        1 MOL1        -0.1209
       6    H4      20.286870   20.693083   23.780853 H          1 MOL1         0.1041
       7    H5      20.576348   18.973346   23.622115 H          1 MOL1         0.1041
       8    C3      19.082061   19.764625   22.238226 C.3        1 MOL1        -0.1274
       9    H6      18.249183   19.588356   22.931517 H          1 MOL1         0.1041
      10    H7      18.873195   20.729078   21.756718 H          1 MOL1         0.1041
      11    C4      19.071613   18.668434   21.146926 C.3        1 MOL1         0.0313
      12    H8      19.897805   18.815006   20.447291 H          1 MOL1         0.1015
      13    H9      18.140706   18.768045   20.582874 H          1 MOL1         0.1015
      14    N1      19.117637   17.234797   21.654383 N.4        1 MOL1        -0.4809
      15    H10     18.601428   16.626631   20.999813 H          1 MOL1         0.3726
      16    H11     18.607544   17.153144   22.546449 H          1 MOL1         0.3726
      17    C5      20.549802   16.727565   21.784259 C.3        1 MOL1        -0.0677
      18    H12     20.531202   15.688796   22.121215 H          1 MOL1         0.1026
      19    H13     21.040567   16.788041   20.810564 H          1 MOL1         0.1026
      20    H14     21.092614   17.336433   22.507900 H          1 MOL1         0.1026
@<TRIPOS>BOND
    1     1     2    1
    2     1     3    1
    3     1     4    1
    4     1     5    1
    5     5     6    1
    6     5     7    1
    7     5     8    1
    8     8     9    1
    9     8    10    1
   10     8    11    1
   11    11    12    1
   12    11    13    1
   13    11    14    1
   14    14    15    1
   15    14    16    1
   16    14    17    1
   17    17    18    1
   18    17    19    1
   19    17    20    1
@<TRIPOS>SUBSTRUCTURE
       1 MOL1            1 RESIDUE      1      MOL     
@<SCITEGIC>MOL_PROPERTY
VConf Rank
SciTegic.value.IntegerValue
949

@<SCITEGIC>MOL_PROPERTY
Conf_Id
SciTegic.value.IntegerValue
60

@<SCITEGIC>MOL_PROPERTY
Delta U+W
SciTegic.value.DoubleValue
1.788

@<SCITEGIC>MOL_PROPERTY
U+W
SciTegic.value.DoubleValue
17.127

@<SCITEGIC>MOL_PROPERTY
Grad RMS
SciTegic.value.DoubleValue
0.000000

@<SCITEGIC>MOL_PROPERTY
U
SciTegic.value.DoubleValue
72.122

@<SCITEGIC>MOL_PROPERTY
W
SciTegic.value.DoubleValue
-54.995

@<SCITEGIC>MOL_PROPERTY
W(PB)
SciTegic.value.DoubleValue
-56.810

@<SCITEGIC>MOL_PROPERTY
W(SA)
SciTegic.value.DoubleValue
1.815

@<SCITEGIC>MOL_PROPERTY
Valence
SciTegic.value.DoubleValue
3.197

@<SCITEGIC>MOL_PROPERTY
Coulomb
SciTegic.value.DoubleValue
69.115

@<SCITEGIC>MOL_PROPERTY
VdW
SciTegic.value.DoubleValue
-0.190

@<SCITEGIC>MOL_PROPERTY
VdW6
SciTegic.value.DoubleValue
-5.585

@<SCITEGIC>MOL_PROPERTY
VdW12
SciTegic.value.DoubleValue
5.395

@<SCITEGIC>MOL_PROPERTY
Bond
SciTegic.value.DoubleValue
0.177

@<SCITEGIC>MOL_PROPERTY
Angle
SciTegic.value.DoubleValue
1.207

@<SCITEGIC>MOL_PROPERTY
Pdih
SciTegic.value.DoubleValue
1.813

@<SCITEGIC>MOL_PROPERTY
Idih
SciTegic.value.DoubleValue
0.000

@<SCITEGIC>MOL_PROPERTY
Tether
SciTegic.value.DoubleValue
0.000

@<TRIPOS>MOLECULE
guest-s9_confgen4.mol2 : confsearch ligand conformer 950
          20          19           1
SMALL
USER_CHARGES
 
@<TRIPOS>ATOM
       1    C1      20.161123   18.859503   24.139732 C.3        1 MOL1        -0.2224
       2    H1      19.457890   18.591039   24.938628 H          1 MOL1         0.1052
       3    H2      21.120734   19.111161   24.609591 H          1 MOL1         0.1052
       4    H3      19.775707   19.761137   23.648243 H          1 MOL1         0.1052
       5    C2      20.321991   17.688882   23.142572 C.3        1 MOL1        -0.1209
       6    H4      19.350896   17.434637   22.698615 H          1 MOL1         0.1041
       7    H5      20.640123   16.794024   23.695611 H          1 MOL1         0.1041
       8    C3      21.358799   17.977422   22.029368 C.3        1 MOL1        -0.1274
       9    H6      22.343142   18.118755   22.494922 H          1 MOL1         0.1041
      10    H7      21.455367   17.093843   21.384877 H          1 MOL1         0.1041
      11    C4      21.059282   19.214043   21.149745 C.3        1 MOL1         0.0313
      12    H8      21.918359   19.372110   20.492730 H          1 MOL1         0.1015
      13    H9      20.948970   20.107802   21.768284 H          1 MOL1         0.1015
      14    N1      19.840354   19.098922   20.246472 N.4        1 MOL1        -0.4809
      15    H10     19.726336   18.128042   19.919303 H          1 MOL1         0.3726
      16    H11     20.001326   19.648384   19.387997 H          1 MOL1         0.3726
      17    C5      18.577624   19.605679   20.934916 C.3        1 MOL1        -0.0677
      18    H12     18.722132   20.648537   21.225009 H          1 MOL1         0.1026
      19    H13     17.738237   19.531690   20.240020 H          1 MOL1         0.1026
      20    H14     18.372888   19.002892   21.820213 H          1 MOL1         0.1026
@<TRIPOS>BOND
    1     1     2    1
    2     1     3    1
    3     1     4    1
    4     1     5    1
    5     5     6    1
    6     5     7    1
    7     5     8    1
    8     8     9    1
    9     8    10    1
   10     8    11    1
   11    11    12    1
   12    11    13    1
   13    11    14    1
   14    14    15    1
   15    14    16    1
   16    14    17    1
   17    17    18    1
   18    17    19    1
   19    17    20    1
@<TRIPOS>SUBSTRUCTURE
       1 MOL1            1 RESIDUE      1      MOL     
@<SCITEGIC>MOL_PROPERTY
VConf Rank
SciTegic.value.IntegerValue
950

@<SCITEGIC>MOL_PROPERTY
Conf_Id
SciTegic.value.IntegerValue
54

@<SCITEGIC>MOL_PROPERTY
Delta U+W
SciTegic.value.DoubleValue
1.880

@<SCITEGIC>MOL_PROPERTY
U+W
SciTegic.value.DoubleValue
17.218

@<SCITEGIC>MOL_PROPERTY
Grad RMS
SciTegic.value.DoubleValue
0.000000

@<SCITEGIC>MOL_PROPERTY
U
SciTegic.value.DoubleValue
72.122

@<SCITEGIC>MOL_PROPERTY
W
SciTegic.value.DoubleValue
-54.903

@<SCITEGIC>MOL_PROPERTY
W(PB)
SciTegic.value.DoubleValue
-56.724

@<SCITEGIC>MOL_PROPERTY
W(SA)
SciTegic.value.DoubleValue
1.821

@<SCITEGIC>MOL_PROPERTY
Valence
SciTegic.value.DoubleValue
3.197

@<SCITEGIC>MOL_PROPERTY
Coulomb
SciTegic.value.DoubleValue
69.115

@<SCITEGIC>MOL_PROPERTY
VdW
SciTegic.value.DoubleValue
-0.190

@<SCITEGIC>MOL_PROPERTY
VdW6
SciTegic.value.DoubleValue
-5.585

@<SCITEGIC>MOL_PROPERTY
VdW12
SciTegic.value.DoubleValue
5.395

@<SCITEGIC>MOL_PROPERTY
Bond
SciTegic.value.DoubleValue
0.177

@<SCITEGIC>MOL_PROPERTY
Angle
SciTegic.value.DoubleValue
1.207

@<SCITEGIC>MOL_PROPERTY
Pdih
SciTegic.value.DoubleValue
1.813

@<SCITEGIC>MOL_PROPERTY
Idih
SciTegic.value.DoubleValue
0.000

@<SCITEGIC>MOL_PROPERTY
Tether
SciTegic.value.DoubleValue
0.000

@<TRIPOS>MOLECULE
guest-s9_confgen4.mol2 : confsearch ligand conformer 951
          20          19           1
SMALL
USER_CHARGES
 
@<TRIPOS>ATOM
       1    C1      17.685236   17.400716   23.652582 C.3        1 MOL1        -0.2224
       2    H1      17.524388   16.560901   22.964094 H          1 MOL1         0.1052
       3    H2      17.542420   17.028750   24.675456 H          1 MOL1         0.1052
       4    H3      16.911435   18.154766   23.458118 H          1 MOL1         0.1052
       5    C2      19.099037   17.997467   23.481447 C.3        1 MOL1        -0.1209
       6    H4      19.850165   17.229997   23.716280 H          1 MOL1         0.1041
       7    H5      19.242000   18.811370   24.206344 H          1 MOL1         0.1041
       8    C3      19.328653   18.529477   22.049664 C.3        1 MOL1        -0.1274
       9    H6      19.189088   17.715009   21.326387 H          1 MOL1         0.1041
      10    H7      18.579978   19.298470   21.817068 H          1 MOL1         0.1041
      11    C4      20.740388   19.122912   21.887111 C.3        1 MOL1         0.0313
      12    H8      21.488256   18.355689   22.102868 H          1 MOL1         0.1015
      13    H9      20.877123   19.944310   22.594992 H          1 MOL1         0.1015
      14    N1      21.011709   19.658556   20.494927 N.4        1 MOL1        -0.4809
      15    H10     20.319023   20.382734   20.250163 H          1 MOL1         0.3726
      16    H11     20.884906   18.911874   19.794540 H          1 MOL1         0.3726
      17    C5      22.423681   20.224398   20.421903 C.3        1 MOL1        -0.0677
      18    H12     23.140832   19.433047   20.650517 H          1 MOL1         0.1026
      19    H13     22.605542   20.606249   19.414865 H          1 MOL1         0.1026
      20    H14     22.524457   21.035156   21.146696 H          1 MOL1         0.1026
@<TRIPOS>BOND
    1     1     2    1
    2     1     3    1
    3     1     4    1
    4     1     5    1
    5     5     6    1
    6     5     7    1
    7     5     8    1
    8     8     9    1
    9     8    10    1
   10     8    11    1
   11    11    12    1
   12    11    13    1
   13    11    14    1
   14    14    15    1
   15    14    16    1
   16    14    17    1
   17    17    18    1
   18    17    19    1
   19    17    20    1
@<TRIPOS>SUBSTRUCTURE
       1 MOL1            1 RESIDUE      1      MOL     
@<SCITEGIC>MOL_PROPERTY
VConf Rank
SciTegic.value.IntegerValue
951

@<SCITEGIC>MOL_PROPERTY
Conf_Id
SciTegic.value.IntegerValue
67

@<SCITEGIC>MOL_PROPERTY
Delta U+W
SciTegic.value.DoubleValue
0.000

@<SCITEGIC>MOL_PROPERTY
U+W
SciTegic.value.DoubleValue
15.338

@<SCITEGIC>MOL_PROPERTY
Grad RMS
SciTegic.value.DoubleValue
0.000000

@<SCITEGIC>MOL_PROPERTY
U
SciTegic.value.DoubleValue
69.277

@<SCITEGIC>MOL_PROPERTY
W
SciTegic.value.DoubleValue
-53.939

@<SCITEGIC>MOL_PROPERTY
W(PB)
SciTegic.value.DoubleValue
-55.889

@<SCITEGIC>MOL_PROPERTY
W(SA)
SciTegic.value.DoubleValue
1.950

@<SCITEGIC>MOL_PROPERTY
Valence
SciTegic.value.DoubleValue
0.846

@<SCITEGIC>MOL_PROPERTY
Coulomb
SciTegic.value.DoubleValue
68.557

@<SCITEGIC>MOL_PROPERTY
VdW
SciTegic.value.DoubleValue
-0.127

@<SCITEGIC>MOL_PROPERTY
VdW6
SciTegic.value.DoubleValue
-3.008

@<SCITEGIC>MOL_PROPERTY
VdW12
SciTegic.value.DoubleValue
2.882

@<SCITEGIC>MOL_PROPERTY
Bond
SciTegic.value.DoubleValue
0.088

@<SCITEGIC>MOL_PROPERTY
Angle
SciTegic.value.DoubleValue
0.332

@<SCITEGIC>MOL_PROPERTY
Pdih
SciTegic.value.DoubleValue
0.426

@<SCITEGIC>MOL_PROPERTY
Idih
SciTegic.value.DoubleValue
0.000

@<SCITEGIC>MOL_PROPERTY
Tether
SciTegic.value.DoubleValue
0.000

@<TRIPOS>MOLECULE
guest-s9_confgen4.mol2 : confsearch ligand conformer 952
          20          19           1
SMALL
USER_CHARGES
 
@<TRIPOS>ATOM
       1    C1      18.158161   21.183110   22.134834 C.3        1 MOL1        -0.2224
       2    H1      17.532819   20.622574   22.841881 H          1 MOL1         0.1052
       3    H2      18.101089   22.245565   22.404927 H          1 MOL1         0.1052
       4    H3      17.727087   21.067714   21.131825 H          1 MOL1         0.1052
       5    C2      19.620420   20.688459   22.172143 C.3        1 MOL1        -0.1209
       6    H4      20.034475   20.848410   23.177777 H          1 MOL1         0.1041
       7    H5      20.227283   21.290769   21.481312 H          1 MOL1         0.1041
       8    C3      19.731500   19.194619   21.795589 C.3        1 MOL1        -0.1274
       9    H6      19.124125   18.597349   22.487772 H          1 MOL1         0.1041
      10    H7      19.321703   19.036325   20.789293 H          1 MOL1         0.1041
      11    C4      21.195733   18.710367   21.834260 C.3        1 MOL1         0.0313
      12    H8      21.596185   18.819489   22.845256 H          1 MOL1         0.1015
      13    H9      21.793366   19.334394   21.164856 H          1 MOL1         0.1015
      14    N1      21.396397   17.266167   21.404395 N.4        1 MOL1        -0.4809
      15    H10     22.405154   17.074087   21.300458 H          1 MOL1         0.3726
      16    H11     21.000823   17.114911   20.463959 H          1 MOL1         0.3726
      17    C5      20.786629   16.297501   22.412057 C.3        1 MOL1        -0.0677
      18    H12     19.708820   16.462305   22.467319 H          1 MOL1         0.1026
      19    H13     20.984121   15.273267   22.088154 H          1 MOL1         0.1026
      20    H14     21.238044   16.466765   23.391997 H          1 MOL1         0.1026
@<TRIPOS>BOND
    1     1     2    1
    2     1     3    1
    3     1     4    1
    4     1     5    1
    5     5     6    1
    6     5     7    1
    7     5     8    1
    8     8     9    1
    9     8    10    1
   10     8    11    1
   11    11    12    1
   12    11    13    1
   13    11    14    1
   14    14    15    1
   15    14    16    1
   16    14    17    1
   17    17    18    1
   18    17    19    1
   19    17    20    1
@<TRIPOS>SUBSTRUCTURE
       1 MOL1            1 RESIDUE      1      MOL     
@<SCITEGIC>MOL_PROPERTY
VConf Rank
SciTegic.value.IntegerValue
952

@<SCITEGIC>MOL_PROPERTY
Conf_Id
SciTegic.value.IntegerValue
37

@<SCITEGIC>MOL_PROPERTY
Delta U+W
SciTegic.value.DoubleValue
-0.021

@<SCITEGIC>MOL_PROPERTY
U+W
SciTegic.value.DoubleValue
15.318

@<SCITEGIC>MOL_PROPERTY
Grad RMS
SciTegic.value.DoubleValue
0.000000

@<SCITEGIC>MOL_PROPERTY
U
SciTegic.value.DoubleValue
69.657

@<SCITEGIC>MOL_PROPERTY
W
SciTegic.value.DoubleValue
-54.340

@<SCITEGIC>MOL_PROPERTY
W(PB)
SciTegic.value.DoubleValue
-56.238

@<SCITEGIC>MOL_PROPERTY
W(SA)
SciTegic.value.DoubleValue
1.899

@<SCITEGIC>MOL_PROPERTY
Valence
SciTegic.value.DoubleValue
1.137

@<SCITEGIC>MOL_PROPERTY
Coulomb
SciTegic.value.DoubleValue
68.383

@<SCITEGIC>MOL_PROPERTY
VdW
SciTegic.value.DoubleValue
0.138

@<SCITEGIC>MOL_PROPERTY
VdW6
SciTegic.value.DoubleValue
-3.703

@<SCITEGIC>MOL_PROPERTY
VdW12
SciTegic.value.DoubleValue
3.841

@<SCITEGIC>MOL_PROPERTY
Bond
SciTegic.value.DoubleValue
0.125

@<SCITEGIC>MOL_PROPERTY
Angle
SciTegic.value.DoubleValue
0.468

@<SCITEGIC>MOL_PROPERTY
Pdih
SciTegic.value.DoubleValue
0.543

@<SCITEGIC>MOL_PROPERTY
Idih
SciTegic.value.DoubleValue
0.000

@<SCITEGIC>MOL_PROPERTY
Tether
SciTegic.value.DoubleValue
0.000

@<TRIPOS>MOLECULE
guest-s9_confgen4.mol2 : confsearch ligand conformer 953
          20          19           1
SMALL
USER_CHARGES
 
@<TRIPOS>ATOM
       1    C1      20.908112   16.168567   20.826681 C.3        1 MOL1        -0.2224
       2    H1      21.145243   15.682760   19.871285 H          1 MOL1         0.1052
       3    H2      21.834722   16.228471   21.412320 H          1 MOL1         0.1052
       4    H3      20.203978   15.522233   21.366696 H          1 MOL1         0.1052
       5    C2      20.307160   17.571295   20.591141 C.3        1 MOL1        -0.1209
       6    H4      19.402084   17.481733   19.973788 H          1 MOL1         0.1041
       7    H5      21.019926   18.182683   20.019743 H          1 MOL1         0.1041
       8    C3      19.962941   18.279490   21.919922 C.3        1 MOL1        -0.1274
       9    H6      19.247671   17.670307   22.488172 H          1 MOL1         0.1041
      10    H7      20.869319   18.366607   22.532820 H          1 MOL1         0.1041
      11    C4      19.361992   19.678944   21.674246 C.3        1 MOL1         0.0313
      12    H8      18.479541   19.579017   21.037086 H          1 MOL1         0.1015
      13    H9      20.086979   20.307622   21.151236 H          1 MOL1         0.1015
      14    N1      18.928970   20.411876   22.933634 N.4        1 MOL1        -0.4809
      15    H10     18.266249   19.834459   23.473231 H          1 MOL1         0.3726
      16    H11     18.393932   21.255761   22.675024 H          1 MOL1         0.3726
      17    C5      20.129634   20.802640   23.788752 C.3        1 MOL1        -0.0677
      18    H12     20.802499   21.428816   23.198953 H          1 MOL1         0.1026
      19    H13     19.781015   21.358391   24.662009 H          1 MOL1         0.1026
      20    H14     20.652426   19.900994   24.113727 H          1 MOL1         0.1026
@<TRIPOS>BOND
    1     1     2    1
    2     1     3    1
    3     1     4    1
    4     1     5    1
    5     5     6    1
    6     5     7    1
    7     5     8    1
    8     8     9    1
    9     8    10    1
   10     8    11    1
   11    11    12    1
   12    11    13    1
   13    11    14    1
   14    14    15    1
   15    14    16    1
   16    14    17    1
   17    17    18    1
   18    17    19    1
   19    17    20    1
@<TRIPOS>SUBSTRUCTURE
       1 MOL1            1 RESIDUE      1      MOL     
@<SCITEGIC>MOL_PROPERTY
VConf Rank
SciTegic.value.IntegerValue
953

@<SCITEGIC>MOL_PROPERTY
Conf_Id
SciTegic.value.IntegerValue
2

@<SCITEGIC>MOL_PROPERTY
Delta U+W
SciTegic.value.DoubleValue
0.069

@<SCITEGIC>MOL_PROPERTY
U+W
SciTegic.value.DoubleValue
15.407

@<SCITEGIC>MOL_PROPERTY
Grad RMS
SciTegic.value.DoubleValue
0.000000

@<SCITEGIC>MOL_PROPERTY
U
SciTegic.value.DoubleValue
69.657

@<SCITEGIC>MOL_PROPERTY
W
SciTegic.value.DoubleValue
-54.250

@<SCITEGIC>MOL_PROPERTY
W(PB)
SciTegic.value.DoubleValue
-56.176

@<SCITEGIC>MOL_PROPERTY
W(SA)
SciTegic.value.DoubleValue
1.926

@<SCITEGIC>MOL_PROPERTY
Valence
SciTegic.value.DoubleValue
1.137

@<SCITEGIC>MOL_PROPERTY
Coulomb
SciTegic.value.DoubleValue
68.383

@<SCITEGIC>MOL_PROPERTY
VdW
SciTegic.value.DoubleValue
0.138

@<SCITEGIC>MOL_PROPERTY
VdW6
SciTegic.value.DoubleValue
-3.703

@<SCITEGIC>MOL_PROPERTY
VdW12
SciTegic.value.DoubleValue
3.841

@<SCITEGIC>MOL_PROPERTY
Bond
SciTegic.value.DoubleValue
0.125

@<SCITEGIC>MOL_PROPERTY
Angle
SciTegic.value.DoubleValue
0.468

@<SCITEGIC>MOL_PROPERTY
Pdih
SciTegic.value.DoubleValue
0.543

@<SCITEGIC>MOL_PROPERTY
Idih
SciTegic.value.DoubleValue
0.000

@<SCITEGIC>MOL_PROPERTY
Tether
SciTegic.value.DoubleValue
0.000

@<TRIPOS>MOLECULE
guest-s9_confgen4.mol2 : confsearch ligand conformer 954
          20          19           1
SMALL
USER_CHARGES
 
@<TRIPOS>ATOM
       1    C1      22.331129   19.989421   21.535872 C.3        1 MOL1        -0.2224
       2    H1      22.432585   18.902354   21.426071 H          1 MOL1         0.1052
       3    H2      22.037075   20.406374   20.563873 H          1 MOL1         0.1052
       4    H3      23.322023   20.390256   21.785771 H          1 MOL1         0.1052
       5    C2      21.305327   20.357052   22.632624 C.3        1 MOL1        -0.1209
       6    H4      21.305209   21.447230   22.772357 H          1 MOL1         0.1041
       7    H5      21.619620   19.923031   23.592338 H          1 MOL1         0.1041
       8    C3      19.868527   19.893509   22.296601 C.3        1 MOL1        -0.1274
       9    H6      19.185133   20.254102   23.076860 H          1 MOL1         0.1041
      10    H7      19.543376   20.355863   21.355128 H          1 MOL1         0.1041
      11    C4      19.748993   18.360742   22.188975 C.3        1 MOL1         0.0313
      12    H8      20.070351   17.900901   23.126871 H          1 MOL1         0.1015
      13    H9      20.396342   17.996134   21.387871 H          1 MOL1         0.1015
      14    N1      18.339146   17.886056   21.896611 N.4        1 MOL1        -0.4809
      15    H10     17.995543   18.307724   21.020128 H          1 MOL1         0.3726
      16    H11     17.692611   18.215530   22.629784 H          1 MOL1         0.3726
      17    C5      18.311409   16.366251   21.804349 C.3        1 MOL1        -0.0677
      18    H12     18.645918   15.941896   22.753469 H          1 MOL1         0.1026
      19    H13     17.291105   16.038181   21.593741 H          1 MOL1         0.1026
      20    H14     18.975557   16.042288   21.000138 H          1 MOL1         0.1026
@<TRIPOS>BOND
    1     1     2    1
    2     1     3    1
    3     1     4    1
    4     1     5    1
    5     5     6    1
    6     5     7    1
    7     5     8    1
    8     8     9    1
    9     8    10    1
   10     8    11    1
   11    11    12    1
   12    11    13    1
   13    11    14    1
   14    14    15    1
   15    14    16    1
   16    14    17    1
   17    17    18    1
   18    17    19    1
   19    17    20    1
@<TRIPOS>SUBSTRUCTURE
       1 MOL1            1 RESIDUE      1      MOL     
@<SCITEGIC>MOL_PROPERTY
VConf Rank
SciTegic.value.IntegerValue
954

@<SCITEGIC>MOL_PROPERTY
Conf_Id
SciTegic.value.IntegerValue
34

@<SCITEGIC>MOL_PROPERTY
Delta U+W
SciTegic.value.DoubleValue
0.276

@<SCITEGIC>MOL_PROPERTY
U+W
SciTegic.value.DoubleValue
15.615

@<SCITEGIC>MOL_PROPERTY
Grad RMS
SciTegic.value.DoubleValue
0.000000

@<SCITEGIC>MOL_PROPERTY
U
SciTegic.value.DoubleValue
69.798

@<SCITEGIC>MOL_PROPERTY
W
SciTegic.value.DoubleValue
-54.184

@<SCITEGIC>MOL_PROPERTY
W(PB)
SciTegic.value.DoubleValue
-56.116

@<SCITEGIC>MOL_PROPERTY
W(SA)
SciTegic.value.DoubleValue
1.933

@<SCITEGIC>MOL_PROPERTY
Valence
SciTegic.value.DoubleValue
1.134

@<SCITEGIC>MOL_PROPERTY
Coulomb
SciTegic.value.DoubleValue
68.735

@<SCITEGIC>MOL_PROPERTY
VdW
SciTegic.value.DoubleValue
-0.070

@<SCITEGIC>MOL_PROPERTY
VdW6
SciTegic.value.DoubleValue
-3.565

@<SCITEGIC>MOL_PROPERTY
VdW12
SciTegic.value.DoubleValue
3.494

@<SCITEGIC>MOL_PROPERTY
Bond
SciTegic.value.DoubleValue
0.108

@<SCITEGIC>MOL_PROPERTY
Angle
SciTegic.value.DoubleValue
0.456

@<SCITEGIC>MOL_PROPERTY
Pdih
SciTegic.value.DoubleValue
0.569

@<SCITEGIC>MOL_PROPERTY
Idih
SciTegic.value.DoubleValue
0.000

@<SCITEGIC>MOL_PROPERTY
Tether
SciTegic.value.DoubleValue
0.000

@<TRIPOS>MOLECULE
guest-s9_confgen4.mol2 : confsearch ligand conformer 955
          20          19           1
SMALL
USER_CHARGES
 
@<TRIPOS>ATOM
       1    C1      18.250252   16.379670   22.456545 C.3        1 MOL1        -0.2224
       2    H1      17.830891   16.060899   21.493378 H          1 MOL1         0.1052
       3    H2      18.541752   15.478046   23.010736 H          1 MOL1         0.1052
       4    H3      17.456648   16.881788   23.025097 H          1 MOL1         0.1052
       5    C2      19.464221   17.312008   22.253935 C.3        1 MOL1        -0.1209
       6    H4      20.252041   16.771163   21.710657 H          1 MOL1         0.1041
       7    H5      19.880532   17.576992   23.235243 H          1 MOL1         0.1041
       8    C3      19.079244   18.591902   21.474929 C.3        1 MOL1        -0.1274
       9    H6      18.629161   18.309889   20.513795 H          1 MOL1         0.1041
      10    H7      18.312289   19.152196   22.026023 H          1 MOL1         0.1041
      11    C4      20.287243   19.508800   21.196404 C.3        1 MOL1         0.0313
      12    H8      19.968626   20.345522   20.569507 H          1 MOL1         0.1015
      13    H9      21.054676   18.950753   20.654128 H          1 MOL1         0.1015
      14    N1      20.924121   20.089680   22.444944 N.4        1 MOL1        -0.4809
      15    H10     21.242369   19.331979   23.067087 H          1 MOL1         0.3726
      16    H11     20.223759   20.616422   22.989080 H          1 MOL1         0.3726
      17    C5      22.090852   20.990298   22.062239 C.3        1 MOL1        -0.0677
      18    H12     22.833842   20.404506   21.516707 H          1 MOL1         0.1026
      19    H13     21.725704   21.803576   21.431342 H          1 MOL1         0.1026
      20    H14     22.539623   21.401206   22.969294 H          1 MOL1         0.1026
@<TRIPOS>BOND
    1     1     2    1
    2     1     3    1
    3     1     4    1
    4     1     5    1
    5     5     6    1
    6     5     7    1
    7     5     8    1
    8     8     9    1
    9     8    10    1
   10     8    11    1
   11    11    12    1
   12    11    13    1
   13    11    14    1
   14    14    15    1
   15    14    16    1
   16    14    17    1
   17    17    18    1
   18    17    19    1
   19    17    20    1
@<TRIPOS>SUBSTRUCTURE
       1 MOL1            1 RESIDUE      1      MOL     
@<SCITEGIC>MOL_PROPERTY
VConf Rank
SciTegic.value.IntegerValue
955

@<SCITEGIC>MOL_PROPERTY
Conf_Id
SciTegic.value.IntegerValue
50

@<SCITEGIC>MOL_PROPERTY
Delta U+W
SciTegic.value.DoubleValue
0.319

@<SCITEGIC>MOL_PROPERTY
U+W
SciTegic.value.DoubleValue
15.657

@<SCITEGIC>MOL_PROPERTY
Grad RMS
SciTegic.value.DoubleValue
0.000000

@<SCITEGIC>MOL_PROPERTY
U
SciTegic.value.DoubleValue
69.962

@<SCITEGIC>MOL_PROPERTY
W
SciTegic.value.DoubleValue
-54.305

@<SCITEGIC>MOL_PROPERTY
W(PB)
SciTegic.value.DoubleValue
-56.223

@<SCITEGIC>MOL_PROPERTY
W(SA)
SciTegic.value.DoubleValue
1.918

@<SCITEGIC>MOL_PROPERTY
Valence
SciTegic.value.DoubleValue
0.982

@<SCITEGIC>MOL_PROPERTY
Coulomb
SciTegic.value.DoubleValue
69.058

@<SCITEGIC>MOL_PROPERTY
VdW
SciTegic.value.DoubleValue
-0.078

@<SCITEGIC>MOL_PROPERTY
VdW6
SciTegic.value.DoubleValue
-3.548

@<SCITEGIC>MOL_PROPERTY
VdW12
SciTegic.value.DoubleValue
3.471

@<SCITEGIC>MOL_PROPERTY
Bond
SciTegic.value.DoubleValue
0.105

@<SCITEGIC>MOL_PROPERTY
Angle
SciTegic.value.DoubleValue
0.408

@<SCITEGIC>MOL_PROPERTY
Pdih
SciTegic.value.DoubleValue
0.469

@<SCITEGIC>MOL_PROPERTY
Idih
SciTegic.value.DoubleValue
0.000

@<SCITEGIC>MOL_PROPERTY
Tether
SciTegic.value.DoubleValue
0.000

@<TRIPOS>MOLECULE
guest-s9_confgen4.mol2 : confsearch ligand conformer 956
          20          19           1
SMALL
USER_CHARGES
 
@<TRIPOS>ATOM
       1    C1      17.058516   19.181540   22.166250 C.3        1 MOL1        -0.2224
       2    H1      16.544753   20.102472   22.471143 H          1 MOL1         0.1052
       3    H2      16.610941   18.844094   21.222335 H          1 MOL1         0.1052
       4    H3      16.861189   18.417972   22.929930 H          1 MOL1         0.1052
       5    C2      18.574100   19.429500   22.006421 C.3        1 MOL1        -0.1209
       6    H4      18.978450   19.803321   22.956818 H          1 MOL1         0.1041
       7    H5      18.737050   20.219549   21.259699 H          1 MOL1         0.1041
       8    C3      19.322097   18.145179   21.577227 C.3        1 MOL1        -0.1274
       9    H6      19.186965   17.359956   22.332887 H          1 MOL1         0.1041
      10    H7      18.881132   17.762287   20.647267 H          1 MOL1         0.1041
      11    C4      20.827641   18.380251   21.341382 C.3        1 MOL1         0.0313
      12    H8      20.964111   19.166451   20.594588 H          1 MOL1         0.1015
      13    H9      21.280385   17.463109   20.956036 H          1 MOL1         0.1015
      14    N1      21.594403   18.779645   22.588158 N.4        1 MOL1        -0.4809
      15    H10     21.479405   18.062917   23.321047 H          1 MOL1         0.3726
      16    H11     21.200295   19.645071   22.985865 H          1 MOL1         0.3726
      17    C5      23.067727   18.969806   22.253501 C.3        1 MOL1        -0.0677
      18    H12     23.607242   19.256931   23.158748 H          1 MOL1         0.1026
      19    H13     23.472446   18.032526   21.865566 H          1 MOL1         0.1026
      20    H14     23.167436   19.754914   21.500869 H          1 MOL1         0.1026
@<TRIPOS>BOND
    1     1     2    1
    2     1     3    1
    3     1     4    1
    4     1     5    1
    5     5     6    1
    6     5     7    1
    7     5     8    1
    8     8     9    1
    9     8    10    1
   10     8    11    1
   11    11    12    1
   12    11    13    1
   13    11    14    1
   14    14    15    1
   15    14    16    1
   16    14    17    1
   17    17    18    1
   18    17    19    1
   19    17    20    1
@<TRIPOS>SUBSTRUCTURE
       1 MOL1            1 RESIDUE      1      MOL     
@<SCITEGIC>MOL_PROPERTY
VConf Rank
SciTegic.value.IntegerValue
956

@<SCITEGIC>MOL_PROPERTY
Conf_Id
SciTegic.value.IntegerValue
35

@<SCITEGIC>MOL_PROPERTY
Delta U+W
SciTegic.value.DoubleValue
0.360

@<SCITEGIC>MOL_PROPERTY
U+W
SciTegic.value.DoubleValue
15.698

@<SCITEGIC>MOL_PROPERTY
Grad RMS
SciTegic.value.DoubleValue
0.000000

@<SCITEGIC>MOL_PROPERTY
U
SciTegic.value.DoubleValue
69.962

@<SCITEGIC>MOL_PROPERTY
W
SciTegic.value.DoubleValue
-54.264

@<SCITEGIC>MOL_PROPERTY
W(PB)
SciTegic.value.DoubleValue
-56.166

@<SCITEGIC>MOL_PROPERTY
W(SA)
SciTegic.value.DoubleValue
1.902

@<SCITEGIC>MOL_PROPERTY
Valence
SciTegic.value.DoubleValue
0.982

@<SCITEGIC>MOL_PROPERTY
Coulomb
SciTegic.value.DoubleValue
69.058

@<SCITEGIC>MOL_PROPERTY
VdW
SciTegic.value.DoubleValue
-0.078

@<SCITEGIC>MOL_PROPERTY
VdW6
SciTegic.value.DoubleValue
-3.548

@<SCITEGIC>MOL_PROPERTY
VdW12
SciTegic.value.DoubleValue
3.471

@<SCITEGIC>MOL_PROPERTY
Bond
SciTegic.value.DoubleValue
0.105

@<SCITEGIC>MOL_PROPERTY
Angle
SciTegic.value.DoubleValue
0.408

@<SCITEGIC>MOL_PROPERTY
Pdih
SciTegic.value.DoubleValue
0.469

@<SCITEGIC>MOL_PROPERTY
Idih
SciTegic.value.DoubleValue
0.000

@<SCITEGIC>MOL_PROPERTY
Tether
SciTegic.value.DoubleValue
0.000

@<TRIPOS>MOLECULE
guest-s9_confgen4.mol2 : confsearch ligand conformer 957
          20          19           1
SMALL
USER_CHARGES
 
@<TRIPOS>ATOM
       1    C1      19.162346   20.627749   20.490672 C.3        1 MOL1        -0.2224
       2    H1      18.441684   20.588892   21.317235 H          1 MOL1         0.1052
       3    H2      19.056194   21.606469   20.005067 H          1 MOL1         0.1052
       4    H3      18.885224   19.858804   19.757856 H          1 MOL1         0.1052
       5    C2      20.611394   20.424361   20.989772 C.3        1 MOL1        -0.1209
       6    H4      20.861466   21.202593   21.724609 H          1 MOL1         0.1041
       7    H5      21.303553   20.561739   20.147140 H          1 MOL1         0.1041
       8    C3      20.845653   19.027080   21.609937 C.3        1 MOL1        -0.1274
       9    H6      20.630330   18.255258   20.859846 H          1 MOL1         0.1041
      10    H7      21.907345   18.925009   21.870528 H          1 MOL1         0.1041
      11    C4      19.990308   18.788362   22.872817 C.3        1 MOL1         0.0313
      12    H8      18.929082   18.820507   22.614897 H          1 MOL1         0.1015
      13    H9      20.188483   19.587692   23.591404 H          1 MOL1         0.1015
      14    N1      20.258480   17.468837   23.578035 N.4        1 MOL1        -0.4809
      15    H10     19.774476   17.459769   24.489554 H          1 MOL1         0.3726
      16    H11     21.259865   17.384575   23.810084 H          1 MOL1         0.3726
      17    C5      19.795269   16.285993   22.734422 C.3        1 MOL1        -0.0677
      18    H12     20.358779   16.264469   21.799606 H          1 MOL1         0.1026
      19    H13     19.970099   15.361195   23.288630 H          1 MOL1         0.1026
      20    H14     18.729231   16.391523   22.521999 H          1 MOL1         0.1026
@<TRIPOS>BOND
    1     1     2    1
    2     1     3    1
    3     1     4    1
    4     1     5    1
    5     5     6    1
    6     5     7    1
    7     5     8    1
    8     8     9    1
    9     8    10    1
   10     8    11    1
   11    11    12    1
   12    11    13    1
   13    11    14    1
   14    14    15    1
   15    14    16    1
   16    14    17    1
   17    17    18    1
   18    17    19    1
   19    17    20    1
@<TRIPOS>SUBSTRUCTURE
       1 MOL1            1 RESIDUE      1      MOL     
@<SCITEGIC>MOL_PROPERTY
VConf Rank
SciTegic.value.IntegerValue
957

@<SCITEGIC>MOL_PROPERTY
Conf_Id
SciTegic.value.IntegerValue
33

@<SCITEGIC>MOL_PROPERTY
Delta U+W
SciTegic.value.DoubleValue
0.372

@<SCITEGIC>MOL_PROPERTY
U+W
SciTegic.value.DoubleValue
15.711

@<SCITEGIC>MOL_PROPERTY
Grad RMS
SciTegic.value.DoubleValue
0.000000

@<SCITEGIC>MOL_PROPERTY
U
SciTegic.value.DoubleValue
70.163

@<SCITEGIC>MOL_PROPERTY
W
SciTegic.value.DoubleValue
-54.452

@<SCITEGIC>MOL_PROPERTY
W(PB)
SciTegic.value.DoubleValue
-56.363

@<SCITEGIC>MOL_PROPERTY
W(SA)
SciTegic.value.DoubleValue
1.911

@<SCITEGIC>MOL_PROPERTY
Valence
SciTegic.value.DoubleValue
1.420

@<SCITEGIC>MOL_PROPERTY
Coulomb
SciTegic.value.DoubleValue
68.566

@<SCITEGIC>MOL_PROPERTY
VdW
SciTegic.value.DoubleValue
0.177

@<SCITEGIC>MOL_PROPERTY
VdW6
SciTegic.value.DoubleValue
-4.267

@<SCITEGIC>MOL_PROPERTY
VdW12
SciTegic.value.DoubleValue
4.445

@<SCITEGIC>MOL_PROPERTY
Bond
SciTegic.value.DoubleValue
0.146

@<SCITEGIC>MOL_PROPERTY
Angle
SciTegic.value.DoubleValue
0.581

@<SCITEGIC>MOL_PROPERTY
Pdih
SciTegic.value.DoubleValue
0.693

@<SCITEGIC>MOL_PROPERTY
Idih
SciTegic.value.DoubleValue
0.000

@<SCITEGIC>MOL_PROPERTY
Tether
SciTegic.value.DoubleValue
0.000

@<TRIPOS>MOLECULE
guest-s9_confgen4.mol2 : confsearch ligand conformer 958
          20          19           1
SMALL
USER_CHARGES
 
@<TRIPOS>ATOM
       1    C1      21.615126   18.723180   19.912426 C.3        1 MOL1        -0.2224
       2    H1      22.268902   18.336293   19.120045 H          1 MOL1         0.1052
       3    H2      20.594291   18.757432   19.511435 H          1 MOL1         0.1052
       4    H3      21.930773   19.750838   20.134643 H          1 MOL1         0.1052
       5    C2      21.701776   17.829880   21.171282 C.3        1 MOL1        -0.1209
       6    H4      22.752638   17.751055   21.483469 H          1 MOL1         0.1041
       7    H5      21.376160   16.809768   20.923269 H          1 MOL1         0.1041
       8    C3      20.865307   18.371101   22.354194 C.3        1 MOL1        -0.1274
       9    H6      21.033678   17.733818   23.232281 H          1 MOL1         0.1041
      10    H7      21.219887   19.374868   22.621469 H          1 MOL1         0.1041
      11    C4      19.353965   18.411507   22.041664 C.3        1 MOL1         0.0313
      12    H8      19.027662   17.413023   21.739795 H          1 MOL1         0.1015
      13    H9      19.164035   19.095250   21.210896 H          1 MOL1         0.1015
      14    N1      18.478378   18.840723   23.207651 N.4        1 MOL1        -0.4809
      15    H10     18.652563   18.238100   24.026322 H          1 MOL1         0.3726
      16    H11     17.486208   18.683882   22.970574 H          1 MOL1         0.3726
      17    C5      18.701246   20.308356   23.556578 C.3        1 MOL1        -0.0677
      18    H12     18.029961   20.588149   24.371473 H          1 MOL1         0.1026
      19    H13     19.737037   20.453500   23.869560 H          1 MOL1         0.1026
      20    H14     18.489989   20.922667   22.678688 H          1 MOL1         0.1026
@<TRIPOS>BOND
    1     1     2    1
    2     1     3    1
    3     1     4    1
    4     1     5    1
    5     5     6    1
    6     5     7    1
    7     5     8    1
    8     8     9    1
    9     8    10    1
   10     8    11    1
   11    11    12    1
   12    11    13    1
   13    11    14    1
   14    14    15    1
   15    14    16    1
   16    14    17    1
   17    17    18    1
   18    17    19    1
   19    17    20    1
@<TRIPOS>SUBSTRUCTURE
       1 MOL1            1 RESIDUE      1      MOL     
@<SCITEGIC>MOL_PROPERTY
VConf Rank
SciTegic.value.IntegerValue
958

@<SCITEGIC>MOL_PROPERTY
Conf_Id
SciTegic.value.IntegerValue
53

@<SCITEGIC>MOL_PROPERTY
Delta U+W
SciTegic.value.DoubleValue
0.379

@<SCITEGIC>MOL_PROPERTY
U+W
SciTegic.value.DoubleValue
15.717

@<SCITEGIC>MOL_PROPERTY
Grad RMS
SciTegic.value.DoubleValue
0.000000

@<SCITEGIC>MOL_PROPERTY
U
SciTegic.value.DoubleValue
70.163

@<SCITEGIC>MOL_PROPERTY
W
SciTegic.value.DoubleValue
-54.446

@<SCITEGIC>MOL_PROPERTY
W(PB)
SciTegic.value.DoubleValue
-56.322

@<SCITEGIC>MOL_PROPERTY
W(SA)
SciTegic.value.DoubleValue
1.876

@<SCITEGIC>MOL_PROPERTY
Valence
SciTegic.value.DoubleValue
1.420

@<SCITEGIC>MOL_PROPERTY
Coulomb
SciTegic.value.DoubleValue
68.566

@<SCITEGIC>MOL_PROPERTY
VdW
SciTegic.value.DoubleValue
0.177

@<SCITEGIC>MOL_PROPERTY
VdW6
SciTegic.value.DoubleValue
-4.267

@<SCITEGIC>MOL_PROPERTY
VdW12
SciTegic.value.DoubleValue
4.445

@<SCITEGIC>MOL_PROPERTY
Bond
SciTegic.value.DoubleValue
0.146

@<SCITEGIC>MOL_PROPERTY
Angle
SciTegic.value.DoubleValue
0.581

@<SCITEGIC>MOL_PROPERTY
Pdih
SciTegic.value.DoubleValue
0.693

@<SCITEGIC>MOL_PROPERTY
Idih
SciTegic.value.DoubleValue
0.000

@<SCITEGIC>MOL_PROPERTY
Tether
SciTegic.value.DoubleValue
0.000

@<TRIPOS>MOLECULE
guest-s9_confgen4.mol2 : confsearch ligand conformer 959
          20          19           1
SMALL
USER_CHARGES
 
@<TRIPOS>ATOM
       1    C1      19.832487   21.195684   20.496689 C.3        1 MOL1        -0.2224
       2    H1      19.167247   22.045184   20.698694 H          1 MOL1         0.1052
       3    H2      20.803809   21.597569   20.180196 H          1 MOL1         0.1052
       4    H3      19.408017   20.628285   19.658210 H          1 MOL1         0.1052
       5    C2      19.979552   20.307478   21.751051 C.3        1 MOL1        -0.1209
       6    H4      18.985693   19.956147   22.060030 H          1 MOL1         0.1041
       7    H5      20.375971   20.910387   22.580229 H          1 MOL1         0.1041
       8    C3      20.911635   19.100501   21.491919 C.3        1 MOL1        -0.1274
       9    H6      20.506158   18.479740   20.682607 H          1 MOL1         0.1041
      10    H7      21.886844   19.463872   21.141809 H          1 MOL1         0.1041
      11    C4      21.139922   18.236454   22.752065 C.3        1 MOL1         0.0313
      12    H8      21.596860   18.855378   23.528448 H          1 MOL1         0.1015
      13    H9      21.835377   17.426650   22.517430 H          1 MOL1         0.1015
      14    N1      19.888515   17.609543   23.348381 N.4        1 MOL1        -0.4809
      15    H10     19.201193   18.340830   23.582557 H          1 MOL1         0.3726
      16    H11     20.121507   17.165635   24.250536 H          1 MOL1         0.3726
      17    C5      19.281439   16.577458   22.404351 C.3        1 MOL1        -0.0677
      18    H12     20.024108   15.806119   22.189558 H          1 MOL1         0.1026
      19    H13     18.409007   16.125556   22.881404 H          1 MOL1         0.1026
      20    H14     18.978708   17.068632   21.477465 H          1 MOL1         0.1026
@<TRIPOS>BOND
    1     1     2    1
    2     1     3    1
    3     1     4    1
    4     1     5    1
    5     5     6    1
    6     5     7    1
    7     5     8    1
    8     8     9    1
    9     8    10    1
   10     8    11    1
   11    11    12    1
   12    11    13    1
   13    11    14    1
   14    14    15    1
   15    14    16    1
   16    14    17    1
   17    17    18    1
   18    17    19    1
   19    17    20    1
@<TRIPOS>SUBSTRUCTURE
       1 MOL1            1 RESIDUE      1      MOL     
@<SCITEGIC>MOL_PROPERTY
VConf Rank
SciTegic.value.IntegerValue
959

@<SCITEGIC>MOL_PROPERTY
Conf_Id
SciTegic.value.IntegerValue
49

@<SCITEGIC>MOL_PROPERTY
Delta U+W
SciTegic.value.DoubleValue
0.268

@<SCITEGIC>MOL_PROPERTY
U+W
SciTegic.value.DoubleValue
15.607

@<SCITEGIC>MOL_PROPERTY
Grad RMS
SciTegic.value.DoubleValue
0.000000

@<SCITEGIC>MOL_PROPERTY
U
SciTegic.value.DoubleValue
70.298

@<SCITEGIC>MOL_PROPERTY
W
SciTegic.value.DoubleValue
-54.692

@<SCITEGIC>MOL_PROPERTY
W(PB)
SciTegic.value.DoubleValue
-56.576

@<SCITEGIC>MOL_PROPERTY
W(SA)
SciTegic.value.DoubleValue
1.885

@<SCITEGIC>MOL_PROPERTY
Valence
SciTegic.value.DoubleValue
1.245

@<SCITEGIC>MOL_PROPERTY
Coulomb
SciTegic.value.DoubleValue
68.933

@<SCITEGIC>MOL_PROPERTY
VdW
SciTegic.value.DoubleValue
0.120

@<SCITEGIC>MOL_PROPERTY
VdW6
SciTegic.value.DoubleValue
-4.430

@<SCITEGIC>MOL_PROPERTY
VdW12
SciTegic.value.DoubleValue
4.550

@<SCITEGIC>MOL_PROPERTY
Bond
SciTegic.value.DoubleValue
0.148

@<SCITEGIC>MOL_PROPERTY
Angle
SciTegic.value.DoubleValue
0.587

@<SCITEGIC>MOL_PROPERTY
Pdih
SciTegic.value.DoubleValue
0.509

@<SCITEGIC>MOL_PROPERTY
Idih
SciTegic.value.DoubleValue
0.000

@<SCITEGIC>MOL_PROPERTY
Tether
SciTegic.value.DoubleValue
0.000

@<TRIPOS>MOLECULE
guest-s9_confgen4.mol2 : confsearch ligand conformer 960
          20          19           1
SMALL
USER_CHARGES
 
@<TRIPOS>ATOM
       1    C1      22.637220   17.765813   21.756334 C.3        1 MOL1        -0.2224
       2    H1      22.867889   17.521212   22.801385 H          1 MOL1         0.1052
       3    H2      22.647954   16.833456   21.176907 H          1 MOL1         0.1052
       4    H3      23.442759   18.406927   21.375443 H          1 MOL1         0.1052
       5    C2      21.272113   18.478109   21.640379 C.3        1 MOL1        -0.1209
       6    H4      21.082171   18.734782   20.588699 H          1 MOL1         0.1041
       7    H5      21.316664   19.422010   22.199498 H          1 MOL1         0.1041
       8    C3      20.119958   17.599543   22.181013 C.3        1 MOL1        -0.1274
       9    H6      20.160751   16.616012   21.694434 H          1 MOL1         0.1041
      10    H7      20.263551   17.417942   23.254306 H          1 MOL1         0.1041
      11    C4      18.710941   18.188949   21.944158 C.3        1 MOL1         0.0313
      12    H8      17.977403   17.462587   22.303415 H          1 MOL1         0.1015
      13    H9      18.535081   18.335835   20.875610 H          1 MOL1         0.1015
      14    N1      18.416740   19.498108   22.660266 N.4        1 MOL1        -0.4809
      15    H10     18.916680   19.535734   23.561090 H          1 MOL1         0.3726
      16    H11     17.416520   19.530781   22.912259 H          1 MOL1         0.3726
      17    C5      18.752590   20.700662   21.784073 C.3        1 MOL1        -0.0677
      18    H12     18.505708   21.616657   22.325332 H          1 MOL1         0.1026
      19    H13     19.815620   20.695227   21.540668 H          1 MOL1         0.1026
      20    H14     18.164923   20.648882   20.865022 H          1 MOL1         0.1026
@<TRIPOS>BOND
    1     1     2    1
    2     1     3    1
    3     1     4    1
    4     1     5    1
    5     5     6    1
    6     5     7    1
    7     5     8    1
    8     8     9    1
    9     8    10    1
   10     8    11    1
   11    11    12    1
   12    11    13    1
   13    11    14    1
   14    14    15    1
   15    14    16    1
   16    14    17    1
   17    17    18    1
   18    17    19    1
   19    17    20    1
@<TRIPOS>SUBSTRUCTURE
       1 MOL1            1 RESIDUE      1      MOL     
@<SCITEGIC>MOL_PROPERTY
VConf Rank
SciTegic.value.IntegerValue
960

@<SCITEGIC>MOL_PROPERTY
Conf_Id
SciTegic.value.IntegerValue
65

@<SCITEGIC>MOL_PROPERTY
Delta U+W
SciTegic.value.DoubleValue
1.775

@<SCITEGIC>MOL_PROPERTY
U+W
SciTegic.value.DoubleValue
17.114

@<SCITEGIC>MOL_PROPERTY
Grad RMS
SciTegic.value.DoubleValue
0.000000

@<SCITEGIC>MOL_PROPERTY
U
SciTegic.value.DoubleValue
71.726

@<SCITEGIC>MOL_PROPERTY
W
SciTegic.value.DoubleValue
-54.613

@<SCITEGIC>MOL_PROPERTY
W(PB)
SciTegic.value.DoubleValue
-56.495

@<SCITEGIC>MOL_PROPERTY
W(SA)
SciTegic.value.DoubleValue
1.883

@<SCITEGIC>MOL_PROPERTY
Valence
SciTegic.value.DoubleValue
2.885

@<SCITEGIC>MOL_PROPERTY
Coulomb
SciTegic.value.DoubleValue
68.822

@<SCITEGIC>MOL_PROPERTY
VdW
SciTegic.value.DoubleValue
0.019

@<SCITEGIC>MOL_PROPERTY
VdW6
SciTegic.value.DoubleValue
-4.600

@<SCITEGIC>MOL_PROPERTY
VdW12
SciTegic.value.DoubleValue
4.619

@<SCITEGIC>MOL_PROPERTY
Bond
SciTegic.value.DoubleValue
0.152

@<SCITEGIC>MOL_PROPERTY
Angle
SciTegic.value.DoubleValue
0.862

@<SCITEGIC>MOL_PROPERTY
Pdih
SciTegic.value.DoubleValue
1.871

@<SCITEGIC>MOL_PROPERTY
Idih
SciTegic.value.DoubleValue
0.000

@<SCITEGIC>MOL_PROPERTY
Tether
SciTegic.value.DoubleValue
0.000

@<TRIPOS>MOLECULE
guest-s9_confgen4.mol2 : confsearch ligand conformer 961
          20          19           1
SMALL
USER_CHARGES
 
@<TRIPOS>ATOM
       1    C1      20.221210   20.322391   20.249263 C.3        1 MOL1        -0.2224
       2    H1      19.217868   20.008756   20.563808 H          1 MOL1         0.1052
       3    H2      20.185240   21.402798   20.058459 H          1 MOL1         0.1052
       4    H3      20.454378   19.822880   19.299951 H          1 MOL1         0.1052
       5    C2      21.283473   19.996701   21.324295 C.3        1 MOL1        -0.1209
       6    H4      21.028728   20.507808   22.262637 H          1 MOL1         0.1041
       7    H5      22.250867   20.411040   21.007314 H          1 MOL1         0.1041
       8    C3      21.449807   18.476633   21.572735 C.3        1 MOL1        -0.1274
       9    H6      21.804408   17.997022   20.650782 H          1 MOL1         0.1041
      10    H7      22.234642   18.313392   22.323156 H          1 MOL1         0.1041
      11    C4      20.156365   17.769930   22.029402 C.3        1 MOL1         0.0313
      12    H8      20.351108   16.701405   22.151342 H          1 MOL1         0.1015
      13    H9      19.383368   17.888197   21.266346 H          1 MOL1         0.1015
      14    N1      19.601177   18.288862   23.342063 N.4        1 MOL1        -0.4809
      15    H10     19.410771   19.299276   23.269274 H          1 MOL1         0.3726
      16    H11     20.306526   18.194176   24.088667 H          1 MOL1         0.3726
      17    C5      18.331625   17.530970   23.705867 C.3        1 MOL1        -0.0677
      18    H12     18.563710   16.468691   23.808165 H          1 MOL1         0.1026
      19    H13     17.942611   17.915410   24.651300 H          1 MOL1         0.1026
      20    H14     17.589340   17.672778   22.917409 H          1 MOL1         0.1026
@<TRIPOS>BOND
    1     1     2    1
    2     1     3    1
    3     1     4    1
    4     1     5    1
    5     5     6    1
    6     5     7    1
    7     5     8    1
    8     8     9    1
    9     8    10    1
   10     8    11    1
   11    11    12    1
   12    11    13    1
   13    11    14    1
   14    14    15    1
   15    14    16    1
   16    14    17    1
   17    17    18    1
   18    17    19    1
   19    17    20    1
@<TRIPOS>SUBSTRUCTURE
       1 MOL1            1 RESIDUE      1      MOL     
@<SCITEGIC>MOL_PROPERTY
VConf Rank
SciTegic.value.IntegerValue
961

@<SCITEGIC>MOL_PROPERTY
Conf_Id
SciTegic.value.IntegerValue
23

@<SCITEGIC>MOL_PROPERTY
Delta U+W
SciTegic.value.DoubleValue
0.896

@<SCITEGIC>MOL_PROPERTY
U+W
SciTegic.value.DoubleValue
16.234

@<SCITEGIC>MOL_PROPERTY
Grad RMS
SciTegic.value.DoubleValue
0.000000

@<SCITEGIC>MOL_PROPERTY
U
SciTegic.value.DoubleValue
70.374

@<SCITEGIC>MOL_PROPERTY
W
SciTegic.value.DoubleValue
-54.140

@<SCITEGIC>MOL_PROPERTY
W(PB)
SciTegic.value.DoubleValue
-56.046

@<SCITEGIC>MOL_PROPERTY
W(SA)
SciTegic.value.DoubleValue
1.907

@<SCITEGIC>MOL_PROPERTY
Valence
SciTegic.value.DoubleValue
1.257

@<SCITEGIC>MOL_PROPERTY
Coulomb
SciTegic.value.DoubleValue
69.240

@<SCITEGIC>MOL_PROPERTY
VdW
SciTegic.value.DoubleValue
-0.123

@<SCITEGIC>MOL_PROPERTY
VdW6
SciTegic.value.DoubleValue
-4.336

@<SCITEGIC>MOL_PROPERTY
VdW12
SciTegic.value.DoubleValue
4.213

@<SCITEGIC>MOL_PROPERTY
Bond
SciTegic.value.DoubleValue
0.128

@<SCITEGIC>MOL_PROPERTY
Angle
SciTegic.value.DoubleValue
0.603

@<SCITEGIC>MOL_PROPERTY
Pdih
SciTegic.value.DoubleValue
0.526

@<SCITEGIC>MOL_PROPERTY
Idih
SciTegic.value.DoubleValue
0.000

@<SCITEGIC>MOL_PROPERTY
Tether
SciTegic.value.DoubleValue
0.000

@<TRIPOS>MOLECULE
guest-s9_confgen4.mol2 : confsearch ligand conformer 962
          20          19           1
SMALL
USER_CHARGES
 
@<TRIPOS>ATOM
       1    C1      21.638963   17.822923   20.471103 C.3        1 MOL1        -0.2224
       2    H1      21.804811   16.759394   20.686673 H          1 MOL1         0.1052
       3    H2      22.198433   18.070439   19.559671 H          1 MOL1         0.1052
       4    H3      22.068911   18.409883   21.292460 H          1 MOL1         0.1052
       5    C2      20.134299   18.123718   20.282219 C.3        1 MOL1        -0.1209
       6    H4      19.771619   17.586833   19.394399 H          1 MOL1         0.1041
       7    H5      19.994873   19.191884   20.067295 H          1 MOL1         0.1041
       8    C3      19.274155   17.708064   21.501801 C.3        1 MOL1        -0.1274
       9    H6      18.217596   17.922087   21.292944 H          1 MOL1         0.1041
      10    H7      19.344124   16.620835   21.638928 H          1 MOL1         0.1041
      11    C4      19.680409   18.397928   22.820897 C.3        1 MOL1         0.0313
      12    H8      20.717693   18.152101   23.060431 H          1 MOL1         0.1015
      13    H9      19.048699   18.028177   23.632541 H          1 MOL1         0.1015
      14    N1      19.552753   19.909020   22.790760 N.4        1 MOL1        -0.4809
      15    H10     18.583211   20.179517   22.565557 H          1 MOL1         0.3726
      16    H11     20.130728   20.296397   22.030251 H          1 MOL1         0.3726
      17    C5      19.973663   20.493538   24.132288 C.3        1 MOL1        -0.0677
      18    H12     21.012173   20.221829   24.333362 H          1 MOL1         0.1026
      19    H13     19.877984   21.580960   24.095849 H          1 MOL1         0.1026
      20    H14     19.328377   20.093434   24.917328 H          1 MOL1         0.1026
@<TRIPOS>BOND
    1     1     2    1
    2     1     3    1
    3     1     4    1
    4     1     5    1
    5     5     6    1
    6     5     7    1
    7     5     8    1
    8     8     9    1
    9     8    10    1
   10     8    11    1
   11    11    12    1
   12    11    13    1
   13    11    14    1
   14    14    15    1
   15    14    16    1
   16    14    17    1
   17    17    18    1
   18    17    19    1
   19    17    20    1
@<TRIPOS>SUBSTRUCTURE
       1 MOL1            1 RESIDUE      1      MOL     
@<SCITEGIC>MOL_PROPERTY
VConf Rank
SciTegic.value.IntegerValue
962

@<SCITEGIC>MOL_PROPERTY
Conf_Id
SciTegic.value.IntegerValue
24

@<SCITEGIC>MOL_PROPERTY
Delta U+W
SciTegic.value.DoubleValue
0.792

@<SCITEGIC>MOL_PROPERTY
U+W
SciTegic.value.DoubleValue
16.130

@<SCITEGIC>MOL_PROPERTY
Grad RMS
SciTegic.value.DoubleValue
0.000000

@<SCITEGIC>MOL_PROPERTY
U
SciTegic.value.DoubleValue
70.374

@<SCITEGIC>MOL_PROPERTY
W
SciTegic.value.DoubleValue
-54.243

@<SCITEGIC>MOL_PROPERTY
W(PB)
SciTegic.value.DoubleValue
-56.130

@<SCITEGIC>MOL_PROPERTY
W(SA)
SciTegic.value.DoubleValue
1.887

@<SCITEGIC>MOL_PROPERTY
Valence
SciTegic.value.DoubleValue
1.257

@<SCITEGIC>MOL_PROPERTY
Coulomb
SciTegic.value.DoubleValue
69.240

@<SCITEGIC>MOL_PROPERTY
VdW
SciTegic.value.DoubleValue
-0.123

@<SCITEGIC>MOL_PROPERTY
VdW6
SciTegic.value.DoubleValue
-4.336

@<SCITEGIC>MOL_PROPERTY
VdW12
SciTegic.value.DoubleValue
4.213

@<SCITEGIC>MOL_PROPERTY
Bond
SciTegic.value.DoubleValue
0.128

@<SCITEGIC>MOL_PROPERTY
Angle
SciTegic.value.DoubleValue
0.603

@<SCITEGIC>MOL_PROPERTY
Pdih
SciTegic.value.DoubleValue
0.526

@<SCITEGIC>MOL_PROPERTY
Idih
SciTegic.value.DoubleValue
0.000

@<SCITEGIC>MOL_PROPERTY
Tether
SciTegic.value.DoubleValue
0.000

@<TRIPOS>MOLECULE
guest-s9_confgen4.mol2 : confsearch ligand conformer 963
          20          19           1
SMALL
USER_CHARGES
 
@<TRIPOS>ATOM
       1    C1      18.478904   17.259239   21.565862 C.3        1 MOL1        -0.2224
       2    H1      17.610493   16.590429   21.627314 H          1 MOL1         0.1052
       3    H2      18.100329   18.284860   21.648519 H          1 MOL1         0.1052
       4    H3      18.931363   17.125457   20.574628 H          1 MOL1         0.1052
       5    C2      19.485967   16.932935   22.692277 C.3        1 MOL1        -0.1209
       6    H4      19.669008   15.849168   22.695702 H          1 MOL1         0.1041
       7    H5      19.033574   17.167237   23.666211 H          1 MOL1         0.1041
       8    C3      20.849993   17.658050   22.563900 C.3        1 MOL1        -0.1274
       9    H6      21.501082   17.298696   23.371839 H          1 MOL1         0.1041
      10    H7      21.347520   17.373405   21.627338 H          1 MOL1         0.1041
      11    C4      20.768452   19.195512   22.672755 C.3        1 MOL1         0.0313
      12    H8      21.751860   19.586951   22.945204 H          1 MOL1         0.1015
      13    H9      20.063220   19.473090   23.460080 H          1 MOL1         0.1015
      14    N1      20.355565   19.892447   21.390256 N.4        1 MOL1        -0.4809
      15    H10     19.454257   19.518844   21.060586 H          1 MOL1         0.3726
      16    H11     21.030839   19.682232   20.639374 H          1 MOL1         0.3726
      17    C5      20.262208   21.394715   21.620235 C.3        1 MOL1        -0.0677
      18    H12     19.518919   21.594720   22.395018 H          1 MOL1         0.1026
      19    H13     21.237064   21.771183   21.937556 H          1 MOL1         0.1026
      20    H14     19.964476   21.882601   20.689487 H          1 MOL1         0.1026
@<TRIPOS>BOND
    1     1     2    1
    2     1     3    1
    3     1     4    1
    4     1     5    1
    5     5     6    1
    6     5     7    1
    7     5     8    1
    8     8     9    1
    9     8    10    1
   10     8    11    1
   11    11    12    1
   12    11    13    1
   13    11    14    1
   14    14    15    1
   15    14    16    1
   16    14    17    1
   17    17    18    1
   18    17    19    1
   19    17    20    1
@<TRIPOS>SUBSTRUCTURE
       1 MOL1            1 RESIDUE      1      MOL     
@<SCITEGIC>MOL_PROPERTY
VConf Rank
SciTegic.value.IntegerValue
963

@<SCITEGIC>MOL_PROPERTY
Conf_Id
SciTegic.value.IntegerValue
26

@<SCITEGIC>MOL_PROPERTY
Delta U+W
SciTegic.value.DoubleValue
2.888

@<SCITEGIC>MOL_PROPERTY
U+W
SciTegic.value.DoubleValue
18.226

@<SCITEGIC>MOL_PROPERTY
Grad RMS
SciTegic.value.DoubleValue
0.000000

@<SCITEGIC>MOL_PROPERTY
U
SciTegic.value.DoubleValue
72.042

@<SCITEGIC>MOL_PROPERTY
W
SciTegic.value.DoubleValue
-53.816

@<SCITEGIC>MOL_PROPERTY
W(PB)
SciTegic.value.DoubleValue
-55.689

@<SCITEGIC>MOL_PROPERTY
W(SA)
SciTegic.value.DoubleValue
1.873

@<SCITEGIC>MOL_PROPERTY
Valence
SciTegic.value.DoubleValue
2.428

@<SCITEGIC>MOL_PROPERTY
Coulomb
SciTegic.value.DoubleValue
69.829

@<SCITEGIC>MOL_PROPERTY
VdW
SciTegic.value.DoubleValue
-0.215

@<SCITEGIC>MOL_PROPERTY
VdW6
SciTegic.value.DoubleValue
-4.563

@<SCITEGIC>MOL_PROPERTY
VdW12
SciTegic.value.DoubleValue
4.348

@<SCITEGIC>MOL_PROPERTY
Bond
SciTegic.value.DoubleValue
0.137

@<SCITEGIC>MOL_PROPERTY
Angle
SciTegic.value.DoubleValue
0.936

@<SCITEGIC>MOL_PROPERTY
Pdih
SciTegic.value.DoubleValue
1.356

@<SCITEGIC>MOL_PROPERTY
Idih
SciTegic.value.DoubleValue
0.000

@<SCITEGIC>MOL_PROPERTY
Tether
SciTegic.value.DoubleValue
0.000

@<TRIPOS>MOLECULE
guest-s9_confgen4.mol2 : confsearch ligand conformer 964
          20          19           1
SMALL
USER_CHARGES
 
@<TRIPOS>ATOM
       1    C1      18.684156   20.346559   21.228416 C.3        1 MOL1        -0.2224
       2    H1      17.757048   20.835885   20.902456 H          1 MOL1         0.1052
       3    H2      19.521850   20.990233   20.929889 H          1 MOL1         0.1052
       4    H3      18.753929   19.397029   20.684749 H          1 MOL1         0.1052
       5    C2      18.662668   20.125034   22.758097 C.3        1 MOL1        -0.1209
       6    H4      17.873398   19.403397   23.011867 H          1 MOL1         0.1041
       7    H5      18.378846   21.068676   23.244977 H          1 MOL1         0.1041
       8    C3      20.012005   19.652946   23.357478 C.3        1 MOL1        -0.1274
       9    H6      20.793963   20.402065   23.175626 H          1 MOL1         0.1041
      10    H7      19.896310   19.597324   24.448046 H          1 MOL1         0.1041
      11    C4      20.481157   18.268507   22.861987 C.3        1 MOL1         0.0313
      12    H8      19.628357   17.587292   22.807563 H          1 MOL1         0.1015
      13    H9      21.198232   17.857379   23.577053 H          1 MOL1         0.1015
      14    N1      21.167807   18.287801   21.509530 N.4        1 MOL1        -0.4809
      15    H10     22.003983   18.890752   21.545101 H          1 MOL1         0.3726
      16    H11     20.549861   18.717629   20.806671 H          1 MOL1         0.3726
      17    C5      21.546752   16.871902   21.097170 C.3        1 MOL1        -0.0677
      18    H12     20.643412   16.261307   21.034560 H          1 MOL1         0.1026
      19    H13     22.039599   16.901452   20.122901 H          1 MOL1         0.1026
      20    H14     22.226612   16.450584   21.840841 H          1 MOL1         0.1026
@<TRIPOS>BOND
    1     1     2    1
    2     1     3    1
    3     1     4    1
    4     1     5    1
    5     5     6    1
    6     5     7    1
    7     5     8    1
    8     8     9    1
    9     8    10    1
   10     8    11    1
   11    11    12    1
   12    11    13    1
   13    11    14    1
   14    14    15    1
   15    14    16    1
   16    14    17    1
   17    17    18    1
   18    17    19    1
   19    17    20    1
@<TRIPOS>SUBSTRUCTURE
       1 MOL1            1 RESIDUE      1      MOL     
@<SCITEGIC>MOL_PROPERTY
VConf Rank
SciTegic.value.IntegerValue
964

@<SCITEGIC>MOL_PROPERTY
Conf_Id
SciTegic.value.IntegerValue
5

@<SCITEGIC>MOL_PROPERTY
Delta U+W
SciTegic.value.DoubleValue
2.950

@<SCITEGIC>MOL_PROPERTY
U+W
SciTegic.value.DoubleValue
18.289

@<SCITEGIC>MOL_PROPERTY
Grad RMS
SciTegic.value.DoubleValue
0.000000

@<SCITEGIC>MOL_PROPERTY
U
SciTegic.value.DoubleValue
72.042

@<SCITEGIC>MOL_PROPERTY
W
SciTegic.value.DoubleValue
-53.753

@<SCITEGIC>MOL_PROPERTY
W(PB)
SciTegic.value.DoubleValue
-55.644

@<SCITEGIC>MOL_PROPERTY
W(SA)
SciTegic.value.DoubleValue
1.891

@<SCITEGIC>MOL_PROPERTY
Valence
SciTegic.value.DoubleValue
2.428

@<SCITEGIC>MOL_PROPERTY
Coulomb
SciTegic.value.DoubleValue
69.829

@<SCITEGIC>MOL_PROPERTY
VdW
SciTegic.value.DoubleValue
-0.215

@<SCITEGIC>MOL_PROPERTY
VdW6
SciTegic.value.DoubleValue
-4.563

@<SCITEGIC>MOL_PROPERTY
VdW12
SciTegic.value.DoubleValue
4.348

@<SCITEGIC>MOL_PROPERTY
Bond
SciTegic.value.DoubleValue
0.137

@<SCITEGIC>MOL_PROPERTY
Angle
SciTegic.value.DoubleValue
0.936

@<SCITEGIC>MOL_PROPERTY
Pdih
SciTegic.value.DoubleValue
1.356

@<SCITEGIC>MOL_PROPERTY
Idih
SciTegic.value.DoubleValue
0.000

@<SCITEGIC>MOL_PROPERTY
Tether
SciTegic.value.DoubleValue
0.000

@<TRIPOS>MOLECULE
guest-s9_confgen4.mol2 : confsearch ligand conformer 965
          20          19           1
SMALL
USER_CHARGES
 
@<TRIPOS>ATOM
       1    C1      21.831822   20.436314   21.394555 C.3        1 MOL1        -0.2224
       2    H1      22.562677   20.014201   20.692609 H          1 MOL1         0.1052
       3    H2      20.934140   20.713740   20.828006 H          1 MOL1         0.1052
       4    H3      22.259984   21.358432   21.808489 H          1 MOL1         0.1052
       5    C2      21.505504   19.434467   22.525909 C.3        1 MOL1        -0.1209
       6    H4      20.776426   19.879578   23.216622 H          1 MOL1         0.1041
       7    H5      22.413998   19.256445   23.118227 H          1 MOL1         0.1041
       8    C3      20.978641   18.075883   22.000589 C.3        1 MOL1        -0.1274
       9    H6      21.756109   17.599553   21.388880 H          1 MOL1         0.1041
      10    H7      20.805828   17.399996   22.847975 H          1 MOL1         0.1041
      11    C4      19.688009   18.185682   21.156938 C.3        1 MOL1         0.0313
      12    H8      19.380949   17.189843   20.827641 H          1 MOL1         0.1015
      13    H9      19.895642   18.782561   20.265477 H          1 MOL1         0.1015
      14    N1      18.503282   18.823764   21.865880 N.4        1 MOL1        -0.4809
      15    H10     17.739544   18.981484   21.189947 H          1 MOL1         0.3726
      16    H11     18.759000   19.762983   22.204378 H          1 MOL1         0.3726
      17    C5      18.008796   17.950104   23.013409 C.3        1 MOL1        -0.0677
      18    H12     18.804171   17.840212   23.753201 H          1 MOL1         0.1026
      19    H13     17.140688   18.424589   23.476181 H          1 MOL1         0.1026
      20    H14     17.727774   16.969601   22.623185 H          1 MOL1         0.1026
@<TRIPOS>BOND
    1     1     2    1
    2     1     3    1
    3     1     4    1
    4     1     5    1
    5     5     6    1
    6     5     7    1
    7     5     8    1
    8     8     9    1
    9     8    10    1
   10     8    11    1
   11    11    12    1
   12    11    13    1
   13    11    14    1
   14    14    15    1
   15    14    16    1
   16    14    17    1
   17    17    18    1
   18    17    19    1
   19    17    20    1
@<TRIPOS>SUBSTRUCTURE
       1 MOL1            1 RESIDUE      1      MOL     
@<SCITEGIC>MOL_PROPERTY
VConf Rank
SciTegic.value.IntegerValue
965

@<SCITEGIC>MOL_PROPERTY
Conf_Id
SciTegic.value.IntegerValue
52

@<SCITEGIC>MOL_PROPERTY
Delta U+W
SciTegic.value.DoubleValue
0.784

@<SCITEGIC>MOL_PROPERTY
U+W
SciTegic.value.DoubleValue
16.122

@<SCITEGIC>MOL_PROPERTY
Grad RMS
SciTegic.value.DoubleValue
0.000000

@<SCITEGIC>MOL_PROPERTY
U
SciTegic.value.DoubleValue
70.777

@<SCITEGIC>MOL_PROPERTY
W
SciTegic.value.DoubleValue
-54.655

@<SCITEGIC>MOL_PROPERTY
W(PB)
SciTegic.value.DoubleValue
-56.491

@<SCITEGIC>MOL_PROPERTY
W(SA)
SciTegic.value.DoubleValue
1.836

@<SCITEGIC>MOL_PROPERTY
Valence
SciTegic.value.DoubleValue
1.529

@<SCITEGIC>MOL_PROPERTY
Coulomb
SciTegic.value.DoubleValue
69.166

@<SCITEGIC>MOL_PROPERTY
VdW
SciTegic.value.DoubleValue
0.082

@<SCITEGIC>MOL_PROPERTY
VdW6
SciTegic.value.DoubleValue
-5.166

@<SCITEGIC>MOL_PROPERTY
VdW12
SciTegic.value.DoubleValue
5.248

@<SCITEGIC>MOL_PROPERTY
Bond
SciTegic.value.DoubleValue
0.171

@<SCITEGIC>MOL_PROPERTY
Angle
SciTegic.value.DoubleValue
0.752

@<SCITEGIC>MOL_PROPERTY
Pdih
SciTegic.value.DoubleValue
0.605

@<SCITEGIC>MOL_PROPERTY
Idih
SciTegic.value.DoubleValue
0.000

@<SCITEGIC>MOL_PROPERTY
Tether
SciTegic.value.DoubleValue
0.000

@<TRIPOS>MOLECULE
guest-s9_confgen4.mol2 : confsearch ligand conformer 966
          20          19           1
SMALL
USER_CHARGES
 
@<TRIPOS>ATOM
       1    C1      21.304651   20.586566   21.893926 C.3        1 MOL1        -0.2224
       2    H1      22.086631   21.344364   21.754568 H          1 MOL1         0.1052
       3    H2      20.623256   20.668790   21.039472 H          1 MOL1         0.1052
       4    H3      20.756401   20.839020   22.810985 H          1 MOL1         0.1052
       5    C2      21.934753   19.178050   21.985675 C.3        1 MOL1        -0.1209
       6    H4      22.770384   19.215673   22.698648 H          1 MOL1         0.1041
       7    H5      22.375753   18.908926   21.015567 H          1 MOL1         0.1041
       8    C3      20.956293   18.065848   22.442236 C.3        1 MOL1        -0.1274
       9    H6      21.532796   17.138918   22.560688 H          1 MOL1         0.1041
      10    H7      20.557425   18.296378   23.438059 H          1 MOL1         0.1041
      11    C4      19.804785   17.775716   21.451577 C.3        1 MOL1         0.0313
      12    H8      19.380042   16.793097   21.671746 H          1 MOL1         0.1015
      13    H9      20.207531   17.744491   20.436053 H          1 MOL1         0.1015
      14    N1      18.653813   18.769467   21.466876 N.4        1 MOL1        -0.4809
      15    H10     18.041001   18.600792   20.653753 H          1 MOL1         0.3726
      16    H11     19.011931   19.726524   21.341833 H          1 MOL1         0.3726
      17    C5      17.845387   18.659526   22.754930 C.3        1 MOL1        -0.0677
      18    H12     17.465563   17.640502   22.854756 H          1 MOL1         0.1026
      19    H13     18.484048   18.901616   23.606471 H          1 MOL1         0.1026
      20    H14     17.009274   19.361026   22.713392 H          1 MOL1         0.1026
@<TRIPOS>BOND
    1     1     2    1
    2     1     3    1
    3     1     4    1
    4     1     5    1
    5     5     6    1
    6     5     7    1
    7     5     8    1
    8     8     9    1
    9     8    10    1
   10     8    11    1
   11    11    12    1
   12    11    13    1
   13    11    14    1
   14    14    15    1
   15    14    16    1
   16    14    17    1
   17    17    18    1
   18    17    19    1
   19    17    20    1
@<TRIPOS>SUBSTRUCTURE
       1 MOL1            1 RESIDUE      1      MOL     
@<SCITEGIC>MOL_PROPERTY
VConf Rank
SciTegic.value.IntegerValue
966

@<SCITEGIC>MOL_PROPERTY
Conf_Id
SciTegic.value.IntegerValue
55

@<SCITEGIC>MOL_PROPERTY
Delta U+W
SciTegic.value.DoubleValue
2.745

@<SCITEGIC>MOL_PROPERTY
U+W
SciTegic.value.DoubleValue
18.083

@<SCITEGIC>MOL_PROPERTY
Grad RMS
SciTegic.value.DoubleValue
0.000000

@<SCITEGIC>MOL_PROPERTY
U
SciTegic.value.DoubleValue
72.490

@<SCITEGIC>MOL_PROPERTY
W
SciTegic.value.DoubleValue
-54.407

@<SCITEGIC>MOL_PROPERTY
W(PB)
SciTegic.value.DoubleValue
-56.269

@<SCITEGIC>MOL_PROPERTY
W(SA)
SciTegic.value.DoubleValue
1.861

@<SCITEGIC>MOL_PROPERTY
Valence
SciTegic.value.DoubleValue
2.738

@<SCITEGIC>MOL_PROPERTY
Coulomb
SciTegic.value.DoubleValue
69.795

@<SCITEGIC>MOL_PROPERTY
VdW
SciTegic.value.DoubleValue
-0.043

@<SCITEGIC>MOL_PROPERTY
VdW6
SciTegic.value.DoubleValue
-5.333

@<SCITEGIC>MOL_PROPERTY
VdW12
SciTegic.value.DoubleValue
5.290

@<SCITEGIC>MOL_PROPERTY
Bond
SciTegic.value.DoubleValue
0.182

@<SCITEGIC>MOL_PROPERTY
Angle
SciTegic.value.DoubleValue
1.135

@<SCITEGIC>MOL_PROPERTY
Pdih
SciTegic.value.DoubleValue
1.422

@<SCITEGIC>MOL_PROPERTY
Idih
SciTegic.value.DoubleValue
0.000

@<SCITEGIC>MOL_PROPERTY
Tether
SciTegic.value.DoubleValue
0.000

@<TRIPOS>MOLECULE
guest-s9_confgen4.mol2 : confsearch ligand conformer 967
          20          19           1
SMALL
USER_CHARGES
 
@<TRIPOS>ATOM
       1    C1      21.042199   19.421026   20.324259 C.3        1 MOL1        -0.2224
       2    H1      21.746895   19.756086   19.552050 H          1 MOL1         0.1052
       3    H2      20.407645   18.642778   19.880436 H          1 MOL1         0.1052
       4    H3      20.417119   20.283258   20.583067 H          1 MOL1         0.1052
       5    C2      21.810674   18.885801   21.554035 C.3        1 MOL1        -0.1209
       6    H4      22.344153   19.713263   22.042631 H          1 MOL1         0.1041
       7    H5      22.585983   18.189451   21.204724 H          1 MOL1         0.1041
       8    C3      20.926759   18.147853   22.591802 C.3        1 MOL1        -0.1274
       9    H6      20.437206   17.282921   22.126901 H          1 MOL1         0.1041
      10    H7      21.589004   17.734528   23.363930 H          1 MOL1         0.1041
      11    C4      19.884520   19.043145   23.301550 C.3        1 MOL1         0.0313
      12    H8      20.358152   19.986931   23.583345 H          1 MOL1         0.1015
      13    H9      19.552289   18.550381   24.218736 H          1 MOL1         0.1015
      14    N1      18.636221   19.369420   22.496688 N.4        1 MOL1        -0.4809
      15    H10     18.898468   19.766204   21.583656 H          1 MOL1         0.3726
      16    H11     18.102992   20.113807   22.972835 H          1 MOL1         0.3726
      17    C5      17.756224   18.137305   22.317195 C.3        1 MOL1        -0.0677
      18    H12     18.304596   17.377713   21.756904 H          1 MOL1         0.1026
      19    H13     17.480815   17.746468   23.299048 H          1 MOL1         0.1026
      20    H14     16.855239   18.418314   21.767493 H          1 MOL1         0.1026
@<TRIPOS>BOND
    1     1     2    1
    2     1     3    1
    3     1     4    1
    4     1     5    1
    5     5     6    1
    6     5     7    1
    7     5     8    1
    8     8     9    1
    9     8    10    1
   10     8    11    1
   11    11    12    1
   12    11    13    1
   13    11    14    1
   14    14    15    1
   15    14    16    1
   16    14    17    1
   17    17    18    1
   18    17    19    1
   19    17    20    1
@<TRIPOS>SUBSTRUCTURE
       1 MOL1            1 RESIDUE      1      MOL     
@<SCITEGIC>MOL_PROPERTY
VConf Rank
SciTegic.value.IntegerValue
967

@<SCITEGIC>MOL_PROPERTY
Conf_Id
SciTegic.value.IntegerValue
76

@<SCITEGIC>MOL_PROPERTY
Delta U+W
SciTegic.value.DoubleValue
2.799

@<SCITEGIC>MOL_PROPERTY
U+W
SciTegic.value.DoubleValue
18.137

@<SCITEGIC>MOL_PROPERTY
Grad RMS
SciTegic.value.DoubleValue
0.000000

@<SCITEGIC>MOL_PROPERTY
U
SciTegic.value.DoubleValue
72.490

@<SCITEGIC>MOL_PROPERTY
W
SciTegic.value.DoubleValue
-54.353

@<SCITEGIC>MOL_PROPERTY
W(PB)
SciTegic.value.DoubleValue
-56.201

@<SCITEGIC>MOL_PROPERTY
W(SA)
SciTegic.value.DoubleValue
1.848

@<SCITEGIC>MOL_PROPERTY
Valence
SciTegic.value.DoubleValue
2.738

@<SCITEGIC>MOL_PROPERTY
Coulomb
SciTegic.value.DoubleValue
69.795

@<SCITEGIC>MOL_PROPERTY
VdW
SciTegic.value.DoubleValue
-0.043

@<SCITEGIC>MOL_PROPERTY
VdW6
SciTegic.value.DoubleValue
-5.334

@<SCITEGIC>MOL_PROPERTY
VdW12
SciTegic.value.DoubleValue
5.290

@<SCITEGIC>MOL_PROPERTY
Bond
SciTegic.value.DoubleValue
0.182

@<SCITEGIC>MOL_PROPERTY
Angle
SciTegic.value.DoubleValue
1.135

@<SCITEGIC>MOL_PROPERTY
Pdih
SciTegic.value.DoubleValue
1.421

@<SCITEGIC>MOL_PROPERTY
Idih
SciTegic.value.DoubleValue
0.000

@<SCITEGIC>MOL_PROPERTY
Tether
SciTegic.value.DoubleValue
0.000

@<TRIPOS>MOLECULE
guest-s9_confgen4.mol2 : confsearch ligand conformer 968
          20          19           1
SMALL
USER_CHARGES
 
@<TRIPOS>ATOM
       1    C1      18.919331   18.271069   23.739724 C.3        1 MOL1        -0.2224
       2    H1      19.500499   19.199564   23.796219 H          1 MOL1         0.1052
       3    H2      17.855167   18.537043   23.697718 H          1 MOL1         0.1052
       4    H3      19.088849   17.716577   24.671737 H          1 MOL1         0.1052
       5    C2      19.325732   17.415351   22.517781 C.3        1 MOL1        -0.1209
       6    H4      18.768430   16.468589   22.547592 H          1 MOL1         0.1041
       7    H5      20.385763   17.138854   22.585950 H          1 MOL1         0.1041
       8    C3      19.042204   18.114266   21.165533 C.3        1 MOL1        -0.1274
       9    H6      19.312128   17.438356   20.343526 H          1 MOL1         0.1041
      10    H7      17.960340   18.279177   21.075976 H          1 MOL1         0.1041
      11    C4      19.755636   19.471099   20.958888 C.3        1 MOL1         0.0313
      12    H8      19.511134   20.161108   21.769858 H          1 MOL1         0.1015
      13    H9      19.379512   19.907783   20.030177 H          1 MOL1         0.1015
      14    N1      21.269506   19.404041   20.822351 N.4        1 MOL1        -0.4809
      15    H10     21.587930   20.163744   20.200854 H          1 MOL1         0.3726
      16    H11     21.548473   18.536404   20.340658 H          1 MOL1         0.3726
      17    C5      21.964690   19.538499   22.172865 C.3        1 MOL1        -0.0677
      18    H12     23.046091   19.515173   22.021357 H          1 MOL1         0.1026
      19    H13     21.679206   20.488631   22.629307 H          1 MOL1         0.1026
      20    H14     21.669351   18.714763   22.823445 H          1 MOL1         0.1026
@<TRIPOS>BOND
    1     1     2    1
    2     1     3    1
    3     1     4    1
    4     1     5    1
    5     5     6    1
    6     5     7    1
    7     5     8    1
    8     8     9    1
    9     8    10    1
   10     8    11    1
   11    11    12    1
   12    11    13    1
   13    11    14    1
   14    14    15    1
   15    14    16    1
   16    14    17    1
   17    17    18    1
   18    17    19    1
   19    17    20    1
@<TRIPOS>SUBSTRUCTURE
       1 MOL1            1 RESIDUE      1      MOL     
@<SCITEGIC>MOL_PROPERTY
VConf Rank
SciTegic.value.IntegerValue
968

@<SCITEGIC>MOL_PROPERTY
Conf_Id
SciTegic.value.IntegerValue
60

@<SCITEGIC>MOL_PROPERTY
Delta U+W
SciTegic.value.DoubleValue
1.788

@<SCITEGIC>MOL_PROPERTY
U+W
SciTegic.value.DoubleValue
17.127

@<SCITEGIC>MOL_PROPERTY
Grad RMS
SciTegic.value.DoubleValue
0.000000

@<SCITEGIC>MOL_PROPERTY
U
SciTegic.value.DoubleValue
72.122

@<SCITEGIC>MOL_PROPERTY
W
SciTegic.value.DoubleValue
-54.995

@<SCITEGIC>MOL_PROPERTY
W(PB)
SciTegic.value.DoubleValue
-56.810

@<SCITEGIC>MOL_PROPERTY
W(SA)
SciTegic.value.DoubleValue
1.815

@<SCITEGIC>MOL_PROPERTY
Valence
SciTegic.value.DoubleValue
3.197

@<SCITEGIC>MOL_PROPERTY
Coulomb
SciTegic.value.DoubleValue
69.115

@<SCITEGIC>MOL_PROPERTY
VdW
SciTegic.value.DoubleValue
-0.190

@<SCITEGIC>MOL_PROPERTY
VdW6
SciTegic.value.DoubleValue
-5.585

@<SCITEGIC>MOL_PROPERTY
VdW12
SciTegic.value.DoubleValue
5.395

@<SCITEGIC>MOL_PROPERTY
Bond
SciTegic.value.DoubleValue
0.177

@<SCITEGIC>MOL_PROPERTY
Angle
SciTegic.value.DoubleValue
1.207

@<SCITEGIC>MOL_PROPERTY
Pdih
SciTegic.value.DoubleValue
1.813

@<SCITEGIC>MOL_PROPERTY
Idih
SciTegic.value.DoubleValue
0.000

@<SCITEGIC>MOL_PROPERTY
Tether
SciTegic.value.DoubleValue
0.000

@<TRIPOS>MOLECULE
guest-s9_confgen4.mol2 : confsearch ligand conformer 969
          20          19           1
SMALL
USER_CHARGES
 
@<TRIPOS>ATOM
       1    C1      18.862917   19.864951   23.336760 C.3        1 MOL1        -0.2224
       2    H1      17.782008   20.037641   23.418358 H          1 MOL1         0.1052
       3    H2      19.335145   20.267574   24.242213 H          1 MOL1         0.1052
       4    H3      19.226659   20.441744   22.477659 H          1 MOL1         0.1052
       5    C2      19.160910   18.355911   23.180047 C.3        1 MOL1        -0.1209
       6    H4      18.663770   17.963780   22.283471 H          1 MOL1         0.1041
       7    H5      18.714796   17.817141   24.027715 H          1 MOL1         0.1041
       8    C3      20.675475   18.037585   23.133045 C.3        1 MOL1        -0.1274
       9    H6      21.127237   18.340064   24.087017 H          1 MOL1         0.1041
      10    H7      20.816442   16.950887   23.065066 H          1 MOL1         0.1041
      11    C4      21.460778   18.721423   21.989216 C.3        1 MOL1         0.0313
      12    H8      22.522638   18.512140   22.141931 H          1 MOL1         0.1015
      13    H9      21.329929   19.805371   22.027936 H          1 MOL1         0.1015
      14    N1      21.124522   18.244715   20.584004 N.4        1 MOL1        -0.4809
      15    H10     20.891186   17.240652   20.591714 H          1 MOL1         0.3726
      16    H11     21.966622   18.314322   19.991701 H          1 MOL1         0.3726
      17    C5      20.004967   19.071046   19.960292 C.3        1 MOL1        -0.0677
      18    H12     20.308750   20.119539   19.929165 H          1 MOL1         0.1026
      19    H13     19.820230   18.712891   18.945145 H          1 MOL1         0.1026
      20    H14     19.096300   18.969130   20.554395 H          1 MOL1         0.1026
@<TRIPOS>BOND
    1     1     2    1
    2     1     3    1
    3     1     4    1
    4     1     5    1
    5     5     6    1
    6     5     7    1
    7     5     8    1
    8     8     9    1
    9     8    10    1
   10     8    11    1
   11    11    12    1
   12    11    13    1
   13    11    14    1
   14    14    15    1
   15    14    16    1
   16    14    17    1
   17    17    18    1
   18    17    19    1
   19    17    20    1
@<TRIPOS>SUBSTRUCTURE
       1 MOL1            1 RESIDUE      1      MOL     
@<SCITEGIC>MOL_PROPERTY
VConf Rank
SciTegic.value.IntegerValue
969

@<SCITEGIC>MOL_PROPERTY
Conf_Id
SciTegic.value.IntegerValue
54

@<SCITEGIC>MOL_PROPERTY
Delta U+W
SciTegic.value.DoubleValue
1.880

@<SCITEGIC>MOL_PROPERTY
U+W
SciTegic.value.DoubleValue
17.218

@<SCITEGIC>MOL_PROPERTY
Grad RMS
SciTegic.value.DoubleValue
0.000000

@<SCITEGIC>MOL_PROPERTY
U
SciTegic.value.DoubleValue
72.122

@<SCITEGIC>MOL_PROPERTY
W
SciTegic.value.DoubleValue
-54.903

@<SCITEGIC>MOL_PROPERTY
W(PB)
SciTegic.value.DoubleValue
-56.724

@<SCITEGIC>MOL_PROPERTY
W(SA)
SciTegic.value.DoubleValue
1.821

@<SCITEGIC>MOL_PROPERTY
Valence
SciTegic.value.DoubleValue
3.197

@<SCITEGIC>MOL_PROPERTY
Coulomb
SciTegic.value.DoubleValue
69.115

@<SCITEGIC>MOL_PROPERTY
VdW
SciTegic.value.DoubleValue
-0.190

@<SCITEGIC>MOL_PROPERTY
VdW6
SciTegic.value.DoubleValue
-5.585

@<SCITEGIC>MOL_PROPERTY
VdW12
SciTegic.value.DoubleValue
5.395

@<SCITEGIC>MOL_PROPERTY
Bond
SciTegic.value.DoubleValue
0.177

@<SCITEGIC>MOL_PROPERTY
Angle
SciTegic.value.DoubleValue
1.207

@<SCITEGIC>MOL_PROPERTY
Pdih
SciTegic.value.DoubleValue
1.813

@<SCITEGIC>MOL_PROPERTY
Idih
SciTegic.value.DoubleValue
0.000

@<SCITEGIC>MOL_PROPERTY
Tether
SciTegic.value.DoubleValue
0.000

@<TRIPOS>MOLECULE
guest-s9_confgen4.mol2 : confsearch ligand conformer 970
          20          19           1
SMALL
USER_CHARGES
 
@<TRIPOS>ATOM
       1    C1      19.840835   16.187820   20.177505 C.3        1 MOL1        -0.2224
       2    H1      18.904367   15.801516   20.600559 H          1 MOL1         0.1052
       3    H2      19.840905   15.965336   19.102551 H          1 MOL1         0.1052
       4    H3      20.674234   15.638419   20.634429 H          1 MOL1         0.1052
       5    C2      19.976158   17.706688   20.420325 C.3        1 MOL1        -0.1209
       6    H4      19.148284   18.231214   19.922481 H          1 MOL1         0.1041
       7    H5      20.904257   18.069377   19.956171 H          1 MOL1         0.1041
       8    C3      19.978880   18.049760   21.926332 C.3        1 MOL1        -0.1274
       9    H6      19.049874   17.690219   22.388548 H          1 MOL1         0.1041
      10    H7      20.808193   17.528033   22.422321 H          1 MOL1         0.1041
      11    C4      20.114245   19.565872   22.160134 C.3        1 MOL1         0.0313
      12    H8      19.281738   20.087066   21.680783 H          1 MOL1         0.1015
      13    H9      21.045750   19.924311   21.714816 H          1 MOL1         0.1015
      14    N1      20.121449   19.950648   23.626626 N.4        1 MOL1        -0.4809
      15    H10     20.891584   19.470901   24.117433 H          1 MOL1         0.3726
      16    H11     19.258328   19.621641   24.085898 H          1 MOL1         0.3726
      17    C5      20.258121   21.460883   23.766937 C.3        1 MOL1        -0.0677
      18    H12     19.415140   21.946246   23.270337 H          1 MOL1         0.1026
      19    H13     20.261865   21.723842   24.827054 H          1 MOL1         0.1026
      20    H14     21.194107   21.782057   23.304781 H          1 MOL1         0.1026
@<TRIPOS>BOND
    1     1     2    1
    2     1     3    1
    3     1     4    1
    4     1     5    1
    5     5     6    1
    6     5     7    1
    7     5     8    1
    8     8     9    1
    9     8    10    1
   10     8    11    1
   11    11    12    1
   12    11    13    1
   13    11    14    1
   14    14    15    1
   15    14    16    1
   16    14    17    1
   17    17    18    1
   18    17    19    1
   19    17    20    1
@<TRIPOS>SUBSTRUCTURE
       1 MOL1            1 RESIDUE      1      MOL     
@<SCITEGIC>MOL_PROPERTY
VConf Rank
SciTegic.value.IntegerValue
970

@<SCITEGIC>MOL_PROPERTY
Conf_Id
SciTegic.value.IntegerValue
67

@<SCITEGIC>MOL_PROPERTY
Delta U+W
SciTegic.value.DoubleValue
0.000

@<SCITEGIC>MOL_PROPERTY
U+W
SciTegic.value.DoubleValue
15.338

@<SCITEGIC>MOL_PROPERTY
Grad RMS
SciTegic.value.DoubleValue
0.000000

@<SCITEGIC>MOL_PROPERTY
U
SciTegic.value.DoubleValue
69.277

@<SCITEGIC>MOL_PROPERTY
W
SciTegic.value.DoubleValue
-53.939

@<SCITEGIC>MOL_PROPERTY
W(PB)
SciTegic.value.DoubleValue
-55.889

@<SCITEGIC>MOL_PROPERTY
W(SA)
SciTegic.value.DoubleValue
1.950

@<SCITEGIC>MOL_PROPERTY
Valence
SciTegic.value.DoubleValue
0.846

@<SCITEGIC>MOL_PROPERTY
Coulomb
SciTegic.value.DoubleValue
68.557

@<SCITEGIC>MOL_PROPERTY
VdW
SciTegic.value.DoubleValue
-0.127

@<SCITEGIC>MOL_PROPERTY
VdW6
SciTegic.value.DoubleValue
-3.008

@<SCITEGIC>MOL_PROPERTY
VdW12
SciTegic.value.DoubleValue
2.882

@<SCITEGIC>MOL_PROPERTY
Bond
SciTegic.value.DoubleValue
0.088

@<SCITEGIC>MOL_PROPERTY
Angle
SciTegic.value.DoubleValue
0.332

@<SCITEGIC>MOL_PROPERTY
Pdih
SciTegic.value.DoubleValue
0.426

@<SCITEGIC>MOL_PROPERTY
Idih
SciTegic.value.DoubleValue
0.000

@<SCITEGIC>MOL_PROPERTY
Tether
SciTegic.value.DoubleValue
0.000

@<TRIPOS>MOLECULE
guest-s9_confgen4.mol2 : confsearch ligand conformer 971
          20          19           1
SMALL
USER_CHARGES
 
@<TRIPOS>ATOM
       1    C1      21.432795   16.245661   22.518158 C.3        1 MOL1        -0.2224
       2    H1      20.992524   16.215902   23.523368 H          1 MOL1         0.1052
       3    H2      21.490211   15.214604   22.145808 H          1 MOL1         0.1052
       4    H3      22.457779   16.629006   22.605459 H          1 MOL1         0.1052
       5    C2      20.589864   17.122975   21.567339 C.3        1 MOL1        -0.1209
       6    H4      19.581565   16.695333   21.473624 H          1 MOL1         0.1041
       7    H5      21.035320   17.104542   20.562582 H          1 MOL1         0.1041
       8    C3      20.491858   18.581327   22.066633 C.3        1 MOL1        -0.1274
       9    H6      20.046728   18.594761   23.069845 H          1 MOL1         0.1041
      10    H7      21.499110   19.009234   22.155859 H          1 MOL1         0.1041
      11    C4      19.649377   19.449919   21.109684 C.3        1 MOL1         0.0313
      12    H8      18.630561   19.058532   21.053014 H          1 MOL1         0.1015
      13    H9      20.086343   19.401035   20.109010 H          1 MOL1         0.1015
      14    N1      19.566325   20.918069   21.494908 N.4        1 MOL1        -0.4809
      15    H10     19.131047   21.452312   20.726531 H          1 MOL1         0.3726
      16    H11     20.512794   21.316684   21.590197 H          1 MOL1         0.3726
      17    C5      18.764503   21.110610   22.777688 C.3        1 MOL1        -0.0677
      18    H12     19.266968   20.597647   23.600053 H          1 MOL1         0.1026
      19    H13     18.695667   22.177846   22.999590 H          1 MOL1         0.1026
      20    H14     17.762594   20.698149   22.640714 H          1 MOL1         0.1026
@<TRIPOS>BOND
    1     1     2    1
    2     1     3    1
    3     1     4    1
    4     1     5    1
    5     5     6    1
    6     5     7    1
    7     5     8    1
    8     8     9    1
    9     8    10    1
   10     8    11    1
   11    11    12    1
   12    11    13    1
   13    11    14    1
   14    14    15    1
   15    14    16    1
   16    14    17    1
   17    17    18    1
   18    17    19    1
   19    17    20    1
@<TRIPOS>SUBSTRUCTURE
       1 MOL1            1 RESIDUE      1      MOL     
@<SCITEGIC>MOL_PROPERTY
VConf Rank
SciTegic.value.IntegerValue
971

@<SCITEGIC>MOL_PROPERTY
Conf_Id
SciTegic.value.IntegerValue
37

@<SCITEGIC>MOL_PROPERTY
Delta U+W
SciTegic.value.DoubleValue
-0.021

@<SCITEGIC>MOL_PROPERTY
U+W
SciTegic.value.DoubleValue
15.318

@<SCITEGIC>MOL_PROPERTY
Grad RMS
SciTegic.value.DoubleValue
0.000000

@<SCITEGIC>MOL_PROPERTY
U
SciTegic.value.DoubleValue
69.657

@<SCITEGIC>MOL_PROPERTY
W
SciTegic.value.DoubleValue
-54.340

@<SCITEGIC>MOL_PROPERTY
W(PB)
SciTegic.value.DoubleValue
-56.238

@<SCITEGIC>MOL_PROPERTY
W(SA)
SciTegic.value.DoubleValue
1.899

@<SCITEGIC>MOL_PROPERTY
Valence
SciTegic.value.DoubleValue
1.137

@<SCITEGIC>MOL_PROPERTY
Coulomb
SciTegic.value.DoubleValue
68.383

@<SCITEGIC>MOL_PROPERTY
VdW
SciTegic.value.DoubleValue
0.138

@<SCITEGIC>MOL_PROPERTY
VdW6
SciTegic.value.DoubleValue
-3.703

@<SCITEGIC>MOL_PROPERTY
VdW12
SciTegic.value.DoubleValue
3.841

@<SCITEGIC>MOL_PROPERTY
Bond
SciTegic.value.DoubleValue
0.125

@<SCITEGIC>MOL_PROPERTY
Angle
SciTegic.value.DoubleValue
0.468

@<SCITEGIC>MOL_PROPERTY
Pdih
SciTegic.value.DoubleValue
0.543

@<SCITEGIC>MOL_PROPERTY
Idih
SciTegic.value.DoubleValue
0.000

@<SCITEGIC>MOL_PROPERTY
Tether
SciTegic.value.DoubleValue
0.000

@<TRIPOS>MOLECULE
guest-s9_confgen4.mol2 : confsearch ligand conformer 972
          20          19           1
SMALL
USER_CHARGES
 
@<TRIPOS>ATOM
       1    C1      21.337075   17.443384   24.313176 C.3        1 MOL1        -0.2224
       2    H1      21.351379   17.426598   25.410689 H          1 MOL1         0.1052
       3    H2      20.974496   16.466776   23.966850 H          1 MOL1         0.1052
       4    H3      22.371022   17.566728   23.965457 H          1 MOL1         0.1052
       5    C2      20.436406   18.586319   23.796684 C.3        1 MOL1        -0.1209
       6    H4      20.803511   19.545671   24.188076 H          1 MOL1         0.1041
       7    H5      19.417977   18.454270   24.188720 H          1 MOL1         0.1041
       8    C3      20.397361   18.634442   22.253361 C.3        1 MOL1        -0.1274
       9    H6      21.414413   18.770668   21.862630 H          1 MOL1         0.1041
      10    H7      20.030370   17.674778   21.867205 H          1 MOL1         0.1041
      11    C4      19.496596   19.780032   21.747185 C.3        1 MOL1         0.0313
      12    H8      19.855187   20.724159   22.165172 H          1 MOL1         0.1015
      13    H9      18.471024   19.625766   22.091839 H          1 MOL1         0.1015
      14    N1      19.463834   19.938868   20.235743 N.4        1 MOL1        -0.4809
      15    H10     20.420326   20.054896   19.867728 H          1 MOL1         0.3726
      16    H11     18.978760   20.816547   19.991471 H          1 MOL1         0.3726
      17    C5      18.765002   18.758859   19.568864 C.3        1 MOL1        -0.0677
      18    H12     17.749888   18.673028   19.962416 H          1 MOL1         0.1026
      19    H13     18.728245   18.927962   18.490428 H          1 MOL1         0.1026
      20    H14     19.321519   17.842916   19.776771 H          1 MOL1         0.1026
@<TRIPOS>BOND
    1     1     2    1
    2     1     3    1
    3     1     4    1
    4     1     5    1
    5     5     6    1
    6     5     7    1
    7     5     8    1
    8     8     9    1
    9     8    10    1
   10     8    11    1
   11    11    12    1
   12    11    13    1
   13    11    14    1
   14    14    15    1
   15    14    16    1
   16    14    17    1
   17    17    18    1
   18    17    19    1
   19    17    20    1
@<TRIPOS>SUBSTRUCTURE
       1 MOL1            1 RESIDUE      1      MOL     
@<SCITEGIC>MOL_PROPERTY
VConf Rank
SciTegic.value.IntegerValue
972

@<SCITEGIC>MOL_PROPERTY
Conf_Id
SciTegic.value.IntegerValue
2

@<SCITEGIC>MOL_PROPERTY
Delta U+W
SciTegic.value.DoubleValue
0.069

@<SCITEGIC>MOL_PROPERTY
U+W
SciTegic.value.DoubleValue
15.407

@<SCITEGIC>MOL_PROPERTY
Grad RMS
SciTegic.value.DoubleValue
0.000000

@<SCITEGIC>MOL_PROPERTY
U
SciTegic.value.DoubleValue
69.657

@<SCITEGIC>MOL_PROPERTY
W
SciTegic.value.DoubleValue
-54.250

@<SCITEGIC>MOL_PROPERTY
W(PB)
SciTegic.value.DoubleValue
-56.176

@<SCITEGIC>MOL_PROPERTY
W(SA)
SciTegic.value.DoubleValue
1.926

@<SCITEGIC>MOL_PROPERTY
Valence
SciTegic.value.DoubleValue
1.137

@<SCITEGIC>MOL_PROPERTY
Coulomb
SciTegic.value.DoubleValue
68.383

@<SCITEGIC>MOL_PROPERTY
VdW
SciTegic.value.DoubleValue
0.138

@<SCITEGIC>MOL_PROPERTY
VdW6
SciTegic.value.DoubleValue
-3.703

@<SCITEGIC>MOL_PROPERTY
VdW12
SciTegic.value.DoubleValue
3.841

@<SCITEGIC>MOL_PROPERTY
Bond
SciTegic.value.DoubleValue
0.125

@<SCITEGIC>MOL_PROPERTY
Angle
SciTegic.value.DoubleValue
0.468

@<SCITEGIC>MOL_PROPERTY
Pdih
SciTegic.value.DoubleValue
0.543

@<SCITEGIC>MOL_PROPERTY
Idih
SciTegic.value.DoubleValue
0.000

@<SCITEGIC>MOL_PROPERTY
Tether
SciTegic.value.DoubleValue
0.000

@<TRIPOS>MOLECULE
guest-s9_confgen4.mol2 : confsearch ligand conformer 973
          20          19           1
SMALL
USER_CHARGES
 
@<TRIPOS>ATOM
       1    C1      19.667487   20.983469   20.609843 C.3        1 MOL1        -0.2224
       2    H1      20.066212   21.202726   21.608346 H          1 MOL1         0.1052
       3    H2      20.514359   20.826239   19.929265 H          1 MOL1         0.1052
       4    H3      19.124516   21.874115   20.267906 H          1 MOL1         0.1052
       5    C2      18.732326   19.752448   20.628515 C.3        1 MOL1        -0.1209
       6    H4      18.284967   19.627021   19.632447 H          1 MOL1         0.1041
       7    H5      17.897988   19.933242   21.320903 H          1 MOL1         0.1041
       8    C3      19.460806   18.445518   21.020216 C.3        1 MOL1        -0.1274
       9    H6      18.757746   17.606042   20.937484 H          1 MOL1         0.1041
      10    H7      20.271936   18.248274   20.306754 H          1 MOL1         0.1041
      11    C4      20.029790   18.489022   22.451862 C.3        1 MOL1         0.0313
      12    H8      19.222020   18.682939   23.161986 H          1 MOL1         0.1015
      13    H9      20.760549   19.297173   22.533412 H          1 MOL1         0.1015
      14    N1      20.715360   17.201927   22.866412 N.4        1 MOL1        -0.4809
      15    H10     21.480987   16.979019   22.212029 H          1 MOL1         0.3726
      16    H11     20.058295   16.409681   22.797745 H          1 MOL1         0.3726
      17    C5      21.248357   17.331537   24.287048 C.3        1 MOL1        -0.0677
      18    H12     20.417213   17.533103   24.966294 H          1 MOL1         0.1026
      19    H13     21.739101   16.398467   24.572627 H          1 MOL1         0.1026
      20    H14     21.966966   18.152936   24.328339 H          1 MOL1         0.1026
@<TRIPOS>BOND
    1     1     2    1
    2     1     3    1
    3     1     4    1
    4     1     5    1
    5     5     6    1
    6     5     7    1
    7     5     8    1
    8     8     9    1
    9     8    10    1
   10     8    11    1
   11    11    12    1
   12    11    13    1
   13    11    14    1
   14    14    15    1
   15    14    16    1
   16    14    17    1
   17    17    18    1
   18    17    19    1
   19    17    20    1
@<TRIPOS>SUBSTRUCTURE
       1 MOL1            1 RESIDUE      1      MOL     
@<SCITEGIC>MOL_PROPERTY
VConf Rank
SciTegic.value.IntegerValue
973

@<SCITEGIC>MOL_PROPERTY
Conf_Id
SciTegic.value.IntegerValue
34

@<SCITEGIC>MOL_PROPERTY
Delta U+W
SciTegic.value.DoubleValue
0.276

@<SCITEGIC>MOL_PROPERTY
U+W
SciTegic.value.DoubleValue
15.615

@<SCITEGIC>MOL_PROPERTY
Grad RMS
SciTegic.value.DoubleValue
0.000000

@<SCITEGIC>MOL_PROPERTY
U
SciTegic.value.DoubleValue
69.798

@<SCITEGIC>MOL_PROPERTY
W
SciTegic.value.DoubleValue
-54.184

@<SCITEGIC>MOL_PROPERTY
W(PB)
SciTegic.value.DoubleValue
-56.116

@<SCITEGIC>MOL_PROPERTY
W(SA)
SciTegic.value.DoubleValue
1.933

@<SCITEGIC>MOL_PROPERTY
Valence
SciTegic.value.DoubleValue
1.134

@<SCITEGIC>MOL_PROPERTY
Coulomb
SciTegic.value.DoubleValue
68.735

@<SCITEGIC>MOL_PROPERTY
VdW
SciTegic.value.DoubleValue
-0.070

@<SCITEGIC>MOL_PROPERTY
VdW6
SciTegic.value.DoubleValue
-3.565

@<SCITEGIC>MOL_PROPERTY
VdW12
SciTegic.value.DoubleValue
3.494

@<SCITEGIC>MOL_PROPERTY
Bond
SciTegic.value.DoubleValue
0.108

@<SCITEGIC>MOL_PROPERTY
Angle
SciTegic.value.DoubleValue
0.456

@<SCITEGIC>MOL_PROPERTY
Pdih
SciTegic.value.DoubleValue
0.569

@<SCITEGIC>MOL_PROPERTY
Idih
SciTegic.value.DoubleValue
0.000

@<SCITEGIC>MOL_PROPERTY
Tether
SciTegic.value.DoubleValue
0.000

@<TRIPOS>MOLECULE
guest-s9_confgen4.mol2 : confsearch ligand conformer 974
          20          19           1
SMALL
USER_CHARGES
 
@<TRIPOS>ATOM
       1    C1      19.497704   21.758777   22.413906 C.3        1 MOL1        -0.2224
       2    H1      19.419116   21.961539   23.489954 H          1 MOL1         0.1052
       3    H2      20.079883   22.571610   21.960701 H          1 MOL1         0.1052
       4    H3      18.487259   21.789905   21.985873 H          1 MOL1         0.1052
       5    C2      20.170637   20.393956   22.152275 C.3        1 MOL1        -0.1209
       6    H4      21.189794   20.405602   22.563988 H          1 MOL1         0.1041
       7    H5      20.268251   20.244202   21.068512 H          1 MOL1         0.1041
       8    C3      19.368359   19.230300   22.781114 C.3        1 MOL1        -0.1274
       9    H6      19.245790   19.413962   23.856813 H          1 MOL1         0.1041
      10    H7      18.357512   19.195103   22.353555 H          1 MOL1         0.1041
      11    C4      20.054479   17.861906   22.595970 C.3        1 MOL1         0.0313
      12    H8      19.488905   17.098281   23.135990 H          1 MOL1         0.1015
      13    H9      21.063399   17.897209   23.014623 H          1 MOL1         0.1015
      14    N1      20.162088   17.414135   21.150353 N.4        1 MOL1        -0.4809
      15    H10     20.692160   18.107499   20.601971 H          1 MOL1         0.3726
      16    H11     19.226005   17.379297   20.718403 H          1 MOL1         0.3726
      17    C5      20.835036   16.050066   21.077591 C.3        1 MOL1        -0.0677
      18    H12     21.835583   16.118817   21.509989 H          1 MOL1         0.1026
      19    H13     20.239853   15.324962   21.636848 H          1 MOL1         0.1026
      20    H14     20.906033   15.740169   20.032644 H          1 MOL1         0.1026
@<TRIPOS>BOND
    1     1     2    1
    2     1     3    1
    3     1     4    1
    4     1     5    1
    5     5     6    1
    6     5     7    1
    7     5     8    1
    8     8     9    1
    9     8    10    1
   10     8    11    1
   11    11    12    1
   12    11    13    1
   13    11    14    1
   14    14    15    1
   15    14    16    1
   16    14    17    1
   17    17    18    1
   18    17    19    1
   19    17    20    1
@<TRIPOS>SUBSTRUCTURE
       1 MOL1            1 RESIDUE      1      MOL     
@<SCITEGIC>MOL_PROPERTY
VConf Rank
SciTegic.value.IntegerValue
974

@<SCITEGIC>MOL_PROPERTY
Conf_Id
SciTegic.value.IntegerValue
50

@<SCITEGIC>MOL_PROPERTY
Delta U+W
SciTegic.value.DoubleValue
0.319

@<SCITEGIC>MOL_PROPERTY
U+W
SciTegic.value.DoubleValue
15.657

@<SCITEGIC>MOL_PROPERTY
Grad RMS
SciTegic.value.DoubleValue
0.000000

@<SCITEGIC>MOL_PROPERTY
U
SciTegic.value.DoubleValue
69.962

@<SCITEGIC>MOL_PROPERTY
W
SciTegic.value.DoubleValue
-54.305

@<SCITEGIC>MOL_PROPERTY
W(PB)
SciTegic.value.DoubleValue
-56.223

@<SCITEGIC>MOL_PROPERTY
W(SA)
SciTegic.value.DoubleValue
1.918

@<SCITEGIC>MOL_PROPERTY
Valence
SciTegic.value.DoubleValue
0.982

@<SCITEGIC>MOL_PROPERTY
Coulomb
SciTegic.value.DoubleValue
69.058

@<SCITEGIC>MOL_PROPERTY
VdW
SciTegic.value.DoubleValue
-0.078

@<SCITEGIC>MOL_PROPERTY
VdW6
SciTegic.value.DoubleValue
-3.548

@<SCITEGIC>MOL_PROPERTY
VdW12
SciTegic.value.DoubleValue
3.471

@<SCITEGIC>MOL_PROPERTY
Bond
SciTegic.value.DoubleValue
0.105

@<SCITEGIC>MOL_PROPERTY
Angle
SciTegic.value.DoubleValue
0.408

@<SCITEGIC>MOL_PROPERTY
Pdih
SciTegic.value.DoubleValue
0.469

@<SCITEGIC>MOL_PROPERTY
Idih
SciTegic.value.DoubleValue
0.000

@<SCITEGIC>MOL_PROPERTY
Tether
SciTegic.value.DoubleValue
0.000

@<TRIPOS>MOLECULE
guest-s9_confgen4.mol2 : confsearch ligand conformer 975
          20          19           1
SMALL
USER_CHARGES
 
@<TRIPOS>ATOM
       1    C1      22.474904   17.296854   23.036017 C.3        1 MOL1        -0.2224
       2    H1      22.497230   16.214949   23.220429 H          1 MOL1         0.1052
       3    H2      23.350163   17.551335   22.424191 H          1 MOL1         0.1052
       4    H3      22.575489   17.804957   24.003950 H          1 MOL1         0.1052
       5    C2      21.163990   17.702871   22.328430 C.3        1 MOL1        -0.1209
       6    H4      20.311508   17.397205   22.949989 H          1 MOL1         0.1041
       7    H5      21.077487   17.154668   21.379581 H          1 MOL1         0.1041
       8    C3      21.107515   19.224886   22.057379 C.3        1 MOL1        -0.1274
       9    H6      21.165030   19.778674   23.003883 H          1 MOL1         0.1041
      10    H7      21.985891   19.521273   21.468744 H          1 MOL1         0.1041
      11    C4      19.840284   19.648903   21.288042 C.3        1 MOL1         0.0313
      12    H8      19.777699   19.093560   20.348833 H          1 MOL1         0.1015
      13    H9      19.901774   20.713836   21.049804 H          1 MOL1         0.1015
      14    N1      18.548662   19.425248   22.051965 N.4        1 MOL1        -0.4809
      15    H10     18.576428   19.928200   22.952142 H          1 MOL1         0.3726
      16    H11     18.448407   18.429017   22.296764 H          1 MOL1         0.3726
      17    C5      17.363582   19.890464   21.216501 C.3        1 MOL1        -0.0677
      18    H12     16.441412   19.723756   21.777573 H          1 MOL1         0.1026
      19    H13     17.473640   20.954695   20.997218 H          1 MOL1         0.1026
      20    H14     17.335187   19.322139   20.284303 H          1 MOL1         0.1026
@<TRIPOS>BOND
    1     1     2    1
    2     1     3    1
    3     1     4    1
    4     1     5    1
    5     5     6    1
    6     5     7    1
    7     5     8    1
    8     8     9    1
    9     8    10    1
   10     8    11    1
   11    11    12    1
   12    11    13    1
   13    11    14    1
   14    14    15    1
   15    14    16    1
   16    14    17    1
   17    17    18    1
   18    17    19    1
   19    17    20    1
@<TRIPOS>SUBSTRUCTURE
       1 MOL1            1 RESIDUE      1      MOL     
@<SCITEGIC>MOL_PROPERTY
VConf Rank
SciTegic.value.IntegerValue
975

@<SCITEGIC>MOL_PROPERTY
Conf_Id
SciTegic.value.IntegerValue
35

@<SCITEGIC>MOL_PROPERTY
Delta U+W
SciTegic.value.DoubleValue
0.360

@<SCITEGIC>MOL_PROPERTY
U+W
SciTegic.value.DoubleValue
15.698

@<SCITEGIC>MOL_PROPERTY
Grad RMS
SciTegic.value.DoubleValue
0.000000

@<SCITEGIC>MOL_PROPERTY
U
SciTegic.value.DoubleValue
69.962

@<SCITEGIC>MOL_PROPERTY
W
SciTegic.value.DoubleValue
-54.264

@<SCITEGIC>MOL_PROPERTY
W(PB)
SciTegic.value.DoubleValue
-56.166

@<SCITEGIC>MOL_PROPERTY
W(SA)
SciTegic.value.DoubleValue
1.902

@<SCITEGIC>MOL_PROPERTY
Valence
SciTegic.value.DoubleValue
0.982

@<SCITEGIC>MOL_PROPERTY
Coulomb
SciTegic.value.DoubleValue
69.058

@<SCITEGIC>MOL_PROPERTY
VdW
SciTegic.value.DoubleValue
-0.078

@<SCITEGIC>MOL_PROPERTY
VdW6
SciTegic.value.DoubleValue
-3.548

@<SCITEGIC>MOL_PROPERTY
VdW12
SciTegic.value.DoubleValue
3.471

@<SCITEGIC>MOL_PROPERTY
Bond
SciTegic.value.DoubleValue
0.105

@<SCITEGIC>MOL_PROPERTY
Angle
SciTegic.value.DoubleValue
0.408

@<SCITEGIC>MOL_PROPERTY
Pdih
SciTegic.value.DoubleValue
0.469

@<SCITEGIC>MOL_PROPERTY
Idih
SciTegic.value.DoubleValue
0.000

@<SCITEGIC>MOL_PROPERTY
Tether
SciTegic.value.DoubleValue
0.000

@<TRIPOS>MOLECULE
guest-s9_confgen4.mol2 : confsearch ligand conformer 976
          20          19           1
SMALL
USER_CHARGES
 
@<TRIPOS>ATOM
       1    C1      21.203214   19.041050   24.283514 C.3        1 MOL1        -0.2224
       2    H1      21.256265   17.961127   24.096374 H          1 MOL1         0.1052
       3    H2      21.960764   19.283207   25.040120 H          1 MOL1         0.1052
       4    H3      20.218106   19.266666   24.712177 H          1 MOL1         0.1052
       5    C2      21.447579   19.854572   22.991741 C.3        1 MOL1        -0.1209
       6    H4      22.436497   19.606797   22.580868 H          1 MOL1         0.1041
       7    H5      21.476519   20.924450   23.241760 H          1 MOL1         0.1041
       8    C3      20.361975   19.619095   21.915689 C.3        1 MOL1        -0.1274
       9    H6      19.381749   19.903651   22.319293 H          1 MOL1         0.1041
      10    H7      20.555112   20.281901   21.061931 H          1 MOL1         0.1041
      11    C4      20.324640   18.156879   21.421727 C.3        1 MOL1         0.0313
      12    H8      20.066827   17.491253   22.248909 H          1 MOL1         0.1015
      13    H9      21.318213   17.879251   21.060750 H          1 MOL1         0.1015
      14    N1      19.342956   17.896332   20.290883 N.4        1 MOL1        -0.4809
      15    H10     19.495939   16.948483   19.912218 H          1 MOL1         0.3726
      16    H11     19.532470   18.530343   19.499787 H          1 MOL1         0.3726
      17    C5      17.900832   18.037161   20.766082 C.3        1 MOL1        -0.0677
      18    H12     17.728626   19.060928   21.103921 H          1 MOL1         0.1026
      19    H13     17.227217   17.806822   19.937741 H          1 MOL1         0.1026
      20    H14     17.723761   17.340911   21.588626 H          1 MOL1         0.1026
@<TRIPOS>BOND
    1     1     2    1
    2     1     3    1
    3     1     4    1
    4     1     5    1
    5     5     6    1
    6     5     7    1
    7     5     8    1
    8     8     9    1
    9     8    10    1
   10     8    11    1
   11    11    12    1
   12    11    13    1
   13    11    14    1
   14    14    15    1
   15    14    16    1
   16    14    17    1
   17    17    18    1
   18    17    19    1
   19    17    20    1
@<TRIPOS>SUBSTRUCTURE
       1 MOL1            1 RESIDUE      1      MOL     
@<SCITEGIC>MOL_PROPERTY
VConf Rank
SciTegic.value.IntegerValue
976

@<SCITEGIC>MOL_PROPERTY
Conf_Id
SciTegic.value.IntegerValue
33

@<SCITEGIC>MOL_PROPERTY
Delta U+W
SciTegic.value.DoubleValue
0.372

@<SCITEGIC>MOL_PROPERTY
U+W
SciTegic.value.DoubleValue
15.711

@<SCITEGIC>MOL_PROPERTY
Grad RMS
SciTegic.value.DoubleValue
0.000000

@<SCITEGIC>MOL_PROPERTY
U
SciTegic.value.DoubleValue
70.163

@<SCITEGIC>MOL_PROPERTY
W
SciTegic.value.DoubleValue
-54.452

@<SCITEGIC>MOL_PROPERTY
W(PB)
SciTegic.value.DoubleValue
-56.363

@<SCITEGIC>MOL_PROPERTY
W(SA)
SciTegic.value.DoubleValue
1.911

@<SCITEGIC>MOL_PROPERTY
Valence
SciTegic.value.DoubleValue
1.420

@<SCITEGIC>MOL_PROPERTY
Coulomb
SciTegic.value.DoubleValue
68.566

@<SCITEGIC>MOL_PROPERTY
VdW
SciTegic.value.DoubleValue
0.177

@<SCITEGIC>MOL_PROPERTY
VdW6
SciTegic.value.DoubleValue
-4.267

@<SCITEGIC>MOL_PROPERTY
VdW12
SciTegic.value.DoubleValue
4.445

@<SCITEGIC>MOL_PROPERTY
Bond
SciTegic.value.DoubleValue
0.146

@<SCITEGIC>MOL_PROPERTY
Angle
SciTegic.value.DoubleValue
0.581

@<SCITEGIC>MOL_PROPERTY
Pdih
SciTegic.value.DoubleValue
0.693

@<SCITEGIC>MOL_PROPERTY
Idih
SciTegic.value.DoubleValue
0.000

@<SCITEGIC>MOL_PROPERTY
Tether
SciTegic.value.DoubleValue
0.000

@<TRIPOS>MOLECULE
guest-s9_confgen4.mol2 : confsearch ligand conformer 977
          20          19           1
SMALL
USER_CHARGES
 
@<TRIPOS>ATOM
       1    C1      18.830458   20.515206   20.567598 C.3        1 MOL1        -0.2224
       2    H1      18.137082   20.932403   19.825877 H          1 MOL1         0.1052
       3    H2      18.336879   20.565098   21.546352 H          1 MOL1         0.1052
       4    H3      19.717173   21.161688   20.597513 H          1 MOL1         0.1052
       5    C2      19.212268   19.063688   20.196749 C.3        1 MOL1        -0.1209
       6    H4      19.618114   19.049384   19.175440 H          1 MOL1         0.1041
       7    H5      18.309123   18.437453   20.178746 H          1 MOL1         0.1041
       8    C3      20.254082   18.448684   21.160218 C.3        1 MOL1        -0.1274
       9    H6      20.534465   17.452019   20.794758 H          1 MOL1         0.1041
      10    H7      21.167277   19.057427   21.145508 H          1 MOL1         0.1041
      11    C4      19.724979   18.326411   22.605404 C.3        1 MOL1         0.0313
      12    H8      18.795580   17.751365   22.595090 H          1 MOL1         0.1015
      13    H9      19.504621   19.318709   23.006082 H          1 MOL1         0.1015
      14    N1      20.674543   17.634920   23.570065 N.4        1 MOL1        -0.4809
      15    H10     20.934246   16.703868   23.210323 H          1 MOL1         0.3726
      16    H11     20.186765   17.447532   24.460102 H          1 MOL1         0.3726
      17    C5      21.915503   18.482585   23.828621 C.3        1 MOL1        -0.0677
      18    H12     22.553589   17.970999   24.552561 H          1 MOL1         0.1026
      19    H13     22.461377   18.621174   22.893366 H          1 MOL1         0.1026
      20    H14     21.611456   19.452778   24.227342 H          1 MOL1         0.1026
@<TRIPOS>BOND
    1     1     2    1
    2     1     3    1
    3     1     4    1
    4     1     5    1
    5     5     6    1
    6     5     7    1
    7     5     8    1
    8     8     9    1
    9     8    10    1
   10     8    11    1
   11    11    12    1
   12    11    13    1
   13    11    14    1
   14    14    15    1
   15    14    16    1
   16    14    17    1
   17    17    18    1
   18    17    19    1
   19    17    20    1
@<TRIPOS>SUBSTRUCTURE
       1 MOL1            1 RESIDUE      1      MOL     
@<SCITEGIC>MOL_PROPERTY
VConf Rank
SciTegic.value.IntegerValue
977

@<SCITEGIC>MOL_PROPERTY
Conf_Id
SciTegic.value.IntegerValue
53

@<SCITEGIC>MOL_PROPERTY
Delta U+W
SciTegic.value.DoubleValue
0.379

@<SCITEGIC>MOL_PROPERTY
U+W
SciTegic.value.DoubleValue
15.717

@<SCITEGIC>MOL_PROPERTY
Grad RMS
SciTegic.value.DoubleValue
0.000000

@<SCITEGIC>MOL_PROPERTY
U
SciTegic.value.DoubleValue
70.163

@<SCITEGIC>MOL_PROPERTY
W
SciTegic.value.DoubleValue
-54.446

@<SCITEGIC>MOL_PROPERTY
W(PB)
SciTegic.value.DoubleValue
-56.322

@<SCITEGIC>MOL_PROPERTY
W(SA)
SciTegic.value.DoubleValue
1.876

@<SCITEGIC>MOL_PROPERTY
Valence
SciTegic.value.DoubleValue
1.420

@<SCITEGIC>MOL_PROPERTY
Coulomb
SciTegic.value.DoubleValue
68.566

@<SCITEGIC>MOL_PROPERTY
VdW
SciTegic.value.DoubleValue
0.177

@<SCITEGIC>MOL_PROPERTY
VdW6
SciTegic.value.DoubleValue
-4.267

@<SCITEGIC>MOL_PROPERTY
VdW12
SciTegic.value.DoubleValue
4.445

@<SCITEGIC>MOL_PROPERTY
Bond
SciTegic.value.DoubleValue
0.146

@<SCITEGIC>MOL_PROPERTY
Angle
SciTegic.value.DoubleValue
0.581

@<SCITEGIC>MOL_PROPERTY
Pdih
SciTegic.value.DoubleValue
0.693

@<SCITEGIC>MOL_PROPERTY
Idih
SciTegic.value.DoubleValue
0.000

@<SCITEGIC>MOL_PROPERTY
Tether
SciTegic.value.DoubleValue
0.000

@<TRIPOS>MOLECULE
guest-s9_confgen4.mol2 : confsearch ligand conformer 978
          20          19           1
SMALL
USER_CHARGES
 
@<TRIPOS>ATOM
       1    C1      20.445089   17.237671   19.719296 C.3        1 MOL1        -0.2224
       2    H1      20.291823   16.154099   19.633377 H          1 MOL1         0.1052
       3    H2      20.025019   17.708573   18.820998 H          1 MOL1         0.1052
       4    H3      21.526839   17.424460   19.728761 H          1 MOL1         0.1052
       5    C2      19.775509   17.783695   20.998938 C.3        1 MOL1        -0.1209
       6    H4      20.192520   17.263177   21.871761 H          1 MOL1         0.1041
       7    H5      18.700934   17.553739   20.974657 H          1 MOL1         0.1041
       8    C3      19.978853   19.310154   21.144874 C.3        1 MOL1        -0.1274
       9    H6      21.050190   19.543090   21.197012 H          1 MOL1         0.1041
      10    H7      19.597763   19.814357   20.246990 H          1 MOL1         0.1041
      11    C4      19.253491   19.897776   22.375813 C.3        1 MOL1         0.0313
      12    H8      18.181451   19.707577   22.279982 H          1 MOL1         0.1015
      13    H9      19.400035   20.980507   22.402506 H          1 MOL1         0.1015
      14    N1      19.695582   19.340643   23.720725 N.4        1 MOL1        -0.4809
      15    H10     19.576776   18.317116   23.738268 H          1 MOL1         0.3726
      16    H11     19.070367   19.693141   24.462397 H          1 MOL1         0.3726
      17    C5      21.137894   19.724302   24.032940 C.3        1 MOL1        -0.0677
      18    H12     21.229696   20.812508   24.026832 H          1 MOL1         0.1026
      19    H13     21.405567   19.337999   25.018868 H          1 MOL1         0.1026
      20    H14     21.798651   19.292518   23.278635 H          1 MOL1         0.1026
@<TRIPOS>BOND
    1     1     2    1
    2     1     3    1
    3     1     4    1
    4     1     5    1
    5     5     6    1
    6     5     7    1
    7     5     8    1
    8     8     9    1
    9     8    10    1
   10     8    11    1
   11    11    12    1
   12    11    13    1
   13    11    14    1
   14    14    15    1
   15    14    16    1
   16    14    17    1
   17    17    18    1
   18    17    19    1
   19    17    20    1
@<TRIPOS>SUBSTRUCTURE
       1 MOL1            1 RESIDUE      1      MOL     
@<SCITEGIC>MOL_PROPERTY
VConf Rank
SciTegic.value.IntegerValue
978

@<SCITEGIC>MOL_PROPERTY
Conf_Id
SciTegic.value.IntegerValue
49

@<SCITEGIC>MOL_PROPERTY
Delta U+W
SciTegic.value.DoubleValue
0.268

@<SCITEGIC>MOL_PROPERTY
U+W
SciTegic.value.DoubleValue
15.607

@<SCITEGIC>MOL_PROPERTY
Grad RMS
SciTegic.value.DoubleValue
0.000000

@<SCITEGIC>MOL_PROPERTY
U
SciTegic.value.DoubleValue
70.298

@<SCITEGIC>MOL_PROPERTY
W
SciTegic.value.DoubleValue
-54.692

@<SCITEGIC>MOL_PROPERTY
W(PB)
SciTegic.value.DoubleValue
-56.576

@<SCITEGIC>MOL_PROPERTY
W(SA)
SciTegic.value.DoubleValue
1.885

@<SCITEGIC>MOL_PROPERTY
Valence
SciTegic.value.DoubleValue
1.245

@<SCITEGIC>MOL_PROPERTY
Coulomb
SciTegic.value.DoubleValue
68.933

@<SCITEGIC>MOL_PROPERTY
VdW
SciTegic.value.DoubleValue
0.120

@<SCITEGIC>MOL_PROPERTY
VdW6
SciTegic.value.DoubleValue
-4.430

@<SCITEGIC>MOL_PROPERTY
VdW12
SciTegic.value.DoubleValue
4.550

@<SCITEGIC>MOL_PROPERTY
Bond
SciTegic.value.DoubleValue
0.148

@<SCITEGIC>MOL_PROPERTY
Angle
SciTegic.value.DoubleValue
0.587

@<SCITEGIC>MOL_PROPERTY
Pdih
SciTegic.value.DoubleValue
0.509

@<SCITEGIC>MOL_PROPERTY
Idih
SciTegic.value.DoubleValue
0.000

@<SCITEGIC>MOL_PROPERTY
Tether
SciTegic.value.DoubleValue
0.000

@<TRIPOS>MOLECULE
guest-s9_confgen4.mol2 : confsearch ligand conformer 979
          20          19           1
SMALL
USER_CHARGES
 
@<TRIPOS>ATOM
       1    C1      17.979161   16.906431   22.072569 C.3        1 MOL1        -0.2224
       2    H1      18.386466   16.154439   22.760888 H          1 MOL1         0.1052
       3    H2      17.089966   17.350310   22.538877 H          1 MOL1         0.1052
       4    H3      17.656267   16.387617   21.160664 H          1 MOL1         0.1052
       5    C2      19.032535   17.986006   21.742042 C.3        1 MOL1        -0.1209
       6    H4      18.605741   18.707206   21.030910 H          1 MOL1         0.1041
       7    H5      19.885396   17.507421   21.242911 H          1 MOL1         0.1041
       8    C3      19.512899   18.725420   23.012530 C.3        1 MOL1        -0.1274
       9    H6      18.638513   19.098578   23.562038 H          1 MOL1         0.1041
      10    H7      20.019801   18.019644   23.683713 H          1 MOL1         0.1041
      11    C4      20.445074   19.925668   22.730952 C.3        1 MOL1         0.0313
      12    H8      20.668432   20.409610   23.685235 H          1 MOL1         0.1015
      13    H9      19.939424   20.659409   22.098307 H          1 MOL1         0.1015
      14    N1      21.781684   19.584283   22.090490 N.4        1 MOL1        -0.4809
      15    H10     22.107718   18.659665   22.409274 H          1 MOL1         0.3726
      16    H11     22.498616   20.246618   22.425644 H          1 MOL1         0.3726
      17    C5      21.705279   19.655801   20.568750 C.3        1 MOL1        -0.0677
      18    H12     22.688199   19.427223   20.150926 H          1 MOL1         0.1026
      19    H13     20.975036   18.934110   20.201031 H          1 MOL1         0.1026
      20    H14     21.407030   20.663767   20.272540 H          1 MOL1         0.1026
@<TRIPOS>BOND
    1     1     2    1
    2     1     3    1
    3     1     4    1
    4     1     5    1
    5     5     6    1
    6     5     7    1
    7     5     8    1
    8     8     9    1
    9     8    10    1
   10     8    11    1
   11    11    12    1
   12    11    13    1
   13    11    14    1
   14    14    15    1
   15    14    16    1
   16    14    17    1
   17    17    18    1
   18    17    19    1
   19    17    20    1
@<TRIPOS>SUBSTRUCTURE
       1 MOL1            1 RESIDUE      1      MOL     
@<SCITEGIC>MOL_PROPERTY
VConf Rank
SciTegic.value.IntegerValue
979

@<SCITEGIC>MOL_PROPERTY
Conf_Id
SciTegic.value.IntegerValue
65

@<SCITEGIC>MOL_PROPERTY
Delta U+W
SciTegic.value.DoubleValue
1.775

@<SCITEGIC>MOL_PROPERTY
U+W
SciTegic.value.DoubleValue
17.114

@<SCITEGIC>MOL_PROPERTY
Grad RMS
SciTegic.value.DoubleValue
0.000000

@<SCITEGIC>MOL_PROPERTY
U
SciTegic.value.DoubleValue
71.726

@<SCITEGIC>MOL_PROPERTY
W
SciTegic.value.DoubleValue
-54.613

@<SCITEGIC>MOL_PROPERTY
W(PB)
SciTegic.value.DoubleValue
-56.495

@<SCITEGIC>MOL_PROPERTY
W(SA)
SciTegic.value.DoubleValue
1.883

@<SCITEGIC>MOL_PROPERTY
Valence
SciTegic.value.DoubleValue
2.885

@<SCITEGIC>MOL_PROPERTY
Coulomb
SciTegic.value.DoubleValue
68.822

@<SCITEGIC>MOL_PROPERTY
VdW
SciTegic.value.DoubleValue
0.019

@<SCITEGIC>MOL_PROPERTY
VdW6
SciTegic.value.DoubleValue
-4.600

@<SCITEGIC>MOL_PROPERTY
VdW12
SciTegic.value.DoubleValue
4.619

@<SCITEGIC>MOL_PROPERTY
Bond
SciTegic.value.DoubleValue
0.152

@<SCITEGIC>MOL_PROPERTY
Angle
SciTegic.value.DoubleValue
0.862

@<SCITEGIC>MOL_PROPERTY
Pdih
SciTegic.value.DoubleValue
1.871

@<SCITEGIC>MOL_PROPERTY
Idih
SciTegic.value.DoubleValue
0.000

@<SCITEGIC>MOL_PROPERTY
Tether
SciTegic.value.DoubleValue
0.000

@<TRIPOS>MOLECULE
guest-s9_confgen4.mol2 : confsearch ligand conformer 980
          20          19           1
SMALL
USER_CHARGES
 
@<TRIPOS>ATOM
       1    C1      20.969193   20.155736   23.729767 C.3        1 MOL1        -0.2224
       2    H1      20.191624   20.582013   23.083486 H          1 MOL1         0.1052
       3    H2      20.764758   20.487594   24.755952 H          1 MOL1         0.1052
       4    H3      21.935843   20.579363   23.427777 H          1 MOL1         0.1052
       5    C2      20.990732   18.611759   23.653344 C.3        1 MOL1        -0.1209
       6    H4      20.014517   18.212673   23.960496 H          1 MOL1         0.1041
       7    H5      21.717384   18.228298   24.383372 H          1 MOL1         0.1041
       8    C3      21.367137   18.078485   22.248375 C.3        1 MOL1        -0.1274
       9    H6      22.386986   18.401751   22.001048 H          1 MOL1         0.1041
      10    H7      21.391377   16.980887   22.269250 H          1 MOL1         0.1041
      11    C4      20.417043   18.543686   21.125043 C.3        1 MOL1         0.0313
      12    H8      20.769036   18.151711   20.167444 H          1 MOL1         0.1015
      13    H9      20.422509   19.634715   21.066795 H          1 MOL1         0.1015
      14    N1      18.980478   18.092120   21.306628 N.4        1 MOL1        -0.4809
      15    H10     18.613576   18.437309   22.205915 H          1 MOL1         0.3726
      16    H11     18.936092   17.063404   21.367229 H          1 MOL1         0.3726
      17    C5      18.126321   18.597638   20.151906 C.3        1 MOL1        -0.0677
      18    H12     18.514442   18.194492   19.214036 H          1 MOL1         0.1026
      19    H13     17.095526   18.266570   20.296217 H          1 MOL1         0.1026
      20    H14     18.162648   19.688911   20.128159 H          1 MOL1         0.1026
@<TRIPOS>BOND
    1     1     2    1
    2     1     3    1
    3     1     4    1
    4     1     5    1
    5     5     6    1
    6     5     7    1
    7     5     8    1
    8     8     9    1
    9     8    10    1
   10     8    11    1
   11    11    12    1
   12    11    13    1
   13    11    14    1
   14    14    15    1
   15    14    16    1
   16    14    17    1
   17    17    18    1
   18    17    19    1
   19    17    20    1
@<TRIPOS>SUBSTRUCTURE
       1 MOL1            1 RESIDUE      1      MOL     
@<SCITEGIC>MOL_PROPERTY
VConf Rank
SciTegic.value.IntegerValue
980

@<SCITEGIC>MOL_PROPERTY
Conf_Id
SciTegic.value.IntegerValue
23

@<SCITEGIC>MOL_PROPERTY
Delta U+W
SciTegic.value.DoubleValue
0.896

@<SCITEGIC>MOL_PROPERTY
U+W
SciTegic.value.DoubleValue
16.234

@<SCITEGIC>MOL_PROPERTY
Grad RMS
SciTegic.value.DoubleValue
0.000000

@<SCITEGIC>MOL_PROPERTY
U
SciTegic.value.DoubleValue
70.374

@<SCITEGIC>MOL_PROPERTY
W
SciTegic.value.DoubleValue
-54.140

@<SCITEGIC>MOL_PROPERTY
W(PB)
SciTegic.value.DoubleValue
-56.046

@<SCITEGIC>MOL_PROPERTY
W(SA)
SciTegic.value.DoubleValue
1.907

@<SCITEGIC>MOL_PROPERTY
Valence
SciTegic.value.DoubleValue
1.257

@<SCITEGIC>MOL_PROPERTY
Coulomb
SciTegic.value.DoubleValue
69.240

@<SCITEGIC>MOL_PROPERTY
VdW
SciTegic.value.DoubleValue
-0.123

@<SCITEGIC>MOL_PROPERTY
VdW6
SciTegic.value.DoubleValue
-4.336

@<SCITEGIC>MOL_PROPERTY
VdW12
SciTegic.value.DoubleValue
4.213

@<SCITEGIC>MOL_PROPERTY
Bond
SciTegic.value.DoubleValue
0.128

@<SCITEGIC>MOL_PROPERTY
Angle
SciTegic.value.DoubleValue
0.603

@<SCITEGIC>MOL_PROPERTY
Pdih
SciTegic.value.DoubleValue
0.526

@<SCITEGIC>MOL_PROPERTY
Idih
SciTegic.value.DoubleValue
0.000

@<SCITEGIC>MOL_PROPERTY
Tether
SciTegic.value.DoubleValue
0.000

@<TRIPOS>MOLECULE
guest-s9_confgen4.mol2 : confsearch ligand conformer 981
          20          19           1
SMALL
USER_CHARGES
 
@<TRIPOS>ATOM
       1    C1      22.373621   18.947070   21.297178 C.3        1 MOL1        -0.2224
       2    H1      22.703153   19.994050   21.279547 H          1 MOL1         0.1052
       3    H2      23.232385   18.321660   21.020830 H          1 MOL1         0.1052
       4    H3      21.606899   18.816342   20.523194 H          1 MOL1         0.1052
       5    C2      21.844578   18.554346   22.695767 C.3        1 MOL1        -0.1209
       6    H4      22.670318   18.611746   23.418860 H          1 MOL1         0.1041
       7    H5      21.522385   17.504232   22.687777 H          1 MOL1         0.1041
       8    C3      20.689474   19.463231   23.185318 C.3        1 MOL1        -0.1274
       9    H6      20.379926   19.149823   24.191151 H          1 MOL1         0.1041
      10    H7      21.058276   20.492584   23.286240 H          1 MOL1         0.1041
      11    C4      19.458590   19.470159   22.254811 C.3        1 MOL1         0.0313
      12    H8      19.748921   19.825425   21.263217 H          1 MOL1         0.1015
      13    H9      18.706917   20.156102   22.653572 H          1 MOL1         0.1015
      14    N1      18.801842   18.112715   22.091612 N.4        1 MOL1        -0.4809
      15    H10     18.514464   17.743925   23.011017 H          1 MOL1         0.3726
      16    H11     19.483802   17.433334   21.723018 H          1 MOL1         0.3726
      17    C5      17.602046   18.223802   21.160660 C.3        1 MOL1        -0.0677
      18    H12     17.935544   18.584319   20.185177 H          1 MOL1         0.1026
      19    H13     17.140231   17.240048   21.051460 H          1 MOL1         0.1026
      20    H14     16.880099   18.924047   21.586351 H          1 MOL1         0.1026
@<TRIPOS>BOND
    1     1     2    1
    2     1     3    1
    3     1     4    1
    4     1     5    1
    5     5     6    1
    6     5     7    1
    7     5     8    1
    8     8     9    1
    9     8    10    1
   10     8    11    1
   11    11    12    1
   12    11    13    1
   13    11    14    1
   14    14    15    1
   15    14    16    1
   16    14    17    1
   17    17    18    1
   18    17    19    1
   19    17    20    1
@<TRIPOS>SUBSTRUCTURE
       1 MOL1            1 RESIDUE      1      MOL     
@<SCITEGIC>MOL_PROPERTY
VConf Rank
SciTegic.value.IntegerValue
981

@<SCITEGIC>MOL_PROPERTY
Conf_Id
SciTegic.value.IntegerValue
24

@<SCITEGIC>MOL_PROPERTY
Delta U+W
SciTegic.value.DoubleValue
0.792

@<SCITEGIC>MOL_PROPERTY
U+W
SciTegic.value.DoubleValue
16.130

@<SCITEGIC>MOL_PROPERTY
Grad RMS
SciTegic.value.DoubleValue
0.000000

@<SCITEGIC>MOL_PROPERTY
U
SciTegic.value.DoubleValue
70.374

@<SCITEGIC>MOL_PROPERTY
W
SciTegic.value.DoubleValue
-54.243

@<SCITEGIC>MOL_PROPERTY
W(PB)
SciTegic.value.DoubleValue
-56.130

@<SCITEGIC>MOL_PROPERTY
W(SA)
SciTegic.value.DoubleValue
1.887

@<SCITEGIC>MOL_PROPERTY
Valence
SciTegic.value.DoubleValue
1.257

@<SCITEGIC>MOL_PROPERTY
Coulomb
SciTegic.value.DoubleValue
69.240

@<SCITEGIC>MOL_PROPERTY
VdW
SciTegic.value.DoubleValue
-0.123

@<SCITEGIC>MOL_PROPERTY
VdW6
SciTegic.value.DoubleValue
-4.336

@<SCITEGIC>MOL_PROPERTY
VdW12
SciTegic.value.DoubleValue
4.213

@<SCITEGIC>MOL_PROPERTY
Bond
SciTegic.value.DoubleValue
0.128

@<SCITEGIC>MOL_PROPERTY
Angle
SciTegic.value.DoubleValue
0.603

@<SCITEGIC>MOL_PROPERTY
Pdih
SciTegic.value.DoubleValue
0.526

@<SCITEGIC>MOL_PROPERTY
Idih
SciTegic.value.DoubleValue
0.000

@<SCITEGIC>MOL_PROPERTY
Tether
SciTegic.value.DoubleValue
0.000

@<TRIPOS>MOLECULE
guest-s9_confgen4.mol2 : confsearch ligand conformer 982
          20          19           1
SMALL
USER_CHARGES
 
@<TRIPOS>ATOM
       1    C1      20.232307   17.229978   23.556954 C.3        1 MOL1        -0.2224
       2    H1      20.114993   16.308894   24.142670 H          1 MOL1         0.1052
       3    H2      20.464916   16.928787   22.528739 H          1 MOL1         0.1052
       4    H3      21.088780   17.778895   23.969637 H          1 MOL1         0.1052
       5    C2      18.938957   18.073995   23.622847 C.3        1 MOL1        -0.1209
       6    H4      18.634401   18.167138   24.674815 H          1 MOL1         0.1041
       7    H5      18.124785   17.535231   23.117910 H          1 MOL1         0.1041
       8    C3      19.070417   19.497999   23.024709 C.3        1 MOL1        -0.1274
       9    H6      18.119910   20.022685   23.189206 H          1 MOL1         0.1041
      10    H7      19.830037   20.073175   23.570470 H          1 MOL1         0.1041
      11    C4      19.370405   19.529458   21.511004 C.3        1 MOL1         0.0313
      12    H8      19.081917   20.504356   21.109891 H          1 MOL1         0.1015
      13    H9      18.778908   18.764825   21.001346 H          1 MOL1         0.1015
      14    N1      20.830988   19.321461   21.158255 N.4        1 MOL1        -0.4809
      15    H10     21.168191   18.435758   21.561297 H          1 MOL1         0.3726
      16    H11     21.408716   20.057773   21.591941 H          1 MOL1         0.3726
      17    C5      21.007475   19.324723   19.645887 C.3        1 MOL1        -0.0677
      18    H12     20.413073   18.517534   19.212412 H          1 MOL1         0.1026
      19    H13     20.673283   20.284886   19.246929 H          1 MOL1         0.1026
      20    H14     22.062633   19.174219   19.407223 H          1 MOL1         0.1026
@<TRIPOS>BOND
    1     1     2    1
    2     1     3    1
    3     1     4    1
    4     1     5    1
    5     5     6    1
    6     5     7    1
    7     5     8    1
    8     8     9    1
    9     8    10    1
   10     8    11    1
   11    11    12    1
   12    11    13    1
   13    11    14    1
   14    14    15    1
   15    14    16    1
   16    14    17    1
   17    17    18    1
   18    17    19    1
   19    17    20    1
@<TRIPOS>SUBSTRUCTURE
       1 MOL1            1 RESIDUE      1      MOL     
@<SCITEGIC>MOL_PROPERTY
VConf Rank
SciTegic.value.IntegerValue
982

@<SCITEGIC>MOL_PROPERTY
Conf_Id
SciTegic.value.IntegerValue
26

@<SCITEGIC>MOL_PROPERTY
Delta U+W
SciTegic.value.DoubleValue
2.888

@<SCITEGIC>MOL_PROPERTY
U+W
SciTegic.value.DoubleValue
18.226

@<SCITEGIC>MOL_PROPERTY
Grad RMS
SciTegic.value.DoubleValue
0.000000

@<SCITEGIC>MOL_PROPERTY
U
SciTegic.value.DoubleValue
72.042

@<SCITEGIC>MOL_PROPERTY
W
SciTegic.value.DoubleValue
-53.816

@<SCITEGIC>MOL_PROPERTY
W(PB)
SciTegic.value.DoubleValue
-55.689

@<SCITEGIC>MOL_PROPERTY
W(SA)
SciTegic.value.DoubleValue
1.873

@<SCITEGIC>MOL_PROPERTY
Valence
SciTegic.value.DoubleValue
2.428

@<SCITEGIC>MOL_PROPERTY
Coulomb
SciTegic.value.DoubleValue
69.829

@<SCITEGIC>MOL_PROPERTY
VdW
SciTegic.value.DoubleValue
-0.215

@<SCITEGIC>MOL_PROPERTY
VdW6
SciTegic.value.DoubleValue
-4.563

@<SCITEGIC>MOL_PROPERTY
VdW12
SciTegic.value.DoubleValue
4.348

@<SCITEGIC>MOL_PROPERTY
Bond
SciTegic.value.DoubleValue
0.137

@<SCITEGIC>MOL_PROPERTY
Angle
SciTegic.value.DoubleValue
0.936

@<SCITEGIC>MOL_PROPERTY
Pdih
SciTegic.value.DoubleValue
1.356

@<SCITEGIC>MOL_PROPERTY
Idih
SciTegic.value.DoubleValue
0.000

@<SCITEGIC>MOL_PROPERTY
Tether
SciTegic.value.DoubleValue
0.000

@<TRIPOS>MOLECULE
guest-s9_confgen4.mol2 : confsearch ligand conformer 983
          20          19           1
SMALL
USER_CHARGES
 
@<TRIPOS>ATOM
       1    C1      21.017676   20.721819   22.796400 C.3        1 MOL1        -0.2224
       2    H1      21.735069   21.533083   22.976445 H          1 MOL1         0.1052
       3    H2      20.154174   20.890572   23.452946 H          1 MOL1         0.1052
       4    H3      21.510168   19.787210   23.089671 H          1 MOL1         0.1052
       5    C2      20.597321   20.699957   21.309025 C.3        1 MOL1        -0.1209
       6    H4      21.464720   20.435514   20.687903 H          1 MOL1         0.1041
       7    H5      20.309944   21.718120   21.010991 H          1 MOL1         0.1041
       8    C3      19.417848   19.746358   20.989133 C.3        1 MOL1        -0.1274
       9    H6      18.521478   20.046284   21.547945 H          1 MOL1         0.1041
      10    H7      19.164724   19.866318   19.927363 H          1 MOL1         0.1041
      11    C4      19.719291   18.252892   21.236061 C.3        1 MOL1         0.0313
      12    H8      20.731144   18.019208   20.895724 H          1 MOL1         0.1015
      13    H9      19.018376   17.646507   20.656786 H          1 MOL1         0.1015
      14    N1      19.586985   17.818989   22.683550 N.4        1 MOL1        -0.4809
      15    H10     18.626001   17.988375   23.017949 H          1 MOL1         0.3726
      16    H11     20.191580   18.399363   23.282093 H          1 MOL1         0.3726
      17    C5      19.949354   16.346550   22.821467 C.3        1 MOL1        -0.0677
      18    H12     20.980092   16.197227   22.492759 H          1 MOL1         0.1026
      19    H13     19.849550   16.048700   23.867553 H          1 MOL1         0.1026
      20    H14     19.274450   15.750706   22.203212 H          1 MOL1         0.1026
@<TRIPOS>BOND
    1     1     2    1
    2     1     3    1
    3     1     4    1
    4     1     5    1
    5     5     6    1
    6     5     7    1
    7     5     8    1
    8     8     9    1
    9     8    10    1
   10     8    11    1
   11    11    12    1
   12    11    13    1
   13    11    14    1
   14    14    15    1
   15    14    16    1
   16    14    17    1
   17    17    18    1
   18    17    19    1
   19    17    20    1
@<TRIPOS>SUBSTRUCTURE
       1 MOL1            1 RESIDUE      1      MOL     
@<SCITEGIC>MOL_PROPERTY
VConf Rank
SciTegic.value.IntegerValue
983

@<SCITEGIC>MOL_PROPERTY
Conf_Id
SciTegic.value.IntegerValue
5

@<SCITEGIC>MOL_PROPERTY
Delta U+W
SciTegic.value.DoubleValue
2.950

@<SCITEGIC>MOL_PROPERTY
U+W
SciTegic.value.DoubleValue
18.289

@<SCITEGIC>MOL_PROPERTY
Grad RMS
SciTegic.value.DoubleValue
0.000000

@<SCITEGIC>MOL_PROPERTY
U
SciTegic.value.DoubleValue
72.042

@<SCITEGIC>MOL_PROPERTY
W
SciTegic.value.DoubleValue
-53.753

@<SCITEGIC>MOL_PROPERTY
W(PB)
SciTegic.value.DoubleValue
-55.644

@<SCITEGIC>MOL_PROPERTY
W(SA)
SciTegic.value.DoubleValue
1.891

@<SCITEGIC>MOL_PROPERTY
Valence
SciTegic.value.DoubleValue
2.428

@<SCITEGIC>MOL_PROPERTY
Coulomb
SciTegic.value.DoubleValue
69.829

@<SCITEGIC>MOL_PROPERTY
VdW
SciTegic.value.DoubleValue
-0.215

@<SCITEGIC>MOL_PROPERTY
VdW6
SciTegic.value.DoubleValue
-4.563

@<SCITEGIC>MOL_PROPERTY
VdW12
SciTegic.value.DoubleValue
4.348

@<SCITEGIC>MOL_PROPERTY
Bond
SciTegic.value.DoubleValue
0.137

@<SCITEGIC>MOL_PROPERTY
Angle
SciTegic.value.DoubleValue
0.936

@<SCITEGIC>MOL_PROPERTY
Pdih
SciTegic.value.DoubleValue
1.356

@<SCITEGIC>MOL_PROPERTY
Idih
SciTegic.value.DoubleValue
0.000

@<SCITEGIC>MOL_PROPERTY
Tether
SciTegic.value.DoubleValue
0.000

@<TRIPOS>MOLECULE
guest-s9_confgen4.mol2 : confsearch ligand conformer 984
          20          19           1
SMALL
USER_CHARGES
 
@<TRIPOS>ATOM
       1    C1      18.572989   18.759811   20.083046 C.3        1 MOL1        -0.2224
       2    H1      18.846203   19.469303   19.291191 H          1 MOL1         0.1052
       3    H2      19.243767   17.894384   20.013269 H          1 MOL1         0.1052
       4    H3      17.554217   18.406209   19.878023 H          1 MOL1         0.1052
       5    C2      18.645408   19.426962   21.475816 C.3        1 MOL1        -0.1209
       6    H4      18.364699   18.700184   22.250257 H          1 MOL1         0.1041
       7    H5      17.895458   20.228735   21.527096 H          1 MOL1         0.1041
       8    C3      20.038594   20.026571   21.790133 C.3        1 MOL1        -0.1274
       9    H6      20.263185   20.817964   21.062954 H          1 MOL1         0.1041
      10    H7      20.010689   20.517994   22.771192 H          1 MOL1         0.1041
      11    C4      21.188334   18.993659   21.763232 C.3        1 MOL1         0.0313
      12    H8      22.132692   19.491986   21.996205 H          1 MOL1         0.1015
      13    H9      21.269870   18.578530   20.755711 H          1 MOL1         0.1015
      14    N1      21.032377   17.825898   22.725176 N.4        1 MOL1        -0.4809
      15    H10     21.766109   17.124311   22.539517 H          1 MOL1         0.3726
      16    H11     20.143200   17.336999   22.545050 H          1 MOL1         0.3726
      17    C5      21.112063   18.289094   24.175597 C.3        1 MOL1        -0.0677
      18    H12     20.294654   18.983681   24.379018 H          1 MOL1         0.1026
      19    H13     21.028158   17.421393   24.833596 H          1 MOL1         0.1026
      20    H14     22.070320   18.785765   24.342018 H          1 MOL1         0.1026
@<TRIPOS>BOND
    1     1     2    1
    2     1     3    1
    3     1     4    1
    4     1     5    1
    5     5     6    1
    6     5     7    1
    7     5     8    1
    8     8     9    1
    9     8    10    1
   10     8    11    1
   11    11    12    1
   12    11    13    1
   13    11    14    1
   14    14    15    1
   15    14    16    1
   16    14    17    1
   17    17    18    1
   18    17    19    1
   19    17    20    1
@<TRIPOS>SUBSTRUCTURE
       1 MOL1            1 RESIDUE      1      MOL     
@<SCITEGIC>MOL_PROPERTY
VConf Rank
SciTegic.value.IntegerValue
984

@<SCITEGIC>MOL_PROPERTY
Conf_Id
SciTegic.value.IntegerValue
52

@<SCITEGIC>MOL_PROPERTY
Delta U+W
SciTegic.value.DoubleValue
0.784

@<SCITEGIC>MOL_PROPERTY
U+W
SciTegic.value.DoubleValue
16.122

@<SCITEGIC>MOL_PROPERTY
Grad RMS
SciTegic.value.DoubleValue
0.000000

@<SCITEGIC>MOL_PROPERTY
U
SciTegic.value.DoubleValue
70.777

@<SCITEGIC>MOL_PROPERTY
W
SciTegic.value.DoubleValue
-54.655

@<SCITEGIC>MOL_PROPERTY
W(PB)
SciTegic.value.DoubleValue
-56.491

@<SCITEGIC>MOL_PROPERTY
W(SA)
SciTegic.value.DoubleValue
1.836

@<SCITEGIC>MOL_PROPERTY
Valence
SciTegic.value.DoubleValue
1.529

@<SCITEGIC>MOL_PROPERTY
Coulomb
SciTegic.value.DoubleValue
69.166

@<SCITEGIC>MOL_PROPERTY
VdW
SciTegic.value.DoubleValue
0.082

@<SCITEGIC>MOL_PROPERTY
VdW6
SciTegic.value.DoubleValue
-5.166

@<SCITEGIC>MOL_PROPERTY
VdW12
SciTegic.value.DoubleValue
5.248

@<SCITEGIC>MOL_PROPERTY
Bond
SciTegic.value.DoubleValue
0.171

@<SCITEGIC>MOL_PROPERTY
Angle
SciTegic.value.DoubleValue
0.752

@<SCITEGIC>MOL_PROPERTY
Pdih
SciTegic.value.DoubleValue
0.605

@<SCITEGIC>MOL_PROPERTY
Idih
SciTegic.value.DoubleValue
0.000

@<SCITEGIC>MOL_PROPERTY
Tether
SciTegic.value.DoubleValue
0.000

@<TRIPOS>MOLECULE
guest-s9_confgen4.mol2 : confsearch ligand conformer 985
          20          19           1
SMALL
USER_CHARGES
 
@<TRIPOS>ATOM
       1    C1      19.773883   16.841304   22.298453 C.3        1 MOL1        -0.2224
       2    H1      19.670322   15.795059   22.614388 H          1 MOL1         0.1052
       3    H2      18.761894   17.256114   22.227986 H          1 MOL1         0.1052
       4    H3      20.229043   16.843630   21.299388 H          1 MOL1         0.1052
       5    C2      20.639951   17.623201   23.312320 C.3        1 MOL1        -0.1209
       6    H4      21.547650   17.038949   23.519101 H          1 MOL1         0.1041
       7    H5      20.105007   17.701224   24.269276 H          1 MOL1         0.1041
       8    C3      21.068688   19.034611   22.835947 C.3        1 MOL1        -0.1274
       9    H6      21.750364   19.450907   23.589340 H          1 MOL1         0.1041
      10    H7      21.656466   18.961317   21.912341 H          1 MOL1         0.1041
      11    C4      19.902965   20.035088   22.657940 C.3        1 MOL1         0.0313
      12    H8      20.300273   21.053201   22.654437 H          1 MOL1         0.1015
      13    H9      19.223343   19.945739   23.509174 H          1 MOL1         0.1015
      14    N1      19.083046   19.875053   21.387258 N.4        1 MOL1        -0.4809
      15    H10     18.229175   20.451103   21.452300 H          1 MOL1         0.3726
      16    H11     18.749107   18.904943   21.302323 H          1 MOL1         0.3726
      17    C5      19.886566   20.279168   20.156092 C.3        1 MOL1        -0.0677
      18    H12     20.214857   21.314975   20.265501 H          1 MOL1         0.1026
      19    H13     20.754319   19.624255   20.057559 H          1 MOL1         0.1026
      20    H14     19.254800   20.185448   19.270088 H          1 MOL1         0.1026
@<TRIPOS>BOND
    1     1     2    1
    2     1     3    1
    3     1     4    1
    4     1     5    1
    5     5     6    1
    6     5     7    1
    7     5     8    1
    8     8     9    1
    9     8    10    1
   10     8    11    1
   11    11    12    1
   12    11    13    1
   13    11    14    1
   14    14    15    1
   15    14    16    1
   16    14    17    1
   17    17    18    1
   18    17    19    1
   19    17    20    1
@<TRIPOS>SUBSTRUCTURE
       1 MOL1            1 RESIDUE      1      MOL     
@<SCITEGIC>MOL_PROPERTY
VConf Rank
SciTegic.value.IntegerValue
985

@<SCITEGIC>MOL_PROPERTY
Conf_Id
SciTegic.value.IntegerValue
55

@<SCITEGIC>MOL_PROPERTY
Delta U+W
SciTegic.value.DoubleValue
2.745

@<SCITEGIC>MOL_PROPERTY
U+W
SciTegic.value.DoubleValue
18.083

@<SCITEGIC>MOL_PROPERTY
Grad RMS
SciTegic.value.DoubleValue
0.000000

@<SCITEGIC>MOL_PROPERTY
U
SciTegic.value.DoubleValue
72.490

@<SCITEGIC>MOL_PROPERTY
W
SciTegic.value.DoubleValue
-54.407

@<SCITEGIC>MOL_PROPERTY
W(PB)
SciTegic.value.DoubleValue
-56.269

@<SCITEGIC>MOL_PROPERTY
W(SA)
SciTegic.value.DoubleValue
1.861

@<SCITEGIC>MOL_PROPERTY
Valence
SciTegic.value.DoubleValue
2.738

@<SCITEGIC>MOL_PROPERTY
Coulomb
SciTegic.value.DoubleValue
69.795

@<SCITEGIC>MOL_PROPERTY
VdW
SciTegic.value.DoubleValue
-0.043

@<SCITEGIC>MOL_PROPERTY
VdW6
SciTegic.value.DoubleValue
-5.333

@<SCITEGIC>MOL_PROPERTY
VdW12
SciTegic.value.DoubleValue
5.290

@<SCITEGIC>MOL_PROPERTY
Bond
SciTegic.value.DoubleValue
0.182

@<SCITEGIC>MOL_PROPERTY
Angle
SciTegic.value.DoubleValue
1.135

@<SCITEGIC>MOL_PROPERTY
Pdih
SciTegic.value.DoubleValue
1.422

@<SCITEGIC>MOL_PROPERTY
Idih
SciTegic.value.DoubleValue
0.000

@<SCITEGIC>MOL_PROPERTY
Tether
SciTegic.value.DoubleValue
0.000

@<TRIPOS>MOLECULE
guest-s9_confgen4.mol2 : confsearch ligand conformer 986
          20          19           1
SMALL
USER_CHARGES
 
@<TRIPOS>ATOM
       1    C1      19.394375   19.637158   20.167353 C.3        1 MOL1        -0.2224
       2    H1      19.252545   20.159203   19.212093 H          1 MOL1         0.1052
       3    H2      19.035491   18.607428   20.040203 H          1 MOL1         0.1052
       4    H3      18.762988   20.144014   20.905998 H          1 MOL1         0.1052
       5    C2      20.884589   19.666299   20.576969 C.3        1 MOL1        -0.1209
       6    H4      21.181939   20.698819   20.808275 H          1 MOL1         0.1041
       7    H5      21.490120   19.363080   19.711281 H          1 MOL1         0.1041
       8    C3      21.241065   18.739907   21.767580 C.3        1 MOL1        -0.1274
       9    H6      21.003566   17.697281   21.521757 H          1 MOL1         0.1041
      10    H7      22.330070   18.772023   21.904048 H          1 MOL1         0.1041
      11    C4      20.590387   19.140969   23.111946 C.3        1 MOL1         0.0313
      12    H8      20.672194   20.223423   23.238717 H          1 MOL1         0.1015
      13    H9      21.136959   18.667458   23.931379 H          1 MOL1         0.1015
      14    N1      19.127260   18.760931   23.277292 N.4        1 MOL1        -0.4809
      15    H10     18.577706   19.118434   22.483554 H          1 MOL1         0.3726
      16    H11     18.739856   19.232394   24.109637 H          1 MOL1         0.3726
      17    C5      18.959935   17.251572   23.413521 C.3        1 MOL1        -0.0677
      18    H12     19.312921   16.763299   22.503242 H          1 MOL1         0.1026
      19    H13     19.539911   16.901741   24.270191 H          1 MOL1         0.1026
      20    H14     17.903278   17.021219   23.566247 H          1 MOL1         0.1026
@<TRIPOS>BOND
    1     1     2    1
    2     1     3    1
    3     1     4    1
    4     1     5    1
    5     5     6    1
    6     5     7    1
    7     5     8    1
    8     8     9    1
    9     8    10    1
   10     8    11    1
   11    11    12    1
   12    11    13    1
   13    11    14    1
   14    14    15    1
   15    14    16    1
   16    14    17    1
   17    17    18    1
   18    17    19    1
   19    17    20    1
@<TRIPOS>SUBSTRUCTURE
       1 MOL1            1 RESIDUE      1      MOL     
@<SCITEGIC>MOL_PROPERTY
VConf Rank
SciTegic.value.IntegerValue
986

@<SCITEGIC>MOL_PROPERTY
Conf_Id
SciTegic.value.IntegerValue
76

@<SCITEGIC>MOL_PROPERTY
Delta U+W
SciTegic.value.DoubleValue
2.799

@<SCITEGIC>MOL_PROPERTY
U+W
SciTegic.value.DoubleValue
18.137

@<SCITEGIC>MOL_PROPERTY
Grad RMS
SciTegic.value.DoubleValue
0.000000

@<SCITEGIC>MOL_PROPERTY
U
SciTegic.value.DoubleValue
72.490

@<SCITEGIC>MOL_PROPERTY
W
SciTegic.value.DoubleValue
-54.353

@<SCITEGIC>MOL_PROPERTY
W(PB)
SciTegic.value.DoubleValue
-56.201

@<SCITEGIC>MOL_PROPERTY
W(SA)
SciTegic.value.DoubleValue
1.848

@<SCITEGIC>MOL_PROPERTY
Valence
SciTegic.value.DoubleValue
2.738

@<SCITEGIC>MOL_PROPERTY
Coulomb
SciTegic.value.DoubleValue
69.795

@<SCITEGIC>MOL_PROPERTY
VdW
SciTegic.value.DoubleValue
-0.043

@<SCITEGIC>MOL_PROPERTY
VdW6
SciTegic.value.DoubleValue
-5.334

@<SCITEGIC>MOL_PROPERTY
VdW12
SciTegic.value.DoubleValue
5.290

@<SCITEGIC>MOL_PROPERTY
Bond
SciTegic.value.DoubleValue
0.182

@<SCITEGIC>MOL_PROPERTY
Angle
SciTegic.value.DoubleValue
1.135

@<SCITEGIC>MOL_PROPERTY
Pdih
SciTegic.value.DoubleValue
1.421

@<SCITEGIC>MOL_PROPERTY
Idih
SciTegic.value.DoubleValue
0.000

@<SCITEGIC>MOL_PROPERTY
Tether
SciTegic.value.DoubleValue
0.000

@<TRIPOS>MOLECULE
guest-s9_confgen4.mol2 : confsearch ligand conformer 987
          20          19           1
SMALL
USER_CHARGES
 
@<TRIPOS>ATOM
       1    C1      18.768500   20.389106   21.675868 C.3        1 MOL1        -0.2224
       2    H1      19.814596   20.559990   21.393853 H          1 MOL1         0.1052
       3    H2      18.167565   20.364489   20.757597 H          1 MOL1         0.1052
       4    H3      18.439337   21.252876   22.267814 H          1 MOL1         0.1052
       5    C2      18.600190   19.081753   22.483991 C.3        1 MOL1        -0.1209
       6    H4      17.551832   18.994785   22.802134 H          1 MOL1         0.1041
       7    H5      19.188726   19.131088   23.409168 H          1 MOL1         0.1041
       8    C3      18.979228   17.815832   21.677008 C.3        1 MOL1        -0.1274
       9    H6      18.796144   16.924737   22.291692 H          1 MOL1         0.1041
      10    H7      18.301585   17.732077   20.817106 H          1 MOL1         0.1041
      11    C4      20.433281   17.776567   21.150825 C.3        1 MOL1         0.0313
      12    H8      20.645506   18.658657   20.542183 H          1 MOL1         0.1015
      13    H9      20.531014   16.899812   20.505523 H          1 MOL1         0.1015
      14    N1      21.514364   17.652611   22.214233 N.4        1 MOL1        -0.4809
      15    H10     22.313186   17.127225   21.826093 H          1 MOL1         0.3726
      16    H11     21.179401   17.077474   23.001420 H          1 MOL1         0.3726
      17    C5      21.997913   19.018413   22.689639 C.3        1 MOL1        -0.0677
      18    H12     22.791389   18.879099   23.427144 H          1 MOL1         0.1026
      19    H13     22.385673   19.577922   21.835717 H          1 MOL1         0.1026
      20    H14     21.170543   19.565579   23.142508 H          1 MOL1         0.1026
@<TRIPOS>BOND
    1     1     2    1
    2     1     3    1
    3     1     4    1
    4     1     5    1
    5     5     6    1
    6     5     7    1
    7     5     8    1
    8     8     9    1
    9     8    10    1
   10     8    11    1
   11    11    12    1
   12    11    13    1
   13    11    14    1
   14    14    15    1
   15    14    16    1
   16    14    17    1
   17    17    18    1
   18    17    19    1
   19    17    20    1
@<TRIPOS>SUBSTRUCTURE
       1 MOL1            1 RESIDUE      1      MOL     
@<SCITEGIC>MOL_PROPERTY
VConf Rank
SciTegic.value.IntegerValue
987

@<SCITEGIC>MOL_PROPERTY
Conf_Id
SciTegic.value.IntegerValue
60

@<SCITEGIC>MOL_PROPERTY
Delta U+W
SciTegic.value.DoubleValue
1.788

@<SCITEGIC>MOL_PROPERTY
U+W
SciTegic.value.DoubleValue
17.127

@<SCITEGIC>MOL_PROPERTY
Grad RMS
SciTegic.value.DoubleValue
0.000000

@<SCITEGIC>MOL_PROPERTY
U
SciTegic.value.DoubleValue
72.122

@<SCITEGIC>MOL_PROPERTY
W
SciTegic.value.DoubleValue
-54.995

@<SCITEGIC>MOL_PROPERTY
W(PB)
SciTegic.value.DoubleValue
-56.810

@<SCITEGIC>MOL_PROPERTY
W(SA)
SciTegic.value.DoubleValue
1.815

@<SCITEGIC>MOL_PROPERTY
Valence
SciTegic.value.DoubleValue
3.197

@<SCITEGIC>MOL_PROPERTY
Coulomb
SciTegic.value.DoubleValue
69.115

@<SCITEGIC>MOL_PROPERTY
VdW
SciTegic.value.DoubleValue
-0.190

@<SCITEGIC>MOL_PROPERTY
VdW6
SciTegic.value.DoubleValue
-5.585

@<SCITEGIC>MOL_PROPERTY
VdW12
SciTegic.value.DoubleValue
5.395

@<SCITEGIC>MOL_PROPERTY
Bond
SciTegic.value.DoubleValue
0.177

@<SCITEGIC>MOL_PROPERTY
Angle
SciTegic.value.DoubleValue
1.207

@<SCITEGIC>MOL_PROPERTY
Pdih
SciTegic.value.DoubleValue
1.813

@<SCITEGIC>MOL_PROPERTY
Idih
SciTegic.value.DoubleValue
0.000

@<SCITEGIC>MOL_PROPERTY
Tether
SciTegic.value.DoubleValue
0.000

@<TRIPOS>MOLECULE
guest-s9_confgen4.mol2 : confsearch ligand conformer 988
          20          19           1
SMALL
USER_CHARGES
 
@<TRIPOS>ATOM
       1    C1      22.189811   18.561907   22.594946 C.3        1 MOL1        -0.2224
       2    H1      22.997830   17.853468   22.371193 H          1 MOL1         0.1052
       3    H2      22.620391   19.387458   23.176339 H          1 MOL1         0.1052
       4    H3      21.460374   18.043076   23.228813 H          1 MOL1         0.1052
       5    C2      21.545752   19.080505   21.288498 C.3        1 MOL1        -0.1209
       6    H4      21.140278   18.241621   20.708302 H          1 MOL1         0.1041
       7    H5      22.329585   19.526033   20.660052 H          1 MOL1         0.1041
       8    C3      20.445061   20.141583   21.533530 C.3        1 MOL1        -0.1274
       9    H6      20.901774   21.015734   22.016146 H          1 MOL1         0.1041
      10    H7      20.061980   20.497383   20.568096 H          1 MOL1         0.1041
      11    C4      19.257207   19.674093   22.407104 C.3        1 MOL1         0.0313
      12    H8      18.622237   20.542732   22.599321 H          1 MOL1         0.1015
      13    H9      19.611962   19.305499   23.372430 H          1 MOL1         0.1015
      14    N1      18.361027   18.613332   21.785341 N.4        1 MOL1        -0.4809
      15    H10     18.296965   18.750177   20.765628 H          1 MOL1         0.3726
      16    H11     17.396320   18.740661   22.128746 H          1 MOL1         0.3726
      17    C5      18.832029   17.204286   22.128839 C.3        1 MOL1        -0.0677
      18    H12     18.842773   17.085206   23.214332 H          1 MOL1         0.1026
      19    H13     18.143289   16.480427   21.687712 H          1 MOL1         0.1026
      20    H14     19.834635   17.043326   21.731481 H          1 MOL1         0.1026
@<TRIPOS>BOND
    1     1     2    1
    2     1     3    1
    3     1     4    1
    4     1     5    1
    5     5     6    1
    6     5     7    1
    7     5     8    1
    8     8     9    1
    9     8    10    1
   10     8    11    1
   11    11    12    1
   12    11    13    1
   13    11    14    1
   14    14    15    1
   15    14    16    1
   16    14    17    1
   17    17    18    1
   18    17    19    1
   19    17    20    1
@<TRIPOS>SUBSTRUCTURE
       1 MOL1            1 RESIDUE      1      MOL     
@<SCITEGIC>MOL_PROPERTY
VConf Rank
SciTegic.value.IntegerValue
988

@<SCITEGIC>MOL_PROPERTY
Conf_Id
SciTegic.value.IntegerValue
54

@<SCITEGIC>MOL_PROPERTY
Delta U+W
SciTegic.value.DoubleValue
1.880

@<SCITEGIC>MOL_PROPERTY
U+W
SciTegic.value.DoubleValue
17.218

@<SCITEGIC>MOL_PROPERTY
Grad RMS
SciTegic.value.DoubleValue
0.000000

@<SCITEGIC>MOL_PROPERTY
U
SciTegic.value.DoubleValue
72.122

@<SCITEGIC>MOL_PROPERTY
W
SciTegic.value.DoubleValue
-54.903

@<SCITEGIC>MOL_PROPERTY
W(PB)
SciTegic.value.DoubleValue
-56.724

@<SCITEGIC>MOL_PROPERTY
W(SA)
SciTegic.value.DoubleValue
1.821

@<SCITEGIC>MOL_PROPERTY
Valence
SciTegic.value.DoubleValue
3.197

@<SCITEGIC>MOL_PROPERTY
Coulomb
SciTegic.value.DoubleValue
69.115

@<SCITEGIC>MOL_PROPERTY
VdW
SciTegic.value.DoubleValue
-0.190

@<SCITEGIC>MOL_PROPERTY
VdW6
SciTegic.value.DoubleValue
-5.585

@<SCITEGIC>MOL_PROPERTY
VdW12
SciTegic.value.DoubleValue
5.395

@<SCITEGIC>MOL_PROPERTY
Bond
SciTegic.value.DoubleValue
0.177

@<SCITEGIC>MOL_PROPERTY
Angle
SciTegic.value.DoubleValue
1.207

@<SCITEGIC>MOL_PROPERTY
Pdih
SciTegic.value.DoubleValue
1.813

@<SCITEGIC>MOL_PROPERTY
Idih
SciTegic.value.DoubleValue
0.000

@<SCITEGIC>MOL_PROPERTY
Tether
SciTegic.value.DoubleValue
0.000

