VeraChem MOL file


 20 19  0  0  0  0  0  0  0  0999 V2000     
   19.8543   19.1509   18.8169 C   0  0  0  0  0  0  0  0  0  0  0  0
   20.0354   20.2331   18.7808 H   0  0  0  0  0  0  0  0  0  0  0  0
   20.3379   18.6999   17.9408 H   0  0  0  0  0  0  0  0  0  0  0  0
   18.7731   18.9825   18.7279 H   0  0  0  0  0  0  0  0  0  0  0  0
   20.4073   18.5375   20.1216 C   0  0  0  0  0  0  0  0  0  0  0  0
   21.4949   18.6914   20.1651 H   0  0  0  0  0  0  0  0  0  0  0  0
   20.2424   17.4507   20.1126 H   0  0  0  0  0  0  0  0  0  0  0  0
   19.7440   19.1542   21.3727 C   0  0  0  0  0  0  0  0  0  0  0  0
   19.9122   20.2394   21.3828 H   0  0  0  0  0  0  0  0  0  0  0  0
   18.6579   18.9971   21.3302 H   0  0  0  0  0  0  0  0  0  0  0  0
   20.3006   18.5374   22.6694 C   0  0  0  0  0  0  0  0  0  0  0  0
   21.3792   18.7056   22.7224 H   0  0  0  0  0  0  0  0  0  0  0  0
   20.1208   17.4593   22.6697 H   0  0  0  0  0  0  0  0  0  0  0  0
   19.6776   19.1133   23.9259 N   0  3  0  0  0  0  0  0  0  0  0  0
   18.6547   18.9807   23.9099 H   0  0  0  0  0  0  0  0  0  0  0  0
   19.8198   20.1345   23.9587 H   0  0  0  0  0  0  0  0  0  0  0  0
   20.2823   18.4506   25.1565 C   0  0  0  0  0  0  0  0  0  0  0  0
   21.3590   18.6329   25.1710 H   0  0  0  0  0  0  0  0  0  0  0  0
   19.8251   18.8744   26.0534 H   0  0  0  0  0  0  0  0  0  0  0  0
   20.0899   17.3762   25.1179 H   0  0  0  0  0  0  0  0  0  0  0  0
  1  2  1  0  0  0  0
  1  3  1  0  0  0  0
  1  4  1  0  0  0  0
  1  5  1  0  0  0  0
  5  6  1  0  0  0  0
  5  7  1  0  0  0  0
  5  8  1  0  0  0  0
  8  9  1  0  0  0  0
  8 10  1  0  0  0  0
  8 11  1  0  0  0  0
 11 12  1  0  0  0  0
 11 13  1  0  0  0  0
 11 14  1  0  0  0  0
 14 15  1  0  0  0  0
 14 16  1  0  0  0  0
 14 17  1  0  0  0  0
 17 18  1  0  0  0  0
 17 19  1  0  0  0  0
 17 20  1  0  0  0  0
M  END
> <VConfSearch Rank>
1

> <Conf_Id>
67

> <Delta U+W>
0.000

> <U+W>
15.338

> <U>
69.277

> <W>
-53.939

> <W(PB)>
-55.889

> <W(SA)>
1.950

> <Valence>
0.846

> <Coulomb>
68.557

> <VdW>
-0.127

> <VdW6>
-3.008

> <VdW12>
2.882

> <Bond>
0.088

> <Angle>
0.332

> <Pdih>
0.426

> <Idih>
0.000

> <Tether>
0.000

$$$$
VeraChem MOL file


 20 19  0  0  0  0  0  0  0  0999 V2000     
   20.2446   19.5234   19.0575 C   0  0  0  0  0  0  0  0  0  0  0  0
   21.0843   20.2045   19.2476 H   0  0  0  0  0  0  0  0  0  0  0  0
   20.4069   19.0551   18.0781 H   0  0  0  0  0  0  0  0  0  0  0  0
   19.3265   20.1220   18.9959 H   0  0  0  0  0  0  0  0  0  0  0  0
   20.1366   18.4514   20.1636 C   0  0  0  0  0  0  0  0  0  0  0  0
   21.0550   17.8474   20.1778 H   0  0  0  0  0  0  0  0  0  0  0  0
   19.3110   17.7651   19.9275 H   0  0  0  0  0  0  0  0  0  0  0  0
   19.9075   19.0821   21.5548 C   0  0  0  0  0  0  0  0  0  0  0  0
   20.7340   19.7664   21.7862 H   0  0  0  0  0  0  0  0  0  0  0  0
   18.9878   19.6817   21.5411 H   0  0  0  0  0  0  0  0  0  0  0  0
   19.7994   18.0035   22.6525 C   0  0  0  0  0  0  0  0  0  0  0  0
   20.7303   17.4333   22.7055 H   0  0  0  0  0  0  0  0  0  0  0  0
   18.9939   17.3122   22.3922 H   0  0  0  0  0  0  0  0  0  0  0  0
   19.5006   18.5424   24.0421 N   0  3  0  0  0  0  0  0  0  0  0  0
   19.2826   17.7581   24.6768 H   0  0  0  0  0  0  0  0  0  0  0  0
   18.6431   19.1152   24.0266 H   0  0  0  0  0  0  0  0  0  0  0  0
   20.6772   19.3412   24.5924 C   0  0  0  0  0  0  0  0  0  0  0  0
   20.8594   20.2065   23.9521 H   0  0  0  0  0  0  0  0  0  0  0  0
   20.4391   19.6780   25.6037 H   0  0  0  0  0  0  0  0  0  0  0  0
   21.5643   18.7046   24.6162 H   0  0  0  0  0  0  0  0  0  0  0  0
  1  2  1  0  0  0  0
  1  3  1  0  0  0  0
  1  4  1  0  0  0  0
  1  5  1  0  0  0  0
  5  6  1  0  0  0  0
  5  7  1  0  0  0  0
  5  8  1  0  0  0  0
  8  9  1  0  0  0  0
  8 10  1  0  0  0  0
  8 11  1  0  0  0  0
 11 12  1  0  0  0  0
 11 13  1  0  0  0  0
 11 14  1  0  0  0  0
 14 15  1  0  0  0  0
 14 16  1  0  0  0  0
 14 17  1  0  0  0  0
 17 18  1  0  0  0  0
 17 19  1  0  0  0  0
 17 20  1  0  0  0  0
M  END
> <VConfSearch Rank>
2

> <Conf_Id>
37

> <Delta U+W>
-0.021

> <U+W>
15.318

> <U>
69.657

> <W>
-54.340

> <W(PB)>
-56.238

> <W(SA)>
1.899

> <Valence>
1.137

> <Coulomb>
68.383

> <VdW>
0.138

> <VdW6>
-3.703

> <VdW12>
3.841

> <Bond>
0.125

> <Angle>
0.468

> <Pdih>
0.543

> <Idih>
0.000

> <Tether>
0.000

$$$$
VeraChem MOL file


 20 19  0  0  0  0  0  0  0  0999 V2000     
   19.4687   18.7548   19.0250 C   0  0  0  0  0  0  0  0  0  0  0  0
   19.9765   18.6288   18.0600 H   0  0  0  0  0  0  0  0  0  0  0  0
   18.7728   17.9151   19.1507 H   0  0  0  0  0  0  0  0  0  0  0  0
   18.8812   19.6810   18.9773 H   0  0  0  0  0  0  0  0  0  0  0  0
   20.4939   18.8052   20.1786 C   0  0  0  0  0  0  0  0  0  0  0  0
   21.1967   19.6327   20.0065 H   0  0  0  0  0  0  0  0  0  0  0  0
   21.0886   17.8808   20.1792 H   0  0  0  0  0  0  0  0  0  0  0  0
   19.8069   18.9825   21.5506 C   0  0  0  0  0  0  0  0  0  0  0  0
   19.2165   19.9082   21.5507 H   0  0  0  0  0  0  0  0  0  0  0  0
   19.1063   18.1543   21.7180 H   0  0  0  0  0  0  0  0  0  0  0  0
   20.8390   19.0333   22.6961 C   0  0  0  0  0  0  0  0  0  0  0  0
   21.5477   19.8417   22.4992 H   0  0  0  0  0  0  0  0  0  0  0  0
   21.3984   18.0952   22.7335 H   0  0  0  0  0  0  0  0  0  0  0  0
   20.2445   19.2793   24.0733 N   0  3  0  0  0  0  0  0  0  0  0  0
   19.6802   20.1426   24.0700 H   0  0  0  0  0  0  0  0  0  0  0  0
   21.0031   19.4623   24.7489 H   0  0  0  0  0  0  0  0  0  0  0  0
   19.4130   18.0890   24.5394 C   0  0  0  0  0  0  0  0  0  0  0  0
   20.0404   17.1951   24.5522 H   0  0  0  0  0  0  0  0  0  0  0  0
   19.0359   18.2880   25.5450 H   0  0  0  0  0  0  0  0  0  0  0  0
   18.5740   17.9428   23.8563 H   0  0  0  0  0  0  0  0  0  0  0  0
  1  2  1  0  0  0  0
  1  3  1  0  0  0  0
  1  4  1  0  0  0  0
  1  5  1  0  0  0  0
  5  6  1  0  0  0  0
  5  7  1  0  0  0  0
  5  8  1  0  0  0  0
  8  9  1  0  0  0  0
  8 10  1  0  0  0  0
  8 11  1  0  0  0  0
 11 12  1  0  0  0  0
 11 13  1  0  0  0  0
 11 14  1  0  0  0  0
 14 15  1  0  0  0  0
 14 16  1  0  0  0  0
 14 17  1  0  0  0  0
 17 18  1  0  0  0  0
 17 19  1  0  0  0  0
 17 20  1  0  0  0  0
M  END
> <VConfSearch Rank>
3

> <Conf_Id>
2

> <Delta U+W>
0.069

> <U+W>
15.407

> <U>
69.657

> <W>
-54.250

> <W(PB)>
-56.176

> <W(SA)>
1.926

> <Valence>
1.137

> <Coulomb>
68.383

> <VdW>
0.138

> <VdW6>
-3.703

> <VdW12>
3.841

> <Bond>
0.125

> <Angle>
0.468

> <Pdih>
0.543

> <Idih>
0.000

> <Tether>
0.000

$$$$
VeraChem MOL file


 20 19  0  0  0  0  0  0  0  0999 V2000     
   19.6007   18.1122   19.4663 C   0  0  0  0  0  0  0  0  0  0  0  0
   19.6691   17.2146   20.0938 H   0  0  0  0  0  0  0  0  0  0  0  0
   18.5508   18.4316   19.4379 H   0  0  0  0  0  0  0  0  0  0  0  0
   19.8909   17.8258   18.4471 H   0  0  0  0  0  0  0  0  0  0  0  0
   20.5130   19.2444   19.9918 C   0  0  0  0  0  0  0  0  0  0  0  0
   20.4843   20.0852   19.2845 H   0  0  0  0  0  0  0  0  0  0  0  0
   21.5556   18.8970   20.0161 H   0  0  0  0  0  0  0  0  0  0  0  0
   20.1002   19.7524   21.3931 C   0  0  0  0  0  0  0  0  0  0  0  0
   20.7391   20.6023   21.6675 H   0  0  0  0  0  0  0  0  0  0  0  0
   19.0701   20.1312   21.3585 H   0  0  0  0  0  0  0  0  0  0  0  0
   20.2150   18.6631   22.4773 C   0  0  0  0  0  0  0  0  0  0  0  0
   21.2408   18.2879   22.5132 H   0  0  0  0  0  0  0  0  0  0  0  0
   19.5524   17.8293   22.2333 H   0  0  0  0  0  0  0  0  0  0  0  0
   19.8497   19.1537   23.8645 N   0  3  0  0  0  0  0  0  0  0  0  0
   18.8876   19.5259   23.8691 H   0  0  0  0  0  0  0  0  0  0  0  0
   20.4510   19.9481   24.1317 H   0  0  0  0  0  0  0  0  0  0  0  0
   19.9874   18.0183   24.8700 C   0  0  0  0  0  0  0  0  0  0  0  0
   21.0203   17.6633   24.8727 H   0  0  0  0  0  0  0  0  0  0  0  0
   19.7216   18.3850   25.8639 H   0  0  0  0  0  0  0  0  0  0  0  0
   19.3174   17.2036   24.5870 H   0  0  0  0  0  0  0  0  0  0  0  0
  1  2  1  0  0  0  0
  1  3  1  0  0  0  0
  1  4  1  0  0  0  0
  1  5  1  0  0  0  0
  5  6  1  0  0  0  0
  5  7  1  0  0  0  0
  5  8  1  0  0  0  0
  8  9  1  0  0  0  0
  8 10  1  0  0  0  0
  8 11  1  0  0  0  0
 11 12  1  0  0  0  0
 11 13  1  0  0  0  0
 11 14  1  0  0  0  0
 14 15  1  0  0  0  0
 14 16  1  0  0  0  0
 14 17  1  0  0  0  0
 17 18  1  0  0  0  0
 17 19  1  0  0  0  0
 17 20  1  0  0  0  0
M  END
> <VConfSearch Rank>
4

> <Conf_Id>
34

> <Delta U+W>
0.276

> <U+W>
15.615

> <U>
69.798

> <W>
-54.184

> <W(PB)>
-56.116

> <W(SA)>
1.933

> <Valence>
1.134

> <Coulomb>
68.735

> <VdW>
-0.070

> <VdW6>
-3.565

> <VdW12>
3.494

> <Bond>
0.108

> <Angle>
0.456

> <Pdih>
0.569

> <Idih>
0.000

> <Tether>
0.000

$$$$
VeraChem MOL file


 20 19  0  0  0  0  0  0  0  0999 V2000     
   19.6845   18.8158   18.9888 C   0  0  0  0  0  0  0  0  0  0  0  0
   20.5415   19.3303   18.5351 H   0  0  0  0  0  0  0  0  0  0  0  0
   19.4593   17.9337   18.3755 H   0  0  0  0  0  0  0  0  0  0  0  0
   18.8181   19.4883   18.9413 H   0  0  0  0  0  0  0  0  0  0  0  0
   19.9896   18.4042   20.4454 C   0  0  0  0  0  0  0  0  0  0  0  0
   20.8399   17.7076   20.4564 H   0  0  0  0  0  0  0  0  0  0  0  0
   19.1274   17.8584   20.8519 H   0  0  0  0  0  0  0  0  0  0  0  0
   20.3100   19.6310   21.3317 C   0  0  0  0  0  0  0  0  0  0  0  0
   21.1481   20.1875   20.8914 H   0  0  0  0  0  0  0  0  0  0  0  0
   19.4536   20.3181   21.3480 H   0  0  0  0  0  0  0  0  0  0  0  0
   20.6879   19.2436   22.7755 C   0  0  0  0  0  0  0  0  0  0  0  0
   20.9885   20.1404   23.3232 H   0  0  0  0  0  0  0  0  0  0  0  0
   21.5356   18.5540   22.7609 H   0  0  0  0  0  0  0  0  0  0  0  0
   19.5633   18.5877   23.5547 N   0  3  0  0  0  0  0  0  0  0  0  0
   19.2485   17.7327   23.0728 H   0  0  0  0  0  0  0  0  0  0  0  0
   18.7396   19.2081   23.5803 H   0  0  0  0  0  0  0  0  0  0  0  0
   20.0308   18.2619   24.9669 C   0  0  0  0  0  0  0  0  0  0  0  0
   20.8813   17.5787   24.9158 H   0  0  0  0  0  0  0  0  0  0  0  0
   20.3278   19.1849   25.4695 H   0  0  0  0  0  0  0  0  0  0  0  0
   19.2126   17.7907   25.5160 H   0  0  0  0  0  0  0  0  0  0  0  0
  1  2  1  0  0  0  0
  1  3  1  0  0  0  0
  1  4  1  0  0  0  0
  1  5  1  0  0  0  0
  5  6  1  0  0  0  0
  5  7  1  0  0  0  0
  5  8  1  0  0  0  0
  8  9  1  0  0  0  0
  8 10  1  0  0  0  0
  8 11  1  0  0  0  0
 11 12  1  0  0  0  0
 11 13  1  0  0  0  0
 11 14  1  0  0  0  0
 14 15  1  0  0  0  0
 14 16  1  0  0  0  0
 14 17  1  0  0  0  0
 17 18  1  0  0  0  0
 17 19  1  0  0  0  0
 17 20  1  0  0  0  0
M  END
> <VConfSearch Rank>
5

> <Conf_Id>
50

> <Delta U+W>
0.319

> <U+W>
15.657

> <U>
69.962

> <W>
-54.305

> <W(PB)>
-56.223

> <W(SA)>
1.918

> <Valence>
0.982

> <Coulomb>
69.058

> <VdW>
-0.078

> <VdW6>
-3.548

> <VdW12>
3.471

> <Bond>
0.105

> <Angle>
0.408

> <Pdih>
0.469

> <Idih>
0.000

> <Tether>
0.000

$$$$
VeraChem MOL file


 20 19  0  0  0  0  0  0  0  0999 V2000     
   20.1835   19.3099   19.0097 C   0  0  0  0  0  0  0  0  0  0  0  0
   21.0927   19.5513   18.4440 H   0  0  0  0  0  0  0  0  0  0  0  0
   19.6812   18.4780   18.4991 H   0  0  0  0  0  0  0  0  0  0  0  0
   19.5211   20.1845   18.9706 H   0  0  0  0  0  0  0  0  0  0  0  0
   20.5304   18.9398   20.4681 C   0  0  0  0  0  0  0  0  0  0  0  0
   21.0659   19.7785   20.9331 H   0  0  0  0  0  0  0  0  0  0  0  0
   21.2184   18.0826   20.4724 H   0  0  0  0  0  0  0  0  0  0  0  0
   19.2644   18.5955   21.2879 C   0  0  0  0  0  0  0  0  0  0  0  0
   18.5847   19.4576   21.3115 H   0  0  0  0  0  0  0  0  0  0  0  0
   18.7198   17.7825   20.7897 H   0  0  0  0  0  0  0  0  0  0  0  0
   19.5871   18.1535   22.7294 C   0  0  0  0  0  0  0  0  0  0  0  0
   20.2692   17.2998   22.7079 H   0  0  0  0  0  0  0  0  0  0  0  0
   18.6653   17.8397   23.2258 H   0  0  0  0  0  0  0  0  0  0  0  0
   20.2194   19.2374   23.5822 N   0  3  0  0  0  0  0  0  0  0  0  0
   19.6057   20.0658   23.6167 H   0  0  0  0  0  0  0  0  0  0  0  0
   21.0967   19.5632   23.1501 H   0  0  0  0  0  0  0  0  0  0  0  0
   20.4812   18.7079   24.9857 C   0  0  0  0  0  0  0  0  0  0  0  0
   20.9360   19.4973   25.5881 H   0  0  0  0  0  0  0  0  0  0  0  0
   19.5352   18.3998   25.4363 H   0  0  0  0  0  0  0  0  0  0  0  0
   21.1583   17.8530   24.9273 H   0  0  0  0  0  0  0  0  0  0  0  0
  1  2  1  0  0  0  0
  1  3  1  0  0  0  0
  1  4  1  0  0  0  0
  1  5  1  0  0  0  0
  5  6  1  0  0  0  0
  5  7  1  0  0  0  0
  5  8  1  0  0  0  0
  8  9  1  0  0  0  0
  8 10  1  0  0  0  0
  8 11  1  0  0  0  0
 11 12  1  0  0  0  0
 11 13  1  0  0  0  0
 11 14  1  0  0  0  0
 14 15  1  0  0  0  0
 14 16  1  0  0  0  0
 14 17  1  0  0  0  0
 17 18  1  0  0  0  0
 17 19  1  0  0  0  0
 17 20  1  0  0  0  0
M  END
> <VConfSearch Rank>
6

> <Conf_Id>
35

> <Delta U+W>
0.360

> <U+W>
15.698

> <U>
69.962

> <W>
-54.264

> <W(PB)>
-56.166

> <W(SA)>
1.902

> <Valence>
0.982

> <Coulomb>
69.058

> <VdW>
-0.078

> <VdW6>
-3.548

> <VdW12>
3.471

> <Bond>
0.105

> <Angle>
0.408

> <Pdih>
0.469

> <Idih>
0.000

> <Tether>
0.000

$$$$
VeraChem MOL file


 20 19  0  0  0  0  0  0  0  0999 V2000     
   19.7765   18.0534   19.5402 C   0  0  0  0  0  0  0  0  0  0  0  0
   18.8005   17.8293   19.9890 H   0  0  0  0  0  0  0  0  0  0  0  0
   19.6343   18.1165   18.4536 H   0  0  0  0  0  0  0  0  0  0  0  0
   20.4483   17.2088   19.7413 H   0  0  0  0  0  0  0  0  0  0  0  0
   20.3641   19.3744   20.0878 C   0  0  0  0  0  0  0  0  0  0  0  0
   19.6712   20.2015   19.8784 H   0  0  0  0  0  0  0  0  0  0  0  0
   21.2927   19.6053   19.5470 H   0  0  0  0  0  0  0  0  0  0  0  0
   20.6660   19.3182   21.6036 C   0  0  0  0  0  0  0  0  0  0  0  0
   21.3871   18.5147   21.8015 H   0  0  0  0  0  0  0  0  0  0  0  0
   21.1493   20.2563   21.9069 H   0  0  0  0  0  0  0  0  0  0  0  0
   19.3947   19.1071   22.4536 C   0  0  0  0  0  0  0  0  0  0  0  0
   18.9395   18.1443   22.2093 H   0  0  0  0  0  0  0  0  0  0  0  0
   18.6737   19.8928   22.2141 H   0  0  0  0  0  0  0  0  0  0  0  0
   19.6245   19.1460   23.9556 N   0  3  0  0  0  0  0  0  0  0  0  0
   18.7154   19.1629   24.4438 H   0  0  0  0  0  0  0  0  0  0  0  0
   20.0847   20.0291   24.2240 H   0  0  0  0  0  0  0  0  0  0  0  0
   20.4402   17.9450   24.4222 C   0  0  0  0  0  0  0  0  0  0  0  0
   21.4249   17.9704   23.9515 H   0  0  0  0  0  0  0  0  0  0  0  0
   20.5521   17.9887   25.5078 H   0  0  0  0  0  0  0  0  0  0  0  0
   19.9196   17.0265   24.1429 H   0  0  0  0  0  0  0  0  0  0  0  0
  1  2  1  0  0  0  0
  1  3  1  0  0  0  0
  1  4  1  0  0  0  0
  1  5  1  0  0  0  0
  5  6  1  0  0  0  0
  5  7  1  0  0  0  0
  5  8  1  0  0  0  0
  8  9  1  0  0  0  0
  8 10  1  0  0  0  0
  8 11  1  0  0  0  0
 11 12  1  0  0  0  0
 11 13  1  0  0  0  0
 11 14  1  0  0  0  0
 14 15  1  0  0  0  0
 14 16  1  0  0  0  0
 14 17  1  0  0  0  0
 17 18  1  0  0  0  0
 17 19  1  0  0  0  0
 17 20  1  0  0  0  0
M  END
> <VConfSearch Rank>
7

> <Conf_Id>
33

> <Delta U+W>
0.372

> <U+W>
15.711

> <U>
70.163

> <W>
-54.452

> <W(PB)>
-56.363

> <W(SA)>
1.911

> <Valence>
1.420

> <Coulomb>
68.566

> <VdW>
0.177

> <VdW6>
-4.267

> <VdW12>
4.445

> <Bond>
0.146

> <Angle>
0.581

> <Pdih>
0.693

> <Idih>
0.000

> <Tether>
0.000

$$$$
VeraChem MOL file


 20 19  0  0  0  0  0  0  0  0999 V2000     
   20.9217   19.1851   19.5883 C   0  0  0  0  0  0  0  0  0  0  0  0
   20.9062   19.3735   18.5069 H   0  0  0  0  0  0  0  0  0  0  0  0
   21.1371   20.1386   20.0869 H   0  0  0  0  0  0  0  0  0  0  0  0
   21.7497   18.4949   19.7959 H   0  0  0  0  0  0  0  0  0  0  0  0
   19.5724   18.5918   20.0547 C   0  0  0  0  0  0  0  0  0  0  0  0
   19.3546   17.6897   19.4658 H   0  0  0  0  0  0  0  0  0  0  0  0
   18.7624   19.3032   19.8403 H   0  0  0  0  0  0  0  0  0  0  0  0
   19.5610   18.2261   21.5573 C   0  0  0  0  0  0  0  0  0  0  0  0
   18.6058   17.7424   21.8004 H   0  0  0  0  0  0  0  0  0  0  0  0
   20.3476   17.4874   21.7580 H   0  0  0  0  0  0  0  0  0  0  0  0
   19.7496   19.4581   22.4684 C   0  0  0  0  0  0  0  0  0  0  0  0
   18.9823   20.1981   22.2271 H   0  0  0  0  0  0  0  0  0  0  0  0
   20.7266   19.9110   22.2841 H   0  0  0  0  0  0  0  0  0  0  0  0
   19.6449   19.1660   23.9564 N   0  3  0  0  0  0  0  0  0  0  0  0
   18.7465   18.7059   24.1681 H   0  0  0  0  0  0  0  0  0  0  0  0
   19.6170   20.0541   24.4816 H   0  0  0  0  0  0  0  0  0  0  0  0
   20.8165   18.3169   24.4378 C   0  0  0  0  0  0  0  0  0  0  0  0
   20.7258   18.1602   25.5150 H   0  0  0  0  0  0  0  0  0  0  0  0
   20.8006   17.3531   23.9252 H   0  0  0  0  0  0  0  0  0  0  0  0
   21.7514   18.8374   24.2194 H   0  0  0  0  0  0  0  0  0  0  0  0
  1  2  1  0  0  0  0
  1  3  1  0  0  0  0
  1  4  1  0  0  0  0
  1  5  1  0  0  0  0
  5  6  1  0  0  0  0
  5  7  1  0  0  0  0
  5  8  1  0  0  0  0
  8  9  1  0  0  0  0
  8 10  1  0  0  0  0
  8 11  1  0  0  0  0
 11 12  1  0  0  0  0
 11 13  1  0  0  0  0
 11 14  1  0  0  0  0
 14 15  1  0  0  0  0
 14 16  1  0  0  0  0
 14 17  1  0  0  0  0
 17 18  1  0  0  0  0
 17 19  1  0  0  0  0
 17 20  1  0  0  0  0
M  END
> <VConfSearch Rank>
8

> <Conf_Id>
53

> <Delta U+W>
0.379

> <U+W>
15.717

> <U>
70.163

> <W>
-54.446

> <W(PB)>
-56.322

> <W(SA)>
1.876

> <Valence>
1.420

> <Coulomb>
68.566

> <VdW>
0.177

> <VdW6>
-4.267

> <VdW12>
4.445

> <Bond>
0.146

> <Angle>
0.581

> <Pdih>
0.693

> <Idih>
0.000

> <Tether>
0.000

$$$$
VeraChem MOL file


 20 19  0  0  0  0  0  0  0  0999 V2000     
   20.6592   19.0608   19.2492 C   0  0  0  0  0  0  0  0  0  0  0  0
   21.0663   18.2920   18.5796 H   0  0  0  0  0  0  0  0  0  0  0  0
   19.8539   19.5803   18.7138 H   0  0  0  0  0  0  0  0  0  0  0  0
   21.4576   19.7863   19.4526 H   0  0  0  0  0  0  0  0  0  0  0  0
   20.1390   18.4256   20.5568 C   0  0  0  0  0  0  0  0  0  0  0  0
   20.9610   17.8836   21.0439 H   0  0  0  0  0  0  0  0  0  0  0  0
   19.3650   17.6825   20.3184 H   0  0  0  0  0  0  0  0  0  0  0  0
   19.5613   19.4894   21.5198 C   0  0  0  0  0  0  0  0  0  0  0  0
   20.3378   20.2191   21.7829 H   0  0  0  0  0  0  0  0  0  0  0  0
   18.7711   20.0528   21.0061 H   0  0  0  0  0  0  0  0  0  0  0  0
   18.9619   18.8747   22.8042 C   0  0  0  0  0  0  0  0  0  0  0  0
   18.1523   18.1945   22.5274 H   0  0  0  0  0  0  0  0  0  0  0  0
   18.5354   19.6681   23.4231 H   0  0  0  0  0  0  0  0  0  0  0  0
   19.9381   18.0913   23.6691 N   0  3  0  0  0  0  0  0  0  0  0  0
   20.3679   17.3314   23.1216 H   0  0  0  0  0  0  0  0  0  0  0  0
   19.4227   17.6146   24.4257 H   0  0  0  0  0  0  0  0  0  0  0  0
   21.0065   19.0022   24.2639 C   0  0  0  0  0  0  0  0  0  0  0  0
   20.5241   19.7847   24.8535 H   0  0  0  0  0  0  0  0  0  0  0  0
   21.6643   18.4112   24.9049 H   0  0  0  0  0  0  0  0  0  0  0  0
   21.5887   19.4519   23.4571 H   0  0  0  0  0  0  0  0  0  0  0  0
  1  2  1  0  0  0  0
  1  3  1  0  0  0  0
  1  4  1  0  0  0  0
  1  5  1  0  0  0  0
  5  6  1  0  0  0  0
  5  7  1  0  0  0  0
  5  8  1  0  0  0  0
  8  9  1  0  0  0  0
  8 10  1  0  0  0  0
  8 11  1  0  0  0  0
 11 12  1  0  0  0  0
 11 13  1  0  0  0  0
 11 14  1  0  0  0  0
 14 15  1  0  0  0  0
 14 16  1  0  0  0  0
 14 17  1  0  0  0  0
 17 18  1  0  0  0  0
 17 19  1  0  0  0  0
 17 20  1  0  0  0  0
M  END
> <VConfSearch Rank>
9

> <Conf_Id>
49

> <Delta U+W>
0.268

> <U+W>
15.607

> <U>
70.298

> <W>
-54.692

> <W(PB)>
-56.576

> <W(SA)>
1.885

> <Valence>
1.245

> <Coulomb>
68.933

> <VdW>
0.120

> <VdW6>
-4.430

> <VdW12>
4.550

> <Bond>
0.148

> <Angle>
0.587

> <Pdih>
0.509

> <Idih>
0.000

> <Tether>
0.000

$$$$
VeraChem MOL file


 20 19  0  0  0  0  0  0  0  0999 V2000     
   19.9126   18.3871   19.2238 C   0  0  0  0  0  0  0  0  0  0  0  0
   18.8690   18.6585   19.0179 H   0  0  0  0  0  0  0  0  0  0  0  0
   20.5611   19.1061   18.7064 H   0  0  0  0  0  0  0  0  0  0  0  0
   20.0948   17.3965   18.7874 H   0  0  0  0  0  0  0  0  0  0  0  0
   20.1946   18.3746   20.7419 C   0  0  0  0  0  0  0  0  0  0  0  0
   21.2368   18.0729   20.9175 H   0  0  0  0  0  0  0  0  0  0  0  0
   19.5558   17.6169   21.2145 H   0  0  0  0  0  0  0  0  0  0  0  0
   19.9348   19.7573   21.3841 C   0  0  0  0  0  0  0  0  0  0  0  0
   20.4914   20.5218   20.8260 H   0  0  0  0  0  0  0  0  0  0  0  0
   18.8726   20.0181   21.2872 H   0  0  0  0  0  0  0  0  0  0  0  0
   20.3536   19.8535   22.8687 C   0  0  0  0  0  0  0  0  0  0  0  0
   20.1879   20.8821   23.1993 H   0  0  0  0  0  0  0  0  0  0  0  0
   21.4195   19.6386   22.9776 H   0  0  0  0  0  0  0  0  0  0  0  0
   19.5859   18.9571   23.8280 N   0  3  0  0  0  0  0  0  0  0  0  0
   18.6138   18.8353   23.5069 H   0  0  0  0  0  0  0  0  0  0  0  0
   19.5043   19.4283   24.7425 H   0  0  0  0  0  0  0  0  0  0  0  0
   20.2846   17.6143   24.0164 C   0  0  0  0  0  0  0  0  0  0  0  0
   19.7149   17.0123   24.7277 H   0  0  0  0  0  0  0  0  0  0  0  0
   20.3447   17.0917   23.0611 H   0  0  0  0  0  0  0  0  0  0  0  0
   21.2905   17.7860   24.4053 H   0  0  0  0  0  0  0  0  0  0  0  0
  1  2  1  0  0  0  0
  1  3  1  0  0  0  0
  1  4  1  0  0  0  0
  1  5  1  0  0  0  0
  5  6  1  0  0  0  0
  5  7  1  0  0  0  0
  5  8  1  0  0  0  0
  8  9  1  0  0  0  0
  8 10  1  0  0  0  0
  8 11  1  0  0  0  0
 11 12  1  0  0  0  0
 11 13  1  0  0  0  0
 11 14  1  0  0  0  0
 14 15  1  0  0  0  0
 14 16  1  0  0  0  0
 14 17  1  0  0  0  0
 17 18  1  0  0  0  0
 17 19  1  0  0  0  0
 17 20  1  0  0  0  0
M  END
> <VConfSearch Rank>
10

> <Conf_Id>
65

> <Delta U+W>
1.775

> <U+W>
17.114

> <U>
71.726

> <W>
-54.613

> <W(PB)>
-56.495

> <W(SA)>
1.883

> <Valence>
2.885

> <Coulomb>
68.822

> <VdW>
0.019

> <VdW6>
-4.600

> <VdW12>
4.619

> <Bond>
0.152

> <Angle>
0.862

> <Pdih>
1.871

> <Idih>
0.000

> <Tether>
0.000

$$$$
VeraChem MOL file


 20 19  0  0  0  0  0  0  0  0999 V2000     
   20.5649   18.0545   19.8040 C   0  0  0  0  0  0  0  0  0  0  0  0
   21.0154   17.4706   20.6164 H   0  0  0  0  0  0  0  0  0  0  0  0
   20.2243   17.3465   19.0374 H   0  0  0  0  0  0  0  0  0  0  0  0
   21.3483   18.6801   19.3567 H   0  0  0  0  0  0  0  0  0  0  0  0
   19.3851   18.9171   20.3080 C   0  0  0  0  0  0  0  0  0  0  0  0
   18.6156   18.2693   20.7496 H   0  0  0  0  0  0  0  0  0  0  0  0
   18.9092   19.4087   19.4479 H   0  0  0  0  0  0  0  0  0  0  0  0
   19.8174   20.0021   21.3258 C   0  0  0  0  0  0  0  0  0  0  0  0
   20.5079   20.7015   20.8360 H   0  0  0  0  0  0  0  0  0  0  0  0
   18.9415   20.5946   21.6215 H   0  0  0  0  0  0  0  0  0  0  0  0
   20.5003   19.4403   22.5903 C   0  0  0  0  0  0  0  0  0  0  0  0
   20.8006   20.2679   23.2378 H   0  0  0  0  0  0  0  0  0  0  0  0
   21.3996   18.8877   22.3081 H   0  0  0  0  0  0  0  0  0  0  0  0
   19.6191   18.5142   23.4066 N   0  3  0  0  0  0  0  0  0  0  0  0
   19.3081   17.7213   22.8261 H   0  0  0  0  0  0  0  0  0  0  0  0
   18.7565   19.0031   23.6908 H   0  0  0  0  0  0  0  0  0  0  0  0
   20.3791   18.0159   24.6283 C   0  0  0  0  0  0  0  0  0  0  0  0
   20.6709   18.8699   25.2434 H   0  0  0  0  0  0  0  0  0  0  0  0
   19.7338   17.3499   25.2055 H   0  0  0  0  0  0  0  0  0  0  0  0
   21.2695   17.4741   24.3021 H   0  0  0  0  0  0  0  0  0  0  0  0
  1  2  1  0  0  0  0
  1  3  1  0  0  0  0
  1  4  1  0  0  0  0
  1  5  1  0  0  0  0
  5  6  1  0  0  0  0
  5  7  1  0  0  0  0
  5  8  1  0  0  0  0
  8  9  1  0  0  0  0
  8 10  1  0  0  0  0
  8 11  1  0  0  0  0
 11 12  1  0  0  0  0
 11 13  1  0  0  0  0
 11 14  1  0  0  0  0
 14 15  1  0  0  0  0
 14 16  1  0  0  0  0
 14 17  1  0  0  0  0
 17 18  1  0  0  0  0
 17 19  1  0  0  0  0
 17 20  1  0  0  0  0
M  END
> <VConfSearch Rank>
11

> <Conf_Id>
23

> <Delta U+W>
0.896

> <U+W>
16.234

> <U>
70.374

> <W>
-54.140

> <W(PB)>
-56.046

> <W(SA)>
1.907

> <Valence>
1.257

> <Coulomb>
69.240

> <VdW>
-0.123

> <VdW6>
-4.336

> <VdW12>
4.213

> <Bond>
0.128

> <Angle>
0.603

> <Pdih>
0.526

> <Idih>
0.000

> <Tether>
0.000

$$$$
VeraChem MOL file


 20 19  0  0  0  0  0  0  0  0999 V2000     
   20.9012   18.3871   19.8181 C   0  0  0  0  0  0  0  0  0  0  0  0
   20.2874   17.6304   19.3124 H   0  0  0  0  0  0  0  0  0  0  0  0
   21.6443   18.7512   19.0968 H   0  0  0  0  0  0  0  0  0  0  0  0
   21.4459   17.8965   20.6345 H   0  0  0  0  0  0  0  0  0  0  0  0
   20.0298   19.5549   20.3350 C   0  0  0  0  0  0  0  0  0  0  0  0
   19.5797   20.0719   19.4759 H   0  0  0  0  0  0  0  0  0  0  0  0
   20.6659   20.2976   20.8353 H   0  0  0  0  0  0  0  0  0  0  0  0
   18.8985   19.0931   21.2873 C   0  0  0  0  0  0  0  0  0  0  0  0
   18.3028   19.9627   21.5947 H   0  0  0  0  0  0  0  0  0  0  0  0
   18.2136   18.4319   20.7400 H   0  0  0  0  0  0  0  0  0  0  0  0
   19.3996   18.3514   22.5442 C   0  0  0  0  0  0  0  0  0  0  0  0
   19.9547   17.4583   22.2477 H   0  0  0  0  0  0  0  0  0  0  0  0
   18.5424   18.0340   23.1433 H   0  0  0  0  0  0  0  0  0  0  0  0
   20.2991   19.1869   23.4351 N   0  3  0  0  0  0  0  0  0  0  0  0
   19.8071   20.0425   23.7348 H   0  0  0  0  0  0  0  0  0  0  0  0
   21.1188   19.5127   22.9018 H   0  0  0  0  0  0  0  0  0  0  0  0
   20.7378   18.3707   24.6433 C   0  0  0  0  0  0  0  0  0  0  0  0
   21.2841   17.4885   24.3025 H   0  0  0  0  0  0  0  0  0  0  0  0
   21.3851   18.9835   25.2745 H   0  0  0  0  0  0  0  0  0  0  0  0
   19.8558   18.0633   25.2093 H   0  0  0  0  0  0  0  0  0  0  0  0
  1  2  1  0  0  0  0
  1  3  1  0  0  0  0
  1  4  1  0  0  0  0
  1  5  1  0  0  0  0
  5  6  1  0  0  0  0
  5  7  1  0  0  0  0
  5  8  1  0  0  0  0
  8  9  1  0  0  0  0
  8 10  1  0  0  0  0
  8 11  1  0  0  0  0
 11 12  1  0  0  0  0
 11 13  1  0  0  0  0
 11 14  1  0  0  0  0
 14 15  1  0  0  0  0
 14 16  1  0  0  0  0
 14 17  1  0  0  0  0
 17 18  1  0  0  0  0
 17 19  1  0  0  0  0
 17 20  1  0  0  0  0
M  END
> <VConfSearch Rank>
12

> <Conf_Id>
24

> <Delta U+W>
0.792

> <U+W>
16.130

> <U>
70.374

> <W>
-54.243

> <W(PB)>
-56.130

> <W(SA)>
1.887

> <Valence>
1.257

> <Coulomb>
69.240

> <VdW>
-0.123

> <VdW6>
-4.336

> <VdW12>
4.213

> <Bond>
0.128

> <Angle>
0.603

> <Pdih>
0.526

> <Idih>
0.000

> <Tether>
0.000

$$$$
VeraChem MOL file


 20 19  0  0  0  0  0  0  0  0999 V2000     
   18.9214   18.4870   20.1528 C   0  0  0  0  0  0  0  0  0  0  0  0
   18.5769   18.0588   19.2024 H   0  0  0  0  0  0  0  0  0  0  0  0
   18.6973   17.7526   20.9354 H   0  0  0  0  0  0  0  0  0  0  0  0
   18.3349   19.3961   20.3391 H   0  0  0  0  0  0  0  0  0  0  0  0
   20.4338   18.7983   20.0822 C   0  0  0  0  0  0  0  0  0  0  0  0
   20.6329   19.3625   19.1602 H   0  0  0  0  0  0  0  0  0  0  0  0
   20.9965   17.8586   19.9902 H   0  0  0  0  0  0  0  0  0  0  0  0
   20.9778   19.6155   21.2817 C   0  0  0  0  0  0  0  0  0  0  0  0
   22.0367   19.8340   21.0894 H   0  0  0  0  0  0  0  0  0  0  0  0
   20.4752   20.5900   21.3397 H   0  0  0  0  0  0  0  0  0  0  0  0
   20.8854   18.8917   22.6418 C   0  0  0  0  0  0  0  0  0  0  0  0
   21.5981   19.3438   23.3362 H   0  0  0  0  0  0  0  0  0  0  0  0
   21.1532   17.8393   22.5190 H   0  0  0  0  0  0  0  0  0  0  0  0
   19.5203   18.9666   23.2989 N   0  3  0  0  0  0  0  0  0  0  0  0
   18.8010   18.5993   22.6599 H   0  0  0  0  0  0  0  0  0  0  0  0
   19.2613   19.9508   23.4669 H   0  0  0  0  0  0  0  0  0  0  0  0
   19.5272   18.1850   24.6056 C   0  0  0  0  0  0  0  0  0  0  0  0
   19.7715   17.1407   24.3990 H   0  0  0  0  0  0  0  0  0  0  0  0
   20.2746   18.6133   25.2769 H   0  0  0  0  0  0  0  0  0  0  0  0
   18.5391   18.2478   25.0668 H   0  0  0  0  0  0  0  0  0  0  0  0
  1  2  1  0  0  0  0
  1  3  1  0  0  0  0
  1  4  1  0  0  0  0
  1  5  1  0  0  0  0
  5  6  1  0  0  0  0
  5  7  1  0  0  0  0
  5  8  1  0  0  0  0
  8  9  1  0  0  0  0
  8 10  1  0  0  0  0
  8 11  1  0  0  0  0
 11 12  1  0  0  0  0
 11 13  1  0  0  0  0
 11 14  1  0  0  0  0
 14 15  1  0  0  0  0
 14 16  1  0  0  0  0
 14 17  1  0  0  0  0
 17 18  1  0  0  0  0
 17 19  1  0  0  0  0
 17 20  1  0  0  0  0
M  END
> <VConfSearch Rank>
13

> <Conf_Id>
26

> <Delta U+W>
2.888

> <U+W>
18.226

> <U>
72.042

> <W>
-53.816

> <W(PB)>
-55.689

> <W(SA)>
1.873

> <Valence>
2.428

> <Coulomb>
69.829

> <VdW>
-0.215

> <VdW6>
-4.563

> <VdW12>
4.348

> <Bond>
0.137

> <Angle>
0.936

> <Pdih>
1.356

> <Idih>
0.000

> <Tether>
0.000

$$$$
VeraChem MOL file


 20 19  0  0  0  0  0  0  0  0999 V2000     
   20.4693   20.0202   20.2177 C   0  0  0  0  0  0  0  0  0  0  0  0
   20.9401   20.3997   19.3015 H   0  0  0  0  0  0  0  0  0  0  0  0
   19.5583   20.6078   20.3906 H   0  0  0  0  0  0  0  0  0  0  0  0
   21.1721   20.2035   21.0391 H   0  0  0  0  0  0  0  0  0  0  0  0
   20.1481   18.5153   20.0702 C   0  0  0  0  0  0  0  0  0  0  0  0
   21.0859   17.9472   19.9938 H   0  0  0  0  0  0  0  0  0  0  0  0
   19.6216   18.3610   19.1178 H   0  0  0  0  0  0  0  0  0  0  0  0
   19.2762   17.9301   21.2104 C   0  0  0  0  0  0  0  0  0  0  0  0
   18.3045   18.4401   21.2488 H   0  0  0  0  0  0  0  0  0  0  0  0
   19.0569   16.8826   20.9645 H   0  0  0  0  0  0  0  0  0  0  0  0
   19.9428   17.9580   22.6023 C   0  0  0  0  0  0  0  0  0  0  0  0
   20.9971   17.6846   22.5124 H   0  0  0  0  0  0  0  0  0  0  0  0
   19.4555   17.2216   23.2464 H   0  0  0  0  0  0  0  0  0  0  0  0
   19.8520   19.2951   23.3128 N   0  3  0  0  0  0  0  0  0  0  0  0
   18.8638   19.5571   23.4502 H   0  0  0  0  0  0  0  0  0  0  0  0
   20.2522   20.0367   22.7207 H   0  0  0  0  0  0  0  0  0  0  0  0
   20.5775   19.2253   24.6496 C   0  0  0  0  0  0  0  0  0  0  0  0
   21.6274   18.9790   24.4769 H   0  0  0  0  0  0  0  0  0  0  0  0
   20.5038   20.1938   25.1491 H   0  0  0  0  0  0  0  0  0  0  0  0
   20.1146   18.4550   25.2702 H   0  0  0  0  0  0  0  0  0  0  0  0
  1  2  1  0  0  0  0
  1  3  1  0  0  0  0
  1  4  1  0  0  0  0
  1  5  1  0  0  0  0
  5  6  1  0  0  0  0
  5  7  1  0  0  0  0
  5  8  1  0  0  0  0
  8  9  1  0  0  0  0
  8 10  1  0  0  0  0
  8 11  1  0  0  0  0
 11 12  1  0  0  0  0
 11 13  1  0  0  0  0
 11 14  1  0  0  0  0
 14 15  1  0  0  0  0
 14 16  1  0  0  0  0
 14 17  1  0  0  0  0
 17 18  1  0  0  0  0
 17 19  1  0  0  0  0
 17 20  1  0  0  0  0
M  END
> <VConfSearch Rank>
14

> <Conf_Id>
5

> <Delta U+W>
2.950

> <U+W>
18.289

> <U>
72.042

> <W>
-53.753

> <W(PB)>
-55.644

> <W(SA)>
1.891

> <Valence>
2.428

> <Coulomb>
69.829

> <VdW>
-0.215

> <VdW6>
-4.563

> <VdW12>
4.348

> <Bond>
0.137

> <Angle>
0.936

> <Pdih>
1.356

> <Idih>
0.000

> <Tether>
0.000

$$$$
VeraChem MOL file


 20 19  0  0  0  0  0  0  0  0999 V2000     
   20.0369   19.6845   19.7115 C   0  0  0  0  0  0  0  0  0  0  0  0
   19.2135   19.2672   19.1175 H   0  0  0  0  0  0  0  0  0  0  0  0
   19.6300   20.4792   20.3493 H   0  0  0  0  0  0  0  0  0  0  0  0
   20.7481   20.1495   19.0166 H   0  0  0  0  0  0  0  0  0  0  0  0
   20.7335   18.5846   20.5452 C   0  0  0  0  0  0  0  0  0  0  0  0
   21.5548   19.0245   21.1272 H   0  0  0  0  0  0  0  0  0  0  0  0
   21.2003   17.8608   19.8623 H   0  0  0  0  0  0  0  0  0  0  0  0
   19.7620   17.8283   21.4851 C   0  0  0  0  0  0  0  0  0  0  0  0
   19.0019   17.3153   20.8813 H   0  0  0  0  0  0  0  0  0  0  0  0
   20.3093   17.0382   22.0153 H   0  0  0  0  0  0  0  0  0  0  0  0
   19.0449   18.7360   22.5105 C   0  0  0  0  0  0  0  0  0  0  0  0
   18.3829   18.1303   23.1345 H   0  0  0  0  0  0  0  0  0  0  0  0
   18.4270   19.4599   21.9735 H   0  0  0  0  0  0  0  0  0  0  0  0
   19.9634   19.5194   23.4357 N   0  3  0  0  0  0  0  0  0  0  0  0
   19.4081   20.1952   23.9834 H   0  0  0  0  0  0  0  0  0  0  0  0
   20.6144   20.0950   22.8816 H   0  0  0  0  0  0  0  0  0  0  0  0
   20.7254   18.5912   24.3750 C   0  0  0  0  0  0  0  0  0  0  0  0
   21.3568   17.9212   23.7881 H   0  0  0  0  0  0  0  0  0  0  0  0
   21.3481   19.1904   25.0429 H   0  0  0  0  0  0  0  0  0  0  0  0
   20.0117   18.0086   24.9615 H   0  0  0  0  0  0  0  0  0  0  0  0
  1  2  1  0  0  0  0
  1  3  1  0  0  0  0
  1  4  1  0  0  0  0
  1  5  1  0  0  0  0
  5  6  1  0  0  0  0
  5  7  1  0  0  0  0
  5  8  1  0  0  0  0
  8  9  1  0  0  0  0
  8 10  1  0  0  0  0
  8 11  1  0  0  0  0
 11 12  1  0  0  0  0
 11 13  1  0  0  0  0
 11 14  1  0  0  0  0
 14 15  1  0  0  0  0
 14 16  1  0  0  0  0
 14 17  1  0  0  0  0
 17 18  1  0  0  0  0
 17 19  1  0  0  0  0
 17 20  1  0  0  0  0
M  END
> <VConfSearch Rank>
15

> <Conf_Id>
52

> <Delta U+W>
0.784

> <U+W>
16.122

> <U>
70.777

> <W>
-54.655

> <W(PB)>
-56.491

> <W(SA)>
1.836

> <Valence>
1.529

> <Coulomb>
69.166

> <VdW>
0.082

> <VdW6>
-5.166

> <VdW12>
5.248

> <Bond>
0.171

> <Angle>
0.752

> <Pdih>
0.605

> <Idih>
0.000

> <Tether>
0.000

$$$$
VeraChem MOL file


 20 19  0  0  0  0  0  0  0  0999 V2000     
   19.5900   19.9796   20.2743 C   0  0  0  0  0  0  0  0  0  0  0  0
   19.3542   20.3741   19.2774 H   0  0  0  0  0  0  0  0  0  0  0  0
   18.6453   19.9201   20.8267 H   0  0  0  0  0  0  0  0  0  0  0  0
   20.2474   20.7045   20.7720 H   0  0  0  0  0  0  0  0  0  0  0  0
   20.2678   18.5955   20.1556 C   0  0  0  0  0  0  0  0  0  0  0  0
   21.0708   18.6635   19.4082 H   0  0  0  0  0  0  0  0  0  0  0  0
   19.5468   17.8660   19.7605 H   0  0  0  0  0  0  0  0  0  0  0  0
   20.8783   18.0644   21.4777 C   0  0  0  0  0  0  0  0  0  0  0  0
   21.4085   17.1299   21.2514 H   0  0  0  0  0  0  0  0  0  0  0  0
   21.6440   18.7577   21.8478 H   0  0  0  0  0  0  0  0  0  0  0  0
   19.8444   17.7576   22.5860 C   0  0  0  0  0  0  0  0  0  0  0  0
   20.2979   17.0949   23.3274 H   0  0  0  0  0  0  0  0  0  0  0  0
   18.9942   17.2313   22.1448 H   0  0  0  0  0  0  0  0  0  0  0  0
   19.3065   18.9637   23.3401 N   0  3  0  0  0  0  0  0  0  0  0  0
   18.4973   18.6794   23.9141 H   0  0  0  0  0  0  0  0  0  0  0  0
   18.9368   19.6587   22.6767 H   0  0  0  0  0  0  0  0  0  0  0  0
   20.3789   19.5833   24.2293 C   0  0  0  0  0  0  0  0  0  0  0  0
   20.7422   18.8302   24.9318 H   0  0  0  0  0  0  0  0  0  0  0  0
   21.2037   19.9395   23.6093 H   0  0  0  0  0  0  0  0  0  0  0  0
   19.9465   20.4215   24.7801 H   0  0  0  0  0  0  0  0  0  0  0  0
  1  2  1  0  0  0  0
  1  3  1  0  0  0  0
  1  4  1  0  0  0  0
  1  5  1  0  0  0  0
  5  6  1  0  0  0  0
  5  7  1  0  0  0  0
  5  8  1  0  0  0  0
  8  9  1  0  0  0  0
  8 10  1  0  0  0  0
  8 11  1  0  0  0  0
 11 12  1  0  0  0  0
 11 13  1  0  0  0  0
 11 14  1  0  0  0  0
 14 15  1  0  0  0  0
 14 16  1  0  0  0  0
 14 17  1  0  0  0  0
 17 18  1  0  0  0  0
 17 19  1  0  0  0  0
 17 20  1  0  0  0  0
M  END
> <VConfSearch Rank>
16

> <Conf_Id>
55

> <Delta U+W>
2.745

> <U+W>
18.083

> <U>
72.490

> <W>
-54.407

> <W(PB)>
-56.269

> <W(SA)>
1.861

> <Valence>
2.738

> <Coulomb>
69.795

> <VdW>
-0.043

> <VdW6>
-5.333

> <VdW12>
5.290

> <Bond>
0.182

> <Angle>
1.135

> <Pdih>
1.422

> <Idih>
0.000

> <Tether>
0.000

$$$$
VeraChem MOL file


 20 19  0  0  0  0  0  0  0  0999 V2000     
   18.9669   19.3623   20.2484 C   0  0  0  0  0  0  0  0  0  0  0  0
   18.6168   19.6436   19.2466 H   0  0  0  0  0  0  0  0  0  0  0  0
   18.2162   18.6920   20.6871 H   0  0  0  0  0  0  0  0  0  0  0  0
   19.0108   20.2824   20.8422 H   0  0  0  0  0  0  0  0  0  0  0  0
   20.3492   18.6763   20.1591 C   0  0  0  0  0  0  0  0  0  0  0  0
   21.1006   19.4059   19.8259 H   0  0  0  0  0  0  0  0  0  0  0  0
   20.3062   17.9062   19.3760 H   0  0  0  0  0  0  0  0  0  0  0  0
   20.8188   18.0053   21.4751 C   0  0  0  0  0  0  0  0  0  0  0  0
   20.1040   17.2319   21.7831 H   0  0  0  0  0  0  0  0  0  0  0  0
   21.7574   17.4755   21.2659 H   0  0  0  0  0  0  0  0  0  0  0  0
   21.0873   18.9885   22.6382 C   0  0  0  0  0  0  0  0  0  0  0  0
   21.6392   19.8509   22.2559 H   0  0  0  0  0  0  0  0  0  0  0  0
   21.7140   18.4973   23.3869 H   0  0  0  0  0  0  0  0  0  0  0  0
   19.8550   19.5069   23.3630 N   0  3  0  0  0  0  0  0  0  0  0  0
   19.1921   19.9115   22.6873 H   0  0  0  0  0  0  0  0  0  0  0  0
   20.1218   20.2882   23.9824 H   0  0  0  0  0  0  0  0  0  0  0  0
   19.1889   18.4047   24.1792 C   0  0  0  0  0  0  0  0  0  0  0  0
   18.8520   17.6105   23.5103 H   0  0  0  0  0  0  0  0  0  0  0  0
   19.9082   18.0043   24.8966 H   0  0  0  0  0  0  0  0  0  0  0  0
   18.3319   18.8225   24.7120 H   0  0  0  0  0  0  0  0  0  0  0  0
  1  2  1  0  0  0  0
  1  3  1  0  0  0  0
  1  4  1  0  0  0  0
  1  5  1  0  0  0  0
  5  6  1  0  0  0  0
  5  7  1  0  0  0  0
  5  8  1  0  0  0  0
  8  9  1  0  0  0  0
  8 10  1  0  0  0  0
  8 11  1  0  0  0  0
 11 12  1  0  0  0  0
 11 13  1  0  0  0  0
 11 14  1  0  0  0  0
 14 15  1  0  0  0  0
 14 16  1  0  0  0  0
 14 17  1  0  0  0  0
 17 18  1  0  0  0  0
 17 19  1  0  0  0  0
 17 20  1  0  0  0  0
M  END
> <VConfSearch Rank>
17

> <Conf_Id>
76

> <Delta U+W>
2.799

> <U+W>
18.137

> <U>
72.490

> <W>
-54.353

> <W(PB)>
-56.201

> <W(SA)>
1.848

> <Valence>
2.738

> <Coulomb>
69.795

> <VdW>
-0.043

> <VdW6>
-5.334

> <VdW12>
5.290

> <Bond>
0.182

> <Angle>
1.135

> <Pdih>
1.421

> <Idih>
0.000

> <Tether>
0.000

$$$$
VeraChem MOL file


 20 19  0  0  0  0  0  0  0  0999 V2000     
   20.1911   17.7887   20.0711 C   0  0  0  0  0  0  0  0  0  0  0  0
   19.9056   17.1235   20.8951 H   0  0  0  0  0  0  0  0  0  0  0  0
   19.3183   17.9162   19.4178 H   0  0  0  0  0  0  0  0  0  0  0  0
   20.9721   17.2810   19.4905 H   0  0  0  0  0  0  0  0  0  0  0  0
   20.7007   19.1538   20.5884 C   0  0  0  0  0  0  0  0  0  0  0  0
   21.0399   19.7527   19.7317 H   0  0  0  0  0  0  0  0  0  0  0  0
   21.5862   19.0113   21.2211 H   0  0  0  0  0  0  0  0  0  0  0  0
   19.6199   19.9546   21.3552 C   0  0  0  0  0  0  0  0  0  0  0  0
   20.0326   20.9267   21.6555 H   0  0  0  0  0  0  0  0  0  0  0  0
   18.7946   20.1784   20.6665 H   0  0  0  0  0  0  0  0  0  0  0  0
   19.0316   19.2493   22.5999 C   0  0  0  0  0  0  0  0  0  0  0  0
   18.6215   18.2732   22.3304 H   0  0  0  0  0  0  0  0  0  0  0  0
   18.2064   19.8621   22.9717 H   0  0  0  0  0  0  0  0  0  0  0  0
   19.9914   19.0642   23.7659 N   0  3  0  0  0  0  0  0  0  0  0  0
   19.4615   19.1017   24.6506 H   0  0  0  0  0  0  0  0  0  0  0  0
   20.6483   19.8568   23.8195 H   0  0  0  0  0  0  0  0  0  0  0  0
   20.7312   17.7334   23.6824 C   0  0  0  0  0  0  0  0  0  0  0  0
   21.3832   17.6324   24.5528 H   0  0  0  0  0  0  0  0  0  0  0  0
   20.0034   16.9193   23.6734 H   0  0  0  0  0  0  0  0  0  0  0  0
   21.3303   17.7009   22.7718 H   0  0  0  0  0  0  0  0  0  0  0  0
  1  2  1  0  0  0  0
  1  3  1  0  0  0  0
  1  4  1  0  0  0  0
  1  5  1  0  0  0  0
  5  6  1  0  0  0  0
  5  7  1  0  0  0  0
  5  8  1  0  0  0  0
  8  9  1  0  0  0  0
  8 10  1  0  0  0  0
  8 11  1  0  0  0  0
 11 12  1  0  0  0  0
 11 13  1  0  0  0  0
 11 14  1  0  0  0  0
 14 15  1  0  0  0  0
 14 16  1  0  0  0  0
 14 17  1  0  0  0  0
 17 18  1  0  0  0  0
 17 19  1  0  0  0  0
 17 20  1  0  0  0  0
M  END
> <VConfSearch Rank>
18

> <Conf_Id>
60

> <Delta U+W>
1.788

> <U+W>
17.127

> <U>
72.122

> <W>
-54.995

> <W(PB)>
-56.810

> <W(SA)>
1.815

> <Valence>
3.197

> <Coulomb>
69.115

> <VdW>
-0.190

> <VdW6>
-5.585

> <VdW12>
5.395

> <Bond>
0.177

> <Angle>
1.207

> <Pdih>
1.813

> <Idih>
0.000

> <Tether>
0.000

$$$$
VeraChem MOL file


 20 19  0  0  0  0  0  0  0  0999 V2000     
   21.1593   18.7474   20.1117 C   0  0  0  0  0  0  0  0  0  0  0  0
   21.6842   17.9861   19.5203 H   0  0  0  0  0  0  0  0  0  0  0  0
   21.0674   19.6482   19.4912 H   0  0  0  0  0  0  0  0  0  0  0  0
   21.7917   18.9911   20.9742 H   0  0  0  0  0  0  0  0  0  0  0  0
   19.7691   18.2313   20.5494 C   0  0  0  0  0  0  0  0  0  0  0  0
   19.8768   17.3186   21.1495 H   0  0  0  0  0  0  0  0  0  0  0  0
   19.2040   17.9346   19.6547 H   0  0  0  0  0  0  0  0  0  0  0  0
   18.9463   19.2875   21.3270 C   0  0  0  0  0  0  0  0  0  0  0  0
   18.7592   20.1433   20.6650 H   0  0  0  0  0  0  0  0  0  0  0  0
   17.9587   18.8730   21.5686 H   0  0  0  0  0  0  0  0  0  0  0  0
   19.6035   19.8156   22.6239 C   0  0  0  0  0  0  0  0  0  0  0  0
   18.9829   20.6310   23.0043 H   0  0  0  0  0  0  0  0  0  0  0  0
   20.5937   20.2262   22.4130 H   0  0  0  0  0  0  0  0  0  0  0  0
   19.7306   18.8060   23.7550 N   0  3  0  0  0  0  0  0  0  0  0  0
   18.9307   18.1559   23.7476 H   0  0  0  0  0  0  0  0  0  0  0  0
   19.6605   19.2987   24.6589 H   0  0  0  0  0  0  0  0  0  0  0  0
   21.0571   18.0562   23.6960 C   0  0  0  0  0  0  0  0  0  0  0  0
   21.8773   18.7750   23.7519 H   0  0  0  0  0  0  0  0  0  0  0  0
   21.1155   17.3673   24.5416 H   0  0  0  0  0  0  0  0  0  0  0  0
   21.1228   17.4954   22.7631 H   0  0  0  0  0  0  0  0  0  0  0  0
  1  2  1  0  0  0  0
  1  3  1  0  0  0  0
  1  4  1  0  0  0  0
  1  5  1  0  0  0  0
  5  6  1  0  0  0  0
  5  7  1  0  0  0  0
  5  8  1  0  0  0  0
  8  9  1  0  0  0  0
  8 10  1  0  0  0  0
  8 11  1  0  0  0  0
 11 12  1  0  0  0  0
 11 13  1  0  0  0  0
 11 14  1  0  0  0  0
 14 15  1  0  0  0  0
 14 16  1  0  0  0  0
 14 17  1  0  0  0  0
 17 18  1  0  0  0  0
 17 19  1  0  0  0  0
 17 20  1  0  0  0  0
M  END
> <VConfSearch Rank>
19

> <Conf_Id>
54

> <Delta U+W>
1.880

> <U+W>
17.218

> <U>
72.122

> <W>
-54.903

> <W(PB)>
-56.724

> <W(SA)>
1.821

> <Valence>
3.197

> <Coulomb>
69.115

> <VdW>
-0.190

> <VdW6>
-5.585

> <VdW12>
5.395

> <Bond>
0.177

> <Angle>
1.207

> <Pdih>
1.813

> <Idih>
0.000

> <Tether>
0.000

$$$$
VeraChem MOL file


 20 19  0  0  0  0  0  0  0  0999 V2000     
   18.8131   21.0109   24.0020 C   0  0  0  0  0  0  0  0  0  0  0  0
   19.5936   20.9496   24.7715 H   0  0  0  0  0  0  0  0  0  0  0  0
   18.4922   22.0584   23.9315 H   0  0  0  0  0  0  0  0  0  0  0  0
   17.9531   20.4181   24.3398 H   0  0  0  0  0  0  0  0  0  0  0  0
   19.3350   20.5073   22.6389 C   0  0  0  0  0  0  0  0  0  0  0  0
   20.1714   21.1409   22.3114 H   0  0  0  0  0  0  0  0  0  0  0  0
   18.5438   20.6135   21.8831 H   0  0  0  0  0  0  0  0  0  0  0  0
   19.7941   19.0342   22.7082 C   0  0  0  0  0  0  0  0  0  0  0  0
   20.5869   18.9296   23.4608 H   0  0  0  0  0  0  0  0  0  0  0  0
   18.9571   18.4014   23.0321 H   0  0  0  0  0  0  0  0  0  0  0  0
   20.3130   18.5394   21.3452 C   0  0  0  0  0  0  0  0  0  0  0  0
   21.1563   19.1575   21.0270 H   0  0  0  0  0  0  0  0  0  0  0  0
   19.5212   18.6275   20.5970 H   0  0  0  0  0  0  0  0  0  0  0  0
   20.7757   17.0958   21.3651 N   0  3  0  0  0  0  0  0  0  0  0  0
   20.0069   16.4789   21.6693 H   0  0  0  0  0  0  0  0  0  0  0  0
   21.5208   16.9697   22.0674 H   0  0  0  0  0  0  0  0  0  0  0  0
   21.2708   16.6896   19.9834 C   0  0  0  0  0  0  0  0  0  0  0  0
   22.1058   17.3326   19.6969 H   0  0  0  0  0  0  0  0  0  0  0  0
   21.6007   15.6488   20.0121 H   0  0  0  0  0  0  0  0  0  0  0  0
   20.4568   16.7980   19.2632 H   0  0  0  0  0  0  0  0  0  0  0  0
  1  2  1  0  0  0  0
  1  3  1  0  0  0  0
  1  4  1  0  0  0  0
  1  5  1  0  0  0  0
  5  6  1  0  0  0  0
  5  7  1  0  0  0  0
  5  8  1  0  0  0  0
  8  9  1  0  0  0  0
  8 10  1  0  0  0  0
  8 11  1  0  0  0  0
 11 12  1  0  0  0  0
 11 13  1  0  0  0  0
 11 14  1  0  0  0  0
 14 15  1  0  0  0  0
 14 16  1  0  0  0  0
 14 17  1  0  0  0  0
 17 18  1  0  0  0  0
 17 19  1  0  0  0  0
 17 20  1  0  0  0  0
M  END
> <VConfSearch Rank>
20

> <Conf_Id>
67

> <Delta U+W>
0.000

> <U+W>
15.338

> <U>
69.277

> <W>
-53.939

> <W(PB)>
-55.889

> <W(SA)>
1.950

> <Valence>
0.846

> <Coulomb>
68.557

> <VdW>
-0.127

> <VdW6>
-3.008

> <VdW12>
2.882

> <Bond>
0.088

> <Angle>
0.332

> <Pdih>
0.426

> <Idih>
0.000

> <Tether>
0.000

$$$$
VeraChem MOL file


 20 19  0  0  0  0  0  0  0  0999 V2000     
   21.1300   18.0678   24.6883 C   0  0  0  0  0  0  0  0  0  0  0  0
   21.9635   17.5360   24.2113 H   0  0  0  0  0  0  0  0  0  0  0  0
   21.4963   18.4868   25.6345 H   0  0  0  0  0  0  0  0  0  0  0  0
   20.3482   17.3346   24.9258 H   0  0  0  0  0  0  0  0  0  0  0  0
   20.5852   19.1846   23.7717 C   0  0  0  0  0  0  0  0  0  0  0  0
   21.3796   19.9198   23.5802 H   0  0  0  0  0  0  0  0  0  0  0  0
   19.7772   19.7204   24.2897 H   0  0  0  0  0  0  0  0  0  0  0  0
   20.0618   18.6235   22.4311 C   0  0  0  0  0  0  0  0  0  0  0  0
   20.8717   18.0895   21.9176 H   0  0  0  0  0  0  0  0  0  0  0  0
   19.2654   17.8924   22.6230 H   0  0  0  0  0  0  0  0  0  0  0  0
   19.5185   19.7463   21.5232 C   0  0  0  0  0  0  0  0  0  0  0  0
   20.3183   20.4528   21.2877 H   0  0  0  0  0  0  0  0  0  0  0  0
   18.7357   20.2885   22.0598 H   0  0  0  0  0  0  0  0  0  0  0  0
   18.9174   19.2652   20.2125 N   0  3  0  0  0  0  0  0  0  0  0  0
   18.4349   20.0493   19.7459 H   0  0  0  0  0  0  0  0  0  0  0  0
   18.1775   18.5697   20.3926 H   0  0  0  0  0  0  0  0  0  0  0  0
   19.9871   18.6930   19.2885 C   0  0  0  0  0  0  0  0  0  0  0  0
   20.4474   17.8232   19.7613 H   0  0  0  0  0  0  0  0  0  0  0  0
   19.5230   18.3943   18.3459 H   0  0  0  0  0  0  0  0  0  0  0  0
   20.7449   19.4564   19.0996 H   0  0  0  0  0  0  0  0  0  0  0  0
  1  2  1  0  0  0  0
  1  3  1  0  0  0  0
  1  4  1  0  0  0  0
  1  5  1  0  0  0  0
  5  6  1  0  0  0  0
  5  7  1  0  0  0  0
  5  8  1  0  0  0  0
  8  9  1  0  0  0  0
  8 10  1  0  0  0  0
  8 11  1  0  0  0  0
 11 12  1  0  0  0  0
 11 13  1  0  0  0  0
 11 14  1  0  0  0  0
 14 15  1  0  0  0  0
 14 16  1  0  0  0  0
 14 17  1  0  0  0  0
 17 18  1  0  0  0  0
 17 19  1  0  0  0  0
 17 20  1  0  0  0  0
M  END
> <VConfSearch Rank>
21

> <Conf_Id>
37

> <Delta U+W>
-0.021

> <U+W>
15.318

> <U>
69.657

> <W>
-54.340

> <W(PB)>
-56.238

> <W(SA)>
1.899

> <Valence>
1.137

> <Coulomb>
68.383

> <VdW>
0.138

> <VdW6>
-3.703

> <VdW12>
3.841

> <Bond>
0.125

> <Angle>
0.468

> <Pdih>
0.543

> <Idih>
0.000

> <Tether>
0.000

$$$$
VeraChem MOL file


 20 19  0  0  0  0  0  0  0  0999 V2000     
   21.3042   19.2385   19.3206 C   0  0  0  0  0  0  0  0  0  0  0  0
   22.2718   19.1531   18.8092 H   0  0  0  0  0  0  0  0  0  0  0  0
   20.6126   18.5261   18.8522 H   0  0  0  0  0  0  0  0  0  0  0  0
   20.9203   20.2521   19.1462 H   0  0  0  0  0  0  0  0  0  0  0  0
   21.4580   18.9539   20.8304 C   0  0  0  0  0  0  0  0  0  0  0  0
   22.1816   19.6593   21.2630 H   0  0  0  0  0  0  0  0  0  0  0  0
   21.8756   17.9469   20.9715 H   0  0  0  0  0  0  0  0  0  0  0  0
   20.1105   19.0673   21.5767 C   0  0  0  0  0  0  0  0  0  0  0  0
   19.6961   20.0747   21.4389 H   0  0  0  0  0  0  0  0  0  0  0  0
   19.3914   18.3615   21.1415 H   0  0  0  0  0  0  0  0  0  0  0  0
   20.2747   18.7829   23.0841 C   0  0  0  0  0  0  0  0  0  0  0  0
   21.0163   19.4720   23.4962 H   0  0  0  0  0  0  0  0  0  0  0  0
   20.6412   17.7640   23.2318 H   0  0  0  0  0  0  0  0  0  0  0  0
   19.0033   18.9463   23.9012 N   0  3  0  0  0  0  0  0  0  0  0  0
   18.6078   19.8887   23.7623 H   0  0  0  0  0  0  0  0  0  0  0  0
   19.2313   18.9014   24.9068 H   0  0  0  0  0  0  0  0  0  0  0  0
   17.9790   17.8711   23.5547 C   0  0  0  0  0  0  0  0  0  0  0  0
   18.4178   16.8865   23.7303 H   0  0  0  0  0  0  0  0  0  0  0  0
   17.0980   17.9992   24.1874 H   0  0  0  0  0  0  0  0  0  0  0  0
   17.6929   17.9672   22.5055 H   0  0  0  0  0  0  0  0  0  0  0  0
  1  2  1  0  0  0  0
  1  3  1  0  0  0  0
  1  4  1  0  0  0  0
  1  5  1  0  0  0  0
  5  6  1  0  0  0  0
  5  7  1  0  0  0  0
  5  8  1  0  0  0  0
  8  9  1  0  0  0  0
  8 10  1  0  0  0  0
  8 11  1  0  0  0  0
 11 12  1  0  0  0  0
 11 13  1  0  0  0  0
 11 14  1  0  0  0  0
 14 15  1  0  0  0  0
 14 16  1  0  0  0  0
 14 17  1  0  0  0  0
 17 18  1  0  0  0  0
 17 19  1  0  0  0  0
 17 20  1  0  0  0  0
M  END
> <VConfSearch Rank>
22

> <Conf_Id>
2

> <Delta U+W>
0.069

> <U+W>
15.407

> <U>
69.657

> <W>
-54.250

> <W(PB)>
-56.176

> <W(SA)>
1.926

> <Valence>
1.137

> <Coulomb>
68.383

> <VdW>
0.138

> <VdW6>
-3.703

> <VdW12>
3.841

> <Bond>
0.125

> <Angle>
0.468

> <Pdih>
0.543

> <Idih>
0.000

> <Tether>
0.000

$$$$
VeraChem MOL file


 20 19  0  0  0  0  0  0  0  0999 V2000     
   19.3916   21.0445   23.2246 C   0  0  0  0  0  0  0  0  0  0  0  0
   19.2956   21.1271   22.1346 H   0  0  0  0  0  0  0  0  0  0  0  0
   18.4293   20.7043   23.6288 H   0  0  0  0  0  0  0  0  0  0  0  0
   19.5816   22.0520   23.6168 H   0  0  0  0  0  0  0  0  0  0  0  0
   20.5344   20.0829   23.6237 C   0  0  0  0  0  0  0  0  0  0  0  0
   20.6549   20.1032   24.7160 H   0  0  0  0  0  0  0  0  0  0  0  0
   21.4836   20.4425   23.2020 H   0  0  0  0  0  0  0  0  0  0  0  0
   20.2831   18.6249   23.1731 C   0  0  0  0  0  0  0  0  0  0  0  0
   21.0920   17.9882   23.5555 H   0  0  0  0  0  0  0  0  0  0  0  0
   19.3522   18.2557   23.6236 H   0  0  0  0  0  0  0  0  0  0  0  0
   20.2088   18.4815   21.6404 C   0  0  0  0  0  0  0  0  0  0  0  0
   21.1362   18.8468   21.1923 H   0  0  0  0  0  0  0  0  0  0  0  0
   19.3810   19.0810   21.2540 H   0  0  0  0  0  0  0  0  0  0  0  0
   19.9998   17.0526   21.1789 N   0  3  0  0  0  0  0  0  0  0  0  0
   19.1354   16.6680   21.5901 H   0  0  0  0  0  0  0  0  0  0  0  0
   20.7602   16.4499   21.5290 H   0  0  0  0  0  0  0  0  0  0  0  0
   19.9357   17.0019   19.6583 C   0  0  0  0  0  0  0  0  0  0  0  0
   20.8731   17.3813   19.2457 H   0  0  0  0  0  0  0  0  0  0  0  0
   19.7851   15.9680   19.3398 H   0  0  0  0  0  0  0  0  0  0  0  0
   19.1033   17.6185   19.3123 H   0  0  0  0  0  0  0  0  0  0  0  0
  1  2  1  0  0  0  0
  1  3  1  0  0  0  0
  1  4  1  0  0  0  0
  1  5  1  0  0  0  0
  5  6  1  0  0  0  0
  5  7  1  0  0  0  0
  5  8  1  0  0  0  0
  8  9  1  0  0  0  0
  8 10  1  0  0  0  0
  8 11  1  0  0  0  0
 11 12  1  0  0  0  0
 11 13  1  0  0  0  0
 11 14  1  0  0  0  0
 14 15  1  0  0  0  0
 14 16  1  0  0  0  0
 14 17  1  0  0  0  0
 17 18  1  0  0  0  0
 17 19  1  0  0  0  0
 17 20  1  0  0  0  0
M  END
> <VConfSearch Rank>
23

> <Conf_Id>
34

> <Delta U+W>
0.276

> <U+W>
15.615

> <U>
69.798

> <W>
-54.184

> <W(PB)>
-56.116

> <W(SA)>
1.933

> <Valence>
1.134

> <Coulomb>
68.735

> <VdW>
-0.070

> <VdW6>
-3.565

> <VdW12>
3.494

> <Bond>
0.108

> <Angle>
0.456

> <Pdih>
0.569

> <Idih>
0.000

> <Tether>
0.000

$$$$
VeraChem MOL file


 20 19  0  0  0  0  0  0  0  0999 V2000     
   18.8359   18.4558   19.2346 C   0  0  0  0  0  0  0  0  0  0  0  0
   17.7413   18.4465   19.3167 H   0  0  0  0  0  0  0  0  0  0  0  0
   19.1016   19.0576   18.3557 H   0  0  0  0  0  0  0  0  0  0  0  0
   19.1734   17.4272   19.0522 H   0  0  0  0  0  0  0  0  0  0  0  0
   19.4850   19.0361   20.5097 C   0  0  0  0  0  0  0  0  0  0  0  0
   19.1528   20.0749   20.6470 H   0  0  0  0  0  0  0  0  0  0  0  0
   20.5747   19.0670   20.3752 H   0  0  0  0  0  0  0  0  0  0  0  0
   19.1259   18.2047   21.7639 C   0  0  0  0  0  0  0  0  0  0  0  0
   18.0336   18.1505   21.8626 H   0  0  0  0  0  0  0  0  0  0  0  0
   19.4801   17.1720   21.6456 H   0  0  0  0  0  0  0  0  0  0  0  0
   19.7030   18.8020   23.0630 C   0  0  0  0  0  0  0  0  0  0  0  0
   19.3421   18.2243   23.9177 H   0  0  0  0  0  0  0  0  0  0  0  0
   19.3574   19.8323   23.1789 H   0  0  0  0  0  0  0  0  0  0  0  0
   21.2191   18.8067   23.1219 N   0  3  0  0  0  0  0  0  0  0  0  0
   21.6039   19.3447   22.3314 H   0  0  0  0  0  0  0  0  0  0  0  0
   21.5823   17.8483   23.0051 H   0  0  0  0  0  0  0  0  0  0  0  0
   21.6859   19.3972   24.4456 C   0  0  0  0  0  0  0  0  0  0  0  0
   21.3178   20.4218   24.5325 H   0  0  0  0  0  0  0  0  0  0  0  0
   21.2945   18.7931   25.2670 H   0  0  0  0  0  0  0  0  0  0  0  0
   22.7777   19.3946   24.4747 H   0  0  0  0  0  0  0  0  0  0  0  0
  1  2  1  0  0  0  0
  1  3  1  0  0  0  0
  1  4  1  0  0  0  0
  1  5  1  0  0  0  0
  5  6  1  0  0  0  0
  5  7  1  0  0  0  0
  5  8  1  0  0  0  0
  8  9  1  0  0  0  0
  8 10  1  0  0  0  0
  8 11  1  0  0  0  0
 11 12  1  0  0  0  0
 11 13  1  0  0  0  0
 11 14  1  0  0  0  0
 14 15  1  0  0  0  0
 14 16  1  0  0  0  0
 14 17  1  0  0  0  0
 17 18  1  0  0  0  0
 17 19  1  0  0  0  0
 17 20  1  0  0  0  0
M  END
> <VConfSearch Rank>
24

> <Conf_Id>
50

> <Delta U+W>
0.319

> <U+W>
15.657

> <U>
69.962

> <W>
-54.305

> <W(PB)>
-56.223

> <W(SA)>
1.918

> <Valence>
0.982

> <Coulomb>
69.058

> <VdW>
-0.078

> <VdW6>
-3.548

> <VdW12>
3.471

> <Bond>
0.105

> <Angle>
0.408

> <Pdih>
0.469

> <Idih>
0.000

> <Tether>
0.000

$$$$
VeraChem MOL file


 20 19  0  0  0  0  0  0  0  0999 V2000     
   22.0249   18.3496   19.7354 C   0  0  0  0  0  0  0  0  0  0  0  0
   22.4567   19.1311   19.0969 H   0  0  0  0  0  0  0  0  0  0  0  0
   22.8481   17.7228   20.1023 H   0  0  0  0  0  0  0  0  0  0  0  0
   21.3736   17.7258   19.1094 H   0  0  0  0  0  0  0  0  0  0  0  0
   21.2370   18.9753   20.9067 C   0  0  0  0  0  0  0  0  0  0  0  0
   20.4495   19.6255   20.5022 H   0  0  0  0  0  0  0  0  0  0  0  0
   21.9078   19.6177   21.4947 H   0  0  0  0  0  0  0  0  0  0  0  0
   20.6171   17.8935   21.8223 C   0  0  0  0  0  0  0  0  0  0  0  0
   19.9238   17.2652   21.2474 H   0  0  0  0  0  0  0  0  0  0  0  0
   21.4113   17.2285   22.1870 H   0  0  0  0  0  0  0  0  0  0  0  0
   19.8835   18.4895   23.0406 C   0  0  0  0  0  0  0  0  0  0  0  0
   20.5702   19.1207   23.6101 H   0  0  0  0  0  0  0  0  0  0  0  0
   19.5476   17.6787   23.6920 H   0  0  0  0  0  0  0  0  0  0  0  0
   18.6671   19.3229   22.6836 N   0  3  0  0  0  0  0  0  0  0  0  0
   17.9993   18.7603   22.1345 H   0  0  0  0  0  0  0  0  0  0  0  0
   18.9394   20.1039   22.0685 H   0  0  0  0  0  0  0  0  0  0  0  0
   18.0070   19.8484   23.9513 C   0  0  0  0  0  0  0  0  0  0  0  0
   17.1340   20.4461   23.6801 H   0  0  0  0  0  0  0  0  0  0  0  0
   17.6971   19.0048   24.5718 H   0  0  0  0  0  0  0  0  0  0  0  0
   18.7211   20.4672   24.4989 H   0  0  0  0  0  0  0  0  0  0  0  0
  1  2  1  0  0  0  0
  1  3  1  0  0  0  0
  1  4  1  0  0  0  0
  1  5  1  0  0  0  0
  5  6  1  0  0  0  0
  5  7  1  0  0  0  0
  5  8  1  0  0  0  0
  8  9  1  0  0  0  0
  8 10  1  0  0  0  0
  8 11  1  0  0  0  0
 11 12  1  0  0  0  0
 11 13  1  0  0  0  0
 11 14  1  0  0  0  0
 14 15  1  0  0  0  0
 14 16  1  0  0  0  0
 14 17  1  0  0  0  0
 17 18  1  0  0  0  0
 17 19  1  0  0  0  0
 17 20  1  0  0  0  0
M  END
> <VConfSearch Rank>
25

> <Conf_Id>
35

> <Delta U+W>
0.360

> <U+W>
15.698

> <U>
69.962

> <W>
-54.264

> <W(PB)>
-56.166

> <W(SA)>
1.902

> <Valence>
0.982

> <Coulomb>
69.058

> <VdW>
-0.078

> <VdW6>
-3.548

> <VdW12>
3.471

> <Bond>
0.105

> <Angle>
0.408

> <Pdih>
0.469

> <Idih>
0.000

> <Tether>
0.000

$$$$
VeraChem MOL file


 20 19  0  0  0  0  0  0  0  0999 V2000     
   18.0048   19.9682   22.9776 C   0  0  0  0  0  0  0  0  0  0  0  0
   17.8981   20.0932   21.8927 H   0  0  0  0  0  0  0  0  0  0  0  0
   17.0211   20.1493   23.4297 H   0  0  0  0  0  0  0  0  0  0  0  0
   18.6902   20.7425   23.3461 H   0  0  0  0  0  0  0  0  0  0  0  0
   18.5159   18.5546   23.3394 C   0  0  0  0  0  0  0  0  0  0  0  0
   17.8158   17.7993   22.9554 H   0  0  0  0  0  0  0  0  0  0  0  0
   18.5202   18.4438   24.4329 H   0  0  0  0  0  0  0  0  0  0  0  0
   19.9372   18.2703   22.7999 C   0  0  0  0  0  0  0  0  0  0  0  0
   20.6383   19.0049   23.2164 H   0  0  0  0  0  0  0  0  0  0  0  0
   20.2647   17.2851   23.1572 H   0  0  0  0  0  0  0  0  0  0  0  0
   20.0015   18.2953   21.2576 C   0  0  0  0  0  0  0  0  0  0  0  0
   19.7424   19.2913   20.8906 H   0  0  0  0  0  0  0  0  0  0  0  0
   19.2696   17.5872   20.8608 H   0  0  0  0  0  0  0  0  0  0  0  0
   21.3548   17.9217   20.6750 N   0  3  0  0  0  0  0  0  0  0  0  0
   21.2700   17.8026   19.6534 H   0  0  0  0  0  0  0  0  0  0  0  0
   21.6519   16.9980   21.0247 H   0  0  0  0  0  0  0  0  0  0  0  0
   22.4041   18.9834   20.9869 C   0  0  0  0  0  0  0  0  0  0  0  0
   22.5354   19.0570   22.0682 H   0  0  0  0  0  0  0  0  0  0  0  0
   23.3504   18.6986   20.5217 H   0  0  0  0  0  0  0  0  0  0  0  0
   22.0727   19.9445   20.5877 H   0  0  0  0  0  0  0  0  0  0  0  0
  1  2  1  0  0  0  0
  1  3  1  0  0  0  0
  1  4  1  0  0  0  0
  1  5  1  0  0  0  0
  5  6  1  0  0  0  0
  5  7  1  0  0  0  0
  5  8  1  0  0  0  0
  8  9  1  0  0  0  0
  8 10  1  0  0  0  0
  8 11  1  0  0  0  0
 11 12  1  0  0  0  0
 11 13  1  0  0  0  0
 11 14  1  0  0  0  0
 14 15  1  0  0  0  0
 14 16  1  0  0  0  0
 14 17  1  0  0  0  0
 17 18  1  0  0  0  0
 17 19  1  0  0  0  0
 17 20  1  0  0  0  0
M  END
> <VConfSearch Rank>
26

> <Conf_Id>
33

> <Delta U+W>
0.372

> <U+W>
15.711

> <U>
70.163

> <W>
-54.452

> <W(PB)>
-56.363

> <W(SA)>
1.911

> <Valence>
1.420

> <Coulomb>
68.566

> <VdW>
0.177

> <VdW6>
-4.267

> <VdW12>
4.445

> <Bond>
0.146

> <Angle>
0.581

> <Pdih>
0.693

> <Idih>
0.000

> <Tether>
0.000

$$$$
VeraChem MOL file


 20 19  0  0  0  0  0  0  0  0999 V2000     
   18.3944   20.1385   23.3813 C   0  0  0  0  0  0  0  0  0  0  0  0
   17.9438   20.9144   24.0136 H   0  0  0  0  0  0  0  0  0  0  0  0
   18.1418   20.3730   22.3396 H   0  0  0  0  0  0  0  0  0  0  0  0
   17.9246   19.1808   23.6407 H   0  0  0  0  0  0  0  0  0  0  0  0
   19.9244   20.0842   23.5970 C   0  0  0  0  0  0  0  0  0  0  0  0
   20.1309   19.9384   24.6666 H   0  0  0  0  0  0  0  0  0  0  0  0
   20.3700   21.0517   23.3257 H   0  0  0  0  0  0  0  0  0  0  0  0
   20.6073   18.9523   22.7944 C   0  0  0  0  0  0  0  0  0  0  0  0
   21.6740   18.9238   23.0533 H   0  0  0  0  0  0  0  0  0  0  0  0
   20.1844   17.9856   23.0967 H   0  0  0  0  0  0  0  0  0  0  0  0
   20.4626   19.1373   21.2685 C   0  0  0  0  0  0  0  0  0  0  0  0
   20.8525   20.1202   20.9922 H   0  0  0  0  0  0  0  0  0  0  0  0
   19.4074   19.1006   20.9878 H   0  0  0  0  0  0  0  0  0  0  0  0
   21.2030   18.1054   20.4334 N   0  3  0  0  0  0  0  0  0  0  0  0
   22.2011   18.0852   20.6925 H   0  0  0  0  0  0  0  0  0  0  0  0
   21.1932   18.3920   19.4420 H   0  0  0  0  0  0  0  0  0  0  0  0
   20.5763   16.7227   20.5785 C   0  0  0  0  0  0  0  0  0  0  0  0
   21.1109   16.0187   19.9371 H   0  0  0  0  0  0  0  0  0  0  0  0
   20.6497   16.3986   21.6185 H   0  0  0  0  0  0  0  0  0  0  0  0
   19.5273   16.7702   20.2785 H   0  0  0  0  0  0  0  0  0  0  0  0
  1  2  1  0  0  0  0
  1  3  1  0  0  0  0
  1  4  1  0  0  0  0
  1  5  1  0  0  0  0
  5  6  1  0  0  0  0
  5  7  1  0  0  0  0
  5  8  1  0  0  0  0
  8  9  1  0  0  0  0
  8 10  1  0  0  0  0
  8 11  1  0  0  0  0
 11 12  1  0  0  0  0
 11 13  1  0  0  0  0
 11 14  1  0  0  0  0
 14 15  1  0  0  0  0
 14 16  1  0  0  0  0
 14 17  1  0  0  0  0
 17 18  1  0  0  0  0
 17 19  1  0  0  0  0
 17 20  1  0  0  0  0
M  END
> <VConfSearch Rank>
27

> <Conf_Id>
53

> <Delta U+W>
0.379

> <U+W>
15.717

> <U>
70.163

> <W>
-54.446

> <W(PB)>
-56.322

> <W(SA)>
1.876

> <Valence>
1.420

> <Coulomb>
68.566

> <VdW>
0.177

> <VdW6>
-4.267

> <VdW12>
4.445

> <Bond>
0.146

> <Angle>
0.581

> <Pdih>
0.693

> <Idih>
0.000

> <Tether>
0.000

$$$$
VeraChem MOL file


 20 19  0  0  0  0  0  0  0  0999 V2000     
   21.6397   20.7974   23.2823 C   0  0  0  0  0  0  0  0  0  0  0  0
   22.6389   20.6899   23.7241 H   0  0  0  0  0  0  0  0  0  0  0  0
   21.6086   21.7580   22.7518 H   0  0  0  0  0  0  0  0  0  0  0  0
   20.9117   20.8366   24.1030 H   0  0  0  0  0  0  0  0  0  0  0  0
   21.3368   19.6234   22.3262 C   0  0  0  0  0  0  0  0  0  0  0  0
   21.4150   18.6792   22.8820 H   0  0  0  0  0  0  0  0  0  0  0  0
   22.0994   19.5913   21.5353 H   0  0  0  0  0  0  0  0  0  0  0  0
   19.9321   19.7501   21.6911 C   0  0  0  0  0  0  0  0  0  0  0  0
   19.1643   19.7552   22.4755 H   0  0  0  0  0  0  0  0  0  0  0  0
   19.8525   20.7167   21.1764 H   0  0  0  0  0  0  0  0  0  0  0  0
   19.6314   18.6306   20.6699 C   0  0  0  0  0  0  0  0  0  0  0  0
   20.3707   18.6759   19.8661 H   0  0  0  0  0  0  0  0  0  0  0  0
   18.6458   18.7960   20.2275 H   0  0  0  0  0  0  0  0  0  0  0  0
   19.6531   17.2155   21.2282 N   0  3  0  0  0  0  0  0  0  0  0  0
   20.5678   17.0172   21.6597 H   0  0  0  0  0  0  0  0  0  0  0  0
   19.5726   16.5379   20.4538 H   0  0  0  0  0  0  0  0  0  0  0  0
   18.5232   16.9965   22.2283 C   0  0  0  0  0  0  0  0  0  0  0  0
   17.5670   17.1944   21.7392 H   0  0  0  0  0  0  0  0  0  0  0  0
   18.5503   15.9622   22.5781 H   0  0  0  0  0  0  0  0  0  0  0  0
   18.6532   17.6731   23.0752 H   0  0  0  0  0  0  0  0  0  0  0  0
  1  2  1  0  0  0  0
  1  3  1  0  0  0  0
  1  4  1  0  0  0  0
  1  5  1  0  0  0  0
  5  6  1  0  0  0  0
  5  7  1  0  0  0  0
  5  8  1  0  0  0  0
  8  9  1  0  0  0  0
  8 10  1  0  0  0  0
  8 11  1  0  0  0  0
 11 12  1  0  0  0  0
 11 13  1  0  0  0  0
 11 14  1  0  0  0  0
 14 15  1  0  0  0  0
 14 16  1  0  0  0  0
 14 17  1  0  0  0  0
 17 18  1  0  0  0  0
 17 19  1  0  0  0  0
 17 20  1  0  0  0  0
M  END
> <VConfSearch Rank>
28

> <Conf_Id>
49

> <Delta U+W>
0.268

> <U+W>
15.607

> <U>
70.298

> <W>
-54.692

> <W(PB)>
-56.576

> <W(SA)>
1.885

> <Valence>
1.245

> <Coulomb>
68.933

> <VdW>
0.120

> <VdW6>
-4.430

> <VdW12>
4.550

> <Bond>
0.148

> <Angle>
0.587

> <Pdih>
0.509

> <Idih>
0.000

> <Tether>
0.000

$$$$
VeraChem MOL file


 20 19  0  0  0  0  0  0  0  0999 V2000     
   22.1491   19.9675   20.6225 C   0  0  0  0  0  0  0  0  0  0  0  0
   22.9229   19.1903   20.6711 H   0  0  0  0  0  0  0  0  0  0  0  0
   21.8893   20.1254   19.5676 H   0  0  0  0  0  0  0  0  0  0  0  0
   22.5848   20.9000   21.0040 H   0  0  0  0  0  0  0  0  0  0  0  0
   20.9071   19.5678   21.4483 C   0  0  0  0  0  0  0  0  0  0  0  0
   20.1632   20.3756   21.4035 H   0  0  0  0  0  0  0  0  0  0  0  0
   21.2015   19.4587   22.5004 H   0  0  0  0  0  0  0  0  0  0  0  0
   20.2797   18.2497   20.9376 C   0  0  0  0  0  0  0  0  0  0  0  0
   20.0982   18.3341   19.8579 H   0  0  0  0  0  0  0  0  0  0  0  0
   20.9928   17.4248   21.0661 H   0  0  0  0  0  0  0  0  0  0  0  0
   18.9413   17.8818   21.6173 C   0  0  0  0  0  0  0  0  0  0  0  0
   18.5584   16.9766   21.1389 H   0  0  0  0  0  0  0  0  0  0  0  0
   18.2055   18.6747   21.4619 H   0  0  0  0  0  0  0  0  0  0  0  0
   19.0192   17.5889   23.1078 N   0  3  0  0  0  0  0  0  0  0  0  0
   19.9261   17.1587   23.3430 H   0  0  0  0  0  0  0  0  0  0  0  0
   18.3168   16.8731   23.3511 H   0  0  0  0  0  0  0  0  0  0  0  0
   18.7641   18.8438   23.9366 C   0  0  0  0  0  0  0  0  0  0  0  0
   18.8061   18.5856   24.9971 H   0  0  0  0  0  0  0  0  0  0  0  0
   19.5225   19.5949   23.7130 H   0  0  0  0  0  0  0  0  0  0  0  0
   17.7745   19.2373   23.6946 H   0  0  0  0  0  0  0  0  0  0  0  0
  1  2  1  0  0  0  0
  1  3  1  0  0  0  0
  1  4  1  0  0  0  0
  1  5  1  0  0  0  0
  5  6  1  0  0  0  0
  5  7  1  0  0  0  0
  5  8  1  0  0  0  0
  8  9  1  0  0  0  0
  8 10  1  0  0  0  0
  8 11  1  0  0  0  0
 11 12  1  0  0  0  0
 11 13  1  0  0  0  0
 11 14  1  0  0  0  0
 14 15  1  0  0  0  0
 14 16  1  0  0  0  0
 14 17  1  0  0  0  0
 17 18  1  0  0  0  0
 17 19  1  0  0  0  0
 17 20  1  0  0  0  0
M  END
> <VConfSearch Rank>
29

> <Conf_Id>
65

> <Delta U+W>
1.775

> <U+W>
17.114

> <U>
71.726

> <W>
-54.613

> <W(PB)>
-56.495

> <W(SA)>
1.883

> <Valence>
2.885

> <Coulomb>
68.822

> <VdW>
0.019

> <VdW6>
-4.600

> <VdW12>
4.619

> <Bond>
0.152

> <Angle>
0.862

> <Pdih>
1.871

> <Idih>
0.000

> <Tether>
0.000

$$$$
VeraChem MOL file


 20 19  0  0  0  0  0  0  0  0999 V2000     
   21.5233   20.5807   21.5372 C   0  0  0  0  0  0  0  0  0  0  0  0
   21.9680   19.5779   21.5118 H   0  0  0  0  0  0  0  0  0  0  0  0
   21.9310   21.1448   20.6883 H   0  0  0  0  0  0  0  0  0  0  0  0
   21.8529   21.0784   22.4584 H   0  0  0  0  0  0  0  0  0  0  0  0
   19.9804   20.5223   21.4585 C   0  0  0  0  0  0  0  0  0  0  0  0
   19.6762   20.0215   20.5293 H   0  0  0  0  0  0  0  0  0  0  0  0
   19.5872   21.5465   21.3926 H   0  0  0  0  0  0  0  0  0  0  0  0
   19.3363   19.8188   22.6792 C   0  0  0  0  0  0  0  0  0  0  0  0
   19.5652   20.3913   23.5878 H   0  0  0  0  0  0  0  0  0  0  0  0
   18.2433   19.8356   22.5751 H   0  0  0  0  0  0  0  0  0  0  0  0
   19.8041   18.3627   22.8837 C   0  0  0  0  0  0  0  0  0  0  0  0
   19.3295   17.9520   23.7784 H   0  0  0  0  0  0  0  0  0  0  0  0
   20.8861   18.3416   23.0345 H   0  0  0  0  0  0  0  0  0  0  0  0
   19.4753   17.4413   21.7246 N   0  3  0  0  0  0  0  0  0  0  0  0
   19.9011   17.8004   20.8572 H   0  0  0  0  0  0  0  0  0  0  0  0
   18.4585   17.4367   21.5514 H   0  0  0  0  0  0  0  0  0  0  0  0
   19.9741   16.0336   22.0214 C   0  0  0  0  0  0  0  0  0  0  0  0
   19.4868   15.6625   22.9255 H   0  0  0  0  0  0  0  0  0  0  0  0
   19.7320   15.3820   21.1789 H   0  0  0  0  0  0  0  0  0  0  0  0
   21.0560   16.0586   22.1684 H   0  0  0  0  0  0  0  0  0  0  0  0
  1  2  1  0  0  0  0
  1  3  1  0  0  0  0
  1  4  1  0  0  0  0
  1  5  1  0  0  0  0
  5  6  1  0  0  0  0
  5  7  1  0  0  0  0
  5  8  1  0  0  0  0
  8  9  1  0  0  0  0
  8 10  1  0  0  0  0
  8 11  1  0  0  0  0
 11 12  1  0  0  0  0
 11 13  1  0  0  0  0
 11 14  1  0  0  0  0
 14 15  1  0  0  0  0
 14 16  1  0  0  0  0
 14 17  1  0  0  0  0
 17 18  1  0  0  0  0
 17 19  1  0  0  0  0
 17 20  1  0  0  0  0
M  END
> <VConfSearch Rank>
30

> <Conf_Id>
23

> <Delta U+W>
0.896

> <U+W>
16.234

> <U>
70.374

> <W>
-54.140

> <W(PB)>
-56.046

> <W(SA)>
1.907

> <Valence>
1.257

> <Coulomb>
69.240

> <VdW>
-0.123

> <VdW6>
-4.336

> <VdW12>
4.213

> <Bond>
0.128

> <Angle>
0.603

> <Pdih>
0.526

> <Idih>
0.000

> <Tether>
0.000

$$$$
VeraChem MOL file


 20 19  0  0  0  0  0  0  0  0999 V2000     
   18.3794   17.8621   23.3667 C   0  0  0  0  0  0  0  0  0  0  0  0
   17.6175   17.3776   22.7423 H   0  0  0  0  0  0  0  0  0  0  0  0
   18.1009   17.7044   24.4167 H   0  0  0  0  0  0  0  0  0  0  0  0
   18.3441   18.9417   23.1740 H   0  0  0  0  0  0  0  0  0  0  0  0
   19.7828   17.2783   23.0844 C   0  0  0  0  0  0  0  0  0  0  0  0
   19.7950   16.2196   23.3794 H   0  0  0  0  0  0  0  0  0  0  0  0
   20.5260   17.7778   23.7206 H   0  0  0  0  0  0  0  0  0  0  0  0
   20.1968   17.3853   21.5954 C   0  0  0  0  0  0  0  0  0  0  0  0
   21.1866   16.9300   21.4583 H   0  0  0  0  0  0  0  0  0  0  0  0
   19.5017   16.7946   20.9842 H   0  0  0  0  0  0  0  0  0  0  0  0
   20.2236   18.8299   21.0535 C   0  0  0  0  0  0  0  0  0  0  0  0
   19.2299   19.2751   21.1436 H   0  0  0  0  0  0  0  0  0  0  0  0
   20.4929   18.8145   19.9944 H   0  0  0  0  0  0  0  0  0  0  0  0
   21.2089   19.7369   21.7655 N   0  3  0  0  0  0  0  0  0  0  0  0
   22.1615   19.3464   21.7021 H   0  0  0  0  0  0  0  0  0  0  0  0
   20.9917   19.7718   22.7725 H   0  0  0  0  0  0  0  0  0  0  0  0
   21.1616   21.1334   21.1603 C   0  0  0  0  0  0  0  0  0  0  0  0
   20.1531   21.5385   21.2684 H   0  0  0  0  0  0  0  0  0  0  0  0
   21.8743   21.7753   21.6827 H   0  0  0  0  0  0  0  0  0  0  0  0
   21.4252   21.0758   20.1020 H   0  0  0  0  0  0  0  0  0  0  0  0
  1  2  1  0  0  0  0
  1  3  1  0  0  0  0
  1  4  1  0  0  0  0
  1  5  1  0  0  0  0
  5  6  1  0  0  0  0
  5  7  1  0  0  0  0
  5  8  1  0  0  0  0
  8  9  1  0  0  0  0
  8 10  1  0  0  0  0
  8 11  1  0  0  0  0
 11 12  1  0  0  0  0
 11 13  1  0  0  0  0
 11 14  1  0  0  0  0
 14 15  1  0  0  0  0
 14 16  1  0  0  0  0
 14 17  1  0  0  0  0
 17 18  1  0  0  0  0
 17 19  1  0  0  0  0
 17 20  1  0  0  0  0
M  END
> <VConfSearch Rank>
31

> <Conf_Id>
24

> <Delta U+W>
0.792

> <U+W>
16.130

> <U>
70.374

> <W>
-54.243

> <W(PB)>
-56.130

> <W(SA)>
1.887

> <Valence>
1.257

> <Coulomb>
69.240

> <VdW>
-0.123

> <VdW6>
-4.336

> <VdW12>
4.213

> <Bond>
0.128

> <Angle>
0.603

> <Pdih>
0.526

> <Idih>
0.000

> <Tether>
0.000

$$$$
VeraChem MOL file


 20 19  0  0  0  0  0  0  0  0999 V2000     
   19.2998   17.0943   23.2566 C   0  0  0  0  0  0  0  0  0  0  0  0
   19.2944   16.1947   23.8858 H   0  0  0  0  0  0  0  0  0  0  0  0
   19.8936   17.8506   23.7834 H   0  0  0  0  0  0  0  0  0  0  0  0
   18.2639   17.4484   23.1748 H   0  0  0  0  0  0  0  0  0  0  0  0
   19.8950   16.7715   21.8670 C   0  0  0  0  0  0  0  0  0  0  0  0
   19.4016   15.8710   21.4749 H   0  0  0  0  0  0  0  0  0  0  0  0
   20.9576   16.5122   21.9758 H   0  0  0  0  0  0  0  0  0  0  0  0
   19.7405   17.9068   20.8229 C   0  0  0  0  0  0  0  0  0  0  0  0
   20.1333   17.5407   19.8650 H   0  0  0  0  0  0  0  0  0  0  0  0
   18.6783   18.1243   20.6492 H   0  0  0  0  0  0  0  0  0  0  0  0
   20.4950   19.2061   21.1761 C   0  0  0  0  0  0  0  0  0  0  0  0
   20.6480   19.7893   20.2645 H   0  0  0  0  0  0  0  0  0  0  0  0
   21.4761   18.9623   21.5911 H   0  0  0  0  0  0  0  0  0  0  0  0
   19.7676   20.1046   22.1583 N   0  3  0  0  0  0  0  0  0  0  0  0
   19.5513   19.5829   23.0196 H   0  0  0  0  0  0  0  0  0  0  0  0
   18.8539   20.3863   21.7714 H   0  0  0  0  0  0  0  0  0  0  0  0
   20.6163   21.3294   22.4713 C   0  0  0  0  0  0  0  0  0  0  0  0
   21.5639   21.0083   22.9094 H   0  0  0  0  0  0  0  0  0  0  0  0
   20.8045   21.8819   21.5483 H   0  0  0  0  0  0  0  0  0  0  0  0
   20.0806   21.9662   23.1787 H   0  0  0  0  0  0  0  0  0  0  0  0
  1  2  1  0  0  0  0
  1  3  1  0  0  0  0
  1  4  1  0  0  0  0
  1  5  1  0  0  0  0
  5  6  1  0  0  0  0
  5  7  1  0  0  0  0
  5  8  1  0  0  0  0
  8  9  1  0  0  0  0
  8 10  1  0  0  0  0
  8 11  1  0  0  0  0
 11 12  1  0  0  0  0
 11 13  1  0  0  0  0
 11 14  1  0  0  0  0
 14 15  1  0  0  0  0
 14 16  1  0  0  0  0
 14 17  1  0  0  0  0
 17 18  1  0  0  0  0
 17 19  1  0  0  0  0
 17 20  1  0  0  0  0
M  END
> <VConfSearch Rank>
32

> <Conf_Id>
26

> <Delta U+W>
2.888

> <U+W>
18.226

> <U>
72.042

> <W>
-53.816

> <W(PB)>
-55.689

> <W(SA)>
1.873

> <Valence>
2.428

> <Coulomb>
69.829

> <VdW>
-0.215

> <VdW6>
-4.563

> <VdW12>
4.348

> <Bond>
0.137

> <Angle>
0.936

> <Pdih>
1.356

> <Idih>
0.000

> <Tether>
0.000

$$$$
VeraChem MOL file


 20 19  0  0  0  0  0  0  0  0999 V2000     
   19.6567   17.3739   23.5473 C   0  0  0  0  0  0  0  0  0  0  0  0
   19.1364   16.7571   24.2917 H   0  0  0  0  0  0  0  0  0  0  0  0
   20.7074   17.0561   23.5290 H   0  0  0  0  0  0  0  0  0  0  0  0
   19.6050   18.4114   23.8979 H   0  0  0  0  0  0  0  0  0  0  0  0
   18.9953   17.2094   22.1599 C   0  0  0  0  0  0  0  0  0  0  0  0
   17.9775   17.6233   22.1889 H   0  0  0  0  0  0  0  0  0  0  0  0
   18.8806   16.1364   21.9512 H   0  0  0  0  0  0  0  0  0  0  0  0
   19.7856   17.8523   20.9916 C   0  0  0  0  0  0  0  0  0  0  0  0
   20.7794   17.3935   20.9044 H   0  0  0  0  0  0  0  0  0  0  0  0
   19.2609   17.6136   20.0570 H   0  0  0  0  0  0  0  0  0  0  0  0
   19.9182   19.3875   21.0790 C   0  0  0  0  0  0  0  0  0  0  0  0
   18.9734   19.8212   21.4160 H   0  0  0  0  0  0  0  0  0  0  0  0
   20.1375   19.7843   20.0844 H   0  0  0  0  0  0  0  0  0  0  0  0
   21.0234   19.8686   21.9999 N   0  3  0  0  0  0  0  0  0  0  0  0
   21.9348   19.5086   21.6780 H   0  0  0  0  0  0  0  0  0  0  0  0
   20.8917   19.4767   22.9431 H   0  0  0  0  0  0  0  0  0  0  0  0
   21.0364   21.3904   22.0478 C   0  0  0  0  0  0  0  0  0  0  0  0
   20.0742   21.7470   22.4218 H   0  0  0  0  0  0  0  0  0  0  0  0
   21.8361   21.7219   22.7137 H   0  0  0  0  0  0  0  0  0  0  0  0
   21.2094   21.7804   21.0424 H   0  0  0  0  0  0  0  0  0  0  0  0
  1  2  1  0  0  0  0
  1  3  1  0  0  0  0
  1  4  1  0  0  0  0
  1  5  1  0  0  0  0
  5  6  1  0  0  0  0
  5  7  1  0  0  0  0
  5  8  1  0  0  0  0
  8  9  1  0  0  0  0
  8 10  1  0  0  0  0
  8 11  1  0  0  0  0
 11 12  1  0  0  0  0
 11 13  1  0  0  0  0
 11 14  1  0  0  0  0
 14 15  1  0  0  0  0
 14 16  1  0  0  0  0
 14 17  1  0  0  0  0
 17 18  1  0  0  0  0
 17 19  1  0  0  0  0
 17 20  1  0  0  0  0
M  END
> <VConfSearch Rank>
33

> <Conf_Id>
5

> <Delta U+W>
2.950

> <U+W>
18.289

> <U>
72.042

> <W>
-53.753

> <W(PB)>
-55.644

> <W(SA)>
1.891

> <Valence>
2.428

> <Coulomb>
69.829

> <VdW>
-0.215

> <VdW6>
-4.563

> <VdW12>
4.348

> <Bond>
0.137

> <Angle>
0.936

> <Pdih>
1.356

> <Idih>
0.000

> <Tether>
0.000

$$$$
VeraChem MOL file


 20 19  0  0  0  0  0  0  0  0999 V2000     
   20.1036   18.6269   24.4432 C   0  0  0  0  0  0  0  0  0  0  0  0
   19.0993   18.6251   24.8865 H   0  0  0  0  0  0  0  0  0  0  0  0
   20.2938   17.6314   24.0231 H   0  0  0  0  0  0  0  0  0  0  0  0
   20.8263   18.7876   25.2537 H   0  0  0  0  0  0  0  0  0  0  0  0
   20.2357   19.7333   23.3715 C   0  0  0  0  0  0  0  0  0  0  0  0
   21.2482   19.7181   22.9456 H   0  0  0  0  0  0  0  0  0  0  0  0
   20.1255   20.7139   23.8553 H   0  0  0  0  0  0  0  0  0  0  0  0
   19.1826   19.6133   22.2420 C   0  0  0  0  0  0  0  0  0  0  0  0
   18.1784   19.7258   22.6716 H   0  0  0  0  0  0  0  0  0  0  0  0
   19.3050   20.4479   21.5397 H   0  0  0  0  0  0  0  0  0  0  0  0
   19.2394   18.2760   21.4687 C   0  0  0  0  0  0  0  0  0  0  0  0
   18.4711   18.2705   20.6915 H   0  0  0  0  0  0  0  0  0  0  0  0
   19.0220   17.4569   22.1585 H   0  0  0  0  0  0  0  0  0  0  0  0
   20.5721   17.9689   20.8033 N   0  3  0  0  0  0  0  0  0  0  0  0
   20.5610   17.0049   20.4351 H   0  0  0  0  0  0  0  0  0  0  0  0
   21.3270   17.9785   21.5048 H   0  0  0  0  0  0  0  0  0  0  0  0
   20.8674   18.9519   19.6758 C   0  0  0  0  0  0  0  0  0  0  0  0
   20.9384   19.9614   20.0853 H   0  0  0  0  0  0  0  0  0  0  0  0
   21.8139   18.6806   19.2031 H   0  0  0  0  0  0  0  0  0  0  0  0
   20.0621   18.9065   18.9395 H   0  0  0  0  0  0  0  0  0  0  0  0
  1  2  1  0  0  0  0
  1  3  1  0  0  0  0
  1  4  1  0  0  0  0
  1  5  1  0  0  0  0
  5  6  1  0  0  0  0
  5  7  1  0  0  0  0
  5  8  1  0  0  0  0
  8  9  1  0  0  0  0
  8 10  1  0  0  0  0
  8 11  1  0  0  0  0
 11 12  1  0  0  0  0
 11 13  1  0  0  0  0
 11 14  1  0  0  0  0
 14 15  1  0  0  0  0
 14 16  1  0  0  0  0
 14 17  1  0  0  0  0
 17 18  1  0  0  0  0
 17 19  1  0  0  0  0
 17 20  1  0  0  0  0
M  END
> <VConfSearch Rank>
34

> <Conf_Id>
52

> <Delta U+W>
0.784

> <U+W>
16.122

> <U>
70.777

> <W>
-54.655

> <W(PB)>
-56.491

> <W(SA)>
1.836

> <Valence>
1.529

> <Coulomb>
69.166

> <VdW>
0.082

> <VdW6>
-5.166

> <VdW12>
5.248

> <Bond>
0.171

> <Angle>
0.752

> <Pdih>
0.605

> <Idih>
0.000

> <Tether>
0.000

$$$$
VeraChem MOL file


 20 19  0  0  0  0  0  0  0  0999 V2000     
   20.5201   19.0234   24.0747 C   0  0  0  0  0  0  0  0  0  0  0  0
   20.6034   19.0149   25.1693 H   0  0  0  0  0  0  0  0  0  0  0  0
   21.0270   18.1236   23.7081 H   0  0  0  0  0  0  0  0  0  0  0  0
   21.0565   19.9080   23.7072 H   0  0  0  0  0  0  0  0  0  0  0  0
   19.0337   19.0515   23.6514 C   0  0  0  0  0  0  0  0  0  0  0  0
   18.5215   19.8341   24.2288 H   0  0  0  0  0  0  0  0  0  0  0  0
   18.5535   18.1038   23.9328 H   0  0  0  0  0  0  0  0  0  0  0  0
   18.8008   19.3288   22.1442 C   0  0  0  0  0  0  0  0  0  0  0  0
   17.7186   19.4188   21.9823 H   0  0  0  0  0  0  0  0  0  0  0  0
   19.2241   20.3025   21.8674 H   0  0  0  0  0  0  0  0  0  0  0  0
   19.3236   18.2226   21.1984 C   0  0  0  0  0  0  0  0  0  0  0  0
   18.8382   18.3233   20.2244 H   0  0  0  0  0  0  0  0  0  0  0  0
   19.0512   17.2462   21.6069 H   0  0  0  0  0  0  0  0  0  0  0  0
   20.8235   18.2217   20.9480 N   0  3  0  0  0  0  0  0  0  0  0  0
   21.0934   17.3479   20.4696 H   0  0  0  0  0  0  0  0  0  0  0  0
   21.3310   18.2076   21.8436 H   0  0  0  0  0  0  0  0  0  0  0  0
   21.2446   19.4223   20.1077 C   0  0  0  0  0  0  0  0  0  0  0  0
   20.7036   19.4043   19.1592 H   0  0  0  0  0  0  0  0  0  0  0  0
   21.0143   20.3425   20.6479 H   0  0  0  0  0  0  0  0  0  0  0  0
   22.3190   19.3677   19.9191 H   0  0  0  0  0  0  0  0  0  0  0  0
  1  2  1  0  0  0  0
  1  3  1  0  0  0  0
  1  4  1  0  0  0  0
  1  5  1  0  0  0  0
  5  6  1  0  0  0  0
  5  7  1  0  0  0  0
  5  8  1  0  0  0  0
  8  9  1  0  0  0  0
  8 10  1  0  0  0  0
  8 11  1  0  0  0  0
 11 12  1  0  0  0  0
 11 13  1  0  0  0  0
 11 14  1  0  0  0  0
 14 15  1  0  0  0  0
 14 16  1  0  0  0  0
 14 17  1  0  0  0  0
 17 18  1  0  0  0  0
 17 19  1  0  0  0  0
 17 20  1  0  0  0  0
M  END
> <VConfSearch Rank>
35

> <Conf_Id>
55

> <Delta U+W>
2.745

> <U+W>
18.083

> <U>
72.490

> <W>
-54.407

> <W(PB)>
-56.269

> <W(SA)>
1.861

> <Valence>
2.738

> <Coulomb>
69.795

> <VdW>
-0.043

> <VdW6>
-5.333

> <VdW12>
5.290

> <Bond>
0.182

> <Angle>
1.135

> <Pdih>
1.422

> <Idih>
0.000

> <Tether>
0.000

$$$$
VeraChem MOL file


 20 19  0  0  0  0  0  0  0  0999 V2000     
   18.9566   17.0021   21.7266 C   0  0  0  0  0  0  0  0  0  0  0  0
   18.2993   16.1514   21.5039 H   0  0  0  0  0  0  0  0  0  0  0  0
   19.9893   16.6847   21.5309 H   0  0  0  0  0  0  0  0  0  0  0  0
   18.8488   17.2187   22.7956 H   0  0  0  0  0  0  0  0  0  0  0  0
   18.5688   18.2200   20.8574 C   0  0  0  0  0  0  0  0  0  0  0  0
   17.5761   18.5842   21.1572 H   0  0  0  0  0  0  0  0  0  0  0  0
   18.4672   17.8862   19.8151 H   0  0  0  0  0  0  0  0  0  0  0  0
   19.5882   19.3871   20.8966 C   0  0  0  0  0  0  0  0  0  0  0  0
   20.5687   19.0469   20.5404 H   0  0  0  0  0  0  0  0  0  0  0  0
   19.2576   20.1464   20.1757 H   0  0  0  0  0  0  0  0  0  0  0  0
   19.7222   20.0781   22.2735 C   0  0  0  0  0  0  0  0  0  0  0  0
   18.7252   20.2299   22.6948 H   0  0  0  0  0  0  0  0  0  0  0  0
   20.1802   21.0613   22.1394 H   0  0  0  0  0  0  0  0  0  0  0  0
   20.5574   19.3373   23.3062 N   0  3  0  0  0  0  0  0  0  0  0  0
   20.2134   18.3729   23.4125 H   0  0  0  0  0  0  0  0  0  0  0  0
   20.4293   19.7747   24.2322 H   0  0  0  0  0  0  0  0  0  0  0  0
   22.0352   19.3451   22.9309 C   0  0  0  0  0  0  0  0  0  0  0  0
   22.1715   18.8247   21.9811 H   0  0  0  0  0  0  0  0  0  0  0  0
   22.3771   20.3782   22.8395 H   0  0  0  0  0  0  0  0  0  0  0  0
   22.6051   18.8369   23.7118 H   0  0  0  0  0  0  0  0  0  0  0  0
  1  2  1  0  0  0  0
  1  3  1  0  0  0  0
  1  4  1  0  0  0  0
  1  5  1  0  0  0  0
  5  6  1  0  0  0  0
  5  7  1  0  0  0  0
  5  8  1  0  0  0  0
  8  9  1  0  0  0  0
  8 10  1  0  0  0  0
  8 11  1  0  0  0  0
 11 12  1  0  0  0  0
 11 13  1  0  0  0  0
 11 14  1  0  0  0  0
 14 15  1  0  0  0  0
 14 16  1  0  0  0  0
 14 17  1  0  0  0  0
 17 18  1  0  0  0  0
 17 19  1  0  0  0  0
 17 20  1  0  0  0  0
M  END
> <VConfSearch Rank>
36

> <Conf_Id>
76

> <Delta U+W>
2.799

> <U+W>
18.137

> <U>
72.490

> <W>
-54.353

> <W(PB)>
-56.201

> <W(SA)>
1.848

> <Valence>
2.738

> <Coulomb>
69.795

> <VdW>
-0.043

> <VdW6>
-5.334

> <VdW12>
5.290

> <Bond>
0.182

> <Angle>
1.135

> <Pdih>
1.421

> <Idih>
0.000

> <Tether>
0.000

$$$$
VeraChem MOL file


 20 19  0  0  0  0  0  0  0  0999 V2000     
   18.0569   18.9782   22.6584 C   0  0  0  0  0  0  0  0  0  0  0  0
   18.1861   18.9254   21.5704 H   0  0  0  0  0  0  0  0  0  0  0  0
   17.5350   18.0691   22.9842 H   0  0  0  0  0  0  0  0  0  0  0  0
   17.4039   19.8339   22.8735 H   0  0  0  0  0  0  0  0  0  0  0  0
   19.4111   19.1322   23.3884 C   0  0  0  0  0  0  0  0  0  0  0  0
   19.2216   19.2526   24.4642 H   0  0  0  0  0  0  0  0  0  0  0  0
   19.9096   20.0564   23.0689 H   0  0  0  0  0  0  0  0  0  0  0  0
   20.3524   17.9198   23.1843 C   0  0  0  0  0  0  0  0  0  0  0  0
   21.2735   18.0737   23.7615 H   0  0  0  0  0  0  0  0  0  0  0  0
   19.8747   17.0288   23.6126 H   0  0  0  0  0  0  0  0  0  0  0  0
   20.7230   17.6091   21.7150 C   0  0  0  0  0  0  0  0  0  0  0  0
   19.8222   17.4604   21.1148 H   0  0  0  0  0  0  0  0  0  0  0  0
   21.2848   16.6716   21.7037 H   0  0  0  0  0  0  0  0  0  0  0  0
   21.5975   18.6449   21.0241 N   0  3  0  0  0  0  0  0  0  0  0  0
   22.2004   18.1727   20.3324 H   0  0  0  0  0  0  0  0  0  0  0  0
   22.2528   19.0684   21.6978 H   0  0  0  0  0  0  0  0  0  0  0  0
   20.7629   19.7073   20.3171 C   0  0  0  0  0  0  0  0  0  0  0  0
   21.4312   20.4086   19.8125 H   0  0  0  0  0  0  0  0  0  0  0  0
   20.1164   19.2238   19.5817 H   0  0  0  0  0  0  0  0  0  0  0  0
   20.1540   20.2434   21.0458 H   0  0  0  0  0  0  0  0  0  0  0  0
  1  2  1  0  0  0  0
  1  3  1  0  0  0  0
  1  4  1  0  0  0  0
  1  5  1  0  0  0  0
  5  6  1  0  0  0  0
  5  7  1  0  0  0  0
  5  8  1  0  0  0  0
  8  9  1  0  0  0  0
  8 10  1  0  0  0  0
  8 11  1  0  0  0  0
 11 12  1  0  0  0  0
 11 13  1  0  0  0  0
 11 14  1  0  0  0  0
 14 15  1  0  0  0  0
 14 16  1  0  0  0  0
 14 17  1  0  0  0  0
 17 18  1  0  0  0  0
 17 19  1  0  0  0  0
 17 20  1  0  0  0  0
M  END
> <VConfSearch Rank>
37

> <Conf_Id>
60

> <Delta U+W>
1.788

> <U+W>
17.127

> <U>
72.122

> <W>
-54.995

> <W(PB)>
-56.810

> <W(SA)>
1.815

> <Valence>
3.197

> <Coulomb>
69.115

> <VdW>
-0.190

> <VdW6>
-5.585

> <VdW12>
5.395

> <Bond>
0.177

> <Angle>
1.207

> <Pdih>
1.813

> <Idih>
0.000

> <Tether>
0.000

$$$$
VeraChem MOL file


 20 19  0  0  0  0  0  0  0  0999 V2000     
   19.5433   18.7131   19.9433 C   0  0  0  0  0  0  0  0  0  0  0  0
   19.4592   19.4379   19.1233 H   0  0  0  0  0  0  0  0  0  0  0  0
   19.3747   17.7128   19.5239 H   0  0  0  0  0  0  0  0  0  0  0  0
   18.7366   18.9240   20.6559 H   0  0  0  0  0  0  0  0  0  0  0  0
   20.9350   18.8074   20.6102 C   0  0  0  0  0  0  0  0  0  0  0  0
   21.0973   19.8189   21.0043 H   0  0  0  0  0  0  0  0  0  0  0  0
   21.7065   18.6598   19.8416 H   0  0  0  0  0  0  0  0  0  0  0  0
   21.1443   17.7584   21.7297 C   0  0  0  0  0  0  0  0  0  0  0  0
   21.0862   16.7557   21.2861 H   0  0  0  0  0  0  0  0  0  0  0  0
   22.1627   17.8517   22.1292 H   0  0  0  0  0  0  0  0  0  0  0  0
   20.1345   17.8276   22.8994 C   0  0  0  0  0  0  0  0  0  0  0  0
   20.3181   16.9686   23.5499 H   0  0  0  0  0  0  0  0  0  0  0  0
   19.1103   17.7464   22.5280 H   0  0  0  0  0  0  0  0  0  0  0  0
   20.2318   19.0646   23.7799 N   0  3  0  0  0  0  0  0  0  0  0  0
   21.2120   19.3746   23.8566 H   0  0  0  0  0  0  0  0  0  0  0  0
   19.9583   18.8172   24.7437 H   0  0  0  0  0  0  0  0  0  0  0  0
   19.3311   20.1876   23.2773 C   0  0  0  0  0  0  0  0  0  0  0  0
   18.2980   19.8344   23.2537 H   0  0  0  0  0  0  0  0  0  0  0  0
   19.4114   21.0400   23.9555 H   0  0  0  0  0  0  0  0  0  0  0  0
   19.6399   20.4878   22.2755 H   0  0  0  0  0  0  0  0  0  0  0  0
  1  2  1  0  0  0  0
  1  3  1  0  0  0  0
  1  4  1  0  0  0  0
  1  5  1  0  0  0  0
  5  6  1  0  0  0  0
  5  7  1  0  0  0  0
  5  8  1  0  0  0  0
  8  9  1  0  0  0  0
  8 10  1  0  0  0  0
  8 11  1  0  0  0  0
 11 12  1  0  0  0  0
 11 13  1  0  0  0  0
 11 14  1  0  0  0  0
 14 15  1  0  0  0  0
 14 16  1  0  0  0  0
 14 17  1  0  0  0  0
 17 18  1  0  0  0  0
 17 19  1  0  0  0  0
 17 20  1  0  0  0  0
M  END
> <VConfSearch Rank>
38

> <Conf_Id>
54

> <Delta U+W>
1.880

> <U+W>
17.218

> <U>
72.122

> <W>
-54.903

> <W(PB)>
-56.724

> <W(SA)>
1.821

> <Valence>
3.197

> <Coulomb>
69.115

> <VdW>
-0.190

> <VdW6>
-5.585

> <VdW12>
5.395

> <Bond>
0.177

> <Angle>
1.207

> <Pdih>
1.813

> <Idih>
0.000

> <Tether>
0.000

$$$$
VeraChem MOL file


 20 19  0  0  0  0  0  0  0  0999 V2000     
   18.4147   20.1386   19.5752 C   0  0  0  0  0  0  0  0  0  0  0  0
   17.4708   20.2938   20.1138 H   0  0  0  0  0  0  0  0  0  0  0  0
   18.5546   20.9857   18.8913 H   0  0  0  0  0  0  0  0  0  0  0  0
   18.3159   19.2293   18.9680 H   0  0  0  0  0  0  0  0  0  0  0  0
   19.6026   20.0267   20.5554 C   0  0  0  0  0  0  0  0  0  0  0  0
   19.6969   20.9633   21.1230 H   0  0  0  0  0  0  0  0  0  0  0  0
   20.5354   19.9071   19.9863 H   0  0  0  0  0  0  0  0  0  0  0  0
   19.4326   18.8415   21.5312 C   0  0  0  0  0  0  0  0  0  0  0  0
   18.5022   18.9636   22.1017 H   0  0  0  0  0  0  0  0  0  0  0  0
   19.3417   17.9059   20.9634 H   0  0  0  0  0  0  0  0  0  0  0  0
   20.6210   18.7367   22.5050 C   0  0  0  0  0  0  0  0  0  0  0  0
   20.7048   19.6606   23.0828 H   0  0  0  0  0  0  0  0  0  0  0  0
   21.5469   18.5994   21.9409 H   0  0  0  0  0  0  0  0  0  0  0  0
   20.4975   17.5854   23.4839 N   0  3  0  0  0  0  0  0  0  0  0  0
   20.4080   16.6926   22.9749 H   0  0  0  0  0  0  0  0  0  0  0  0
   19.6283   17.6752   24.0322 H   0  0  0  0  0  0  0  0  0  0  0  0
   21.7092   17.5549   24.4058 C   0  0  0  0  0  0  0  0  0  0  0  0
   21.7644   18.4950   24.9590 H   0  0  0  0  0  0  0  0  0  0  0  0
   21.6073   16.7219   25.1048 H   0  0  0  0  0  0  0  0  0  0  0  0
   22.6135   17.4247   23.8074 H   0  0  0  0  0  0  0  0  0  0  0  0
  1  2  1  0  0  0  0
  1  3  1  0  0  0  0
  1  4  1  0  0  0  0
  1  5  1  0  0  0  0
  5  6  1  0  0  0  0
  5  7  1  0  0  0  0
  5  8  1  0  0  0  0
  8  9  1  0  0  0  0
  8 10  1  0  0  0  0
  8 11  1  0  0  0  0
 11 12  1  0  0  0  0
 11 13  1  0  0  0  0
 11 14  1  0  0  0  0
 14 15  1  0  0  0  0
 14 16  1  0  0  0  0
 14 17  1  0  0  0  0
 17 18  1  0  0  0  0
 17 19  1  0  0  0  0
 17 20  1  0  0  0  0
M  END
> <VConfSearch Rank>
39

> <Conf_Id>
67

> <Delta U+W>
0.000

> <U+W>
15.338

> <U>
69.277

> <W>
-53.939

> <W(PB)>
-55.889

> <W(SA)>
1.950

> <Valence>
0.846

> <Coulomb>
68.557

> <VdW>
-0.127

> <VdW6>
-3.008

> <VdW12>
2.882

> <Bond>
0.088

> <Angle>
0.332

> <Pdih>
0.426

> <Idih>
0.000

> <Tether>
0.000

$$$$
VeraChem MOL file


 20 19  0  0  0  0  0  0  0  0999 V2000     
   21.2359   21.5293   21.1592 C   0  0  0  0  0  0  0  0  0  0  0  0
   22.1057   21.3605   21.8074 H   0  0  0  0  0  0  0  0  0  0  0  0
   21.5779   22.0837   20.2756 H   0  0  0  0  0  0  0  0  0  0  0  0
   20.5247   22.1663   21.7011 H   0  0  0  0  0  0  0  0  0  0  0  0
   20.5825   20.1929   20.7456 C   0  0  0  0  0  0  0  0  0  0  0  0
   21.3068   19.5929   20.1765 H   0  0  0  0  0  0  0  0  0  0  0  0
   19.7384   20.3928   20.0704 H   0  0  0  0  0  0  0  0  0  0  0  0
   20.0907   19.3903   21.9702 C   0  0  0  0  0  0  0  0  0  0  0  0
   20.9366   19.1932   22.6413 H   0  0  0  0  0  0  0  0  0  0  0  0
   19.3640   19.9885   22.5357 H   0  0  0  0  0  0  0  0  0  0  0  0
   19.4383   18.0580   21.5468 C   0  0  0  0  0  0  0  0  0  0  0  0
   20.1699   17.4358   21.0252 H   0  0  0  0  0  0  0  0  0  0  0  0
   18.6190   18.2686   20.8547 H   0  0  0  0  0  0  0  0  0  0  0  0
   18.8626   17.2426   22.6933 N   0  3  0  0  0  0  0  0  0  0  0  0
   18.3067   16.4597   22.3148 H   0  0  0  0  0  0  0  0  0  0  0  0
   18.1889   17.8086   23.2314 H   0  0  0  0  0  0  0  0  0  0  0  0
   19.9647   16.7039   23.5992 C   0  0  0  0  0  0  0  0  0  0  0  0
   20.5060   17.5390   24.0481 H   0  0  0  0  0  0  0  0  0  0  0  0
   19.5148   16.0942   24.3859 H   0  0  0  0  0  0  0  0  0  0  0  0
   20.6501   16.0933   23.0075 H   0  0  0  0  0  0  0  0  0  0  0  0
  1  2  1  0  0  0  0
  1  3  1  0  0  0  0
  1  4  1  0  0  0  0
  1  5  1  0  0  0  0
  5  6  1  0  0  0  0
  5  7  1  0  0  0  0
  5  8  1  0  0  0  0
  8  9  1  0  0  0  0
  8 10  1  0  0  0  0
  8 11  1  0  0  0  0
 11 12  1  0  0  0  0
 11 13  1  0  0  0  0
 11 14  1  0  0  0  0
 14 15  1  0  0  0  0
 14 16  1  0  0  0  0
 14 17  1  0  0  0  0
 17 18  1  0  0  0  0
 17 19  1  0  0  0  0
 17 20  1  0  0  0  0
M  END
> <VConfSearch Rank>
40

> <Conf_Id>
37

> <Delta U+W>
-0.021

> <U+W>
15.318

> <U>
69.657

> <W>
-54.340

> <W(PB)>
-56.238

> <W(SA)>
1.899

> <Valence>
1.137

> <Coulomb>
68.383

> <VdW>
0.138

> <VdW6>
-3.703

> <VdW12>
3.841

> <Bond>
0.125

> <Angle>
0.468

> <Pdih>
0.543

> <Idih>
0.000

> <Tether>
0.000

$$$$
VeraChem MOL file


 20 19  0  0  0  0  0  0  0  0999 V2000     
   21.0615   21.5743   22.3173 C   0  0  0  0  0  0  0  0  0  0  0  0
   20.8463   22.6190   22.0577 H   0  0  0  0  0  0  0  0  0  0  0  0
   20.9901   21.4776   23.4085 H   0  0  0  0  0  0  0  0  0  0  0  0
   22.0973   21.3612   22.0226 H   0  0  0  0  0  0  0  0  0  0  0  0
   20.0743   20.6216   21.6087 C   0  0  0  0  0  0  0  0  0  0  0  0
   20.1440   20.7665   20.5213 H   0  0  0  0  0  0  0  0  0  0  0  0
   19.0457   20.8814   21.8966 H   0  0  0  0  0  0  0  0  0  0  0  0
   20.3537   19.1427   21.9557 C   0  0  0  0  0  0  0  0  0  0  0  0
   21.3798   18.8827   21.6639 H   0  0  0  0  0  0  0  0  0  0  0  0
   20.2830   19.0028   23.0420 H   0  0  0  0  0  0  0  0  0  0  0  0
   19.3637   18.1990   21.2420 C   0  0  0  0  0  0  0  0  0  0  0  0
   19.4227   18.3722   20.1644 H   0  0  0  0  0  0  0  0  0  0  0  0
   18.3429   18.4193   21.5643 H   0  0  0  0  0  0  0  0  0  0  0  0
   19.6194   16.7189   21.4761 N   0  3  0  0  0  0  0  0  0  0  0  0
   20.5870   16.4774   21.2131 H   0  0  0  0  0  0  0  0  0  0  0  0
   19.0264   16.1616   20.8411 H   0  0  0  0  0  0  0  0  0  0  0  0
   19.3367   16.3290   22.9230 C   0  0  0  0  0  0  0  0  0  0  0  0
   18.3015   16.5772   23.1665 H   0  0  0  0  0  0  0  0  0  0  0  0
   19.4949   15.2548   23.0413 H   0  0  0  0  0  0  0  0  0  0  0  0
   20.0135   16.8735   23.5843 H   0  0  0  0  0  0  0  0  0  0  0  0
  1  2  1  0  0  0  0
  1  3  1  0  0  0  0
  1  4  1  0  0  0  0
  1  5  1  0  0  0  0
  5  6  1  0  0  0  0
  5  7  1  0  0  0  0
  5  8  1  0  0  0  0
  8  9  1  0  0  0  0
  8 10  1  0  0  0  0
  8 11  1  0  0  0  0
 11 12  1  0  0  0  0
 11 13  1  0  0  0  0
 11 14  1  0  0  0  0
 14 15  1  0  0  0  0
 14 16  1  0  0  0  0
 14 17  1  0  0  0  0
 17 18  1  0  0  0  0
 17 19  1  0  0  0  0
 17 20  1  0  0  0  0
M  END
> <VConfSearch Rank>
41

> <Conf_Id>
2

> <Delta U+W>
0.069

> <U+W>
15.407

> <U>
69.657

> <W>
-54.250

> <W(PB)>
-56.176

> <W(SA)>
1.926

> <Valence>
1.137

> <Coulomb>
68.383

> <VdW>
0.138

> <VdW6>
-3.703

> <VdW12>
3.841

> <Bond>
0.125

> <Angle>
0.468

> <Pdih>
0.543

> <Idih>
0.000

> <Tether>
0.000

$$$$
VeraChem MOL file


 20 19  0  0  0  0  0  0  0  0999 V2000     
   17.5069   18.0827   22.6129 C   0  0  0  0  0  0  0  0  0  0  0  0
   18.1106   17.1951   22.3857 H   0  0  0  0  0  0  0  0  0  0  0  0
   17.5833   18.2832   23.6895 H   0  0  0  0  0  0  0  0  0  0  0  0
   16.4603   17.8358   22.3921 H   0  0  0  0  0  0  0  0  0  0  0  0
   17.9613   19.3068   21.7850 C   0  0  0  0  0  0  0  0  0  0  0  0
   17.2734   20.1429   21.9742 H   0  0  0  0  0  0  0  0  0  0  0  0
   17.8809   19.0777   20.7130 H   0  0  0  0  0  0  0  0  0  0  0  0
   19.4033   19.7583   22.1148 C   0  0  0  0  0  0  0  0  0  0  0  0
   19.6293   20.6727   21.5503 H   0  0  0  0  0  0  0  0  0  0  0  0
   19.4727   20.0201   23.1790 H   0  0  0  0  0  0  0  0  0  0  0  0
   20.4542   18.6829   21.7767 C   0  0  0  0  0  0  0  0  0  0  0  0
   20.3867   18.4242   20.7170 H   0  0  0  0  0  0  0  0  0  0  0  0
   20.2611   17.7817   22.3635 H   0  0  0  0  0  0  0  0  0  0  0  0
   21.8775   19.1224   22.0590 N   0  3  0  0  0  0  0  0  0  0  0  0
   21.9794   19.3850   23.0513 H   0  0  0  0  0  0  0  0  0  0  0  0
   22.0990   19.9775   21.5262 H   0  0  0  0  0  0  0  0  0  0  0  0
   22.8472   18.0042   21.7006 C   0  0  0  0  0  0  0  0  0  0  0  0
   22.7462   17.7666   20.6394 H   0  0  0  0  0  0  0  0  0  0  0  0
   23.8675   18.3338   21.9085 H   0  0  0  0  0  0  0  0  0  0  0  0
   22.6162   17.1214   22.3006 H   0  0  0  0  0  0  0  0  0  0  0  0
  1  2  1  0  0  0  0
  1  3  1  0  0  0  0
  1  4  1  0  0  0  0
  1  5  1  0  0  0  0
  5  6  1  0  0  0  0
  5  7  1  0  0  0  0
  5  8  1  0  0  0  0
  8  9  1  0  0  0  0
  8 10  1  0  0  0  0
  8 11  1  0  0  0  0
 11 12  1  0  0  0  0
 11 13  1  0  0  0  0
 11 14  1  0  0  0  0
 14 15  1  0  0  0  0
 14 16  1  0  0  0  0
 14 17  1  0  0  0  0
 17 18  1  0  0  0  0
 17 19  1  0  0  0  0
 17 20  1  0  0  0  0
M  END
> <VConfSearch Rank>
42

> <Conf_Id>
34

> <Delta U+W>
0.276

> <U+W>
15.615

> <U>
69.798

> <W>
-54.184

> <W(PB)>
-56.116

> <W(SA)>
1.933

> <Valence>
1.134

> <Coulomb>
68.735

> <VdW>
-0.070

> <VdW6>
-3.565

> <VdW12>
3.494

> <Bond>
0.108

> <Angle>
0.456

> <Pdih>
0.569

> <Idih>
0.000

> <Tether>
0.000

$$$$
VeraChem MOL file


 20 19  0  0  0  0  0  0  0  0999 V2000     
   19.0696   16.0914   21.0200 C   0  0  0  0  0  0  0  0  0  0  0  0
   18.0243   16.1800   20.6964 H   0  0  0  0  0  0  0  0  0  0  0  0
   19.5956   15.4647   20.2881 H   0  0  0  0  0  0  0  0  0  0  0  0
   19.0851   15.5670   21.9843 H   0  0  0  0  0  0  0  0  0  0  0  0
   19.7377   17.4789   21.1307 C   0  0  0  0  0  0  0  0  0  0  0  0
   19.7347   17.9642   20.1444 H   0  0  0  0  0  0  0  0  0  0  0  0
   20.7901   17.3484   21.4166 H   0  0  0  0  0  0  0  0  0  0  0  0
   19.0144   18.3821   22.1575 C   0  0  0  0  0  0  0  0  0  0  0  0
   17.9557   18.4711   21.8799 H   0  0  0  0  0  0  0  0  0  0  0  0
   19.0381   17.9164   23.1517 H   0  0  0  0  0  0  0  0  0  0  0  0
   19.6175   19.7990   22.2373 C   0  0  0  0  0  0  0  0  0  0  0  0
   19.0113   20.4123   22.9089 H   0  0  0  0  0  0  0  0  0  0  0  0
   19.6013   20.2614   21.2472 H   0  0  0  0  0  0  0  0  0  0  0  0
   21.0455   19.8358   22.7487 N   0  3  0  0  0  0  0  0  0  0  0  0
   21.6554   19.2691   22.1411 H   0  0  0  0  0  0  0  0  0  0  0  0
   21.1008   19.3966   23.6804 H   0  0  0  0  0  0  0  0  0  0  0  0
   21.5398   21.2750   22.8065 C   0  0  0  0  0  0  0  0  0  0  0  0
   21.5034   21.7085   21.8047 H   0  0  0  0  0  0  0  0  0  0  0  0
   20.8999   21.8484   23.4807 H   0  0  0  0  0  0  0  0  0  0  0  0
   22.5676   21.2869   23.1758 H   0  0  0  0  0  0  0  0  0  0  0  0
  1  2  1  0  0  0  0
  1  3  1  0  0  0  0
  1  4  1  0  0  0  0
  1  5  1  0  0  0  0
  5  6  1  0  0  0  0
  5  7  1  0  0  0  0
  5  8  1  0  0  0  0
  8  9  1  0  0  0  0
  8 10  1  0  0  0  0
  8 11  1  0  0  0  0
 11 12  1  0  0  0  0
 11 13  1  0  0  0  0
 11 14  1  0  0  0  0
 14 15  1  0  0  0  0
 14 16  1  0  0  0  0
 14 17  1  0  0  0  0
 17 18  1  0  0  0  0
 17 19  1  0  0  0  0
 17 20  1  0  0  0  0
M  END
> <VConfSearch Rank>
43

> <Conf_Id>
50

> <Delta U+W>
0.319

> <U+W>
15.657

> <U>
69.962

> <W>
-54.305

> <W(PB)>
-56.223

> <W(SA)>
1.918

> <Valence>
0.982

> <Coulomb>
69.058

> <VdW>
-0.078

> <VdW6>
-3.548

> <VdW12>
3.471

> <Bond>
0.105

> <Angle>
0.408

> <Pdih>
0.469

> <Idih>
0.000

> <Tether>
0.000

$$$$
VeraChem MOL file


 20 19  0  0  0  0  0  0  0  0999 V2000     
   17.5564   17.1378   21.9739 C   0  0  0  0  0  0  0  0  0  0  0  0
   17.0253   16.7818   22.8662 H   0  0  0  0  0  0  0  0  0  0  0  0
   16.8190   17.6047   21.3080 H   0  0  0  0  0  0  0  0  0  0  0  0
   17.9746   16.2625   21.4600 H   0  0  0  0  0  0  0  0  0  0  0  0
   18.6670   18.1376   22.3626 C   0  0  0  0  0  0  0  0  0  0  0  0
   19.3618   17.6488   23.0589 H   0  0  0  0  0  0  0  0  0  0  0  0
   18.2213   18.9853   22.9020 H   0  0  0  0  0  0  0  0  0  0  0  0
   19.4320   18.6544   21.1212 C   0  0  0  0  0  0  0  0  0  0  0  0
   19.9038   17.8153   20.5929 H   0  0  0  0  0  0  0  0  0  0  0  0
   18.7193   19.1049   20.4177 H   0  0  0  0  0  0  0  0  0  0  0  0
   20.5008   19.7085   21.4733 C   0  0  0  0  0  0  0  0  0  0  0  0
   20.0342   20.5413   22.0055 H   0  0  0  0  0  0  0  0  0  0  0  0
   20.9412   20.0980   20.5519 H   0  0  0  0  0  0  0  0  0  0  0  0
   21.6333   19.1785   22.3327 N   0  3  0  0  0  0  0  0  0  0  0  0
   22.0918   18.3818   21.8646 H   0  0  0  0  0  0  0  0  0  0  0  0
   21.2618   18.8010   23.2170 H   0  0  0  0  0  0  0  0  0  0  0  0
   22.6397   20.2876   22.6079 C   0  0  0  0  0  0  0  0  0  0  0  0
   23.4484   19.8929   23.2269 H   0  0  0  0  0  0  0  0  0  0  0  0
   23.0445   20.6494   21.6603 H   0  0  0  0  0  0  0  0  0  0  0  0
   22.1401   21.1050   23.1324 H   0  0  0  0  0  0  0  0  0  0  0  0
  1  2  1  0  0  0  0
  1  3  1  0  0  0  0
  1  4  1  0  0  0  0
  1  5  1  0  0  0  0
  5  6  1  0  0  0  0
  5  7  1  0  0  0  0
  5  8  1  0  0  0  0
  8  9  1  0  0  0  0
  8 10  1  0  0  0  0
  8 11  1  0  0  0  0
 11 12  1  0  0  0  0
 11 13  1  0  0  0  0
 11 14  1  0  0  0  0
 14 15  1  0  0  0  0
 14 16  1  0  0  0  0
 14 17  1  0  0  0  0
 17 18  1  0  0  0  0
 17 19  1  0  0  0  0
 17 20  1  0  0  0  0
M  END
> <VConfSearch Rank>
44

> <Conf_Id>
35

> <Delta U+W>
0.360

> <U+W>
15.698

> <U>
69.962

> <W>
-54.264

> <W(PB)>
-56.166

> <W(SA)>
1.902

> <Valence>
0.982

> <Coulomb>
69.058

> <VdW>
-0.078

> <VdW6>
-3.548

> <VdW12>
3.471

> <Bond>
0.105

> <Angle>
0.408

> <Pdih>
0.469

> <Idih>
0.000

> <Tether>
0.000

$$$$
VeraChem MOL file


 20 19  0  0  0  0  0  0  0  0999 V2000     
   17.9229   18.7616   23.4541 C   0  0  0  0  0  0  0  0  0  0  0  0
   18.3815   19.7406   23.6419 H   0  0  0  0  0  0  0  0  0  0  0  0
   16.8678   18.8285   23.7496 H   0  0  0  0  0  0  0  0  0  0  0  0
   18.4075   18.0250   24.1081 H   0  0  0  0  0  0  0  0  0  0  0  0
   18.0449   18.3522   21.9683 C   0  0  0  0  0  0  0  0  0  0  0  0
   17.5572   19.1074   21.3359 H   0  0  0  0  0  0  0  0  0  0  0  0
   17.4951   17.4141   21.8084 H   0  0  0  0  0  0  0  0  0  0  0  0
   19.5106   18.1594   21.5138 C   0  0  0  0  0  0  0  0  0  0  0  0
   19.9810   17.3778   22.1241 H   0  0  0  0  0  0  0  0  0  0  0  0
   19.5188   17.7969   20.4774 H   0  0  0  0  0  0  0  0  0  0  0  0
   20.3339   19.4626   21.5996 C   0  0  0  0  0  0  0  0  0  0  0  0
   20.3906   19.7991   22.6376 H   0  0  0  0  0  0  0  0  0  0  0  0
   19.8297   20.2392   21.0190 H   0  0  0  0  0  0  0  0  0  0  0  0
   21.7535   19.3498   21.0683 N   0  3  0  0  0  0  0  0  0  0  0  0
   22.1756   20.2898   21.0086 H   0  0  0  0  0  0  0  0  0  0  0  0
   21.7452   19.0021   20.0974 H   0  0  0  0  0  0  0  0  0  0  0  0
   22.6084   18.4543   21.9585 C   0  0  0  0  0  0  0  0  0  0  0  0
   22.1924   17.4449   21.9639 H   0  0  0  0  0  0  0  0  0  0  0  0
   23.6274   18.4281   21.5662 H   0  0  0  0  0  0  0  0  0  0  0  0
   22.6153   18.8576   22.9734 H   0  0  0  0  0  0  0  0  0  0  0  0
  1  2  1  0  0  0  0
  1  3  1  0  0  0  0
  1  4  1  0  0  0  0
  1  5  1  0  0  0  0
  5  6  1  0  0  0  0
  5  7  1  0  0  0  0
  5  8  1  0  0  0  0
  8  9  1  0  0  0  0
  8 10  1  0  0  0  0
  8 11  1  0  0  0  0
 11 12  1  0  0  0  0
 11 13  1  0  0  0  0
 11 14  1  0  0  0  0
 14 15  1  0  0  0  0
 14 16  1  0  0  0  0
 14 17  1  0  0  0  0
 17 18  1  0  0  0  0
 17 19  1  0  0  0  0
 17 20  1  0  0  0  0
M  END
> <VConfSearch Rank>
45

> <Conf_Id>
33

> <Delta U+W>
0.372

> <U+W>
15.711

> <U>
70.163

> <W>
-54.452

> <W(PB)>
-56.363

> <W(SA)>
1.911

> <Valence>
1.420

> <Coulomb>
68.566

> <VdW>
0.177

> <VdW6>
-4.267

> <VdW12>
4.445

> <Bond>
0.146

> <Angle>
0.581

> <Pdih>
0.693

> <Idih>
0.000

> <Tether>
0.000

$$$$
VeraChem MOL file


 20 19  0  0  0  0  0  0  0  0999 V2000     
   21.2020   16.6407   22.8492 C   0  0  0  0  0  0  0  0  0  0  0  0
   21.3702   15.5741   23.0468 H   0  0  0  0  0  0  0  0  0  0  0  0
   21.8020   16.9130   21.9717 H   0  0  0  0  0  0  0  0  0  0  0  0
   21.5807   17.2045   23.7117 H   0  0  0  0  0  0  0  0  0  0  0  0
   19.6988   16.9191   22.6188 C   0  0  0  0  0  0  0  0  0  0  0  0
   19.1289   16.5485   23.4825 H   0  0  0  0  0  0  0  0  0  0  0  0
   19.3466   16.3477   21.7484 H   0  0  0  0  0  0  0  0  0  0  0  0
   19.3869   18.4205   22.4178 C   0  0  0  0  0  0  0  0  0  0  0  0
   18.2999   18.5522   22.3374 H   0  0  0  0  0  0  0  0  0  0  0  0
   19.7068   18.9808   23.3057 H   0  0  0  0  0  0  0  0  0  0  0  0
   20.0608   19.0019   21.1563 C   0  0  0  0  0  0  0  0  0  0  0  0
   19.7619   18.4077   20.2890 H   0  0  0  0  0  0  0  0  0  0  0  0
   21.1473   18.9382   21.2521 H   0  0  0  0  0  0  0  0  0  0  0  0
   19.7036   20.4490   20.8585 N   0  3  0  0  0  0  0  0  0  0  0  0
   18.6801   20.5583   20.7929 H   0  0  0  0  0  0  0  0  0  0  0  0
   20.0571   20.7067   19.9237 H   0  0  0  0  0  0  0  0  0  0  0  0
   20.2840   21.3900   21.9087 C   0  0  0  0  0  0  0  0  0  0  0  0
   20.0383   22.4200   21.6408 H   0  0  0  0  0  0  0  0  0  0  0  0
   19.8550   21.1534   22.8844 H   0  0  0  0  0  0  0  0  0  0  0  0
   21.3687   21.2672   21.9413 H   0  0  0  0  0  0  0  0  0  0  0  0
  1  2  1  0  0  0  0
  1  3  1  0  0  0  0
  1  4  1  0  0  0  0
  1  5  1  0  0  0  0
  5  6  1  0  0  0  0
  5  7  1  0  0  0  0
  5  8  1  0  0  0  0
  8  9  1  0  0  0  0
  8 10  1  0  0  0  0
  8 11  1  0  0  0  0
 11 12  1  0  0  0  0
 11 13  1  0  0  0  0
 11 14  1  0  0  0  0
 14 15  1  0  0  0  0
 14 16  1  0  0  0  0
 14 17  1  0  0  0  0
 17 18  1  0  0  0  0
 17 19  1  0  0  0  0
 17 20  1  0  0  0  0
M  END
> <VConfSearch Rank>
46

> <Conf_Id>
53

> <Delta U+W>
0.379

> <U+W>
15.717

> <U>
70.163

> <W>
-54.446

> <W(PB)>
-56.322

> <W(SA)>
1.876

> <Valence>
1.420

> <Coulomb>
68.566

> <VdW>
0.177

> <VdW6>
-4.267

> <VdW12>
4.445

> <Bond>
0.146

> <Angle>
0.581

> <Pdih>
0.693

> <Idih>
0.000

> <Tether>
0.000

$$$$
VeraChem MOL file


 20 19  0  0  0  0  0  0  0  0999 V2000     
   19.6180   16.2091   22.7726 C   0  0  0  0  0  0  0  0  0  0  0  0
   19.8496   15.2861   22.2254 H   0  0  0  0  0  0  0  0  0  0  0  0
   19.8689   16.0455   23.8287 H   0  0  0  0  0  0  0  0  0  0  0  0
   18.5359   16.3797   22.7011 H   0  0  0  0  0  0  0  0  0  0  0  0
   20.4082   17.4012   22.1909 C   0  0  0  0  0  0  0  0  0  0  0  0
   20.1610   17.5097   21.1261 H   0  0  0  0  0  0  0  0  0  0  0  0
   21.4849   17.1871   22.2474 H   0  0  0  0  0  0  0  0  0  0  0  0
   20.0978   18.7161   22.9440 C   0  0  0  0  0  0  0  0  0  0  0  0
   19.0279   18.9491   22.8677 H   0  0  0  0  0  0  0  0  0  0  0  0
   20.3075   18.5800   24.0132 H   0  0  0  0  0  0  0  0  0  0  0  0
   20.9329   19.9117   22.4343 C   0  0  0  0  0  0  0  0  0  0  0  0
   21.9938   19.6870   22.5705 H   0  0  0  0  0  0  0  0  0  0  0  0
   20.6999   20.7987   23.0289 H   0  0  0  0  0  0  0  0  0  0  0  0
   20.7290   20.2728   20.9706 N   0  3  0  0  0  0  0  0  0  0  0  0
   20.9357   19.4602   20.3715 H   0  0  0  0  0  0  0  0  0  0  0  0
   21.4180   20.9894   20.6929 H   0  0  0  0  0  0  0  0  0  0  0  0
   19.3160   20.7870   20.7178 C   0  0  0  0  0  0  0  0  0  0  0  0
   19.1320   21.6581   21.3504 H   0  0  0  0  0  0  0  0  0  0  0  0
   19.2202   21.0687   19.6669 H   0  0  0  0  0  0  0  0  0  0  0  0
   18.5969   19.9999   20.9530 H   0  0  0  0  0  0  0  0  0  0  0  0
  1  2  1  0  0  0  0
  1  3  1  0  0  0  0
  1  4  1  0  0  0  0
  1  5  1  0  0  0  0
  5  6  1  0  0  0  0
  5  7  1  0  0  0  0
  5  8  1  0  0  0  0
  8  9  1  0  0  0  0
  8 10  1  0  0  0  0
  8 11  1  0  0  0  0
 11 12  1  0  0  0  0
 11 13  1  0  0  0  0
 11 14  1  0  0  0  0
 14 15  1  0  0  0  0
 14 16  1  0  0  0  0
 14 17  1  0  0  0  0
 17 18  1  0  0  0  0
 17 19  1  0  0  0  0
 17 20  1  0  0  0  0
M  END
> <VConfSearch Rank>
47

> <Conf_Id>
49

> <Delta U+W>
0.268

> <U+W>
15.607

> <U>
70.298

> <W>
-54.692

> <W(PB)>
-56.576

> <W(SA)>
1.885

> <Valence>
1.245

> <Coulomb>
68.933

> <VdW>
0.120

> <VdW6>
-4.430

> <VdW12>
4.550

> <Bond>
0.148

> <Angle>
0.587

> <Pdih>
0.509

> <Idih>
0.000

> <Tether>
0.000

$$$$
VeraChem MOL file


 20 19  0  0  0  0  0  0  0  0999 V2000     
   17.5496   18.3773   20.8290 C   0  0  0  0  0  0  0  0  0  0  0  0
   17.5610   19.1244   20.0246 H   0  0  0  0  0  0  0  0  0  0  0  0
   17.4795   17.3825   20.3703 H   0  0  0  0  0  0  0  0  0  0  0  0
   16.6408   18.5375   21.4236 H   0  0  0  0  0  0  0  0  0  0  0  0
   18.8088   18.4949   21.7149 C   0  0  0  0  0  0  0  0  0  0  0  0
   18.7554   17.7549   22.5257 H   0  0  0  0  0  0  0  0  0  0  0  0
   18.8199   19.4873   22.1845 H   0  0  0  0  0  0  0  0  0  0  0  0
   20.1052   18.2841   20.8984 C   0  0  0  0  0  0  0  0  0  0  0  0
   20.0288   17.3404   20.3423 H   0  0  0  0  0  0  0  0  0  0  0  0
   20.2033   19.0776   20.1459 H   0  0  0  0  0  0  0  0  0  0  0  0
   21.3900   18.2280   21.7557 C   0  0  0  0  0  0  0  0  0  0  0  0
   22.2297   18.0122   21.0900 H   0  0  0  0  0  0  0  0  0  0  0  0
   21.3267   17.4145   22.4826 H   0  0  0  0  0  0  0  0  0  0  0  0
   21.7400   19.5070   22.5006 N   0  3  0  0  0  0  0  0  0  0  0  0
   21.4396   20.3319   21.9601 H   0  0  0  0  0  0  0  0  0  0  0  0
   22.7664   19.5933   22.5647 H   0  0  0  0  0  0  0  0  0  0  0  0
   21.1475   19.5137   23.9061 C   0  0  0  0  0  0  0  0  0  0  0  0
   21.4409   20.4357   24.4127 H   0  0  0  0  0  0  0  0  0  0  0  0
   20.0598   19.4583   23.8489 H   0  0  0  0  0  0  0  0  0  0  0  0
   21.5305   18.6539   24.4599 H   0  0  0  0  0  0  0  0  0  0  0  0
  1  2  1  0  0  0  0
  1  3  1  0  0  0  0
  1  4  1  0  0  0  0
  1  5  1  0  0  0  0
  5  6  1  0  0  0  0
  5  7  1  0  0  0  0
  5  8  1  0  0  0  0
  8  9  1  0  0  0  0
  8 10  1  0  0  0  0
  8 11  1  0  0  0  0
 11 12  1  0  0  0  0
 11 13  1  0  0  0  0
 11 14  1  0  0  0  0
 14 15  1  0  0  0  0
 14 16  1  0  0  0  0
 14 17  1  0  0  0  0
 17 18  1  0  0  0  0
 17 19  1  0  0  0  0
 17 20  1  0  0  0  0
M  END
> <VConfSearch Rank>
48

> <Conf_Id>
65

> <Delta U+W>
1.775

> <U+W>
17.114

> <U>
71.726

> <W>
-54.613

> <W(PB)>
-56.495

> <W(SA)>
1.883

> <Valence>
2.885

> <Coulomb>
68.822

> <VdW>
0.019

> <VdW6>
-4.600

> <VdW12>
4.619

> <Bond>
0.152

> <Angle>
0.862

> <Pdih>
1.871

> <Idih>
0.000

> <Tether>
0.000

$$$$
VeraChem MOL file


 20 19  0  0  0  0  0  0  0  0999 V2000     
   19.1652   16.6969   21.2609 C   0  0  0  0  0  0  0  0  0  0  0  0
   19.0010   16.9550   22.3146 H   0  0  0  0  0  0  0  0  0  0  0  0
   18.2299   16.2705   20.8754 H   0  0  0  0  0  0  0  0  0  0  0  0
   19.9331   15.9138   21.2156 H   0  0  0  0  0  0  0  0  0  0  0  0
   19.5812   17.9321   20.4294 C   0  0  0  0  0  0  0  0  0  0  0  0
   18.7976   18.6995   20.4899 H   0  0  0  0  0  0  0  0  0  0  0  0
   19.6424   17.6453   19.3702 H   0  0  0  0  0  0  0  0  0  0  0  0
   20.9443   18.5259   20.8645 C   0  0  0  0  0  0  0  0  0  0  0  0
   21.7322   17.7789   20.7001 H   0  0  0  0  0  0  0  0  0  0  0  0
   21.1931   19.3790   20.2195 H   0  0  0  0  0  0  0  0  0  0  0  0
   20.9914   18.9747   22.3400 C   0  0  0  0  0  0  0  0  0  0  0  0
   21.9911   19.3500   22.5728 H   0  0  0  0  0  0  0  0  0  0  0  0
   20.7904   18.1206   22.9910 H   0  0  0  0  0  0  0  0  0  0  0  0
   19.9982   20.0685   22.6834 N   0  3  0  0  0  0  0  0  0  0  0  0
   19.0400   19.7541   22.4700 H   0  0  0  0  0  0  0  0  0  0  0  0
   20.1573   20.8937   22.0854 H   0  0  0  0  0  0  0  0  0  0  0  0
   20.1229   20.4413   24.1544 C   0  0  0  0  0  0  0  0  0  0  0  0
   21.1355   20.8005   24.3499 H   0  0  0  0  0  0  0  0  0  0  0  0
   19.4019   21.2280   24.3876 H   0  0  0  0  0  0  0  0  0  0  0  0
   19.9183   19.5609   24.7675 H   0  0  0  0  0  0  0  0  0  0  0  0
  1  2  1  0  0  0  0
  1  3  1  0  0  0  0
  1  4  1  0  0  0  0
  1  5  1  0  0  0  0
  5  6  1  0  0  0  0
  5  7  1  0  0  0  0
  5  8  1  0  0  0  0
  8  9  1  0  0  0  0
  8 10  1  0  0  0  0
  8 11  1  0  0  0  0
 11 12  1  0  0  0  0
 11 13  1  0  0  0  0
 11 14  1  0  0  0  0
 14 15  1  0  0  0  0
 14 16  1  0  0  0  0
 14 17  1  0  0  0  0
 17 18  1  0  0  0  0
 17 19  1  0  0  0  0
 17 20  1  0  0  0  0
M  END
> <VConfSearch Rank>
49

> <Conf_Id>
23

> <Delta U+W>
0.896

> <U+W>
16.234

> <U>
70.374

> <W>
-54.140

> <W(PB)>
-56.046

> <W(SA)>
1.907

> <Valence>
1.257

> <Coulomb>
69.240

> <VdW>
-0.123

> <VdW6>
-4.336

> <VdW12>
4.213

> <Bond>
0.128

> <Angle>
0.603

> <Pdih>
0.526

> <Idih>
0.000

> <Tether>
0.000

$$$$
VeraChem MOL file


 20 19  0  0  0  0  0  0  0  0999 V2000     
   19.2185   16.6163   22.4392 C   0  0  0  0  0  0  0  0  0  0  0  0
   19.8759   16.0371   23.1005 H   0  0  0  0  0  0  0  0  0  0  0  0
   18.3275   16.0077   22.2371 H   0  0  0  0  0  0  0  0  0  0  0  0
   19.7392   16.7669   21.4851 H   0  0  0  0  0  0  0  0  0  0  0  0
   18.8205   17.9610   23.0899 C   0  0  0  0  0  0  0  0  0  0  0  0
   18.2230   17.7590   23.9900 H   0  0  0  0  0  0  0  0  0  0  0  0
   18.1634   18.5205   22.4103 H   0  0  0  0  0  0  0  0  0  0  0  0
   20.0412   18.8286   23.4865 C   0  0  0  0  0  0  0  0  0  0  0  0
   19.6917   19.7525   23.9659 H   0  0  0  0  0  0  0  0  0  0  0  0
   20.6315   18.2960   24.2439 H   0  0  0  0  0  0  0  0  0  0  0  0
   20.9659   19.1885   22.3049 C   0  0  0  0  0  0  0  0  0  0  0  0
   21.3553   18.2743   21.8506 H   0  0  0  0  0  0  0  0  0  0  0  0
   21.8139   19.7715   22.6731 H   0  0  0  0  0  0  0  0  0  0  0  0
   20.2883   19.9995   21.2169 N   0  3  0  0  0  0  0  0  0  0  0  0
   19.9058   20.8729   21.6104 H   0  0  0  0  0  0  0  0  0  0  0  0
   19.4754   19.4843   20.8478 H   0  0  0  0  0  0  0  0  0  0  0  0
   21.2790   20.3039   20.1014 C   0  0  0  0  0  0  0  0  0  0  0  0
   21.6448   19.3656   19.6789 H   0  0  0  0  0  0  0  0  0  0  0  0
   20.7778   20.8865   19.3253 H   0  0  0  0  0  0  0  0  0  0  0  0
   22.1150   20.8763   20.5091 H   0  0  0  0  0  0  0  0  0  0  0  0
  1  2  1  0  0  0  0
  1  3  1  0  0  0  0
  1  4  1  0  0  0  0
  1  5  1  0  0  0  0
  5  6  1  0  0  0  0
  5  7  1  0  0  0  0
  5  8  1  0  0  0  0
  8  9  1  0  0  0  0
  8 10  1  0  0  0  0
  8 11  1  0  0  0  0
 11 12  1  0  0  0  0
 11 13  1  0  0  0  0
 11 14  1  0  0  0  0
 14 15  1  0  0  0  0
 14 16  1  0  0  0  0
 14 17  1  0  0  0  0
 17 18  1  0  0  0  0
 17 19  1  0  0  0  0
 17 20  1  0  0  0  0
M  END
> <VConfSearch Rank>
50

> <Conf_Id>
24

> <Delta U+W>
0.792

> <U+W>
16.130

> <U>
70.374

> <W>
-54.243

> <W(PB)>
-56.130

> <W(SA)>
1.887

> <Valence>
1.257

> <Coulomb>
69.240

> <VdW>
-0.123

> <VdW6>
-4.336

> <VdW12>
4.213

> <Bond>
0.128

> <Angle>
0.603

> <Pdih>
0.526

> <Idih>
0.000

> <Tether>
0.000

$$$$
VeraChem MOL file


 20 19  0  0  0  0  0  0  0  0999 V2000     
   22.0747   18.2783   21.7591 C   0  0  0  0  0  0  0  0  0  0  0  0
   23.1693   18.2748   21.8428 H   0  0  0  0  0  0  0  0  0  0  0  0
   21.6756   18.0919   22.7632 H   0  0  0  0  0  0  0  0  0  0  0  0
   21.7893   17.4462   21.1024 H   0  0  0  0  0  0  0  0  0  0  0  0
   21.5858   19.6323   21.1959 C   0  0  0  0  0  0  0  0  0  0  0  0
   22.1724   19.8706   20.2975 H   0  0  0  0  0  0  0  0  0  0  0  0
   21.8034   20.4296   21.9206 H   0  0  0  0  0  0  0  0  0  0  0  0
   20.0822   19.6662   20.8205 C   0  0  0  0  0  0  0  0  0  0  0  0
   19.8681   20.6450   20.3711 H   0  0  0  0  0  0  0  0  0  0  0  0
   19.8660   18.9235   20.0412 H   0  0  0  0  0  0  0  0  0  0  0  0
   19.1218   19.4751   22.0136 C   0  0  0  0  0  0  0  0  0  0  0  0
   18.1393   19.8739   21.7486 H   0  0  0  0  0  0  0  0  0  0  0  0
   19.4916   20.0318   22.8782 H   0  0  0  0  0  0  0  0  0  0  0  0
   18.9154   18.0297   22.4252 N   0  3  0  0  0  0  0  0  0  0  0  0
   19.8227   17.5901   22.6352 H   0  0  0  0  0  0  0  0  0  0  0  0
   18.5244   17.4895   21.6383 H   0  0  0  0  0  0  0  0  0  0  0  0
   17.9919   17.9588   23.6337 C   0  0  0  0  0  0  0  0  0  0  0  0
   18.4412   18.5095   24.4629 H   0  0  0  0  0  0  0  0  0  0  0  0
   17.0274   18.4016   23.3757 H   0  0  0  0  0  0  0  0  0  0  0  0
   17.8526   16.9136   23.9183 H   0  0  0  0  0  0  0  0  0  0  0  0
  1  2  1  0  0  0  0
  1  3  1  0  0  0  0
  1  4  1  0  0  0  0
  1  5  1  0  0  0  0
  5  6  1  0  0  0  0
  5  7  1  0  0  0  0
  5  8  1  0  0  0  0
  8  9  1  0  0  0  0
  8 10  1  0  0  0  0
  8 11  1  0  0  0  0
 11 12  1  0  0  0  0
 11 13  1  0  0  0  0
 11 14  1  0  0  0  0
 14 15  1  0  0  0  0
 14 16  1  0  0  0  0
 14 17  1  0  0  0  0
 17 18  1  0  0  0  0
 17 19  1  0  0  0  0
 17 20  1  0  0  0  0
M  END
> <VConfSearch Rank>
51

> <Conf_Id>
26

> <Delta U+W>
2.888

> <U+W>
18.226

> <U>
72.042

> <W>
-53.816

> <W(PB)>
-55.689

> <W(SA)>
1.873

> <Valence>
2.428

> <Coulomb>
69.829

> <VdW>
-0.215

> <VdW6>
-4.563

> <VdW12>
4.348

> <Bond>
0.137

> <Angle>
0.936

> <Pdih>
1.356

> <Idih>
0.000

> <Tether>
0.000

$$$$
VeraChem MOL file


 20 19  0  0  0  0  0  0  0  0999 V2000     
   22.1263   19.4687   21.5145 C   0  0  0  0  0  0  0  0  0  0  0  0
   23.1880   19.4224   21.2389 H   0  0  0  0  0  0  0  0  0  0  0  0
   21.8682   20.5251   21.6648 H   0  0  0  0  0  0  0  0  0  0  0  0
   22.0190   18.9373   22.4675 H   0  0  0  0  0  0  0  0  0  0  0  0
   21.2579   18.8297   20.4069 C   0  0  0  0  0  0  0  0  0  0  0  0
   21.4743   17.7537   20.3478 H   0  0  0  0  0  0  0  0  0  0  0  0
   21.5580   19.2532   19.4381 H   0  0  0  0  0  0  0  0  0  0  0  0
   19.7328   19.0450   20.5824 C   0  0  0  0  0  0  0  0  0  0  0  0
   19.4940   20.1167   20.5676 H   0  0  0  0  0  0  0  0  0  0  0  0
   19.2277   18.6120   19.7088 H   0  0  0  0  0  0  0  0  0  0  0  0
   19.1365   18.3882   21.8454 C   0  0  0  0  0  0  0  0  0  0  0  0
   19.5788   17.3995   21.9913 H   0  0  0  0  0  0  0  0  0  0  0  0
   18.0598   18.2607   21.7073 H   0  0  0  0  0  0  0  0  0  0  0  0
   19.3264   19.1920   23.1177 N   0  3  0  0  0  0  0  0  0  0  0  0
   18.8789   20.1166   23.0229 H   0  0  0  0  0  0  0  0  0  0  0  0
   20.3269   19.3860   23.2660 H   0  0  0  0  0  0  0  0  0  0  0  0
   18.7446   18.4354   24.3040 C   0  0  0  0  0  0  0  0  0  0  0  0
   19.2554   17.4753   24.4042 H   0  0  0  0  0  0  0  0  0  0  0  0
   18.8884   19.0256   25.2117 H   0  0  0  0  0  0  0  0  0  0  0  0
   17.6779   18.2707   24.1373 H   0  0  0  0  0  0  0  0  0  0  0  0
  1  2  1  0  0  0  0
  1  3  1  0  0  0  0
  1  4  1  0  0  0  0
  1  5  1  0  0  0  0
  5  6  1  0  0  0  0
  5  7  1  0  0  0  0
  5  8  1  0  0  0  0
  8  9  1  0  0  0  0
  8 10  1  0  0  0  0
  8 11  1  0  0  0  0
 11 12  1  0  0  0  0
 11 13  1  0  0  0  0
 11 14  1  0  0  0  0
 14 15  1  0  0  0  0
 14 16  1  0  0  0  0
 14 17  1  0  0  0  0
 17 18  1  0  0  0  0
 17 19  1  0  0  0  0
 17 20  1  0  0  0  0
M  END
> <VConfSearch Rank>
52

> <Conf_Id>
5

> <Delta U+W>
2.950

> <U+W>
18.289

> <U>
72.042

> <W>
-53.753

> <W(PB)>
-55.644

> <W(SA)>
1.891

> <Valence>
2.428

> <Coulomb>
69.829

> <VdW>
-0.215

> <VdW6>
-4.563

> <VdW12>
4.348

> <Bond>
0.137

> <Angle>
0.936

> <Pdih>
1.356

> <Idih>
0.000

> <Tether>
0.000

$$$$
VeraChem MOL file


 20 19  0  0  0  0  0  0  0  0999 V2000     
   20.5341   19.2144   24.3830 C   0  0  0  0  0  0  0  0  0  0  0  0
   20.9569   20.2056   24.5925 H   0  0  0  0  0  0  0  0  0  0  0  0
   19.4518   19.3269   24.2428 H   0  0  0  0  0  0  0  0  0  0  0  0
   20.6894   18.5901   25.2725 H   0  0  0  0  0  0  0  0  0  0  0  0
   21.2061   18.5738   23.1468 C   0  0  0  0  0  0  0  0  0  0  0  0
   20.7702   17.5831   22.9594 H   0  0  0  0  0  0  0  0  0  0  0  0
   22.2686   18.4001   23.3678 H   0  0  0  0  0  0  0  0  0  0  0  0
   21.0984   19.4507   21.8745 C   0  0  0  0  0  0  0  0  0  0  0  0
   21.6216   20.4007   22.0457 H   0  0  0  0  0  0  0  0  0  0  0  0
   21.6280   18.9598   21.0479 H   0  0  0  0  0  0  0  0  0  0  0  0
   19.6460   19.7601   21.4451 C   0  0  0  0  0  0  0  0  0  0  0  0
   19.6552   20.3775   20.5434 H   0  0  0  0  0  0  0  0  0  0  0  0
   19.1555   20.3323   22.2363 H   0  0  0  0  0  0  0  0  0  0  0  0
   18.7810   18.5415   21.1619 N   0  3  0  0  0  0  0  0  0  0  0  0
   17.8022   18.8370   21.0216 H   0  0  0  0  0  0  0  0  0  0  0  0
   18.7585   17.9254   21.9878 H   0  0  0  0  0  0  0  0  0  0  0  0
   19.2759   17.7846   19.9345 C   0  0  0  0  0  0  0  0  0  0  0  0
   20.2897   17.4229   20.1168 H   0  0  0  0  0  0  0  0  0  0  0  0
   18.6130   16.9374   19.7450 H   0  0  0  0  0  0  0  0  0  0  0  0
   19.2712   18.4553   19.0727 H   0  0  0  0  0  0  0  0  0  0  0  0
  1  2  1  0  0  0  0
  1  3  1  0  0  0  0
  1  4  1  0  0  0  0
  1  5  1  0  0  0  0
  5  6  1  0  0  0  0
  5  7  1  0  0  0  0
  5  8  1  0  0  0  0
  8  9  1  0  0  0  0
  8 10  1  0  0  0  0
  8 11  1  0  0  0  0
 11 12  1  0  0  0  0
 11 13  1  0  0  0  0
 11 14  1  0  0  0  0
 14 15  1  0  0  0  0
 14 16  1  0  0  0  0
 14 17  1  0  0  0  0
 17 18  1  0  0  0  0
 17 19  1  0  0  0  0
 17 20  1  0  0  0  0
M  END
> <VConfSearch Rank>
53

> <Conf_Id>
52

> <Delta U+W>
0.784

> <U+W>
16.122

> <U>
70.777

> <W>
-54.655

> <W(PB)>
-56.491

> <W(SA)>
1.836

> <Valence>
1.529

> <Coulomb>
69.166

> <VdW>
0.082

> <VdW6>
-5.166

> <VdW12>
5.248

> <Bond>
0.171

> <Angle>
0.752

> <Pdih>
0.605

> <Idih>
0.000

> <Tether>
0.000

$$$$
VeraChem MOL file


 20 19  0  0  0  0  0  0  0  0999 V2000     
   19.3151   17.1523   21.1308 C   0  0  0  0  0  0  0  0  0  0  0  0
   18.8625   16.3464   20.5384 H   0  0  0  0  0  0  0  0  0  0  0  0
   20.3677   17.2164   20.8325 H   0  0  0  0  0  0  0  0  0  0  0  0
   19.2625   16.8583   22.1873 H   0  0  0  0  0  0  0  0  0  0  0  0
   18.5705   18.4835   20.8802 C   0  0  0  0  0  0  0  0  0  0  0  0
   17.4904   18.3012   20.9700 H   0  0  0  0  0  0  0  0  0  0  0  0
   18.7380   18.8087   19.8438 H   0  0  0  0  0  0  0  0  0  0  0  0
   18.9531   19.6261   21.8554 C   0  0  0  0  0  0  0  0  0  0  0  0
   18.2990   20.4821   21.6432 H   0  0  0  0  0  0  0  0  0  0  0  0
   18.7318   19.3329   22.8893 H   0  0  0  0  0  0  0  0  0  0  0  0
   20.4153   20.1143   21.7322 C   0  0  0  0  0  0  0  0  0  0  0  0
   20.5037   21.1035   22.1885 H   0  0  0  0  0  0  0  0  0  0  0  0
   20.6707   20.2117   20.6740 H   0  0  0  0  0  0  0  0  0  0  0  0
   21.4648   19.2292   22.3862 N   0  3  0  0  0  0  0  0  0  0  0  0
   22.4057   19.5319   22.0890 H   0  0  0  0  0  0  0  0  0  0  0  0
   21.3720   18.2618   22.0467 H   0  0  0  0  0  0  0  0  0  0  0  0
   21.3616   19.2802   23.9065 C   0  0  0  0  0  0  0  0  0  0  0  0
   21.4784   20.3135   24.2401 H   0  0  0  0  0  0  0  0  0  0  0  0
   20.3873   18.8986   24.2175 H   0  0  0  0  0  0  0  0  0  0  0  0
   22.1517   18.6627   24.3395 H   0  0  0  0  0  0  0  0  0  0  0  0
  1  2  1  0  0  0  0
  1  3  1  0  0  0  0
  1  4  1  0  0  0  0
  1  5  1  0  0  0  0
  5  6  1  0  0  0  0
  5  7  1  0  0  0  0
  5  8  1  0  0  0  0
  8  9  1  0  0  0  0
  8 10  1  0  0  0  0
  8 11  1  0  0  0  0
 11 12  1  0  0  0  0
 11 13  1  0  0  0  0
 11 14  1  0  0  0  0
 14 15  1  0  0  0  0
 14 16  1  0  0  0  0
 14 17  1  0  0  0  0
 17 18  1  0  0  0  0
 17 19  1  0  0  0  0
 17 20  1  0  0  0  0
M  END
> <VConfSearch Rank>
54

> <Conf_Id>
55

> <Delta U+W>
2.745

> <U+W>
18.083

> <U>
72.490

> <W>
-54.407

> <W(PB)>
-56.269

> <W(SA)>
1.861

> <Valence>
2.738

> <Coulomb>
69.795

> <VdW>
-0.043

> <VdW6>
-5.333

> <VdW12>
5.290

> <Bond>
0.182

> <Angle>
1.135

> <Pdih>
1.422

> <Idih>
0.000

> <Tether>
0.000

$$$$
VeraChem MOL file


 20 19  0  0  0  0  0  0  0  0999 V2000     
   20.2446   19.4610   20.0405 C   0  0  0  0  0  0  0  0  0  0  0  0
   20.5279   19.8952   19.0729 H   0  0  0  0  0  0  0  0  0  0  0  0
   19.9549   18.4168   19.8646 H   0  0  0  0  0  0  0  0  0  0  0  0
   19.3696   20.0165   20.3968 H   0  0  0  0  0  0  0  0  0  0  0  0
   21.4235   19.5570   21.0357 C   0  0  0  0  0  0  0  0  0  0  0  0
   21.6135   20.6118   21.2795 H   0  0  0  0  0  0  0  0  0  0  0  0
   22.3322   19.1929   20.5361 H   0  0  0  0  0  0  0  0  0  0  0  0
   21.2286   18.7450   22.3417 C   0  0  0  0  0  0  0  0  0  0  0  0
   21.0987   17.6802   22.1109 H   0  0  0  0  0  0  0  0  0  0  0  0
   22.1589   18.8119   22.9210 H   0  0  0  0  0  0  0  0  0  0  0  0
   20.0789   19.2472   23.2459 C   0  0  0  0  0  0  0  0  0  0  0  0
   20.1184   20.3381   23.3001 H   0  0  0  0  0  0  0  0  0  0  0  0
   20.2207   18.8581   24.2573 H   0  0  0  0  0  0  0  0  0  0  0  0
   18.6760   18.8520   22.8117 N   0  3  0  0  0  0  0  0  0  0  0  0
   18.5187   19.1277   21.8324 H   0  0  0  0  0  0  0  0  0  0  0  0
   17.9821   19.3855   23.3585 H   0  0  0  0  0  0  0  0  0  0  0  0
   18.4406   17.3570   22.9962 C   0  0  0  0  0  0  0  0  0  0  0  0
   19.1359   16.7992   22.3660 H   0  0  0  0  0  0  0  0  0  0  0  0
   18.5992   17.0950   24.0445 H   0  0  0  0  0  0  0  0  0  0  0  0
   17.4142   17.1184   22.7089 H   0  0  0  0  0  0  0  0  0  0  0  0
  1  2  1  0  0  0  0
  1  3  1  0  0  0  0
  1  4  1  0  0  0  0
  1  5  1  0  0  0  0
  5  6  1  0  0  0  0
  5  7  1  0  0  0  0
  5  8  1  0  0  0  0
  8  9  1  0  0  0  0
  8 10  1  0  0  0  0
  8 11  1  0  0  0  0
 11 12  1  0  0  0  0
 11 13  1  0  0  0  0
 11 14  1  0  0  0  0
 14 15  1  0  0  0  0
 14 16  1  0  0  0  0
 14 17  1  0  0  0  0
 17 18  1  0  0  0  0
 17 19  1  0  0  0  0
 17 20  1  0  0  0  0
M  END
> <VConfSearch Rank>
55

> <Conf_Id>
76

> <Delta U+W>
2.799

> <U+W>
18.137

> <U>
72.490

> <W>
-54.353

> <W(PB)>
-56.201

> <W(SA)>
1.848

> <Valence>
2.738

> <Coulomb>
69.795

> <VdW>
-0.043

> <VdW6>
-5.334

> <VdW12>
5.290

> <Bond>
0.182

> <Angle>
1.135

> <Pdih>
1.421

> <Idih>
0.000

> <Tether>
0.000

$$$$
VeraChem MOL file


 20 19  0  0  0  0  0  0  0  0999 V2000     
   20.7852   20.1663   20.5774 C   0  0  0  0  0  0  0  0  0  0  0  0
   21.2578   20.2164   21.5660 H   0  0  0  0  0  0  0  0  0  0  0  0
   21.5355   19.8127   19.8585 H   0  0  0  0  0  0  0  0  0  0  0  0
   20.5043   21.1883   20.2920 H   0  0  0  0  0  0  0  0  0  0  0  0
   19.5443   19.2440   20.5827 C   0  0  0  0  0  0  0  0  0  0  0  0
   19.0684   19.2853   19.5929 H   0  0  0  0  0  0  0  0  0  0  0  0
   18.7948   19.6233   21.2892 H   0  0  0  0  0  0  0  0  0  0  0  0
   19.8853   17.7689   20.9070 C   0  0  0  0  0  0  0  0  0  0  0  0
   18.9708   17.1639   20.8517 H   0  0  0  0  0  0  0  0  0  0  0  0
   20.5494   17.3819   20.1228 H   0  0  0  0  0  0  0  0  0  0  0  0
   20.5658   17.5319   22.2757 C   0  0  0  0  0  0  0  0  0  0  0  0
   21.4757   18.1305   22.3611 H   0  0  0  0  0  0  0  0  0  0  0  0
   20.8578   16.4798   22.3254 H   0  0  0  0  0  0  0  0  0  0  0  0
   19.6974   17.7971   23.4966 N   0  3  0  0  0  0  0  0  0  0  0  0
   19.9806   17.1616   24.2586 H   0  0  0  0  0  0  0  0  0  0  0  0
   18.7162   17.5501   23.2997 H   0  0  0  0  0  0  0  0  0  0  0  0
   19.8225   19.2392   23.9759 C   0  0  0  0  0  0  0  0  0  0  0  0
   19.2073   19.3732   24.8683 H   0  0  0  0  0  0  0  0  0  0  0  0
   20.8673   19.4470   24.2166 H   0  0  0  0  0  0  0  0  0  0  0  0
   19.4835   19.9188   23.1934 H   0  0  0  0  0  0  0  0  0  0  0  0
  1  2  1  0  0  0  0
  1  3  1  0  0  0  0
  1  4  1  0  0  0  0
  1  5  1  0  0  0  0
  5  6  1  0  0  0  0
  5  7  1  0  0  0  0
  5  8  1  0  0  0  0
  8  9  1  0  0  0  0
  8 10  1  0  0  0  0
  8 11  1  0  0  0  0
 11 12  1  0  0  0  0
 11 13  1  0  0  0  0
 11 14  1  0  0  0  0
 14 15  1  0  0  0  0
 14 16  1  0  0  0  0
 14 17  1  0  0  0  0
 17 18  1  0  0  0  0
 17 19  1  0  0  0  0
 17 20  1  0  0  0  0
M  END
> <VConfSearch Rank>
56

> <Conf_Id>
60

> <Delta U+W>
1.788

> <U+W>
17.127

> <U>
72.122

> <W>
-54.995

> <W(PB)>
-56.810

> <W(SA)>
1.815

> <Valence>
3.197

> <Coulomb>
69.115

> <VdW>
-0.190

> <VdW6>
-5.585

> <VdW12>
5.395

> <Bond>
0.177

> <Angle>
1.207

> <Pdih>
1.813

> <Idih>
0.000

> <Tether>
0.000

$$$$
VeraChem MOL file


 20 19  0  0  0  0  0  0  0  0999 V2000     
   21.6548   17.8421   23.1868 C   0  0  0  0  0  0  0  0  0  0  0  0
   22.3118   16.9704   23.0709 H   0  0  0  0  0  0  0  0  0  0  0  0
   21.9682   18.3790   24.0914 H   0  0  0  0  0  0  0  0  0  0  0  0
   20.6357   17.4699   23.3474 H   0  0  0  0  0  0  0  0  0  0  0  0
   21.7407   18.7553   21.9421 C   0  0  0  0  0  0  0  0  0  0  0  0
   21.4462   18.1979   21.0435 H   0  0  0  0  0  0  0  0  0  0  0  0
   22.7901   19.0413   21.7846 H   0  0  0  0  0  0  0  0  0  0  0  0
   20.8911   20.0431   22.0739 C   0  0  0  0  0  0  0  0  0  0  0  0
   21.2791   20.6348   22.9135 H   0  0  0  0  0  0  0  0  0  0  0  0
   21.0308   20.6637   21.1790 H   0  0  0  0  0  0  0  0  0  0  0  0
   19.3778   19.8178   22.3012 C   0  0  0  0  0  0  0  0  0  0  0  0
   18.9210   20.7915   22.4955 H   0  0  0  0  0  0  0  0  0  0  0  0
   19.2104   19.1939   23.1823 H   0  0  0  0  0  0  0  0  0  0  0  0
   18.6199   19.2113   21.1296 N   0  3  0  0  0  0  0  0  0  0  0  0
   19.0176   19.5385   20.2367 H   0  0  0  0  0  0  0  0  0  0  0  0
   17.6512   19.5668   21.1318 H   0  0  0  0  0  0  0  0  0  0  0  0
   18.5936   17.6883   21.2018 C   0  0  0  0  0  0  0  0  0  0  0  0
   18.1251   17.3825   22.1396 H   0  0  0  0  0  0  0  0  0  0  0  0
   18.0152   17.3012   20.3600 H   0  0  0  0  0  0  0  0  0  0  0  0
   19.6111   17.2992   21.1552 H   0  0  0  0  0  0  0  0  0  0  0  0
  1  2  1  0  0  0  0
  1  3  1  0  0  0  0
  1  4  1  0  0  0  0
  1  5  1  0  0  0  0
  5  6  1  0  0  0  0
  5  7  1  0  0  0  0
  5  8  1  0  0  0  0
  8  9  1  0  0  0  0
  8 10  1  0  0  0  0
  8 11  1  0  0  0  0
 11 12  1  0  0  0  0
 11 13  1  0  0  0  0
 11 14  1  0  0  0  0
 14 15  1  0  0  0  0
 14 16  1  0  0  0  0
 14 17  1  0  0  0  0
 17 18  1  0  0  0  0
 17 19  1  0  0  0  0
 17 20  1  0  0  0  0
M  END
> <VConfSearch Rank>
57

> <Conf_Id>
54

> <Delta U+W>
1.880

> <U+W>
17.218

> <U>
72.122

> <W>
-54.903

> <W(PB)>
-56.724

> <W(SA)>
1.821

> <Valence>
3.197

> <Coulomb>
69.115

> <VdW>
-0.190

> <VdW6>
-5.585

> <VdW12>
5.395

> <Bond>
0.177

> <Angle>
1.207

> <Pdih>
1.813

> <Idih>
0.000

> <Tether>
0.000

$$$$
VeraChem MOL file


 20 19  0  0  0  0  0  0  0  0999 V2000     
   19.4156   15.9268   23.2468 C   0  0  0  0  0  0  0  0  0  0  0  0
   19.0487   16.2739   24.2215 H   0  0  0  0  0  0  0  0  0  0  0  0
   18.8211   15.0508   22.9565 H   0  0  0  0  0  0  0  0  0  0  0  0
   20.4565   15.6007   23.3701 H   0  0  0  0  0  0  0  0  0  0  0  0
   19.3036   17.0393   22.1819 C   0  0  0  0  0  0  0  0  0  0  0  0
   18.2481   17.3196   22.0562 H   0  0  0  0  0  0  0  0  0  0  0  0
   19.6450   16.6516   21.2116 H   0  0  0  0  0  0  0  0  0  0  0  0
   20.1311   18.2862   22.5644 C   0  0  0  0  0  0  0  0  0  0  0  0
   19.7871   18.6749   23.5321 H   0  0  0  0  0  0  0  0  0  0  0  0
   21.1859   18.0060   22.6865 H   0  0  0  0  0  0  0  0  0  0  0  0
   20.0144   19.3908   21.4977 C   0  0  0  0  0  0  0  0  0  0  0  0
   18.9674   19.6829   21.3847 H   0  0  0  0  0  0  0  0  0  0  0  0
   20.3707   19.0120   20.5364 H   0  0  0  0  0  0  0  0  0  0  0  0
   20.8116   20.6365   21.8312 N   0  3  0  0  0  0  0  0  0  0  0  0
   21.8082   20.4000   21.9538 H   0  0  0  0  0  0  0  0  0  0  0  0
   20.5088   21.0212   22.7392 H   0  0  0  0  0  0  0  0  0  0  0  0
   20.6410   21.6733   20.7288 C   0  0  0  0  0  0  0  0  0  0  0  0
   19.5841   21.9338   20.6402 H   0  0  0  0  0  0  0  0  0  0  0  0
   21.2198   22.5644   20.9817 H   0  0  0  0  0  0  0  0  0  0  0  0
   20.9995   21.2572   19.7848 H   0  0  0  0  0  0  0  0  0  0  0  0
  1  2  1  0  0  0  0
  1  3  1  0  0  0  0
  1  4  1  0  0  0  0
  1  5  1  0  0  0  0
  5  6  1  0  0  0  0
  5  7  1  0  0  0  0
  5  8  1  0  0  0  0
  8  9  1  0  0  0  0
  8 10  1  0  0  0  0
  8 11  1  0  0  0  0
 11 12  1  0  0  0  0
 11 13  1  0  0  0  0
 11 14  1  0  0  0  0
 14 15  1  0  0  0  0
 14 16  1  0  0  0  0
 14 17  1  0  0  0  0
 17 18  1  0  0  0  0
 17 19  1  0  0  0  0
 17 20  1  0  0  0  0
M  END
> <VConfSearch Rank>
58

> <Conf_Id>
67

> <Delta U+W>
0.000

> <U+W>
15.338

> <U>
69.277

> <W>
-53.939

> <W(PB)>
-55.889

> <W(SA)>
1.950

> <Valence>
0.846

> <Coulomb>
68.557

> <VdW>
-0.127

> <VdW6>
-3.008

> <VdW12>
2.882

> <Bond>
0.088

> <Angle>
0.332

> <Pdih>
0.426

> <Idih>
0.000

> <Tether>
0.000

$$$$
VeraChem MOL file


 20 19  0  0  0  0  0  0  0  0999 V2000     
   22.7068   17.8952   20.8991 C   0  0  0  0  0  0  0  0  0  0  0  0
   22.6700   17.0314   21.5756 H   0  0  0  0  0  0  0  0  0  0  0  0
   23.1878   17.5716   19.9669 H   0  0  0  0  0  0  0  0  0  0  0  0
   23.3450   18.6615   21.3581 H   0  0  0  0  0  0  0  0  0  0  0  0
   21.2908   18.4444   20.6204 C   0  0  0  0  0  0  0  0  0  0  0  0
   20.6875   17.6669   20.1306 H   0  0  0  0  0  0  0  0  0  0  0  0
   21.3574   19.2840   19.9141 H   0  0  0  0  0  0  0  0  0  0  0  0
   20.5891   18.9082   21.9158 C   0  0  0  0  0  0  0  0  0  0  0  0
   20.5249   18.0668   22.6178 H   0  0  0  0  0  0  0  0  0  0  0  0
   21.1901   19.6878   22.4022 H   0  0  0  0  0  0  0  0  0  0  0  0
   19.1763   19.4563   21.6269 C   0  0  0  0  0  0  0  0  0  0  0  0
   18.5564   18.6712   21.1868 H   0  0  0  0  0  0  0  0  0  0  0  0
   19.2534   20.2716   20.9030 H   0  0  0  0  0  0  0  0  0  0  0  0
   18.4475   20.0012   22.8446 N   0  3  0  0  0  0  0  0  0  0  0  0
   17.5912   20.4923   22.5432 H   0  0  0  0  0  0  0  0  0  0  0  0
   19.0175   20.7251   23.3081 H   0  0  0  0  0  0  0  0  0  0  0  0
   18.0877   18.8862   23.8208 C   0  0  0  0  0  0  0  0  0  0  0  0
   19.0021   18.4149   24.1863 H   0  0  0  0  0  0  0  0  0  0  0  0
   17.5339   19.3112   24.6608 H   0  0  0  0  0  0  0  0  0  0  0  0
   17.4686   18.1462   23.3090 H   0  0  0  0  0  0  0  0  0  0  0  0
  1  2  1  0  0  0  0
  1  3  1  0  0  0  0
  1  4  1  0  0  0  0
  1  5  1  0  0  0  0
  5  6  1  0  0  0  0
  5  7  1  0  0  0  0
  5  8  1  0  0  0  0
  8  9  1  0  0  0  0
  8 10  1  0  0  0  0
  8 11  1  0  0  0  0
 11 12  1  0  0  0  0
 11 13  1  0  0  0  0
 11 14  1  0  0  0  0
 14 15  1  0  0  0  0
 14 16  1  0  0  0  0
 14 17  1  0  0  0  0
 17 18  1  0  0  0  0
 17 19  1  0  0  0  0
 17 20  1  0  0  0  0
M  END
> <VConfSearch Rank>
59

> <Conf_Id>
37

> <Delta U+W>
-0.021

> <U+W>
15.318

> <U>
69.657

> <W>
-54.340

> <W(PB)>
-56.238

> <W(SA)>
1.899

> <Valence>
1.137

> <Coulomb>
68.383

> <VdW>
0.138

> <VdW6>
-3.703

> <VdW12>
3.841

> <Bond>
0.125

> <Angle>
0.468

> <Pdih>
0.543

> <Idih>
0.000

> <Tether>
0.000

$$$$
VeraChem MOL file


 20 19  0  0  0  0  0  0  0  0999 V2000     
   21.6484   18.6709   19.4814 C   0  0  0  0  0  0  0  0  0  0  0  0
   21.6321   18.9535   18.4208 H   0  0  0  0  0  0  0  0  0  0  0  0
   22.4391   19.2530   19.9723 H   0  0  0  0  0  0  0  0  0  0  0  0
   21.9187   17.6086   19.5420 H   0  0  0  0  0  0  0  0  0  0  0  0
   20.2754   18.9338   20.1372 C   0  0  0  0  0  0  0  0  0  0  0  0
   19.5008   18.3656   19.6029 H   0  0  0  0  0  0  0  0  0  0  0  0
   20.0173   19.9969   20.0305 H   0  0  0  0  0  0  0  0  0  0  0  0
   20.2685   18.5445   21.6319 C   0  0  0  0  0  0  0  0  0  0  0  0
   20.5222   17.4814   21.7375 H   0  0  0  0  0  0  0  0  0  0  0  0
   21.0432   19.1141   22.1612 H   0  0  0  0  0  0  0  0  0  0  0  0
   18.8927   18.8093   22.2776 C   0  0  0  0  0  0  0  0  0  0  0  0
   18.1283   18.2612   21.7208 H   0  0  0  0  0  0  0  0  0  0  0  0
   18.6543   19.8743   22.2198 H   0  0  0  0  0  0  0  0  0  0  0  0
   18.7838   18.3833   23.7328 N   0  3  0  0  0  0  0  0  0  0  0  0
   19.0337   17.3877   23.8334 H   0  0  0  0  0  0  0  0  0  0  0  0
   17.7990   18.4402   24.0362 H   0  0  0  0  0  0  0  0  0  0  0  0
   19.6535   19.2548   24.6326 C   0  0  0  0  0  0  0  0  0  0  0  0
   19.3535   20.2989   24.5205 H   0  0  0  0  0  0  0  0  0  0  0  0
   19.5190   18.9429   25.6707 H   0  0  0  0  0  0  0  0  0  0  0  0
   20.7010   19.1379   24.3482 H   0  0  0  0  0  0  0  0  0  0  0  0
  1  2  1  0  0  0  0
  1  3  1  0  0  0  0
  1  4  1  0  0  0  0
  1  5  1  0  0  0  0
  5  6  1  0  0  0  0
  5  7  1  0  0  0  0
  5  8  1  0  0  0  0
  8  9  1  0  0  0  0
  8 10  1  0  0  0  0
  8 11  1  0  0  0  0
 11 12  1  0  0  0  0
 11 13  1  0  0  0  0
 11 14  1  0  0  0  0
 14 15  1  0  0  0  0
 14 16  1  0  0  0  0
 14 17  1  0  0  0  0
 17 18  1  0  0  0  0
 17 19  1  0  0  0  0
 17 20  1  0  0  0  0
M  END
> <VConfSearch Rank>
60

> <Conf_Id>
2

> <Delta U+W>
0.069

> <U+W>
15.407

> <U>
69.657

> <W>
-54.250

> <W(PB)>
-56.176

> <W(SA)>
1.926

> <Valence>
1.137

> <Coulomb>
68.383

> <VdW>
0.138

> <VdW6>
-3.703

> <VdW12>
3.841

> <Bond>
0.125

> <Angle>
0.468

> <Pdih>
0.543

> <Idih>
0.000

> <Tether>
0.000

$$$$
VeraChem MOL file


 20 19  0  0  0  0  0  0  0  0999 V2000     
   17.9616   20.0132   23.1505 C   0  0  0  0  0  0  0  0  0  0  0  0
   17.6263   19.3447   22.3474 H   0  0  0  0  0  0  0  0  0  0  0  0
   17.9746   19.4429   24.0884 H   0  0  0  0  0  0  0  0  0  0  0  0
   17.2119   20.8085   23.2530 H   0  0  0  0  0  0  0  0  0  0  0  0
   19.3525   20.6154   22.8456 C   0  0  0  0  0  0  0  0  0  0  0  0
   19.6055   21.3464   23.6264 H   0  0  0  0  0  0  0  0  0  0  0  0
   19.3134   21.1748   21.9003 H   0  0  0  0  0  0  0  0  0  0  0  0
   20.4706   19.5491   22.7744 C   0  0  0  0  0  0  0  0  0  0  0  0
   21.4361   20.0529   22.6331 H   0  0  0  0  0  0  0  0  0  0  0  0
   20.5314   19.0150   23.7319 H   0  0  0  0  0  0  0  0  0  0  0  0
   20.2556   18.5387   21.6307 C   0  0  0  0  0  0  0  0  0  0  0  0
   20.1976   19.0703   20.6776 H   0  0  0  0  0  0  0  0  0  0  0  0
   19.3153   18.0038   21.7837 H   0  0  0  0  0  0  0  0  0  0  0  0
   21.3620   17.5078   21.5224 N   0  3  0  0  0  0  0  0  0  0  0  0
   21.4545   16.9896   22.4096 H   0  0  0  0  0  0  0  0  0  0  0  0
   22.2715   17.9740   21.3826 H   0  0  0  0  0  0  0  0  0  0  0  0
   21.0703   16.5515   20.3737 C   0  0  0  0  0  0  0  0  0  0  0  0
   21.0108   17.1168   19.4411 H   0  0  0  0  0  0  0  0  0  0  0  0
   21.8742   15.8151   20.3071 H   0  0  0  0  0  0  0  0  0  0  0  0
   20.1211   16.0444   20.5598 H   0  0  0  0  0  0  0  0  0  0  0  0
  1  2  1  0  0  0  0
  1  3  1  0  0  0  0
  1  4  1  0  0  0  0
  1  5  1  0  0  0  0
  5  6  1  0  0  0  0
  5  7  1  0  0  0  0
  5  8  1  0  0  0  0
  8  9  1  0  0  0  0
  8 10  1  0  0  0  0
  8 11  1  0  0  0  0
 11 12  1  0  0  0  0
 11 13  1  0  0  0  0
 11 14  1  0  0  0  0
 14 15  1  0  0  0  0
 14 16  1  0  0  0  0
 14 17  1  0  0  0  0
 17 18  1  0  0  0  0
 17 19  1  0  0  0  0
 17 20  1  0  0  0  0
M  END
> <VConfSearch Rank>
61

> <Conf_Id>
34

> <Delta U+W>
0.276

> <U+W>
15.615

> <U>
69.798

> <W>
-54.184

> <W(PB)>
-56.116

> <W(SA)>
1.933

> <Valence>
1.134

> <Coulomb>
68.735

> <VdW>
-0.070

> <VdW6>
-3.565

> <VdW12>
3.494

> <Bond>
0.108

> <Angle>
0.456

> <Pdih>
0.569

> <Idih>
0.000

> <Tether>
0.000

$$$$
VeraChem MOL file


 20 19  0  0  0  0  0  0  0  0999 V2000     
   18.0682   16.8367   23.2397 C   0  0  0  0  0  0  0  0  0  0  0  0
   17.9953   17.0360   24.3168 H   0  0  0  0  0  0  0  0  0  0  0  0
   17.0553   16.6392   22.8655 H   0  0  0  0  0  0  0  0  0  0  0  0
   18.6618   15.9238   23.1007 H   0  0  0  0  0  0  0  0  0  0  0  0
   18.7020   18.0311   22.4943 C   0  0  0  0  0  0  0  0  0  0  0  0
   18.0690   18.9201   22.6262 H   0  0  0  0  0  0  0  0  0  0  0  0
   18.7214   17.8126   21.4180 H   0  0  0  0  0  0  0  0  0  0  0  0
   20.1319   18.3300   23.0035 C   0  0  0  0  0  0  0  0  0  0  0  0
   20.1014   18.5077   24.0867 H   0  0  0  0  0  0  0  0  0  0  0  0
   20.7776   17.4553   22.8489 H   0  0  0  0  0  0  0  0  0  0  0  0
   20.7629   19.5628   22.3255 C   0  0  0  0  0  0  0  0  0  0  0  0
   21.7299   19.7744   22.7888 H   0  0  0  0  0  0  0  0  0  0  0  0
   20.1181   20.4329   22.4722 H   0  0  0  0  0  0  0  0  0  0  0  0
   20.9962   19.3980   20.8354 N   0  3  0  0  0  0  0  0  0  0  0  0
   20.1058   19.1979   20.3562 H   0  0  0  0  0  0  0  0  0  0  0  0
   21.5946   18.5767   20.6581 H   0  0  0  0  0  0  0  0  0  0  0  0
   21.6358   20.6577   20.2672 C   0  0  0  0  0  0  0  0  0  0  0  0
   20.9706   21.5071   20.4369 H   0  0  0  0  0  0  0  0  0  0  0  0
   22.5920   20.8318   20.7653 H   0  0  0  0  0  0  0  0  0  0  0  0
   21.7979   20.5256   19.1951 H   0  0  0  0  0  0  0  0  0  0  0  0
  1  2  1  0  0  0  0
  1  3  1  0  0  0  0
  1  4  1  0  0  0  0
  1  5  1  0  0  0  0
  5  6  1  0  0  0  0
  5  7  1  0  0  0  0
  5  8  1  0  0  0  0
  8  9  1  0  0  0  0
  8 10  1  0  0  0  0
  8 11  1  0  0  0  0
 11 12  1  0  0  0  0
 11 13  1  0  0  0  0
 11 14  1  0  0  0  0
 14 15  1  0  0  0  0
 14 16  1  0  0  0  0
 14 17  1  0  0  0  0
 17 18  1  0  0  0  0
 17 19  1  0  0  0  0
 17 20  1  0  0  0  0
M  END
> <VConfSearch Rank>
62

> <Conf_Id>
50

> <Delta U+W>
0.319

> <U+W>
15.657

> <U>
69.962

> <W>
-54.305

> <W(PB)>
-56.223

> <W(SA)>
1.918

> <Valence>
0.982

> <Coulomb>
69.058

> <VdW>
-0.078

> <VdW6>
-3.548

> <VdW12>
3.471

> <Bond>
0.105

> <Angle>
0.408

> <Pdih>
0.469

> <Idih>
0.000

> <Tether>
0.000

$$$$
VeraChem MOL file


 20 19  0  0  0  0  0  0  0  0999 V2000     
   17.1753   19.6932   22.3271 C   0  0  0  0  0  0  0  0  0  0  0  0
   16.8268   20.5063   22.9772 H   0  0  0  0  0  0  0  0  0  0  0  0
   16.7369   19.8472   21.3325 H   0  0  0  0  0  0  0  0  0  0  0  0
   16.7845   18.7498   22.7302 H   0  0  0  0  0  0  0  0  0  0  0  0
   18.7176   19.6722   22.2586 C   0  0  0  0  0  0  0  0  0  0  0  0
   19.1201   19.5571   23.2742 H   0  0  0  0  0  0  0  0  0  0  0  0
   19.0786   20.6398   21.8821 H   0  0  0  0  0  0  0  0  0  0  0  0
   19.2347   18.5335   21.3481 C   0  0  0  0  0  0  0  0  0  0  0  0
   18.9012   17.5611   21.7344 H   0  0  0  0  0  0  0  0  0  0  0  0
   18.7932   18.6398   20.3482 H   0  0  0  0  0  0  0  0  0  0  0  0
   20.7699   18.5324   21.2048 C   0  0  0  0  0  0  0  0  0  0  0  0
   21.1042   19.5019   20.8270 H   0  0  0  0  0  0  0  0  0  0  0  0
   21.0648   17.7663   20.4831 H   0  0  0  0  0  0  0  0  0  0  0  0
   21.5120   18.2519   22.4980 N   0  3  0  0  0  0  0  0  0  0  0  0
   21.2129   17.3460   22.8902 H   0  0  0  0  0  0  0  0  0  0  0  0
   21.2639   18.9549   23.2099 H   0  0  0  0  0  0  0  0  0  0  0  0
   23.0139   18.2555   22.2466 C   0  0  0  0  0  0  0  0  0  0  0  0
   23.5353   18.0527   23.1847 H   0  0  0  0  0  0  0  0  0  0  0  0
   23.2580   17.4820   21.5153 H   0  0  0  0  0  0  0  0  0  0  0  0
   23.3124   19.2337   21.8635 H   0  0  0  0  0  0  0  0  0  0  0  0
  1  2  1  0  0  0  0
  1  3  1  0  0  0  0
  1  4  1  0  0  0  0
  1  5  1  0  0  0  0
  5  6  1  0  0  0  0
  5  7  1  0  0  0  0
  5  8  1  0  0  0  0
  8  9  1  0  0  0  0
  8 10  1  0  0  0  0
  8 11  1  0  0  0  0
 11 12  1  0  0  0  0
 11 13  1  0  0  0  0
 11 14  1  0  0  0  0
 14 15  1  0  0  0  0
 14 16  1  0  0  0  0
 14 17  1  0  0  0  0
 17 18  1  0  0  0  0
 17 19  1  0  0  0  0
 17 20  1  0  0  0  0
M  END
> <VConfSearch Rank>
63

> <Conf_Id>
35

> <Delta U+W>
0.360

> <U+W>
15.698

> <U>
69.962

> <W>
-54.264

> <W(PB)>
-56.166

> <W(SA)>
1.902

> <Valence>
0.982

> <Coulomb>
69.058

> <VdW>
-0.078

> <VdW6>
-3.548

> <VdW12>
3.471

> <Bond>
0.105

> <Angle>
0.408

> <Pdih>
0.469

> <Idih>
0.000

> <Tether>
0.000

$$$$
VeraChem MOL file


 20 19  0  0  0  0  0  0  0  0999 V2000     
   19.6673   17.6645   19.6996 C   0  0  0  0  0  0  0  0  0  0  0  0
   18.9348   18.4808   19.7356 H   0  0  0  0  0  0  0  0  0  0  0  0
   19.8054   17.3902   18.6458 H   0  0  0  0  0  0  0  0  0  0  0  0
   19.2390   16.7967   20.2179 H   0  0  0  0  0  0  0  0  0  0  0  0
   21.0148   18.0815   20.3325 C   0  0  0  0  0  0  0  0  0  0  0  0
   21.4188   18.9538   19.7995 H   0  0  0  0  0  0  0  0  0  0  0  0
   21.7429   17.2701   20.1930 H   0  0  0  0  0  0  0  0  0  0  0  0
   20.9001   18.3998   21.8416 C   0  0  0  0  0  0  0  0  0  0  0  0
   20.5317   17.5132   22.3736 H   0  0  0  0  0  0  0  0  0  0  0  0
   21.9012   18.6120   22.2394 H   0  0  0  0  0  0  0  0  0  0  0  0
   19.9781   19.6054   22.1245 C   0  0  0  0  0  0  0  0  0  0  0  0
   18.9611   19.3817   21.7938 H   0  0  0  0  0  0  0  0  0  0  0  0
   20.3371   20.4671   21.5560 H   0  0  0  0  0  0  0  0  0  0  0  0
   19.9121   20.0221   23.5847 N   0  3  0  0  0  0  0  0  0  0  0  0
   19.4144   20.9227   23.6648 H   0  0  0  0  0  0  0  0  0  0  0  0
   20.8596   20.2112   23.9457 H   0  0  0  0  0  0  0  0  0  0  0  0
   19.2097   18.9656   24.4308 C   0  0  0  0  0  0  0  0  0  0  0  0
   19.7783   18.0344   24.3937 H   0  0  0  0  0  0  0  0  0  0  0  0
   19.1490   19.3166   25.4633 H   0  0  0  0  0  0  0  0  0  0  0  0
   18.2038   18.8014   24.0385 H   0  0  0  0  0  0  0  0  0  0  0  0
  1  2  1  0  0  0  0
  1  3  1  0  0  0  0
  1  4  1  0  0  0  0
  1  5  1  0  0  0  0
  5  6  1  0  0  0  0
  5  7  1  0  0  0  0
  5  8  1  0  0  0  0
  8  9  1  0  0  0  0
  8 10  1  0  0  0  0
  8 11  1  0  0  0  0
 11 12  1  0  0  0  0
 11 13  1  0  0  0  0
 11 14  1  0  0  0  0
 14 15  1  0  0  0  0
 14 16  1  0  0  0  0
 14 17  1  0  0  0  0
 17 18  1  0  0  0  0
 17 19  1  0  0  0  0
 17 20  1  0  0  0  0
M  END
> <VConfSearch Rank>
64

> <Conf_Id>
33

> <Delta U+W>
0.372

> <U+W>
15.711

> <U>
70.163

> <W>
-54.452

> <W(PB)>
-56.363

> <W(SA)>
1.911

> <Valence>
1.420

> <Coulomb>
68.566

> <VdW>
0.177

> <VdW6>
-4.267

> <VdW12>
4.445

> <Bond>
0.146

> <Angle>
0.581

> <Pdih>
0.693

> <Idih>
0.000

> <Tether>
0.000

$$$$
VeraChem MOL file


 20 19  0  0  0  0  0  0  0  0999 V2000     
   20.3856   21.2900   22.6765 C   0  0  0  0  0  0  0  0  0  0  0  0
   20.6643   22.1889   23.2417 H   0  0  0  0  0  0  0  0  0  0  0  0
   21.1400   21.1450   21.8930 H   0  0  0  0  0  0  0  0  0  0  0  0
   19.4206   21.4858   22.1912 H   0  0  0  0  0  0  0  0  0  0  0  0
   20.2980   20.0647   23.6153 C   0  0  0  0  0  0  0  0  0  0  0  0
   19.6001   20.2894   24.4341 H   0  0  0  0  0  0  0  0  0  0  0  0
   21.2765   19.8877   24.0836 H   0  0  0  0  0  0  0  0  0  0  0  0
   19.8269   18.7820   22.8910 C   0  0  0  0  0  0  0  0  0  0  0  0
   19.7141   17.9762   23.6282 H   0  0  0  0  0  0  0  0  0  0  0  0
   18.8332   18.9530   22.4575 H   0  0  0  0  0  0  0  0  0  0  0  0
   20.8107   18.3269   21.7917 C   0  0  0  0  0  0  0  0  0  0  0  0
   21.8022   18.2001   22.2339 H   0  0  0  0  0  0  0  0  0  0  0  0
   20.8817   19.0928   21.0157 H   0  0  0  0  0  0  0  0  0  0  0  0
   20.4438   17.0144   21.1187 N   0  3  0  0  0  0  0  0  0  0  0  0
   20.3345   16.2695   21.8235 H   0  0  0  0  0  0  0  0  0  0  0  0
   21.2262   16.7013   20.5227 H   0  0  0  0  0  0  0  0  0  0  0  0
   19.1789   17.1573   20.2791 C   0  0  0  0  0  0  0  0  0  0  0  0
   18.9693   16.2068   19.7835 H   0  0  0  0  0  0  0  0  0  0  0  0
   18.3418   17.4245   20.9270 H   0  0  0  0  0  0  0  0  0  0  0  0
   19.3310   17.9371   19.5298 H   0  0  0  0  0  0  0  0  0  0  0  0
  1  2  1  0  0  0  0
  1  3  1  0  0  0  0
  1  4  1  0  0  0  0
  1  5  1  0  0  0  0
  5  6  1  0  0  0  0
  5  7  1  0  0  0  0
  5  8  1  0  0  0  0
  8  9  1  0  0  0  0
  8 10  1  0  0  0  0
  8 11  1  0  0  0  0
 11 12  1  0  0  0  0
 11 13  1  0  0  0  0
 11 14  1  0  0  0  0
 14 15  1  0  0  0  0
 14 16  1  0  0  0  0
 14 17  1  0  0  0  0
 17 18  1  0  0  0  0
 17 19  1  0  0  0  0
 17 20  1  0  0  0  0
M  END
> <VConfSearch Rank>
65

> <Conf_Id>
53

> <Delta U+W>
0.379

> <U+W>
15.717

> <U>
70.163

> <W>
-54.446

> <W(PB)>
-56.322

> <W(SA)>
1.876

> <Valence>
1.420

> <Coulomb>
68.566

> <VdW>
0.177

> <VdW6>
-4.267

> <VdW12>
4.445

> <Bond>
0.146

> <Angle>
0.581

> <Pdih>
0.693

> <Idih>
0.000

> <Tether>
0.000

$$$$
VeraChem MOL file


 20 19  0  0  0  0  0  0  0  0999 V2000     
   19.0197   17.2604   19.9577 C   0  0  0  0  0  0  0  0  0  0  0  0
   18.2795   16.4558   20.0570 H   0  0  0  0  0  0  0  0  0  0  0  0
   18.7527   17.8553   19.0746 H   0  0  0  0  0  0  0  0  0  0  0  0
   19.9977   16.7967   19.7743 H   0  0  0  0  0  0  0  0  0  0  0  0
   19.0490   18.1348   21.2300 C   0  0  0  0  0  0  0  0  0  0  0  0
   19.2808   17.5000   22.0960 H   0  0  0  0  0  0  0  0  0  0  0  0
   18.0499   18.5585   21.4042 H   0  0  0  0  0  0  0  0  0  0  0  0
   20.0868   19.2762   21.1164 C   0  0  0  0  0  0  0  0  0  0  0  0
   21.0908   18.8578   20.9694 H   0  0  0  0  0  0  0  0  0  0  0  0
   19.8698   19.8763   20.2228 H   0  0  0  0  0  0  0  0  0  0  0  0
   20.0839   20.2149   22.3434 C   0  0  0  0  0  0  0  0  0  0  0  0
   19.0938   20.6673   22.4415 H   0  0  0  0  0  0  0  0  0  0  0  0
   20.8058   21.0206   22.1875 H   0  0  0  0  0  0  0  0  0  0  0  0
   20.4145   19.5521   23.6723 N   0  3  0  0  0  0  0  0  0  0  0  0
   19.7570   18.7807   23.8585 H   0  0  0  0  0  0  0  0  0  0  0  0
   20.2601   20.2238   24.4406 H   0  0  0  0  0  0  0  0  0  0  0  0
   21.8556   19.0547   23.7006 C   0  0  0  0  0  0  0  0  0  0  0  0
   22.5295   19.8949   23.5202 H   0  0  0  0  0  0  0  0  0  0  0  0
   22.0647   18.6191   24.6802 H   0  0  0  0  0  0  0  0  0  0  0  0
   21.9923   18.2972   22.9263 H   0  0  0  0  0  0  0  0  0  0  0  0
  1  2  1  0  0  0  0
  1  3  1  0  0  0  0
  1  4  1  0  0  0  0
  1  5  1  0  0  0  0
  5  6  1  0  0  0  0
  5  7  1  0  0  0  0
  5  8  1  0  0  0  0
  8  9  1  0  0  0  0
  8 10  1  0  0  0  0
  8 11  1  0  0  0  0
 11 12  1  0  0  0  0
 11 13  1  0  0  0  0
 11 14  1  0  0  0  0
 14 15  1  0  0  0  0
 14 16  1  0  0  0  0
 14 17  1  0  0  0  0
 17 18  1  0  0  0  0
 17 19  1  0  0  0  0
 17 20  1  0  0  0  0
M  END
> <VConfSearch Rank>
66

> <Conf_Id>
49

> <Delta U+W>
0.268

> <U+W>
15.607

> <U>
70.298

> <W>
-54.692

> <W(PB)>
-56.576

> <W(SA)>
1.885

> <Valence>
1.245

> <Coulomb>
68.933

> <VdW>
0.120

> <VdW6>
-4.430

> <VdW12>
4.550

> <Bond>
0.148

> <Angle>
0.587

> <Pdih>
0.509

> <Idih>
0.000

> <Tether>
0.000

$$$$
VeraChem MOL file


 20 19  0  0  0  0  0  0  0  0999 V2000     
   17.4362   18.9901   21.0729 C   0  0  0  0  0  0  0  0  0  0  0  0
   17.4232   18.2753   20.2397 H   0  0  0  0  0  0  0  0  0  0  0  0
   16.7316   18.6369   21.8370 H   0  0  0  0  0  0  0  0  0  0  0  0
   17.0675   19.9528   20.6957 H   0  0  0  0  0  0  0  0  0  0  0  0
   18.8589   19.1407   21.6539 C   0  0  0  0  0  0  0  0  0  0  0  0
   18.8455   19.8816   22.4656 H   0  0  0  0  0  0  0  0  0  0  0  0
   19.5215   19.5323   20.8709 H   0  0  0  0  0  0  0  0  0  0  0  0
   19.4069   17.7947   22.1830 C   0  0  0  0  0  0  0  0  0  0  0  0
   18.6771   17.3593   22.8783 H   0  0  0  0  0  0  0  0  0  0  0  0
   19.5048   17.0819   21.3536 H   0  0  0  0  0  0  0  0  0  0  0  0
   20.7587   17.9098   22.9233 C   0  0  0  0  0  0  0  0  0  0  0  0
   21.0174   16.9198   23.3078 H   0  0  0  0  0  0  0  0  0  0  0  0
   20.6673   18.5835   23.7789 H   0  0  0  0  0  0  0  0  0  0  0  0
   21.9351   18.3710   22.0767 N   0  3  0  0  0  0  0  0  0  0  0  0
   21.8323   18.0385   21.1063 H   0  0  0  0  0  0  0  0  0  0  0  0
   22.7982   17.9211   22.4196 H   0  0  0  0  0  0  0  0  0  0  0  0
   22.1028   19.8861   22.1334 C   0  0  0  0  0  0  0  0  0  0  0  0
   22.9692   20.1719   21.5329 H   0  0  0  0  0  0  0  0  0  0  0  0
   21.2092   20.3718   21.7401 H   0  0  0  0  0  0  0  0  0  0  0  0
   22.2599   20.1900   23.1706 H   0  0  0  0  0  0  0  0  0  0  0  0
  1  2  1  0  0  0  0
  1  3  1  0  0  0  0
  1  4  1  0  0  0  0
  1  5  1  0  0  0  0
  5  6  1  0  0  0  0
  5  7  1  0  0  0  0
  5  8  1  0  0  0  0
  8  9  1  0  0  0  0
  8 10  1  0  0  0  0
  8 11  1  0  0  0  0
 11 12  1  0  0  0  0
 11 13  1  0  0  0  0
 11 14  1  0  0  0  0
 14 15  1  0  0  0  0
 14 16  1  0  0  0  0
 14 17  1  0  0  0  0
 17 18  1  0  0  0  0
 17 19  1  0  0  0  0
 17 20  1  0  0  0  0
M  END
> <VConfSearch Rank>
67

> <Conf_Id>
65

> <Delta U+W>
1.775

> <U+W>
17.114

> <U>
71.726

> <W>
-54.613

> <W(PB)>
-56.495

> <W(SA)>
1.883

> <Valence>
2.885

> <Coulomb>
68.822

> <VdW>
0.019

> <VdW6>
-4.600

> <VdW12>
4.619

> <Bond>
0.152

> <Angle>
0.862

> <Pdih>
1.871

> <Idih>
0.000

> <Tether>
0.000

$$$$
VeraChem MOL file


 20 19  0  0  0  0  0  0  0  0999 V2000     
   18.8752   19.9408   20.3654 C   0  0  0  0  0  0  0  0  0  0  0  0
   18.9404   18.8515   20.2504 H   0  0  0  0  0  0  0  0  0  0  0  0
   17.8523   20.2403   20.1030 H   0  0  0  0  0  0  0  0  0  0  0  0
   19.5557   20.4033   19.6387 H   0  0  0  0  0  0  0  0  0  0  0  0
   19.2169   20.3834   21.8067 C   0  0  0  0  0  0  0  0  0  0  0  0
   18.5229   19.9089   22.5136 H   0  0  0  0  0  0  0  0  0  0  0  0
   19.0478   21.4656   21.8974 H   0  0  0  0  0  0  0  0  0  0  0  0
   20.6811   20.0727   22.2064 C   0  0  0  0  0  0  0  0  0  0  0  0
   21.3607   20.6370   21.5541 H   0  0  0  0  0  0  0  0  0  0  0  0
   20.8656   20.4353   23.2263 H   0  0  0  0  0  0  0  0  0  0  0  0
   21.0499   18.5766   22.1254 C   0  0  0  0  0  0  0  0  0  0  0  0
   22.1022   18.4480   22.3913 H   0  0  0  0  0  0  0  0  0  0  0  0
   20.9132   18.2188   21.1021 H   0  0  0  0  0  0  0  0  0  0  0  0
   20.2317   17.6896   23.0444 N   0  3  0  0  0  0  0  0  0  0  0  0
   19.2287   17.7889   22.8287 H   0  0  0  0  0  0  0  0  0  0  0  0
   20.3355   17.9994   24.0227 H   0  0  0  0  0  0  0  0  0  0  0  0
   20.6696   16.2391   22.8929 C   0  0  0  0  0  0  0  0  0  0  0  0
   21.7260   16.1530   23.1563 H   0  0  0  0  0  0  0  0  0  0  0  0
   20.0720   15.6125   23.5586 H   0  0  0  0  0  0  0  0  0  0  0  0
   20.5199   15.9242   21.8579 H   0  0  0  0  0  0  0  0  0  0  0  0
  1  2  1  0  0  0  0
  1  3  1  0  0  0  0
  1  4  1  0  0  0  0
  1  5  1  0  0  0  0
  5  6  1  0  0  0  0
  5  7  1  0  0  0  0
  5  8  1  0  0  0  0
  8  9  1  0  0  0  0
  8 10  1  0  0  0  0
  8 11  1  0  0  0  0
 11 12  1  0  0  0  0
 11 13  1  0  0  0  0
 11 14  1  0  0  0  0
 14 15  1  0  0  0  0
 14 16  1  0  0  0  0
 14 17  1  0  0  0  0
 17 18  1  0  0  0  0
 17 19  1  0  0  0  0
 17 20  1  0  0  0  0
M  END
> <VConfSearch Rank>
68

> <Conf_Id>
23

> <Delta U+W>
0.896

> <U+W>
16.234

> <U>
70.374

> <W>
-54.140

> <W(PB)>
-56.046

> <W(SA)>
1.907

> <Valence>
1.257

> <Coulomb>
69.240

> <VdW>
-0.123

> <VdW6>
-4.336

> <VdW12>
4.213

> <Bond>
0.128

> <Angle>
0.603

> <Pdih>
0.526

> <Idih>
0.000

> <Tether>
0.000

$$$$
VeraChem MOL file


 20 19  0  0  0  0  0  0  0  0999 V2000     
   20.9372   18.4297   24.2327 C   0  0  0  0  0  0  0  0  0  0  0  0
   20.4492   19.1080   24.9446 H   0  0  0  0  0  0  0  0  0  0  0  0
   21.6066   17.7723   24.8025 H   0  0  0  0  0  0  0  0  0  0  0  0
   21.5598   19.0311   23.5584 H   0  0  0  0  0  0  0  0  0  0  0  0
   19.8934   17.5969   23.4536 C   0  0  0  0  0  0  0  0  0  0  0  0
   19.3595   16.9440   24.1584 H   0  0  0  0  0  0  0  0  0  0  0  0
   20.4055   16.9269   22.7498 H   0  0  0  0  0  0  0  0  0  0  0  0
   18.8582   18.4704   22.7017 C   0  0  0  0  0  0  0  0  0  0  0  0
   18.1328   17.8208   22.1942 H   0  0  0  0  0  0  0  0  0  0  0  0
   18.2844   19.0579   23.4306 H   0  0  0  0  0  0  0  0  0  0  0  0
   19.4815   19.4362   21.6722 C   0  0  0  0  0  0  0  0  0  0  0  0
   20.1707   20.1173   22.1770 H   0  0  0  0  0  0  0  0  0  0  0  0
   18.6910   20.0341   21.2116 H   0  0  0  0  0  0  0  0  0  0  0  0
   20.2417   18.7424   20.5580 N   0  3  0  0  0  0  0  0  0  0  0  0
   19.6208   18.0878   20.0580 H   0  0  0  0  0  0  0  0  0  0  0  0
   20.9943   18.1602   20.9543 H   0  0  0  0  0  0  0  0  0  0  0  0
   20.8151   19.7756   19.5977 C   0  0  0  0  0  0  0  0  0  0  0  0
   21.4935   20.4358   20.1423 H   0  0  0  0  0  0  0  0  0  0  0  0
   21.3601   19.2627   18.8022 H   0  0  0  0  0  0  0  0  0  0  0  0
   19.9982   20.3589   19.1671 H   0  0  0  0  0  0  0  0  0  0  0  0
  1  2  1  0  0  0  0
  1  3  1  0  0  0  0
  1  4  1  0  0  0  0
  1  5  1  0  0  0  0
  5  6  1  0  0  0  0
  5  7  1  0  0  0  0
  5  8  1  0  0  0  0
  8  9  1  0  0  0  0
  8 10  1  0  0  0  0
  8 11  1  0  0  0  0
 11 12  1  0  0  0  0
 11 13  1  0  0  0  0
 11 14  1  0  0  0  0
 14 15  1  0  0  0  0
 14 16  1  0  0  0  0
 14 17  1  0  0  0  0
 17 18  1  0  0  0  0
 17 19  1  0  0  0  0
 17 20  1  0  0  0  0
M  END
> <VConfSearch Rank>
69

> <Conf_Id>
24

> <Delta U+W>
0.792

> <U+W>
16.130

> <U>
70.374

> <W>
-54.243

> <W(PB)>
-56.130

> <W(SA)>
1.887

> <Valence>
1.257

> <Coulomb>
69.240

> <VdW>
-0.123

> <VdW6>
-4.336

> <VdW12>
4.213

> <Bond>
0.128

> <Angle>
0.603

> <Pdih>
0.526

> <Idih>
0.000

> <Tether>
0.000

$$$$
VeraChem MOL file


 20 19  0  0  0  0  0  0  0  0999 V2000     
   20.1258   18.9984   19.8785 C   0  0  0  0  0  0  0  0  0  0  0  0
   20.5095   19.2232   18.8748 H   0  0  0  0  0  0  0  0  0  0  0  0
   20.8136   18.2736   20.3299 H   0  0  0  0  0  0  0  0  0  0  0  0
   19.1408   18.5283   19.7597 H   0  0  0  0  0  0  0  0  0  0  0  0
   20.0334   20.2930   20.7181 C   0  0  0  0  0  0  0  0  0  0  0  0
   19.5118   21.0582   20.1261 H   0  0  0  0  0  0  0  0  0  0  0  0
   21.0444   20.6852   20.8975 H   0  0  0  0  0  0  0  0  0  0  0  0
   19.2907   20.1305   22.0689 C   0  0  0  0  0  0  0  0  0  0  0  0
   19.2267   21.1201   22.5405 H   0  0  0  0  0  0  0  0  0  0  0  0
   18.2541   19.8106   21.8991 H   0  0  0  0  0  0  0  0  0  0  0  0
   19.9813   19.1766   23.0666 C   0  0  0  0  0  0  0  0  0  0  0  0
   19.6286   19.3997   24.0767 H   0  0  0  0  0  0  0  0  0  0  0  0
   21.0622   19.3361   23.0421 H   0  0  0  0  0  0  0  0  0  0  0  0
   19.7069   17.7056   22.8178 N   0  3  0  0  0  0  0  0  0  0  0  0
   19.9741   17.4551   21.8553 H   0  0  0  0  0  0  0  0  0  0  0  0
   18.6944   17.5186   22.8790 H   0  0  0  0  0  0  0  0  0  0  0  0
   20.4694   16.8556   23.8251 C   0  0  0  0  0  0  0  0  0  0  0  0
   21.5396   17.0459   23.7197 H   0  0  0  0  0  0  0  0  0  0  0  0
   20.1454   17.1173   24.8347 H   0  0  0  0  0  0  0  0  0  0  0  0
   20.2624   15.8003   23.6341 H   0  0  0  0  0  0  0  0  0  0  0  0
  1  2  1  0  0  0  0
  1  3  1  0  0  0  0
  1  4  1  0  0  0  0
  1  5  1  0  0  0  0
  5  6  1  0  0  0  0
  5  7  1  0  0  0  0
  5  8  1  0  0  0  0
  8  9  1  0  0  0  0
  8 10  1  0  0  0  0
  8 11  1  0  0  0  0
 11 12  1  0  0  0  0
 11 13  1  0  0  0  0
 11 14  1  0  0  0  0
 14 15  1  0  0  0  0
 14 16  1  0  0  0  0
 14 17  1  0  0  0  0
 17 18  1  0  0  0  0
 17 19  1  0  0  0  0
 17 20  1  0  0  0  0
M  END
> <VConfSearch Rank>
70

> <Conf_Id>
26

> <Delta U+W>
2.888

> <U+W>
18.226

> <U>
72.042

> <W>
-53.816

> <W(PB)>
-55.689

> <W(SA)>
1.873

> <Valence>
2.428

> <Coulomb>
69.829

> <VdW>
-0.215

> <VdW6>
-4.563

> <VdW12>
4.348

> <Bond>
0.137

> <Angle>
0.936

> <Pdih>
1.356

> <Idih>
0.000

> <Tether>
0.000

$$$$
VeraChem MOL file


 20 19  0  0  0  0  0  0  0  0999 V2000     
   20.0160   20.7373   23.2123 C   0  0  0  0  0  0  0  0  0  0  0  0
   20.3117   21.6167   23.7994 H   0  0  0  0  0  0  0  0  0  0  0  0
   18.9189   20.7047   23.1931 H   0  0  0  0  0  0  0  0  0  0  0  0
   20.3888   19.8552   23.7461 H   0  0  0  0  0  0  0  0  0  0  0  0
   20.6009   20.8264   21.7843 C   0  0  0  0  0  0  0  0  0  0  0  0
   21.6971   20.7614   21.8335 H   0  0  0  0  0  0  0  0  0  0  0  0
   20.3741   21.8205   21.3739 H   0  0  0  0  0  0  0  0  0  0  0  0
   20.0597   19.7572   20.8010 C   0  0  0  0  0  0  0  0  0  0  0  0
   18.9727   19.8601   20.6849 H   0  0  0  0  0  0  0  0  0  0  0  0
   20.4887   19.9607   19.8108 H   0  0  0  0  0  0  0  0  0  0  0  0
   20.4155   18.3037   21.1791 C   0  0  0  0  0  0  0  0  0  0  0  0
   21.4466   18.2574   21.5384 H   0  0  0  0  0  0  0  0  0  0  0  0
   20.3381   17.6739   20.2892 H   0  0  0  0  0  0  0  0  0  0  0  0
   19.5117   17.6923   22.2328 N   0  3  0  0  0  0  0  0  0  0  0  0
   18.5353   17.6833   21.9003 H   0  0  0  0  0  0  0  0  0  0  0  0
   19.5078   18.2805   23.0782 H   0  0  0  0  0  0  0  0  0  0  0  0
   19.9770   16.2807   22.5632 C   0  0  0  0  0  0  0  0  0  0  0  0
   21.0001   16.3187   22.9434 H   0  0  0  0  0  0  0  0  0  0  0  0
   19.3177   15.8537   23.3221 H   0  0  0  0  0  0  0  0  0  0  0  0
   19.9415   15.6694   21.6588 H   0  0  0  0  0  0  0  0  0  0  0  0
  1  2  1  0  0  0  0
  1  3  1  0  0  0  0
  1  4  1  0  0  0  0
  1  5  1  0  0  0  0
  5  6  1  0  0  0  0
  5  7  1  0  0  0  0
  5  8  1  0  0  0  0
  8  9  1  0  0  0  0
  8 10  1  0  0  0  0
  8 11  1  0  0  0  0
 11 12  1  0  0  0  0
 11 13  1  0  0  0  0
 11 14  1  0  0  0  0
 14 15  1  0  0  0  0
 14 16  1  0  0  0  0
 14 17  1  0  0  0  0
 17 18  1  0  0  0  0
 17 19  1  0  0  0  0
 17 20  1  0  0  0  0
M  END
> <VConfSearch Rank>
71

> <Conf_Id>
5

> <Delta U+W>
2.950

> <U+W>
18.289

> <U>
72.042

> <W>
-53.753

> <W(PB)>
-55.644

> <W(SA)>
1.891

> <Valence>
2.428

> <Coulomb>
69.829

> <VdW>
-0.215

> <VdW6>
-4.563

> <VdW12>
4.348

> <Bond>
0.137

> <Angle>
0.936

> <Pdih>
1.356

> <Idih>
0.000

> <Tether>
0.000

$$$$
VeraChem MOL file


 20 19  0  0  0  0  0  0  0  0999 V2000     
   18.7872   20.2366   20.4585 C   0  0  0  0  0  0  0  0  0  0  0  0
   17.9580   20.7679   20.9435 H   0  0  0  0  0  0  0  0  0  0  0  0
   19.7159   20.7773   20.6799 H   0  0  0  0  0  0  0  0  0  0  0  0
   18.6264   20.2854   19.3737 H   0  0  0  0  0  0  0  0  0  0  0  0
   18.8566   18.7662   20.9308 C   0  0  0  0  0  0  0  0  0  0  0  0
   19.6900   18.2547   20.4301 H   0  0  0  0  0  0  0  0  0  0  0  0
   17.9443   18.2444   20.6093 H   0  0  0  0  0  0  0  0  0  0  0  0
   18.9947   18.6279   22.4674 C   0  0  0  0  0  0  0  0  0  0  0  0
   18.1078   19.0596   22.9497 H   0  0  0  0  0  0  0  0  0  0  0  0
   18.9974   17.5643   22.7386 H   0  0  0  0  0  0  0  0  0  0  0  0
   20.2528   19.3118   23.0497 C   0  0  0  0  0  0  0  0  0  0  0  0
   20.2788   19.1676   24.1328 H   0  0  0  0  0  0  0  0  0  0  0  0
   20.1947   20.3859   22.8575 H   0  0  0  0  0  0  0  0  0  0  0  0
   21.5769   18.8196   22.4861 N   0  3  0  0  0  0  0  0  0  0  0  0
   22.3428   19.4226   22.8250 H   0  0  0  0  0  0  0  0  0  0  0  0
   21.5856   18.9270   21.4611 H   0  0  0  0  0  0  0  0  0  0  0  0
   21.8427   17.3713   22.8815 C   0  0  0  0  0  0  0  0  0  0  0  0
   21.0602   16.7333   22.4659 H   0  0  0  0  0  0  0  0  0  0  0  0
   22.8138   17.0648   22.4865 H   0  0  0  0  0  0  0  0  0  0  0  0
   21.8466   17.2911   23.9706 H   0  0  0  0  0  0  0  0  0  0  0  0
  1  2  1  0  0  0  0
  1  3  1  0  0  0  0
  1  4  1  0  0  0  0
  1  5  1  0  0  0  0
  5  6  1  0  0  0  0
  5  7  1  0  0  0  0
  5  8  1  0  0  0  0
  8  9  1  0  0  0  0
  8 10  1  0  0  0  0
  8 11  1  0  0  0  0
 11 12  1  0  0  0  0
 11 13  1  0  0  0  0
 11 14  1  0  0  0  0
 14 15  1  0  0  0  0
 14 16  1  0  0  0  0
 14 17  1  0  0  0  0
 17 18  1  0  0  0  0
 17 19  1  0  0  0  0
 17 20  1  0  0  0  0
M  END
> <VConfSearch Rank>
72

> <Conf_Id>
52

> <Delta U+W>
0.784

> <U+W>
16.122

> <U>
70.777

> <W>
-54.655

> <W(PB)>
-56.491

> <W(SA)>
1.836

> <Valence>
1.529

> <Coulomb>
69.166

> <VdW>
0.082

> <VdW6>
-5.166

> <VdW12>
5.248

> <Bond>
0.171

> <Angle>
0.752

> <Pdih>
0.605

> <Idih>
0.000

> <Tether>
0.000

$$$$
VeraChem MOL file


 20 19  0  0  0  0  0  0  0  0999 V2000     
   18.1204   19.5728   22.5795 C   0  0  0  0  0  0  0  0  0  0  0  0
   17.1942   20.0841   22.8726 H   0  0  0  0  0  0  0  0  0  0  0  0
   18.0758   19.4266   21.4943 H   0  0  0  0  0  0  0  0  0  0  0  0
   18.1279   18.5907   23.0702 H   0  0  0  0  0  0  0  0  0  0  0  0
   19.3496   20.4154   22.9901 C   0  0  0  0  0  0  0  0  0  0  0  0
   19.2243   20.7282   24.0362 H   0  0  0  0  0  0  0  0  0  0  0  0
   19.3751   21.3409   22.3978 H   0  0  0  0  0  0  0  0  0  0  0  0
   20.7060   19.6757   22.8633 C   0  0  0  0  0  0  0  0  0  0  0  0
   21.4865   20.3333   23.2681 H   0  0  0  0  0  0  0  0  0  0  0  0
   20.7118   18.7818   23.4996 H   0  0  0  0  0  0  0  0  0  0  0  0
   21.1073   19.3118   21.4149 C   0  0  0  0  0  0  0  0  0  0  0  0
   22.1812   19.1118   21.3788 H   0  0  0  0  0  0  0  0  0  0  0  0
   20.9056   20.1662   20.7638 H   0  0  0  0  0  0  0  0  0  0  0  0
   20.4103   18.0977   20.8212 N   0  3  0  0  0  0  0  0  0  0  0  0
   20.5979   18.0531   19.8073 H   0  0  0  0  0  0  0  0  0  0  0  0
   19.3893   18.2016   20.9030 H   0  0  0  0  0  0  0  0  0  0  0  0
   20.8773   16.8098   21.4903 C   0  0  0  0  0  0  0  0  0  0  0  0
   21.9594   16.7173   21.3756 H   0  0  0  0  0  0  0  0  0  0  0  0
   20.6184   16.8366   22.5504 H   0  0  0  0  0  0  0  0  0  0  0  0
   20.3833   15.9599   21.0143 H   0  0  0  0  0  0  0  0  0  0  0  0
  1  2  1  0  0  0  0
  1  3  1  0  0  0  0
  1  4  1  0  0  0  0
  1  5  1  0  0  0  0
  5  6  1  0  0  0  0
  5  7  1  0  0  0  0
  5  8  1  0  0  0  0
  8  9  1  0  0  0  0
  8 10  1  0  0  0  0
  8 11  1  0  0  0  0
 11 12  1  0  0  0  0
 11 13  1  0  0  0  0
 11 14  1  0  0  0  0
 14 15  1  0  0  0  0
 14 16  1  0  0  0  0
 14 17  1  0  0  0  0
 17 18  1  0  0  0  0
 17 19  1  0  0  0  0
 17 20  1  0  0  0  0
M  END
> <VConfSearch Rank>
73

> <Conf_Id>
55

> <Delta U+W>
2.745

> <U+W>
18.083

> <U>
72.490

> <W>
-54.407

> <W(PB)>
-56.269

> <W(SA)>
1.861

> <Valence>
2.738

> <Coulomb>
69.795

> <VdW>
-0.043

> <VdW6>
-5.333

> <VdW12>
5.290

> <Bond>
0.182

> <Angle>
1.135

> <Pdih>
1.422

> <Idih>
0.000

> <Tether>
0.000

$$$$
VeraChem MOL file


 20 19  0  0  0  0  0  0  0  0999 V2000     
   19.8154   17.1062   20.8262 C   0  0  0  0  0  0  0  0  0  0  0  0
   19.9221   16.2240   20.1816 H   0  0  0  0  0  0  0  0  0  0  0  0
   19.0284   16.8887   21.5602 H   0  0  0  0  0  0  0  0  0  0  0  0
   19.4848   17.9322   20.1862 H   0  0  0  0  0  0  0  0  0  0  0  0
   21.1585   17.4270   21.5209 C   0  0  0  0  0  0  0  0  0  0  0  0
   21.8922   17.7519   20.7698 H   0  0  0  0  0  0  0  0  0  0  0  0
   21.5578   16.4988   21.9533 H   0  0  0  0  0  0  0  0  0  0  0  0
   21.0607   18.4857   22.6489 C   0  0  0  0  0  0  0  0  0  0  0  0
   20.3757   18.1418   23.4340 H   0  0  0  0  0  0  0  0  0  0  0  0
   22.0465   18.5597   23.1267 H   0  0  0  0  0  0  0  0  0  0  0  0
   20.6671   19.9022   22.1693 C   0  0  0  0  0  0  0  0  0  0  0  0
   21.2309   20.1417   21.2642 H   0  0  0  0  0  0  0  0  0  0  0  0
   20.9427   20.6309   22.9359 H   0  0  0  0  0  0  0  0  0  0  0  0
   19.1912   20.1118   21.8690 N   0  3  0  0  0  0  0  0  0  0  0  0
   18.8605   19.3962   21.2069 H   0  0  0  0  0  0  0  0  0  0  0  0
   19.0624   21.0124   21.3815 H   0  0  0  0  0  0  0  0  0  0  0  0
   18.3586   20.0917   23.1461 C   0  0  0  0  0  0  0  0  0  0  0  0
   18.4488   19.1140   23.6232 H   0  0  0  0  0  0  0  0  0  0  0  0
   18.7201   20.8689   23.8229 H   0  0  0  0  0  0  0  0  0  0  0  0
   17.3128   20.2810   22.8943 H   0  0  0  0  0  0  0  0  0  0  0  0
  1  2  1  0  0  0  0
  1  3  1  0  0  0  0
  1  4  1  0  0  0  0
  1  5  1  0  0  0  0
  5  6  1  0  0  0  0
  5  7  1  0  0  0  0
  5  8  1  0  0  0  0
  8  9  1  0  0  0  0
  8 10  1  0  0  0  0
  8 11  1  0  0  0  0
 11 12  1  0  0  0  0
 11 13  1  0  0  0  0
 11 14  1  0  0  0  0
 14 15  1  0  0  0  0
 14 16  1  0  0  0  0
 14 17  1  0  0  0  0
 17 18  1  0  0  0  0
 17 19  1  0  0  0  0
 17 20  1  0  0  0  0
M  END
> <VConfSearch Rank>
74

> <Conf_Id>
76

> <Delta U+W>
2.799

> <U+W>
18.137

> <U>
72.490

> <W>
-54.353

> <W(PB)>
-56.201

> <W(SA)>
1.848

> <Valence>
2.738

> <Coulomb>
69.795

> <VdW>
-0.043

> <VdW6>
-5.334

> <VdW12>
5.290

> <Bond>
0.182

> <Angle>
1.135

> <Pdih>
1.421

> <Idih>
0.000

> <Tether>
0.000

$$$$
VeraChem MOL file


 20 19  0  0  0  0  0  0  0  0999 V2000     
   19.4610   20.5684   22.8945 C   0  0  0  0  0  0  0  0  0  0  0  0
   19.0050   19.6673   23.3224 H   0  0  0  0  0  0  0  0  0  0  0  0
   20.1409   20.9948   23.6433 H   0  0  0  0  0  0  0  0  0  0  0  0
   18.6576   21.2956   22.7197 H   0  0  0  0  0  0  0  0  0  0  0  0
   20.2098   20.2601   21.5773 C   0  0  0  0  0  0  0  0  0  0  0  0
   20.5846   21.2027   21.1543 H   0  0  0  0  0  0  0  0  0  0  0  0
   19.5126   19.8561   20.8320 H   0  0  0  0  0  0  0  0  0  0  0  0
   21.4046   19.2942   21.7696 C   0  0  0  0  0  0  0  0  0  0  0  0
   21.9159   19.1529   20.8083 H   0  0  0  0  0  0  0  0  0  0  0  0
   22.1381   19.7713   22.4328 H   0  0  0  0  0  0  0  0  0  0  0  0
   21.0485   17.9099   22.3607 C   0  0  0  0  0  0  0  0  0  0  0  0
   20.5293   18.0219   23.3154 H   0  0  0  0  0  0  0  0  0  0  0  0
   21.9842   17.3794   22.5550 H   0  0  0  0  0  0  0  0  0  0  0  0
   20.2177   17.0052   21.4628 N   0  3  0  0  0  0  0  0  0  0  0  0
   20.4639   16.0211   21.6518 H   0  0  0  0  0  0  0  0  0  0  0  0
   20.4679   17.1532   20.4738 H   0  0  0  0  0  0  0  0  0  0  0  0
   18.7229   17.1997   21.6933 C   0  0  0  0  0  0  0  0  0  0  0  0
   18.1703   16.5104   21.0511 H   0  0  0  0  0  0  0  0  0  0  0  0
   18.4920   16.9900   22.7399 H   0  0  0  0  0  0  0  0  0  0  0  0
   18.4431   18.2259   21.4536 H   0  0  0  0  0  0  0  0  0  0  0  0
  1  2  1  0  0  0  0
  1  3  1  0  0  0  0
  1  4  1  0  0  0  0
  1  5  1  0  0  0  0
  5  6  1  0  0  0  0
  5  7  1  0  0  0  0
  5  8  1  0  0  0  0
  8  9  1  0  0  0  0
  8 10  1  0  0  0  0
  8 11  1  0  0  0  0
 11 12  1  0  0  0  0
 11 13  1  0  0  0  0
 11 14  1  0  0  0  0
 14 15  1  0  0  0  0
 14 16  1  0  0  0  0
 14 17  1  0  0  0  0
 17 18  1  0  0  0  0
 17 19  1  0  0  0  0
 17 20  1  0  0  0  0
M  END
> <VConfSearch Rank>
75

> <Conf_Id>
60

> <Delta U+W>
1.788

> <U+W>
17.127

> <U>
72.122

> <W>
-54.995

> <W(PB)>
-56.810

> <W(SA)>
1.815

> <Valence>
3.197

> <Coulomb>
69.115

> <VdW>
-0.190

> <VdW6>
-5.585

> <VdW12>
5.395

> <Bond>
0.177

> <Angle>
1.207

> <Pdih>
1.813

> <Idih>
0.000

> <Tether>
0.000

$$$$
VeraChem MOL file


 20 19  0  0  0  0  0  0  0  0999 V2000     
   18.4720   20.1205   22.1451 C   0  0  0  0  0  0  0  0  0  0  0  0
   17.4805   20.1883   21.6791 H   0  0  0  0  0  0  0  0  0  0  0  0
   18.5171   20.8699   22.9459 H   0  0  0  0  0  0  0  0  0  0  0  0
   19.2148   20.3898   21.3844 H   0  0  0  0  0  0  0  0  0  0  0  0
   18.7134   18.6985   22.7021 C   0  0  0  0  0  0  0  0  0  0  0  0
   18.6427   17.9591   21.8940 H   0  0  0  0  0  0  0  0  0  0  0  0
   17.9044   18.4511   23.4037 H   0  0  0  0  0  0  0  0  0  0  0  0
   20.0679   18.5566   23.4387 C   0  0  0  0  0  0  0  0  0  0  0  0
   20.0669   19.2281   24.3074 H   0  0  0  0  0  0  0  0  0  0  0  0
   20.1560   17.5403   23.8447 H   0  0  0  0  0  0  0  0  0  0  0  0
   21.3207   18.8709   22.5876 C   0  0  0  0  0  0  0  0  0  0  0  0
   22.1888   18.8505   23.2514 H   0  0  0  0  0  0  0  0  0  0  0  0
   21.2545   19.8753   22.1629 H   0  0  0  0  0  0  0  0  0  0  0  0
   21.6145   17.8897   21.4624 N   0  3  0  0  0  0  0  0  0  0  0  0
   21.3396   16.9351   21.7376 H   0  0  0  0  0  0  0  0  0  0  0  0
   22.6346   17.8375   21.3157 H   0  0  0  0  0  0  0  0  0  0  0  0
   20.9427   18.3079   20.1589 C   0  0  0  0  0  0  0  0  0  0  0  0
   21.2938   19.3033   19.8787 H   0  0  0  0  0  0  0  0  0  0  0  0
   21.2061   17.5928   19.3765 H   0  0  0  0  0  0  0  0  0  0  0  0
   19.8603   18.3233   20.2901 H   0  0  0  0  0  0  0  0  0  0  0  0
  1  2  1  0  0  0  0
  1  3  1  0  0  0  0
  1  4  1  0  0  0  0
  1  5  1  0  0  0  0
  5  6  1  0  0  0  0
  5  7  1  0  0  0  0
  5  8  1  0  0  0  0
  8  9  1  0  0  0  0
  8 10  1  0  0  0  0
  8 11  1  0  0  0  0
 11 12  1  0  0  0  0
 11 13  1  0  0  0  0
 11 14  1  0  0  0  0
 14 15  1  0  0  0  0
 14 16  1  0  0  0  0
 14 17  1  0  0  0  0
 17 18  1  0  0  0  0
 17 19  1  0  0  0  0
 17 20  1  0  0  0  0
M  END
> <VConfSearch Rank>
76

> <Conf_Id>
54

> <Delta U+W>
1.880

> <U+W>
17.218

> <U>
72.122

> <W>
-54.903

> <W(PB)>
-56.724

> <W(SA)>
1.821

> <Valence>
3.197

> <Coulomb>
69.115

> <VdW>
-0.190

> <VdW6>
-5.585

> <VdW12>
5.395

> <Bond>
0.177

> <Angle>
1.207

> <Pdih>
1.813

> <Idih>
0.000

> <Tether>
0.000

$$$$
VeraChem MOL file


 20 19  0  0  0  0  0  0  0  0999 V2000     
   17.7111   16.6312   22.2466 C   0  0  0  0  0  0  0  0  0  0  0  0
   18.3307   15.7474   22.0464 H   0  0  0  0  0  0  0  0  0  0  0  0
   16.9591   16.3516   22.9958 H   0  0  0  0  0  0  0  0  0  0  0  0
   17.1820   16.8941   21.3213 H   0  0  0  0  0  0  0  0  0  0  0  0
   18.5707   17.8108   22.7502 C   0  0  0  0  0  0  0  0  0  0  0  0
   19.0592   17.5298   23.6940 H   0  0  0  0  0  0  0  0  0  0  0  0
   17.9195   18.6675   22.9746 H   0  0  0  0  0  0  0  0  0  0  0  0
   19.6391   18.2263   21.7149 C   0  0  0  0  0  0  0  0  0  0  0  0
   20.2913   17.3709   21.4939 H   0  0  0  0  0  0  0  0  0  0  0  0
   19.1501   18.5101   20.7734 H   0  0  0  0  0  0  0  0  0  0  0  0
   20.4919   19.4030   22.2244 C   0  0  0  0  0  0  0  0  0  0  0  0
   20.9924   19.1186   23.1534 H   0  0  0  0  0  0  0  0  0  0  0  0
   19.8475   20.2614   22.4305 H   0  0  0  0  0  0  0  0  0  0  0  0
   21.5561   19.8461   21.2395 N   0  3  0  0  0  0  0  0  0  0  0  0
   21.1224   20.1164   20.3434 H   0  0  0  0  0  0  0  0  0  0  0  0
   22.1824   19.0583   21.0128 H   0  0  0  0  0  0  0  0  0  0  0  0
   22.3499   21.0087   21.8203 C   0  0  0  0  0  0  0  0  0  0  0  0
   22.8277   20.6900   22.7492 H   0  0  0  0  0  0  0  0  0  0  0  0
   23.1121   21.3174   21.1014 H   0  0  0  0  0  0  0  0  0  0  0  0
   21.6732   21.8424   22.0200 H   0  0  0  0  0  0  0  0  0  0  0  0
  1  2  1  0  0  0  0
  1  3  1  0  0  0  0
  1  4  1  0  0  0  0
  1  5  1  0  0  0  0
  5  6  1  0  0  0  0
  5  7  1  0  0  0  0
  5  8  1  0  0  0  0
  8  9  1  0  0  0  0
  8 10  1  0  0  0  0
  8 11  1  0  0  0  0
 11 12  1  0  0  0  0
 11 13  1  0  0  0  0
 11 14  1  0  0  0  0
 14 15  1  0  0  0  0
 14 16  1  0  0  0  0
 14 17  1  0  0  0  0
 17 18  1  0  0  0  0
 17 19  1  0  0  0  0
 17 20  1  0  0  0  0
M  END
> <VConfSearch Rank>
77

> <Conf_Id>
67

> <Delta U+W>
0.000

> <U+W>
15.338

> <U>
69.277

> <W>
-53.939

> <W(PB)>
-55.889

> <W(SA)>
1.950

> <Valence>
0.846

> <Coulomb>
68.557

> <VdW>
-0.127

> <VdW6>
-3.008

> <VdW12>
2.882

> <Bond>
0.088

> <Angle>
0.332

> <Pdih>
0.426

> <Idih>
0.000

> <Tether>
0.000

$$$$
VeraChem MOL file


 20 19  0  0  0  0  0  0  0  0999 V2000     
   19.4098   20.7066   24.2795 C   0  0  0  0  0  0  0  0  0  0  0  0
   20.4591   20.6986   24.6019 H   0  0  0  0  0  0  0  0  0  0  0  0
   18.9982   21.7002   24.4994 H   0  0  0  0  0  0  0  0  0  0  0  0
   18.8608   19.9739   24.8852 H   0  0  0  0  0  0  0  0  0  0  0  0
   19.2879   20.3866   22.7738 C   0  0  0  0  0  0  0  0  0  0  0  0
   19.8176   21.1552   22.1932 H   0  0  0  0  0  0  0  0  0  0  0  0
   18.2315   20.4368   22.4743 H   0  0  0  0  0  0  0  0  0  0  0  0
   19.8596   18.9925   22.4345 C   0  0  0  0  0  0  0  0  0  0  0  0
   20.9143   18.9471   22.7353 H   0  0  0  0  0  0  0  0  0  0  0  0
   19.3272   18.2249   23.0116 H   0  0  0  0  0  0  0  0  0  0  0  0
   19.7320   18.6815   20.9288 C   0  0  0  0  0  0  0  0  0  0  0  0
   20.3000   19.4135   20.3492 H   0  0  0  0  0  0  0  0  0  0  0  0
   18.6815   18.7617   20.6380 H   0  0  0  0  0  0  0  0  0  0  0  0
   20.2074   17.2949   20.5264 N   0  3  0  0  0  0  0  0  0  0  0  0
   19.9381   17.1084   19.5476 H   0  0  0  0  0  0  0  0  0  0  0  0
   19.7156   16.5746   21.0770 H   0  0  0  0  0  0  0  0  0  0  0  0
   21.7183   17.1594   20.6819 C   0  0  0  0  0  0  0  0  0  0  0  0
   21.9884   17.2921   21.7313 H   0  0  0  0  0  0  0  0  0  0  0  0
   22.0245   16.1655   20.3480 H   0  0  0  0  0  0  0  0  0  0  0  0
   22.2120   17.9200   20.0732 H   0  0  0  0  0  0  0  0  0  0  0  0
  1  2  1  0  0  0  0
  1  3  1  0  0  0  0
  1  4  1  0  0  0  0
  1  5  1  0  0  0  0
  5  6  1  0  0  0  0
  5  7  1  0  0  0  0
  5  8  1  0  0  0  0
  8  9  1  0  0  0  0
  8 10  1  0  0  0  0
  8 11  1  0  0  0  0
 11 12  1  0  0  0  0
 11 13  1  0  0  0  0
 11 14  1  0  0  0  0
 14 15  1  0  0  0  0
 14 16  1  0  0  0  0
 14 17  1  0  0  0  0
 17 18  1  0  0  0  0
 17 19  1  0  0  0  0
 17 20  1  0  0  0  0
M  END
> <VConfSearch Rank>
78

> <Conf_Id>
37

> <Delta U+W>
-0.021

> <U+W>
15.318

> <U>
69.657

> <W>
-54.340

> <W(PB)>
-56.238

> <W(SA)>
1.899

> <Valence>
1.137

> <Coulomb>
68.383

> <VdW>
0.138

> <VdW6>
-3.703

> <VdW12>
3.841

> <Bond>
0.125

> <Angle>
0.468

> <Pdih>
0.543

> <Idih>
0.000

> <Tether>
0.000

$$$$
VeraChem MOL file


 20 19  0  0  0  0  0  0  0  0999 V2000     
   22.5612   17.7344   23.1328 C   0  0  0  0  0  0  0  0  0  0  0  0
   22.9647   16.9122   23.7379 H   0  0  0  0  0  0  0  0  0  0  0  0
   22.9819   17.6462   22.1227 H   0  0  0  0  0  0  0  0  0  0  0  0
   22.9150   18.6777   23.5689 H   0  0  0  0  0  0  0  0  0  0  0  0
   21.0184   17.6811   23.0995 C   0  0  0  0  0  0  0  0  0  0  0  0
   20.6289   17.7362   24.1259 H   0  0  0  0  0  0  0  0  0  0  0  0
   20.6952   16.7133   22.6906 H   0  0  0  0  0  0  0  0  0  0  0  0
   20.4219   18.8280   22.2542 C   0  0  0  0  0  0  0  0  0  0  0  0
   20.7416   19.7945   22.6657 H   0  0  0  0  0  0  0  0  0  0  0  0
   20.8134   18.7690   21.2305 H   0  0  0  0  0  0  0  0  0  0  0  0
   18.8806   18.7672   22.2282 C   0  0  0  0  0  0  0  0  0  0  0  0
   18.5073   18.7948   23.2551 H   0  0  0  0  0  0  0  0  0  0  0  0
   18.5538   17.8279   21.7751 H   0  0  0  0  0  0  0  0  0  0  0  0
   18.2147   19.9072   21.4748 N   0  3  0  0  0  0  0  0  0  0  0  0
   18.5243   20.8151   21.8538 H   0  0  0  0  0  0  0  0  0  0  0  0
   17.1967   19.8841   21.6435 H   0  0  0  0  0  0  0  0  0  0  0  0
   18.4930   19.8204   19.9780 C   0  0  0  0  0  0  0  0  0  0  0  0
   18.1371   18.8591   19.6013 H   0  0  0  0  0  0  0  0  0  0  0  0
   17.9682   20.6319   19.4690 H   0  0  0  0  0  0  0  0  0  0  0  0
   19.5666   19.9124   19.8026 H   0  0  0  0  0  0  0  0  0  0  0  0
  1  2  1  0  0  0  0
  1  3  1  0  0  0  0
  1  4  1  0  0  0  0
  1  5  1  0  0  0  0
  5  6  1  0  0  0  0
  5  7  1  0  0  0  0
  5  8  1  0  0  0  0
  8  9  1  0  0  0  0
  8 10  1  0  0  0  0
  8 11  1  0  0  0  0
 11 12  1  0  0  0  0
 11 13  1  0  0  0  0
 11 14  1  0  0  0  0
 14 15  1  0  0  0  0
 14 16  1  0  0  0  0
 14 17  1  0  0  0  0
 17 18  1  0  0  0  0
 17 19  1  0  0  0  0
 17 20  1  0  0  0  0
M  END
> <VConfSearch Rank>
79

> <Conf_Id>
2

> <Delta U+W>
0.069

> <U+W>
15.407

> <U>
69.657

> <W>
-54.250

> <W(PB)>
-56.176

> <W(SA)>
1.926

> <Valence>
1.137

> <Coulomb>
68.383

> <VdW>
0.138

> <VdW6>
-3.703

> <VdW12>
3.841

> <Bond>
0.125

> <Angle>
0.468

> <Pdih>
0.543

> <Idih>
0.000

> <Tether>
0.000

$$$$
VeraChem MOL file


 20 19  0  0  0  0  0  0  0  0999 V2000     
   20.1598   21.2707   21.1656 C   0  0  0  0  0  0  0  0  0  0  0  0
   21.1578   20.8674   21.3789 H   0  0  0  0  0  0  0  0  0  0  0  0
   19.9180   21.0512   20.1175 H   0  0  0  0  0  0  0  0  0  0  0  0
   20.2139   22.3616   21.2750 H   0  0  0  0  0  0  0  0  0  0  0  0
   19.0933   20.6826   22.1179 C   0  0  0  0  0  0  0  0  0  0  0  0
   18.1319   21.1814   21.9311 H   0  0  0  0  0  0  0  0  0  0  0  0
   19.3621   20.9108   23.1590 H   0  0  0  0  0  0  0  0  0  0  0  0
   18.9083   19.1563   21.9498 C   0  0  0  0  0  0  0  0  0  0  0  0
   18.0868   18.8225   22.5977 H   0  0  0  0  0  0  0  0  0  0  0  0
   18.6058   18.9336   20.9180 H   0  0  0  0  0  0  0  0  0  0  0  0
   20.1819   18.3618   22.2988 C   0  0  0  0  0  0  0  0  0  0  0  0
   20.4815   18.5817   23.3266 H   0  0  0  0  0  0  0  0  0  0  0  0
   20.9954   18.6588   21.6327 H   0  0  0  0  0  0  0  0  0  0  0  0
   20.0077   16.8608   22.1755 N   0  3  0  0  0  0  0  0  0  0  0  0
   19.7146   16.6134   21.2179 H   0  0  0  0  0  0  0  0  0  0  0  0
   19.2418   16.5392   22.7870 H   0  0  0  0  0  0  0  0  0  0  0  0
   21.3089   16.1556   22.5342 C   0  0  0  0  0  0  0  0  0  0  0  0
   21.5815   16.4044   23.5621 H   0  0  0  0  0  0  0  0  0  0  0  0
   21.1694   15.0763   22.4414 H   0  0  0  0  0  0  0  0  0  0  0  0
   22.0965   16.4849   21.8530 H   0  0  0  0  0  0  0  0  0  0  0  0
  1  2  1  0  0  0  0
  1  3  1  0  0  0  0
  1  4  1  0  0  0  0
  1  5  1  0  0  0  0
  5  6  1  0  0  0  0
  5  7  1  0  0  0  0
  5  8  1  0  0  0  0
  8  9  1  0  0  0  0
  8 10  1  0  0  0  0
  8 11  1  0  0  0  0
 11 12  1  0  0  0  0
 11 13  1  0  0  0  0
 11 14  1  0  0  0  0
 14 15  1  0  0  0  0
 14 16  1  0  0  0  0
 14 17  1  0  0  0  0
 17 18  1  0  0  0  0
 17 19  1  0  0  0  0
 17 20  1  0  0  0  0
M  END
> <VConfSearch Rank>
80

> <Conf_Id>
34

> <Delta U+W>
0.276

> <U+W>
15.615

> <U>
69.798

> <W>
-54.184

> <W(PB)>
-56.116

> <W(SA)>
1.933

> <Valence>
1.134

> <Coulomb>
68.735

> <VdW>
-0.070

> <VdW6>
-3.565

> <VdW12>
3.494

> <Bond>
0.108

> <Angle>
0.456

> <Pdih>
0.569

> <Idih>
0.000

> <Tether>
0.000

$$$$
VeraChem MOL file


 20 19  0  0  0  0  0  0  0  0999 V2000     
   18.9137   21.6214   22.0023 C   0  0  0  0  0  0  0  0  0  0  0  0
   18.4090   21.8042   21.0447 H   0  0  0  0  0  0  0  0  0  0  0  0
   18.2924   22.0538   22.7973 H   0  0  0  0  0  0  0  0  0  0  0  0
   19.8702   22.1602   21.9925 H   0  0  0  0  0  0  0  0  0  0  0  0
   19.1289   20.1108   22.2386 C   0  0  0  0  0  0  0  0  0  0  0  0
   18.1535   19.6053   22.2747 H   0  0  0  0  0  0  0  0  0  0  0  0
   19.5982   19.9648   23.2209 H   0  0  0  0  0  0  0  0  0  0  0  0
   20.0030   19.4769   21.1307 C   0  0  0  0  0  0  0  0  0  0  0  0
   19.5412   19.6649   20.1523 H   0  0  0  0  0  0  0  0  0  0  0  0
   20.9898   19.9583   21.1076 H   0  0  0  0  0  0  0  0  0  0  0  0
   20.1760   17.9544   21.3029 C   0  0  0  0  0  0  0  0  0  0  0  0
   20.7239   17.5540   20.4462 H   0  0  0  0  0  0  0  0  0  0  0  0
   19.1947   17.4744   21.3334 H   0  0  0  0  0  0  0  0  0  0  0  0
   20.9323   17.5554   22.5562 N   0  3  0  0  0  0  0  0  0  0  0  0
   20.4476   17.9125   23.3928 H   0  0  0  0  0  0  0  0  0  0  0  0
   21.8629   18.0003   22.5666 H   0  0  0  0  0  0  0  0  0  0  0  0
   21.0641   16.0398   22.6231 C   0  0  0  0  0  0  0  0  0  0  0  0
   20.0679   15.5925   22.6444 H   0  0  0  0  0  0  0  0  0  0  0  0
   21.6089   15.6868   21.7448 H   0  0  0  0  0  0  0  0  0  0  0  0
   21.6097   15.7666   23.5290 H   0  0  0  0  0  0  0  0  0  0  0  0
  1  2  1  0  0  0  0
  1  3  1  0  0  0  0
  1  4  1  0  0  0  0
  1  5  1  0  0  0  0
  5  6  1  0  0  0  0
  5  7  1  0  0  0  0
  5  8  1  0  0  0  0
  8  9  1  0  0  0  0
  8 10  1  0  0  0  0
  8 11  1  0  0  0  0
 11 12  1  0  0  0  0
 11 13  1  0  0  0  0
 11 14  1  0  0  0  0
 14 15  1  0  0  0  0
 14 16  1  0  0  0  0
 14 17  1  0  0  0  0
 17 18  1  0  0  0  0
 17 19  1  0  0  0  0
 17 20  1  0  0  0  0
M  END
> <VConfSearch Rank>
81

> <Conf_Id>
50

> <Delta U+W>
0.319

> <U+W>
15.657

> <U>
69.962

> <W>
-54.305

> <W(PB)>
-56.223

> <W(SA)>
1.918

> <Valence>
0.982

> <Coulomb>
69.058

> <VdW>
-0.078

> <VdW6>
-3.548

> <VdW12>
3.471

> <Bond>
0.105

> <Angle>
0.408

> <Pdih>
0.469

> <Idih>
0.000

> <Tether>
0.000

$$$$
VeraChem MOL file


 20 19  0  0  0  0  0  0  0  0999 V2000     
   18.9018   21.3685   20.8022 C   0  0  0  0  0  0  0  0  0  0  0  0
   19.4270   22.3292   20.7229 H   0  0  0  0  0  0  0  0  0  0  0  0
   18.4826   21.1326   19.8154 H   0  0  0  0  0  0  0  0  0  0  0  0
   18.0686   21.4979   21.5051 H   0  0  0  0  0  0  0  0  0  0  0  0
   19.8637   20.2585   21.2782 C   0  0  0  0  0  0  0  0  0  0  0  0
   20.2932   20.5473   22.2470 H   0  0  0  0  0  0  0  0  0  0  0  0
   20.7018   20.1753   20.5718 H   0  0  0  0  0  0  0  0  0  0  0  0
   19.1469   18.8929   21.3987 C   0  0  0  0  0  0  0  0  0  0  0  0
   18.3255   18.9611   22.1244 H   0  0  0  0  0  0  0  0  0  0  0  0
   18.6899   18.6367   20.4336 H   0  0  0  0  0  0  0  0  0  0  0  0
   20.1000   17.7507   21.8045 C   0  0  0  0  0  0  0  0  0  0  0  0
   20.9220   17.6859   21.0871 H   0  0  0  0  0  0  0  0  0  0  0  0
   19.5564   16.8027   21.7852 H   0  0  0  0  0  0  0  0  0  0  0  0
   20.6980   17.9066   23.1901 N   0  3  0  0  0  0  0  0  0  0  0  0
   19.9482   17.9816   23.8945 H   0  0  0  0  0  0  0  0  0  0  0  0
   21.2236   18.7910   23.2530 H   0  0  0  0  0  0  0  0  0  0  0  0
   21.6059   16.7240   23.5002 C   0  0  0  0  0  0  0  0  0  0  0  0
   22.0294   16.8490   24.4993 H   0  0  0  0  0  0  0  0  0  0  0  0
   21.0219   15.8020   23.4607 H   0  0  0  0  0  0  0  0  0  0  0  0
   22.4098   16.6841   22.7620 H   0  0  0  0  0  0  0  0  0  0  0  0
  1  2  1  0  0  0  0
  1  3  1  0  0  0  0
  1  4  1  0  0  0  0
  1  5  1  0  0  0  0
  5  6  1  0  0  0  0
  5  7  1  0  0  0  0
  5  8  1  0  0  0  0
  8  9  1  0  0  0  0
  8 10  1  0  0  0  0
  8 11  1  0  0  0  0
 11 12  1  0  0  0  0
 11 13  1  0  0  0  0
 11 14  1  0  0  0  0
 14 15  1  0  0  0  0
 14 16  1  0  0  0  0
 14 17  1  0  0  0  0
 17 18  1  0  0  0  0
 17 19  1  0  0  0  0
 17 20  1  0  0  0  0
M  END
> <VConfSearch Rank>
82

> <Conf_Id>
35

> <Delta U+W>
0.360

> <U+W>
15.698

> <U>
69.962

> <W>
-54.264

> <W(PB)>
-56.166

> <W(SA)>
1.902

> <Valence>
0.982

> <Coulomb>
69.058

> <VdW>
-0.078

> <VdW6>
-3.548

> <VdW12>
3.471

> <Bond>
0.105

> <Angle>
0.408

> <Pdih>
0.469

> <Idih>
0.000

> <Tether>
0.000

$$$$
VeraChem MOL file


 20 19  0  0  0  0  0  0  0  0999 V2000     
   18.9935   20.5542   20.5093 C   0  0  0  0  0  0  0  0  0  0  0  0
   18.3075   19.7024   20.4206 H   0  0  0  0  0  0  0  0  0  0  0  0
   18.4471   21.4530   20.1954 H   0  0  0  0  0  0  0  0  0  0  0  0
   19.8213   20.4026   19.8044 H   0  0  0  0  0  0  0  0  0  0  0  0
   19.5163   20.7149   21.9554 C   0  0  0  0  0  0  0  0  0  0  0  0
   18.6690   20.8599   22.6403 H   0  0  0  0  0  0  0  0  0  0  0  0
   20.1234   21.6289   22.0177 H   0  0  0  0  0  0  0  0  0  0  0  0
   20.3677   19.5128   22.4264 C   0  0  0  0  0  0  0  0  0  0  0  0
   21.2325   19.3962   21.7606 H   0  0  0  0  0  0  0  0  0  0  0  0
   20.7672   19.7276   23.4263 H   0  0  0  0  0  0  0  0  0  0  0  0
   19.5600   18.1981   22.4769 C   0  0  0  0  0  0  0  0  0  0  0  0
   19.2124   17.9364   21.4747 H   0  0  0  0  0  0  0  0  0  0  0  0
   18.6827   18.3453   23.1119 H   0  0  0  0  0  0  0  0  0  0  0  0
   20.3248   17.0069   23.0304 N   0  3  0  0  0  0  0  0  0  0  0  0
   19.6748   16.2201   23.1838 H   0  0  0  0  0  0  0  0  0  0  0  0
   20.6993   17.2260   23.9661 H   0  0  0  0  0  0  0  0  0  0  0  0
   21.4421   16.5784   22.0852 C   0  0  0  0  0  0  0  0  0  0  0  0
   22.1606   17.3936   21.9799 H   0  0  0  0  0  0  0  0  0  0  0  0
   21.9429   15.7001   22.4983 H   0  0  0  0  0  0  0  0  0  0  0  0
   21.0143   16.3335   21.1106 H   0  0  0  0  0  0  0  0  0  0  0  0
  1  2  1  0  0  0  0
  1  3  1  0  0  0  0
  1  4  1  0  0  0  0
  1  5  1  0  0  0  0
  5  6  1  0  0  0  0
  5  7  1  0  0  0  0
  5  8  1  0  0  0  0
  8  9  1  0  0  0  0
  8 10  1  0  0  0  0
  8 11  1  0  0  0  0
 11 12  1  0  0  0  0
 11 13  1  0  0  0  0
 11 14  1  0  0  0  0
 14 15  1  0  0  0  0
 14 16  1  0  0  0  0
 14 17  1  0  0  0  0
 17 18  1  0  0  0  0
 17 19  1  0  0  0  0
 17 20  1  0  0  0  0
M  END
> <VConfSearch Rank>
83

> <Conf_Id>
33

> <Delta U+W>
0.372

> <U+W>
15.711

> <U>
70.163

> <W>
-54.452

> <W(PB)>
-56.363

> <W(SA)>
1.911

> <Valence>
1.420

> <Coulomb>
68.566

> <VdW>
0.177

> <VdW6>
-4.267

> <VdW12>
4.445

> <Bond>
0.146

> <Angle>
0.581

> <Pdih>
0.693

> <Idih>
0.000

> <Tether>
0.000

$$$$
VeraChem MOL file


 20 19  0  0  0  0  0  0  0  0999 V2000     
   20.6657   17.3837   24.0718 C   0  0  0  0  0  0  0  0  0  0  0  0
   21.2184   16.7637   24.7896 H   0  0  0  0  0  0  0  0  0  0  0  0
   20.6646   18.4118   24.4551 H   0  0  0  0  0  0  0  0  0  0  0  0
   19.6284   17.0251   24.0492 H   0  0  0  0  0  0  0  0  0  0  0  0
   21.3142   17.2999   22.6709 C   0  0  0  0  0  0  0  0  0  0  0  0
   21.3767   16.2454   22.3671 H   0  0  0  0  0  0  0  0  0  0  0  0
   22.3485   17.6687   22.7201 H   0  0  0  0  0  0  0  0  0  0  0  0
   20.5305   18.0873   21.5949 C   0  0  0  0  0  0  0  0  0  0  0  0
   21.0012   17.9215   20.6169 H   0  0  0  0  0  0  0  0  0  0  0  0
   19.5099   17.6897   21.5242 H   0  0  0  0  0  0  0  0  0  0  0  0
   20.4871   19.6031   21.8842 C   0  0  0  0  0  0  0  0  0  0  0  0
   21.5100   19.9731   21.9904 H   0  0  0  0  0  0  0  0  0  0  0  0
   19.9612   19.7876   22.8240 H   0  0  0  0  0  0  0  0  0  0  0  0
   19.8149   20.4342   20.8035 N   0  3  0  0  0  0  0  0  0  0  0  0
   20.2627   20.2628   19.8904 H   0  0  0  0  0  0  0  0  0  0  0  0
   19.9724   21.4368   20.9908 H   0  0  0  0  0  0  0  0  0  0  0  0
   18.3184   20.1491   20.7363 C   0  0  0  0  0  0  0  0  0  0  0  0
   17.8660   20.7899   19.9762 H   0  0  0  0  0  0  0  0  0  0  0  0
   18.1602   19.1015   20.4730 H   0  0  0  0  0  0  0  0  0  0  0  0
   17.8685   20.3585   21.7091 H   0  0  0  0  0  0  0  0  0  0  0  0
  1  2  1  0  0  0  0
  1  3  1  0  0  0  0
  1  4  1  0  0  0  0
  1  5  1  0  0  0  0
  5  6  1  0  0  0  0
  5  7  1  0  0  0  0
  5  8  1  0  0  0  0
  8  9  1  0  0  0  0
  8 10  1  0  0  0  0
  8 11  1  0  0  0  0
 11 12  1  0  0  0  0
 11 13  1  0  0  0  0
 11 14  1  0  0  0  0
 14 15  1  0  0  0  0
 14 16  1  0  0  0  0
 14 17  1  0  0  0  0
 17 18  1  0  0  0  0
 17 19  1  0  0  0  0
 17 20  1  0  0  0  0
M  END
> <VConfSearch Rank>
84

> <Conf_Id>
53

> <Delta U+W>
0.379

> <U+W>
15.717

> <U>
70.163

> <W>
-54.446

> <W(PB)>
-56.322

> <W(SA)>
1.876

> <Valence>
1.420

> <Coulomb>
68.566

> <VdW>
0.177

> <VdW6>
-4.267

> <VdW12>
4.445

> <Bond>
0.146

> <Angle>
0.581

> <Pdih>
0.693

> <Idih>
0.000

> <Tether>
0.000

$$$$
VeraChem MOL file


 20 19  0  0  0  0  0  0  0  0999 V2000     
   20.2978   21.2535   23.3922 C   0  0  0  0  0  0  0  0  0  0  0  0
   20.9749   22.0965   23.2024 H   0  0  0  0  0  0  0  0  0  0  0  0
   19.3070   21.6645   23.6256 H   0  0  0  0  0  0  0  0  0  0  0  0
   20.6644   20.7211   24.2795 H   0  0  0  0  0  0  0  0  0  0  0  0
   20.2370   20.3160   22.1669 C   0  0  0  0  0  0  0  0  0  0  0  0
   21.2498   19.9558   21.9405 H   0  0  0  0  0  0  0  0  0  0  0  0
   19.8978   20.8844   21.2894 H   0  0  0  0  0  0  0  0  0  0  0  0
   19.2900   19.1172   22.4096 C   0  0  0  0  0  0  0  0  0  0  0  0
   19.6396   18.5302   23.2687 H   0  0  0  0  0  0  0  0  0  0  0  0
   18.2930   19.4911   22.6778 H   0  0  0  0  0  0  0  0  0  0  0  0
   19.1485   18.2033   21.1721 C   0  0  0  0  0  0  0  0  0  0  0  0
   18.7453   18.7896   20.3425 H   0  0  0  0  0  0  0  0  0  0  0  0
   18.4391   17.4012   21.3908 H   0  0  0  0  0  0  0  0  0  0  0  0
   20.4380   17.5573   20.6878 N   0  3  0  0  0  0  0  0  0  0  0  0
   21.1393   18.2809   20.4721 H   0  0  0  0  0  0  0  0  0  0  0  0
   20.2672   17.0773   19.7902 H   0  0  0  0  0  0  0  0  0  0  0  0
   20.9797   16.5652   21.7111 C   0  0  0  0  0  0  0  0  0  0  0  0
   20.2245   15.8007   21.9053 H   0  0  0  0  0  0  0  0  0  0  0  0
   21.8829   16.0976   21.3129 H   0  0  0  0  0  0  0  0  0  0  0  0
   21.2183   17.0936   22.6363 H   0  0  0  0  0  0  0  0  0  0  0  0
  1  2  1  0  0  0  0
  1  3  1  0  0  0  0
  1  4  1  0  0  0  0
  1  5  1  0  0  0  0
  5  6  1  0  0  0  0
  5  7  1  0  0  0  0
  5  8  1  0  0  0  0
  8  9  1  0  0  0  0
  8 10  1  0  0  0  0
  8 11  1  0  0  0  0
 11 12  1  0  0  0  0
 11 13  1  0  0  0  0
 11 14  1  0  0  0  0
 14 15  1  0  0  0  0
 14 16  1  0  0  0  0
 14 17  1  0  0  0  0
 17 18  1  0  0  0  0
 17 19  1  0  0  0  0
 17 20  1  0  0  0  0
M  END
> <VConfSearch Rank>
85

> <Conf_Id>
49

> <Delta U+W>
0.268

> <U+W>
15.607

> <U>
70.298

> <W>
-54.692

> <W(PB)>
-56.576

> <W(SA)>
1.885

> <Valence>
1.245

> <Coulomb>
68.933

> <VdW>
0.120

> <VdW6>
-4.430

> <VdW12>
4.550

> <Bond>
0.148

> <Angle>
0.587

> <Pdih>
0.509

> <Idih>
0.000

> <Tether>
0.000

$$$$
VeraChem MOL file


 20 19  0  0  0  0  0  0  0  0999 V2000     
   19.9411   21.0039   20.3554 C   0  0  0  0  0  0  0  0  0  0  0  0
   20.6804   20.7570   19.5823 H   0  0  0  0  0  0  0  0  0  0  0  0
   18.9579   21.0858   19.8741 H   0  0  0  0  0  0  0  0  0  0  0  0
   20.1981   21.9900   20.7635 H   0  0  0  0  0  0  0  0  0  0  0  0
   19.9276   19.9379   21.4724 C   0  0  0  0  0  0  0  0  0  0  0  0
   19.1997   20.2263   22.2438 H   0  0  0  0  0  0  0  0  0  0  0  0
   20.9146   19.9159   21.9528 H   0  0  0  0  0  0  0  0  0  0  0  0
   19.5786   18.5356   20.9215 C   0  0  0  0  0  0  0  0  0  0  0  0
   18.6466   18.5992   20.3444 H   0  0  0  0  0  0  0  0  0  0  0  0
   20.3550   18.2095   20.2170 H   0  0  0  0  0  0  0  0  0  0  0  0
   19.3895   17.4571   22.0123 C   0  0  0  0  0  0  0  0  0  0  0  0
   19.0843   16.5302   21.5200 H   0  0  0  0  0  0  0  0  0  0  0  0
   18.5894   17.7463   22.6982 H   0  0  0  0  0  0  0  0  0  0  0  0
   20.6265   17.1288   22.8341 N   0  3  0  0  0  0  0  0  0  0  0  0
   21.4770   17.2296   22.2601 H   0  0  0  0  0  0  0  0  0  0  0  0
   20.6041   16.1317   23.0993 H   0  0  0  0  0  0  0  0  0  0  0  0
   20.6999   17.9818   24.0965 C   0  0  0  0  0  0  0  0  0  0  0  0
   21.5873   17.6992   24.6671 H   0  0  0  0  0  0  0  0  0  0  0  0
   20.7596   19.0368   23.8267 H   0  0  0  0  0  0  0  0  0  0  0  0
   19.8061   17.8067   24.6990 H   0  0  0  0  0  0  0  0  0  0  0  0
  1  2  1  0  0  0  0
  1  3  1  0  0  0  0
  1  4  1  0  0  0  0
  1  5  1  0  0  0  0
  5  6  1  0  0  0  0
  5  7  1  0  0  0  0
  5  8  1  0  0  0  0
  8  9  1  0  0  0  0
  8 10  1  0  0  0  0
  8 11  1  0  0  0  0
 11 12  1  0  0  0  0
 11 13  1  0  0  0  0
 11 14  1  0  0  0  0
 14 15  1  0  0  0  0
 14 16  1  0  0  0  0
 14 17  1  0  0  0  0
 17 18  1  0  0  0  0
 17 19  1  0  0  0  0
 17 20  1  0  0  0  0
M  END
> <VConfSearch Rank>
86

> <Conf_Id>
65

> <Delta U+W>
1.775

> <U+W>
17.114

> <U>
71.726

> <W>
-54.613

> <W(PB)>
-56.495

> <W(SA)>
1.883

> <Valence>
2.885

> <Coulomb>
68.822

> <VdW>
0.019

> <VdW6>
-4.600

> <VdW12>
4.619

> <Bond>
0.152

> <Angle>
0.862

> <Pdih>
1.871

> <Idih>
0.000

> <Tether>
0.000

$$$$
VeraChem MOL file


 20 19  0  0  0  0  0  0  0  0999 V2000     
   21.9286   20.1863   21.5780 C   0  0  0  0  0  0  0  0  0  0  0  0
   20.9250   20.6243   21.5077 H   0  0  0  0  0  0  0  0  0  0  0  0
   22.5776   20.9236   22.0679 H   0  0  0  0  0  0  0  0  0  0  0  0
   22.3073   20.0322   20.5592 H   0  0  0  0  0  0  0  0  0  0  0  0
   21.9175   18.8605   22.3733 C   0  0  0  0  0  0  0  0  0  0  0  0
   21.5361   19.0409   23.3875 H   0  0  0  0  0  0  0  0  0  0  0  0
   22.9517   18.5098   22.4971 H   0  0  0  0  0  0  0  0  0  0  0  0
   21.0925   17.7454   21.6834 C   0  0  0  0  0  0  0  0  0  0  0  0
   21.5494   17.5058   20.7141 H   0  0  0  0  0  0  0  0  0  0  0  0
   21.1480   16.8269   22.2825 H   0  0  0  0  0  0  0  0  0  0  0  0
   19.6114   18.1118   21.4526 C   0  0  0  0  0  0  0  0  0  0  0  0
   19.1109   17.2888   20.9362 H   0  0  0  0  0  0  0  0  0  0  0  0
   19.5464   18.9990   20.8181 H   0  0  0  0  0  0  0  0  0  0  0  0
   18.8398   18.3914   22.7281 N   0  3  0  0  0  0  0  0  0  0  0  0
   19.2870   19.1600   23.2493 H   0  0  0  0  0  0  0  0  0  0  0  0
   18.8803   17.5731   23.3548 H   0  0  0  0  0  0  0  0  0  0  0  0
   17.3953   18.7405   22.3964 C   0  0  0  0  0  0  0  0  0  0  0  0
   16.9333   17.9006   21.8731 H   0  0  0  0  0  0  0  0  0  0  0  0
   16.8525   18.9403   23.3229 H   0  0  0  0  0  0  0  0  0  0  0  0
   17.3765   19.6278   21.7600 H   0  0  0  0  0  0  0  0  0  0  0  0
  1  2  1  0  0  0  0
  1  3  1  0  0  0  0
  1  4  1  0  0  0  0
  1  5  1  0  0  0  0
  5  6  1  0  0  0  0
  5  7  1  0  0  0  0
  5  8  1  0  0  0  0
  8  9  1  0  0  0  0
  8 10  1  0  0  0  0
  8 11  1  0  0  0  0
 11 12  1  0  0  0  0
 11 13  1  0  0  0  0
 11 14  1  0  0  0  0
 14 15  1  0  0  0  0
 14 16  1  0  0  0  0
 14 17  1  0  0  0  0
 17 18  1  0  0  0  0
 17 19  1  0  0  0  0
 17 20  1  0  0  0  0
M  END
> <VConfSearch Rank>
87

> <Conf_Id>
23

> <Delta U+W>
0.896

> <U+W>
16.234

> <U>
70.374

> <W>
-54.140

> <W(PB)>
-56.046

> <W(SA)>
1.907

> <Valence>
1.257

> <Coulomb>
69.240

> <VdW>
-0.123

> <VdW6>
-4.336

> <VdW12>
4.213

> <Bond>
0.128

> <Angle>
0.603

> <Pdih>
0.526

> <Idih>
0.000

> <Tether>
0.000

$$$$
VeraChem MOL file


 20 19  0  0  0  0  0  0  0  0999 V2000     
   19.3051   21.0060   21.8543 C   0  0  0  0  0  0  0  0  0  0  0  0
   18.5731   21.0942   21.0410 H   0  0  0  0  0  0  0  0  0  0  0  0
   19.3691   21.9814   22.3537 H   0  0  0  0  0  0  0  0  0  0  0  0
   20.2866   20.7969   21.4104 H   0  0  0  0  0  0  0  0  0  0  0  0
   18.8889   19.9081   22.8601 C   0  0  0  0  0  0  0  0  0  0  0  0
   17.9490   20.2065   23.3455 H   0  0  0  0  0  0  0  0  0  0  0  0
   19.6353   19.8400   23.6630 H   0  0  0  0  0  0  0  0  0  0  0  0
   18.6894   18.5219   22.1978 C   0  0  0  0  0  0  0  0  0  0  0  0
   18.3692   17.7971   22.9581 H   0  0  0  0  0  0  0  0  0  0  0  0
   17.8690   18.5841   21.4706 H   0  0  0  0  0  0  0  0  0  0  0  0
   19.9442   17.9828   21.4796 C   0  0  0  0  0  0  0  0  0  0  0  0
   20.2426   18.6764   20.6899 H   0  0  0  0  0  0  0  0  0  0  0  0
   19.7110   17.0212   21.0155 H   0  0  0  0  0  0  0  0  0  0  0  0
   21.1361   17.7748   22.3944 N   0  3  0  0  0  0  0  0  0  0  0  0
   20.8905   17.1239   23.1559 H   0  0  0  0  0  0  0  0  0  0  0  0
   21.3832   18.6614   22.8584 H   0  0  0  0  0  0  0  0  0  0  0  0
   22.3182   17.2424   21.5957 C   0  0  0  0  0  0  0  0  0  0  0  0
   22.5803   17.9625   20.8175 H   0  0  0  0  0  0  0  0  0  0  0  0
   23.1686   17.0987   22.2659 H   0  0  0  0  0  0  0  0  0  0  0  0
   22.0438   16.2888   21.1395 H   0  0  0  0  0  0  0  0  0  0  0  0
  1  2  1  0  0  0  0
  1  3  1  0  0  0  0
  1  4  1  0  0  0  0
  1  5  1  0  0  0  0
  5  6  1  0  0  0  0
  5  7  1  0  0  0  0
  5  8  1  0  0  0  0
  8  9  1  0  0  0  0
  8 10  1  0  0  0  0
  8 11  1  0  0  0  0
 11 12  1  0  0  0  0
 11 13  1  0  0  0  0
 11 14  1  0  0  0  0
 14 15  1  0  0  0  0
 14 16  1  0  0  0  0
 14 17  1  0  0  0  0
 17 18  1  0  0  0  0
 17 19  1  0  0  0  0
 17 20  1  0  0  0  0
M  END
> <VConfSearch Rank>
88

> <Conf_Id>
24

> <Delta U+W>
0.792

> <U+W>
16.130

> <U>
70.374

> <W>
-54.243

> <W(PB)>
-56.130

> <W(SA)>
1.887

> <Valence>
1.257

> <Coulomb>
69.240

> <VdW>
-0.123

> <VdW6>
-4.336

> <VdW12>
4.213

> <Bond>
0.128

> <Angle>
0.603

> <Pdih>
0.526

> <Idih>
0.000

> <Tether>
0.000

$$$$
VeraChem MOL file


 20 19  0  0  0  0  0  0  0  0999 V2000     
   21.0782   16.9331   22.4028 C   0  0  0  0  0  0  0  0  0  0  0  0
   21.3880   15.9612   22.8085 H   0  0  0  0  0  0  0  0  0  0  0  0
   20.0655   16.8056   22.0025 H   0  0  0  0  0  0  0  0  0  0  0  0
   21.7588   17.1805   21.5776 H   0  0  0  0  0  0  0  0  0  0  0  0
   21.1202   18.0122   23.5089 C   0  0  0  0  0  0  0  0  0  0  0  0
   22.0914   17.9526   24.0200 H   0  0  0  0  0  0  0  0  0  0  0  0
   20.3618   17.7840   24.2710 H   0  0  0  0  0  0  0  0  0  0  0  0
   20.9253   19.4628   22.9984 C   0  0  0  0  0  0  0  0  0  0  0  0
   21.0432   20.1408   23.8541 H   0  0  0  0  0  0  0  0  0  0  0  0
   21.7220   19.7294   22.2912 H   0  0  0  0  0  0  0  0  0  0  0  0
   19.5442   19.7370   22.3663 C   0  0  0  0  0  0  0  0  0  0  0  0
   19.3517   20.8128   22.3815 H   0  0  0  0  0  0  0  0  0  0  0  0
   18.7650   19.2450   22.9537 H   0  0  0  0  0  0  0  0  0  0  0  0
   19.4157   19.2858   20.9238 N   0  3  0  0  0  0  0  0  0  0  0  0
   19.6407   18.2837   20.8466 H   0  0  0  0  0  0  0  0  0  0  0  0
   20.1131   19.7695   20.3376 H   0  0  0  0  0  0  0  0  0  0  0  0
   18.0069   19.5604   20.4153 C   0  0  0  0  0  0  0  0  0  0  0  0
   17.2893   19.0128   21.0301 H   0  0  0  0  0  0  0  0  0  0  0  0
   17.8047   20.6318   20.4774 H   0  0  0  0  0  0  0  0  0  0  0  0
   17.9294   19.2308   19.3769 H   0  0  0  0  0  0  0  0  0  0  0  0
  1  2  1  0  0  0  0
  1  3  1  0  0  0  0
  1  4  1  0  0  0  0
  1  5  1  0  0  0  0
  5  6  1  0  0  0  0
  5  7  1  0  0  0  0
  5  8  1  0  0  0  0
  8  9  1  0  0  0  0
  8 10  1  0  0  0  0
  8 11  1  0  0  0  0
 11 12  1  0  0  0  0
 11 13  1  0  0  0  0
 11 14  1  0  0  0  0
 14 15  1  0  0  0  0
 14 16  1  0  0  0  0
 14 17  1  0  0  0  0
 17 18  1  0  0  0  0
 17 19  1  0  0  0  0
 17 20  1  0  0  0  0
M  END
> <VConfSearch Rank>
89

> <Conf_Id>
26

> <Delta U+W>
2.888

> <U+W>
18.226

> <U>
72.042

> <W>
-53.816

> <W(PB)>
-55.689

> <W(SA)>
1.873

> <Valence>
2.428

> <Coulomb>
69.829

> <VdW>
-0.215

> <VdW6>
-4.563

> <VdW12>
4.348

> <Bond>
0.137

> <Angle>
0.936

> <Pdih>
1.356

> <Idih>
0.000

> <Tether>
0.000

$$$$
VeraChem MOL file


 20 19  0  0  0  0  0  0  0  0999 V2000     
   20.6744   20.7578   23.0203 C   0  0  0  0  0  0  0  0  0  0  0  0
   20.7775   21.8233   23.2638 H   0  0  0  0  0  0  0  0  0  0  0  0
   21.3257   20.1968   23.7032 H   0  0  0  0  0  0  0  0  0  0  0  0
   21.0379   20.6266   21.9943 H   0  0  0  0  0  0  0  0  0  0  0  0
   19.1994   20.3173   23.1612 C   0  0  0  0  0  0  0  0  0  0  0  0
   18.5914   20.8276   22.4009 H   0  0  0  0  0  0  0  0  0  0  0  0
   18.8218   20.6630   24.1338 H   0  0  0  0  0  0  0  0  0  0  0  0
   18.9747   18.7865   23.0662 C   0  0  0  0  0  0  0  0  0  0  0  0
   19.5181   18.2699   23.8684 H   0  0  0  0  0  0  0  0  0  0  0  0
   17.9099   18.5894   23.2485 H   0  0  0  0  0  0  0  0  0  0  0  0
   19.3406   18.1711   21.6989 C   0  0  0  0  0  0  0  0  0  0  0  0
   19.0080   18.8328   20.8952 H   0  0  0  0  0  0  0  0  0  0  0  0
   18.8226   17.2153   21.5872 H   0  0  0  0  0  0  0  0  0  0  0  0
   20.8207   17.8956   21.5129 N   0  3  0  0  0  0  0  0  0  0  0  0
   21.1521   17.2371   22.2344 H   0  0  0  0  0  0  0  0  0  0  0  0
   21.3613   18.7595   21.6613 H   0  0  0  0  0  0  0  0  0  0  0  0
   21.0755   17.3353   20.1202 C   0  0  0  0  0  0  0  0  0  0  0  0
   20.7472   18.0623   19.3741 H   0  0  0  0  0  0  0  0  0  0  0  0
   22.1439   17.1420   20.0009 H   0  0  0  0  0  0  0  0  0  0  0  0
   20.5174   16.4044   19.9994 H   0  0  0  0  0  0  0  0  0  0  0  0
  1  2  1  0  0  0  0
  1  3  1  0  0  0  0
  1  4  1  0  0  0  0
  1  5  1  0  0  0  0
  5  6  1  0  0  0  0
  5  7  1  0  0  0  0
  5  8  1  0  0  0  0
  8  9  1  0  0  0  0
  8 10  1  0  0  0  0
  8 11  1  0  0  0  0
 11 12  1  0  0  0  0
 11 13  1  0  0  0  0
 11 14  1  0  0  0  0
 14 15  1  0  0  0  0
 14 16  1  0  0  0  0
 14 17  1  0  0  0  0
 17 18  1  0  0  0  0
 17 19  1  0  0  0  0
 17 20  1  0  0  0  0
M  END
> <VConfSearch Rank>
90

> <Conf_Id>
5

> <Delta U+W>
2.950

> <U+W>
18.289

> <U>
72.042

> <W>
-53.753

> <W(PB)>
-55.644

> <W(SA)>
1.891

> <Valence>
2.428

> <Coulomb>
69.829

> <VdW>
-0.215

> <VdW6>
-4.563

> <VdW12>
4.348

> <Bond>
0.137

> <Angle>
0.936

> <Pdih>
1.356

> <Idih>
0.000

> <Tether>
0.000

$$$$
VeraChem MOL file


 20 19  0  0  0  0  0  0  0  0999 V2000     
   18.3185   17.1610   21.8460 C   0  0  0  0  0  0  0  0  0  0  0  0
   17.5739   17.2355   22.6492 H   0  0  0  0  0  0  0  0  0  0  0  0
   18.0943   17.9328   21.0991 H   0  0  0  0  0  0  0  0  0  0  0  0
   18.1907   16.1844   21.3613 H   0  0  0  0  0  0  0  0  0  0  0  0
   19.7532   17.3061   22.4033 C   0  0  0  0  0  0  0  0  0  0  0  0
   20.4797   17.2245   21.5833 H   0  0  0  0  0  0  0  0  0  0  0  0
   19.9615   16.4631   23.0771 H   0  0  0  0  0  0  0  0  0  0  0  0
   19.9728   18.6294   23.1778 C   0  0  0  0  0  0  0  0  0  0  0  0
   19.3053   18.6525   24.0493 H   0  0  0  0  0  0  0  0  0  0  0  0
   20.9939   18.6511   23.5797 H   0  0  0  0  0  0  0  0  0  0  0  0
   19.7236   19.9005   22.3341 C   0  0  0  0  0  0  0  0  0  0  0  0
   19.9010   20.7871   22.9480 H   0  0  0  0  0  0  0  0  0  0  0  0
   18.6779   19.9178   22.0175 H   0  0  0  0  0  0  0  0  0  0  0  0
   20.5798   20.0257   21.0833 N   0  3  0  0  0  0  0  0  0  0  0  0
   20.2500   20.8225   20.5165 H   0  0  0  0  0  0  0  0  0  0  0  0
   20.4497   19.1983   20.4827 H   0  0  0  0  0  0  0  0  0  0  0  0
   22.0512   20.2133   21.4361 C   0  0  0  0  0  0  0  0  0  0  0  0
   22.4069   19.3372   21.9821 H   0  0  0  0  0  0  0  0  0  0  0  0
   22.6278   20.3309   20.5160 H   0  0  0  0  0  0  0  0  0  0  0  0
   22.1611   21.1058   22.0558 H   0  0  0  0  0  0  0  0  0  0  0  0
  1  2  1  0  0  0  0
  1  3  1  0  0  0  0
  1  4  1  0  0  0  0
  1  5  1  0  0  0  0
  5  6  1  0  0  0  0
  5  7  1  0  0  0  0
  5  8  1  0  0  0  0
  8  9  1  0  0  0  0
  8 10  1  0  0  0  0
  8 11  1  0  0  0  0
 11 12  1  0  0  0  0
 11 13  1  0  0  0  0
 11 14  1  0  0  0  0
 14 15  1  0  0  0  0
 14 16  1  0  0  0  0
 14 17  1  0  0  0  0
 17 18  1  0  0  0  0
 17 19  1  0  0  0  0
 17 20  1  0  0  0  0
M  END
> <VConfSearch Rank>
91

> <Conf_Id>
52

> <Delta U+W>
0.784

> <U+W>
16.122

> <U>
70.777

> <W>
-54.655

> <W(PB)>
-56.491

> <W(SA)>
1.836

> <Valence>
1.529

> <Coulomb>
69.166

> <VdW>
0.082

> <VdW6>
-5.166

> <VdW12>
5.248

> <Bond>
0.171

> <Angle>
0.752

> <Pdih>
0.605

> <Idih>
0.000

> <Tether>
0.000

$$$$
VeraChem MOL file


 20 19  0  0  0  0  0  0  0  0999 V2000     
   18.8693   19.9963   20.6596 C   0  0  0  0  0  0  0  0  0  0  0  0
   18.1207   20.5298   20.0595 H   0  0  0  0  0  0  0  0  0  0  0  0
   19.4163   20.7520   21.2348 H   0  0  0  0  0  0  0  0  0  0  0  0
   19.5646   19.5064   19.9654 H   0  0  0  0  0  0  0  0  0  0  0  0
   18.1796   18.9669   21.5838 C   0  0  0  0  0  0  0  0  0  0  0  0
   17.4659   18.3838   20.9849 H   0  0  0  0  0  0  0  0  0  0  0  0
   17.5812   19.4948   22.3396 H   0  0  0  0  0  0  0  0  0  0  0  0
   19.1498   17.9792   22.2809 C   0  0  0  0  0  0  0  0  0  0  0  0
   18.5451   17.2449   22.8293 H   0  0  0  0  0  0  0  0  0  0  0  0
   19.7084   17.4036   21.5322 H   0  0  0  0  0  0  0  0  0  0  0  0
   20.1182   18.6350   23.2927 C   0  0  0  0  0  0  0  0  0  0  0  0
   20.5136   17.8667   23.9619 H   0  0  0  0  0  0  0  0  0  0  0  0
   19.5644   19.3540   23.9016 H   0  0  0  0  0  0  0  0  0  0  0  0
   21.3139   19.3563   22.6907 N   0  3  0  0  0  0  0  0  0  0  0  0
   21.7849   19.9132   23.4210 H   0  0  0  0  0  0  0  0  0  0  0  0
   20.9972   20.0412   21.9904 H   0  0  0  0  0  0  0  0  0  0  0  0
   22.3013   18.3713   22.0747 C   0  0  0  0  0  0  0  0  0  0  0  0
   22.6319   17.6672   22.8413 H   0  0  0  0  0  0  0  0  0  0  0  0
   21.8149   17.8306   21.2606 H   0  0  0  0  0  0  0  0  0  0  0  0
   23.1607   18.9221   21.6862 H   0  0  0  0  0  0  0  0  0  0  0  0
  1  2  1  0  0  0  0
  1  3  1  0  0  0  0
  1  4  1  0  0  0  0
  1  5  1  0  0  0  0
  5  6  1  0  0  0  0
  5  7  1  0  0  0  0
  5  8  1  0  0  0  0
  8  9  1  0  0  0  0
  8 10  1  0  0  0  0
  8 11  1  0  0  0  0
 11 12  1  0  0  0  0
 11 13  1  0  0  0  0
 11 14  1  0  0  0  0
 14 15  1  0  0  0  0
 14 16  1  0  0  0  0
 14 17  1  0  0  0  0
 17 18  1  0  0  0  0
 17 19  1  0  0  0  0
 17 20  1  0  0  0  0
M  END
> <VConfSearch Rank>
92

> <Conf_Id>
55

> <Delta U+W>
2.745

> <U+W>
18.083

> <U>
72.490

> <W>
-54.407

> <W(PB)>
-56.269

> <W(SA)>
1.861

> <Valence>
2.738

> <Coulomb>
69.795

> <VdW>
-0.043

> <VdW6>
-5.333

> <VdW12>
5.290

> <Bond>
0.182

> <Angle>
1.135

> <Pdih>
1.422

> <Idih>
0.000

> <Tether>
0.000

$$$$
VeraChem MOL file


 20 19  0  0  0  0  0  0  0  0999 V2000     
   20.3695   20.4206   23.3374 C   0  0  0  0  0  0  0  0  0  0  0  0
   20.6044   21.3512   23.8704 H   0  0  0  0  0  0  0  0  0  0  0  0
   19.6274   19.8739   23.9338 H   0  0  0  0  0  0  0  0  0  0  0  0
   21.2938   19.8332   23.2964 H   0  0  0  0  0  0  0  0  0  0  0  0
   19.8320   20.7353   21.9227 C   0  0  0  0  0  0  0  0  0  0  0  0
   20.6340   21.1774   21.3149 H   0  0  0  0  0  0  0  0  0  0  0  0
   19.0554   21.5083   22.0087 H   0  0  0  0  0  0  0  0  0  0  0  0
   19.2247   19.5169   21.1813 C   0  0  0  0  0  0  0  0  0  0  0  0
   18.3829   19.1059   21.7525 H   0  0  0  0  0  0  0  0  0  0  0  0
   18.7950   19.8779   20.2376 H   0  0  0  0  0  0  0  0  0  0  0  0
   20.2400   18.4028   20.8357 C   0  0  0  0  0  0  0  0  0  0  0  0
   21.1525   18.8605   20.4456 H   0  0  0  0  0  0  0  0  0  0  0  0
   19.8235   17.7680   20.0495 H   0  0  0  0  0  0  0  0  0  0  0  0
   20.6316   17.4862   21.9842 N   0  3  0  0  0  0  0  0  0  0  0  0
   20.9588   18.0440   22.7853 H   0  0  0  0  0  0  0  0  0  0  0  0
   21.4416   16.9103   21.7058 H   0  0  0  0  0  0  0  0  0  0  0  0
   19.4720   16.5842   22.3921 C   0  0  0  0  0  0  0  0  0  0  0  0
   18.6414   17.1979   22.7459 H   0  0  0  0  0  0  0  0  0  0  0  0
   19.1552   15.9942   21.5294 H   0  0  0  0  0  0  0  0  0  0  0  0
   19.8015   15.9178   23.1922 H   0  0  0  0  0  0  0  0  0  0  0  0
  1  2  1  0  0  0  0
  1  3  1  0  0  0  0
  1  4  1  0  0  0  0
  1  5  1  0  0  0  0
  5  6  1  0  0  0  0
  5  7  1  0  0  0  0
  5  8  1  0  0  0  0
  8  9  1  0  0  0  0
  8 10  1  0  0  0  0
  8 11  1  0  0  0  0
 11 12  1  0  0  0  0
 11 13  1  0  0  0  0
 11 14  1  0  0  0  0
 14 15  1  0  0  0  0
 14 16  1  0  0  0  0
 14 17  1  0  0  0  0
 17 18  1  0  0  0  0
 17 19  1  0  0  0  0
 17 20  1  0  0  0  0
M  END
> <VConfSearch Rank>
93

> <Conf_Id>
76

> <Delta U+W>
2.799

> <U+W>
18.137

> <U>
72.490

> <W>
-54.353

> <W(PB)>
-56.201

> <W(SA)>
1.848

> <Valence>
2.738

> <Coulomb>
69.795

> <VdW>
-0.043

> <VdW6>
-5.334

> <VdW12>
5.290

> <Bond>
0.182

> <Angle>
1.135

> <Pdih>
1.421

> <Idih>
0.000

> <Tether>
0.000

$$$$
VeraChem MOL file


 20 19  0  0  0  0  0  0  0  0999 V2000     
   21.7804   17.5865   21.3628 C   0  0  0  0  0  0  0  0  0  0  0  0
   21.5560   17.5297   22.4349 H   0  0  0  0  0  0  0  0  0  0  0  0
   21.5702   16.6052   20.9181 H   0  0  0  0  0  0  0  0  0  0  0  0
   22.8564   17.7771   21.2589 H   0  0  0  0  0  0  0  0  0  0  0  0
   20.9628   18.6981   20.6654 C   0  0  0  0  0  0  0  0  0  0  0  0
   21.2760   18.7611   19.6139 H   0  0  0  0  0  0  0  0  0  0  0  0
   21.2008   19.6749   21.1057 H   0  0  0  0  0  0  0  0  0  0  0  0
   19.4353   18.4491   20.7129 C   0  0  0  0  0  0  0  0  0  0  0  0
   18.9196   19.2486   20.1649 H   0  0  0  0  0  0  0  0  0  0  0  0
   19.2141   17.5212   20.1691 H   0  0  0  0  0  0  0  0  0  0  0  0
   18.8267   18.3342   22.1303 C   0  0  0  0  0  0  0  0  0  0  0  0
   19.3291   17.5501   22.7017 H   0  0  0  0  0  0  0  0  0  0  0  0
   17.7791   18.0422   22.0209 H   0  0  0  0  0  0  0  0  0  0  0  0
   18.8347   19.6127   22.9551 N   0  3  0  0  0  0  0  0  0  0  0  0
   18.0147   19.6173   23.5815 H   0  0  0  0  0  0  0  0  0  0  0  0
   18.7042   20.4339   22.3457 H   0  0  0  0  0  0  0  0  0  0  0  0
   20.1035   19.7370   23.7916 C   0  0  0  0  0  0  0  0  0  0  0  0
   20.0503   20.6511   24.3869 H   0  0  0  0  0  0  0  0  0  0  0  0
   20.1814   18.8724   24.4543 H   0  0  0  0  0  0  0  0  0  0  0  0
   20.9746   19.7779   23.1369 H   0  0  0  0  0  0  0  0  0  0  0  0
  1  2  1  0  0  0  0
  1  3  1  0  0  0  0
  1  4  1  0  0  0  0
  1  5  1  0  0  0  0
  5  6  1  0  0  0  0
  5  7  1  0  0  0  0
  5  8  1  0  0  0  0
  8  9  1  0  0  0  0
  8 10  1  0  0  0  0
  8 11  1  0  0  0  0
 11 12  1  0  0  0  0
 11 13  1  0  0  0  0
 11 14  1  0  0  0  0
 14 15  1  0  0  0  0
 14 16  1  0  0  0  0
 14 17  1  0  0  0  0
 17 18  1  0  0  0  0
 17 19  1  0  0  0  0
 17 20  1  0  0  0  0
M  END
> <VConfSearch Rank>
94

> <Conf_Id>
60

> <Delta U+W>
1.788

> <U+W>
17.127

> <U>
72.122

> <W>
-54.995

> <W(PB)>
-56.810

> <W(SA)>
1.815

> <Valence>
3.197

> <Coulomb>
69.115

> <VdW>
-0.190

> <VdW6>
-5.585

> <VdW12>
5.395

> <Bond>
0.177

> <Angle>
1.207

> <Pdih>
1.813

> <Idih>
0.000

> <Tether>
0.000

$$$$
VeraChem MOL file


 20 19  0  0  0  0  0  0  0  0999 V2000     
   21.7088   17.6437   21.0866 C   0  0  0  0  0  0  0  0  0  0  0  0
   22.2264   17.6541   20.1187 H   0  0  0  0  0  0  0  0  0  0  0  0
   22.2336   16.9337   21.7388 H   0  0  0  0  0  0  0  0  0  0  0  0
   20.6943   17.2636   20.9157 H   0  0  0  0  0  0  0  0  0  0  0  0
   21.6920   19.0594   21.7080 C   0  0  0  0  0  0  0  0  0  0  0  0
   21.1843   19.7617   21.0343 H   0  0  0  0  0  0  0  0  0  0  0  0
   22.7263   19.4216   21.7914 H   0  0  0  0  0  0  0  0  0  0  0  0
   21.0390   19.0991   23.1113 C   0  0  0  0  0  0  0  0  0  0  0  0
   21.6323   18.4744   23.7921 H   0  0  0  0  0  0  0  0  0  0  0  0
   21.0989   20.1198   23.5113 H   0  0  0  0  0  0  0  0  0  0  0  0
   19.5702   18.6180   23.1721 C   0  0  0  0  0  0  0  0  0  0  0  0
   19.2739   18.5826   24.2236 H   0  0  0  0  0  0  0  0  0  0  0  0
   19.4805   17.6059   22.7706 H   0  0  0  0  0  0  0  0  0  0  0  0
   18.5569   19.5080   22.4678 N   0  3  0  0  0  0  0  0  0  0  0  0
   18.8341   20.4980   22.5445 H   0  0  0  0  0  0  0  0  0  0  0  0
   17.6528   19.4492   22.9616 H   0  0  0  0  0  0  0  0  0  0  0  0
   18.3595   19.0969   21.0127 C   0  0  0  0  0  0  0  0  0  0  0  0
   18.0233   18.0585   20.9767 H   0  0  0  0  0  0  0  0  0  0  0  0
   17.6043   19.7424   20.5589 H   0  0  0  0  0  0  0  0  0  0  0  0
   19.2999   19.1979   20.4700 H   0  0  0  0  0  0  0  0  0  0  0  0
  1  2  1  0  0  0  0
  1  3  1  0  0  0  0
  1  4  1  0  0  0  0
  1  5  1  0  0  0  0
  5  6  1  0  0  0  0
  5  7  1  0  0  0  0
  5  8  1  0  0  0  0
  8  9  1  0  0  0  0
  8 10  1  0  0  0  0
  8 11  1  0  0  0  0
 11 12  1  0  0  0  0
 11 13  1  0  0  0  0
 11 14  1  0  0  0  0
 14 15  1  0  0  0  0
 14 16  1  0  0  0  0
 14 17  1  0  0  0  0
 17 18  1  0  0  0  0
 17 19  1  0  0  0  0
 17 20  1  0  0  0  0
M  END
> <VConfSearch Rank>
95

> <Conf_Id>
54

> <Delta U+W>
1.880

> <U+W>
17.218

> <U>
72.122

> <W>
-54.903

> <W(PB)>
-56.724

> <W(SA)>
1.821

> <Valence>
3.197

> <Coulomb>
69.115

> <VdW>
-0.190

> <VdW6>
-5.585

> <VdW12>
5.395

> <Bond>
0.177

> <Angle>
1.207

> <Pdih>
1.813

> <Idih>
0.000

> <Tether>
0.000

$$$$
VeraChem MOL file


 20 19  0  0  0  0  0  0  0  0999 V2000     
   17.0092   19.0282   20.9890 C   0  0  0  0  0  0  0  0  0  0  0  0
   17.1440   19.8981   20.3331 H   0  0  0  0  0  0  0  0  0  0  0  0
   16.2836   18.3568   20.5119 H   0  0  0  0  0  0  0  0  0  0  0  0
   16.5730   19.3774   21.9340 H   0  0  0  0  0  0  0  0  0  0  0  0
   18.3495   18.3004   21.2303 C   0  0  0  0  0  0  0  0  0  0  0  0
   18.7431   17.9329   20.2720 H   0  0  0  0  0  0  0  0  0  0  0  0
   18.1766   17.4164   21.8604 H   0  0  0  0  0  0  0  0  0  0  0  0
   19.3912   19.2223   21.9016 C   0  0  0  0  0  0  0  0  0  0  0  0
   19.5659   20.1034   21.2699 H   0  0  0  0  0  0  0  0  0  0  0  0
   18.9986   19.5863   22.8605 H   0  0  0  0  0  0  0  0  0  0  0  0
   20.7246   18.4894   22.1390 C   0  0  0  0  0  0  0  0  0  0  0  0
   21.1260   18.1392   21.1847 H   0  0  0  0  0  0  0  0  0  0  0  0
   20.5569   17.6205   22.7804 H   0  0  0  0  0  0  0  0  0  0  0  0
   21.7796   19.3568   22.7972 N   0  3  0  0  0  0  0  0  0  0  0  0
   21.4342   19.7145   23.7010 H   0  0  0  0  0  0  0  0  0  0  0  0
   21.9611   20.1947   22.2235 H   0  0  0  0  0  0  0  0  0  0  0  0
   23.0607   18.5573   22.9943 C   0  0  0  0  0  0  0  0  0  0  0  0
   23.4266   18.2184   22.0226 H   0  0  0  0  0  0  0  0  0  0  0  0
   23.8112   19.1935   23.4687 H   0  0  0  0  0  0  0  0  0  0  0  0
   22.8526   17.6954   23.6320 H   0  0  0  0  0  0  0  0  0  0  0  0
  1  2  1  0  0  0  0
  1  3  1  0  0  0  0
  1  4  1  0  0  0  0
  1  5  1  0  0  0  0
  5  6  1  0  0  0  0
  5  7  1  0  0  0  0
  5  8  1  0  0  0  0
  8  9  1  0  0  0  0
  8 10  1  0  0  0  0
  8 11  1  0  0  0  0
 11 12  1  0  0  0  0
 11 13  1  0  0  0  0
 11 14  1  0  0  0  0
 14 15  1  0  0  0  0
 14 16  1  0  0  0  0
 14 17  1  0  0  0  0
 17 18  1  0  0  0  0
 17 19  1  0  0  0  0
 17 20  1  0  0  0  0
M  END
> <VConfSearch Rank>
96

> <Conf_Id>
67

> <Delta U+W>
0.000

> <U+W>
15.338

> <U>
69.277

> <W>
-53.939

> <W(PB)>
-55.889

> <W(SA)>
1.950

> <Valence>
0.846

> <Coulomb>
68.557

> <VdW>
-0.127

> <VdW6>
-3.008

> <VdW12>
2.882

> <Bond>
0.088

> <Angle>
0.332

> <Pdih>
0.426

> <Idih>
0.000

> <Tether>
0.000

$$$$
VeraChem MOL file


 20 19  0  0  0  0  0  0  0  0999 V2000     
   19.6216   21.6435   20.9014 C   0  0  0  0  0  0  0  0  0  0  0  0
   18.7565   21.2801   20.3315 H   0  0  0  0  0  0  0  0  0  0  0  0
   19.4067   22.6720   21.2191 H   0  0  0  0  0  0  0  0  0  0  0  0
   20.4868   21.6741   20.2265 H   0  0  0  0  0  0  0  0  0  0  0  0
   19.9010   20.7421   22.1236 C   0  0  0  0  0  0  0  0  0  0  0  0
   19.0318   20.7590   22.7962 H   0  0  0  0  0  0  0  0  0  0  0  0
   20.7484   21.1506   22.6923 H   0  0  0  0  0  0  0  0  0  0  0  0
   20.2074   19.2869   21.7063 C   0  0  0  0  0  0  0  0  0  0  0  0
   19.3589   18.8833   21.1388 H   0  0  0  0  0  0  0  0  0  0  0  0
   21.0784   19.2703   21.0379 H   0  0  0  0  0  0  0  0  0  0  0  0
   20.4866   18.3948   22.9336 C   0  0  0  0  0  0  0  0  0  0  0  0
   19.6060   18.3671   23.5803 H   0  0  0  0  0  0  0  0  0  0  0  0
   21.3122   18.8264   23.5052 H   0  0  0  0  0  0  0  0  0  0  0  0
   20.8685   16.9616   22.6007 N   0  3  0  0  0  0  0  0  0  0  0  0
   21.1956   16.4843   23.4554 H   0  0  0  0  0  0  0  0  0  0  0  0
   21.6793   16.9466   21.9634 H   0  0  0  0  0  0  0  0  0  0  0  0
   19.6922   16.1990   22.0005 C   0  0  0  0  0  0  0  0  0  0  0  0
   19.3945   16.6712   21.0622 H   0  0  0  0  0  0  0  0  0  0  0  0
   19.9945   15.1667   21.8109 H   0  0  0  0  0  0  0  0  0  0  0  0
   18.8571   16.2143   22.7042 H   0  0  0  0  0  0  0  0  0  0  0  0
  1  2  1  0  0  0  0
  1  3  1  0  0  0  0
  1  4  1  0  0  0  0
  1  5  1  0  0  0  0
  5  6  1  0  0  0  0
  5  7  1  0  0  0  0
  5  8  1  0  0  0  0
  8  9  1  0  0  0  0
  8 10  1  0  0  0  0
  8 11  1  0  0  0  0
 11 12  1  0  0  0  0
 11 13  1  0  0  0  0
 11 14  1  0  0  0  0
 14 15  1  0  0  0  0
 14 16  1  0  0  0  0
 14 17  1  0  0  0  0
 17 18  1  0  0  0  0
 17 19  1  0  0  0  0
 17 20  1  0  0  0  0
M  END
> <VConfSearch Rank>
97

> <Conf_Id>
37

> <Delta U+W>
-0.021

> <U+W>
15.318

> <U>
69.657

> <W>
-54.340

> <W(PB)>
-56.238

> <W(SA)>
1.899

> <Valence>
1.137

> <Coulomb>
68.383

> <VdW>
0.138

> <VdW6>
-3.703

> <VdW12>
3.841

> <Bond>
0.125

> <Angle>
0.468

> <Pdih>
0.543

> <Idih>
0.000

> <Tether>
0.000

$$$$
VeraChem MOL file


 20 19  0  0  0  0  0  0  0  0999 V2000     
   19.2276   18.9486   24.8889 C   0  0  0  0  0  0  0  0  0  0  0  0
   18.4553   18.6251   25.5988 H   0  0  0  0  0  0  0  0  0  0  0  0
   20.1684   18.4570   25.1688 H   0  0  0  0  0  0  0  0  0  0  0  0
   19.3601   20.0320   25.0071 H   0  0  0  0  0  0  0  0  0  0  0  0
   18.8226   18.5922   23.4421 C   0  0  0  0  0  0  0  0  0  0  0  0
   17.8616   19.0696   23.2039 H   0  0  0  0  0  0  0  0  0  0  0  0
   18.6642   17.5072   23.3640 H   0  0  0  0  0  0  0  0  0  0  0  0
   19.8921   19.0365   22.4201 C   0  0  0  0  0  0  0  0  0  0  0  0
   20.0467   20.1209   22.4957 H   0  0  0  0  0  0  0  0  0  0  0  0
   20.8496   18.5575   22.6618 H   0  0  0  0  0  0  0  0  0  0  0  0
   19.4779   18.6776   20.9780 C   0  0  0  0  0  0  0  0  0  0  0  0
   18.5087   19.1351   20.7632 H   0  0  0  0  0  0  0  0  0  0  0  0
   19.3690   17.5944   20.8817 H   0  0  0  0  0  0  0  0  0  0  0  0
   20.4469   19.1480   19.9054 N   0  3  0  0  0  0  0  0  0  0  0  0
   20.6012   20.1648   19.9842 H   0  0  0  0  0  0  0  0  0  0  0  0
   20.0212   19.0170   18.9743 H   0  0  0  0  0  0  0  0  0  0  0  0
   21.7685   18.3909   19.9810 C   0  0  0  0  0  0  0  0  0  0  0  0
   21.5766   17.3211   19.8747 H   0  0  0  0  0  0  0  0  0  0  0  0
   22.4213   18.7295   19.1734 H   0  0  0  0  0  0  0  0  0  0  0  0
   22.2449   18.5878   20.9434 H   0  0  0  0  0  0  0  0  0  0  0  0
  1  2  1  0  0  0  0
  1  3  1  0  0  0  0
  1  4  1  0  0  0  0
  1  5  1  0  0  0  0
  5  6  1  0  0  0  0
  5  7  1  0  0  0  0
  5  8  1  0  0  0  0
  8  9  1  0  0  0  0
  8 10  1  0  0  0  0
  8 11  1  0  0  0  0
 11 12  1  0  0  0  0
 11 13  1  0  0  0  0
 11 14  1  0  0  0  0
 14 15  1  0  0  0  0
 14 16  1  0  0  0  0
 14 17  1  0  0  0  0
 17 18  1  0  0  0  0
 17 19  1  0  0  0  0
 17 20  1  0  0  0  0
M  END
> <VConfSearch Rank>
98

> <Conf_Id>
2

> <Delta U+W>
0.069

> <U+W>
15.407

> <U>
69.657

> <W>
-54.250

> <W(PB)>
-56.176

> <W(SA)>
1.926

> <Valence>
1.137

> <Coulomb>
68.383

> <VdW>
0.138

> <VdW6>
-3.703

> <VdW12>
3.841

> <Bond>
0.125

> <Angle>
0.468

> <Pdih>
0.543

> <Idih>
0.000

> <Tether>
0.000

$$$$
VeraChem MOL file


 20 19  0  0  0  0  0  0  0  0999 V2000     
   20.7759   16.2975   21.2910 C   0  0  0  0  0  0  0  0  0  0  0  0
   21.3727   16.6620   22.1367 H   0  0  0  0  0  0  0  0  0  0  0  0
   19.8943   15.7800   21.6911 H   0  0  0  0  0  0  0  0  0  0  0  0
   21.3826   15.5576   20.7530 H   0  0  0  0  0  0  0  0  0  0  0  0
   20.3639   17.4504   20.3469 C   0  0  0  0  0  0  0  0  0  0  0  0
   19.8514   17.0299   19.4702 H   0  0  0  0  0  0  0  0  0  0  0  0
   21.2632   17.9548   19.9660 H   0  0  0  0  0  0  0  0  0  0  0  0
   19.4342   18.4841   21.0245 C   0  0  0  0  0  0  0  0  0  0  0  0
   19.1215   19.2266   20.2784 H   0  0  0  0  0  0  0  0  0  0  0  0
   18.5207   17.9844   21.3734 H   0  0  0  0  0  0  0  0  0  0  0  0
   20.1113   19.2078   22.2048 C   0  0  0  0  0  0  0  0  0  0  0  0
   21.0191   19.7071   21.8569 H   0  0  0  0  0  0  0  0  0  0  0  0
   20.3908   18.4810   22.9711 H   0  0  0  0  0  0  0  0  0  0  0  0
   19.2268   20.2516   22.8580 N   0  3  0  0  0  0  0  0  0  0  0  0
   18.3520   19.8191   23.1922 H   0  0  0  0  0  0  0  0  0  0  0  0
   18.9349   20.9567   22.1639 H   0  0  0  0  0  0  0  0  0  0  0  0
   19.9693   20.9136   24.0111 C   0  0  0  0  0  0  0  0  0  0  0  0
   20.8729   21.3936   23.6291 H   0  0  0  0  0  0  0  0  0  0  0  0
   19.3215   21.6625   24.4721 H   0  0  0  0  0  0  0  0  0  0  0  0
   20.2378   20.1547   24.7492 H   0  0  0  0  0  0  0  0  0  0  0  0
  1  2  1  0  0  0  0
  1  3  1  0  0  0  0
  1  4  1  0  0  0  0
  1  5  1  0  0  0  0
  5  6  1  0  0  0  0
  5  7  1  0  0  0  0
  5  8  1  0  0  0  0
  8  9  1  0  0  0  0
  8 10  1  0  0  0  0
  8 11  1  0  0  0  0
 11 12  1  0  0  0  0
 11 13  1  0  0  0  0
 11 14  1  0  0  0  0
 14 15  1  0  0  0  0
 14 16  1  0  0  0  0
 14 17  1  0  0  0  0
 17 18  1  0  0  0  0
 17 19  1  0  0  0  0
 17 20  1  0  0  0  0
M  END
> <VConfSearch Rank>
99

> <Conf_Id>
34

> <Delta U+W>
0.276

> <U+W>
15.615

> <U>
69.798

> <W>
-54.184

> <W(PB)>
-56.116

> <W(SA)>
1.933

> <Valence>
1.134

> <Coulomb>
68.735

> <VdW>
-0.070

> <VdW6>
-3.565

> <VdW12>
3.494

> <Bond>
0.108

> <Angle>
0.456

> <Pdih>
0.569

> <Idih>
0.000

> <Tether>
0.000

$$$$
VeraChem MOL file


 20 19  0  0  0  0  0  0  0  0999 V2000     
   19.0243   21.5873   21.3525 C   0  0  0  0  0  0  0  0  0  0  0  0
   19.8559   22.1809   20.9510 H   0  0  0  0  0  0  0  0  0  0  0  0
   18.1321   21.8110   20.7533 H   0  0  0  0  0  0  0  0  0  0  0  0
   18.8314   21.9211   22.3803 H   0  0  0  0  0  0  0  0  0  0  0  0
   19.3461   20.0778   21.3093 C   0  0  0  0  0  0  0  0  0  0  0  0
   19.5026   19.7685   20.2661 H   0  0  0  0  0  0  0  0  0  0  0  0
   18.4784   19.5154   21.6799 H   0  0  0  0  0  0  0  0  0  0  0  0
   20.6006   19.7358   22.1474 C   0  0  0  0  0  0  0  0  0  0  0  0
   21.4494   20.3341   21.7905 H   0  0  0  0  0  0  0  0  0  0  0  0
   20.4407   20.0163   23.1969 H   0  0  0  0  0  0  0  0  0  0  0  0
   20.9869   18.2453   22.0652 C   0  0  0  0  0  0  0  0  0  0  0  0
   21.9259   18.0854   22.6013 H   0  0  0  0  0  0  0  0  0  0  0  0
   21.1396   17.9624   21.0206 H   0  0  0  0  0  0  0  0  0  0  0  0
   19.9553   17.3049   22.6596 N   0  3  0  0  0  0  0  0  0  0  0  0
   19.0502   17.4212   22.1803 H   0  0  0  0  0  0  0  0  0  0  0  0
   19.7776   17.5498   23.6458 H   0  0  0  0  0  0  0  0  0  0  0  0
   20.4376   15.8651   22.5453 C   0  0  0  0  0  0  0  0  0  0  0  0
   20.5871   15.6182   21.4920 H   0  0  0  0  0  0  0  0  0  0  0  0
   21.3795   15.7571   23.0874 H   0  0  0  0  0  0  0  0  0  0  0  0
   19.6864   15.1996   22.9764 H   0  0  0  0  0  0  0  0  0  0  0  0
  1  2  1  0  0  0  0
  1  3  1  0  0  0  0
  1  4  1  0  0  0  0
  1  5  1  0  0  0  0
  5  6  1  0  0  0  0
  5  7  1  0  0  0  0
  5  8  1  0  0  0  0
  8  9  1  0  0  0  0
  8 10  1  0  0  0  0
  8 11  1  0  0  0  0
 11 12  1  0  0  0  0
 11 13  1  0  0  0  0
 11 14  1  0  0  0  0
 14 15  1  0  0  0  0
 14 16  1  0  0  0  0
 14 17  1  0  0  0  0
 17 18  1  0  0  0  0
 17 19  1  0  0  0  0
 17 20  1  0  0  0  0
M  END
> <VConfSearch Rank>
100

> <Conf_Id>
50

> <Delta U+W>
0.319

> <U+W>
15.657

> <U>
69.962

> <W>
-54.305

> <W(PB)>
-56.223

> <W(SA)>
1.918

> <Valence>
0.982

> <Coulomb>
69.058

> <VdW>
-0.078

> <VdW6>
-3.548

> <VdW12>
3.471

> <Bond>
0.105

> <Angle>
0.408

> <Pdih>
0.469

> <Idih>
0.000

> <Tether>
0.000

$$$$
VeraChem MOL file


 20 19  0  0  0  0  0  0  0  0999 V2000     
   22.8055   17.6386   22.5524 C   0  0  0  0  0  0  0  0  0  0  0  0
   23.6799   18.1993   22.9072 H   0  0  0  0  0  0  0  0  0  0  0  0
   22.6862   16.7587   23.1980 H   0  0  0  0  0  0  0  0  0  0  0  0
   23.0211   17.2885   21.5345 H   0  0  0  0  0  0  0  0  0  0  0  0
   21.5412   18.5245   22.5796 C   0  0  0  0  0  0  0  0  0  0  0  0
   21.7122   19.4126   21.9561 H   0  0  0  0  0  0  0  0  0  0  0  0
   21.3707   18.8843   23.6042 H   0  0  0  0  0  0  0  0  0  0  0  0
   20.2934   17.7568   22.0829 C   0  0  0  0  0  0  0  0  0  0  0  0
   20.4457   17.4185   21.0493 H   0  0  0  0  0  0  0  0  0  0  0  0
   20.1586   16.8520   22.6905 H   0  0  0  0  0  0  0  0  0  0  0  0
   19.0024   18.5958   22.1660 C   0  0  0  0  0  0  0  0  0  0  0  0
   18.8530   18.9392   23.1927 H   0  0  0  0  0  0  0  0  0  0  0  0
   18.1483   17.9729   21.8882 H   0  0  0  0  0  0  0  0  0  0  0  0
   18.9953   19.8120   21.2590 N   0  3  0  0  0  0  0  0  0  0  0  0
   19.1448   19.5258   20.2793 H   0  0  0  0  0  0  0  0  0  0  0  0
   19.7870   20.4310   21.4883 H   0  0  0  0  0  0  0  0  0  0  0  0
   17.6762   20.5592   21.4019 C   0  0  0  0  0  0  0  0  0  0  0  0
   17.6846   21.4314   20.7446 H   0  0  0  0  0  0  0  0  0  0  0  0
   16.8548   19.8957   21.1226 H   0  0  0  0  0  0  0  0  0  0  0  0
   17.5551   20.8807   22.4387 H   0  0  0  0  0  0  0  0  0  0  0  0
  1  2  1  0  0  0  0
  1  3  1  0  0  0  0
  1  4  1  0  0  0  0
  1  5  1  0  0  0  0
  5  6  1  0  0  0  0
  5  7  1  0  0  0  0
  5  8  1  0  0  0  0
  8  9  1  0  0  0  0
  8 10  1  0  0  0  0
  8 11  1  0  0  0  0
 11 12  1  0  0  0  0
 11 13  1  0  0  0  0
 11 14  1  0  0  0  0
 14 15  1  0  0  0  0
 14 16  1  0  0  0  0
 14 17  1  0  0  0  0
 17 18  1  0  0  0  0
 17 19  1  0  0  0  0
 17 20  1  0  0  0  0
M  END
> <VConfSearch Rank>
101

> <Conf_Id>
35

> <Delta U+W>
0.360

> <U+W>
15.698

> <U>
69.962

> <W>
-54.264

> <W(PB)>
-56.166

> <W(SA)>
1.902

> <Valence>
0.982

> <Coulomb>
69.058

> <VdW>
-0.078

> <VdW6>
-3.548

> <VdW12>
3.471

> <Bond>
0.105

> <Angle>
0.408

> <Pdih>
0.469

> <Idih>
0.000

> <Tether>
0.000

$$$$
VeraChem MOL file


 20 19  0  0  0  0  0  0  0  0999 V2000     
   19.8077   17.8629   24.4089 C   0  0  0  0  0  0  0  0  0  0  0  0
   19.5632   18.9295   24.4904 H   0  0  0  0  0  0  0  0  0  0  0  0
   19.3976   17.3610   25.2948 H   0  0  0  0  0  0  0  0  0  0  0  0
   20.9000   17.7582   24.4406 H   0  0  0  0  0  0  0  0  0  0  0  0
   19.2266   17.2436   23.1171 C   0  0  0  0  0  0  0  0  0  0  0  0
   18.1343   17.3660   23.1079 H   0  0  0  0  0  0  0  0  0  0  0  0
   19.4157   16.1609   23.1219 H   0  0  0  0  0  0  0  0  0  0  0  0
   19.8305   17.8535   21.8306 C   0  0  0  0  0  0  0  0  0  0  0  0
   20.9166   17.6950   21.8278 H   0  0  0  0  0  0  0  0  0  0  0  0
   19.4320   17.3171   20.9594 H   0  0  0  0  0  0  0  0  0  0  0  0
   19.5167   19.3581   21.6843 C   0  0  0  0  0  0  0  0  0  0  0  0
   19.9656   19.9138   22.5110 H   0  0  0  0  0  0  0  0  0  0  0  0
   18.4340   19.5003   21.7292 H   0  0  0  0  0  0  0  0  0  0  0  0
   20.0019   19.9819   20.3859 N   0  3  0  0  0  0  0  0  0  0  0  0
   19.6135   20.9336   20.2937 H   0  0  0  0  0  0  0  0  0  0  0  0
   19.6253   19.4636   19.5777 H   0  0  0  0  0  0  0  0  0  0  0  0
   21.5249   20.0373   20.3335 C   0  0  0  0  0  0  0  0  0  0  0  0
   21.9261   19.0224   20.3653 H   0  0  0  0  0  0  0  0  0  0  0  0
   21.8334   20.5240   19.4056 H   0  0  0  0  0  0  0  0  0  0  0  0
   21.8935   20.6083   21.1884 H   0  0  0  0  0  0  0  0  0  0  0  0
  1  2  1  0  0  0  0
  1  3  1  0  0  0  0
  1  4  1  0  0  0  0
  1  5  1  0  0  0  0
  5  6  1  0  0  0  0
  5  7  1  0  0  0  0
  5  8  1  0  0  0  0
  8  9  1  0  0  0  0
  8 10  1  0  0  0  0
  8 11  1  0  0  0  0
 11 12  1  0  0  0  0
 11 13  1  0  0  0  0
 11 14  1  0  0  0  0
 14 15  1  0  0  0  0
 14 16  1  0  0  0  0
 14 17  1  0  0  0  0
 17 18  1  0  0  0  0
 17 19  1  0  0  0  0
 17 20  1  0  0  0  0
M  END
> <VConfSearch Rank>
102

> <Conf_Id>
33

> <Delta U+W>
0.372

> <U+W>
15.711

> <U>
70.163

> <W>
-54.452

> <W(PB)>
-56.363

> <W(SA)>
1.911

> <Valence>
1.420

> <Coulomb>
68.566

> <VdW>
0.177

> <VdW6>
-4.267

> <VdW12>
4.445

> <Bond>
0.146

> <Angle>
0.581

> <Pdih>
0.693

> <Idih>
0.000

> <Tether>
0.000

$$$$
VeraChem MOL file


 20 19  0  0  0  0  0  0  0  0999 V2000     
   21.2096   16.6912   22.9611 C   0  0  0  0  0  0  0  0  0  0  0  0
   21.9698   15.9610   23.2676 H   0  0  0  0  0  0  0  0  0  0  0  0
   20.9281   17.2686   23.8508 H   0  0  0  0  0  0  0  0  0  0  0  0
   20.3273   16.1331   22.6215 H   0  0  0  0  0  0  0  0  0  0  0  0
   21.7559   17.6046   21.8398 C   0  0  0  0  0  0  0  0  0  0  0  0
   22.1090   16.9792   21.0079 H   0  0  0  0  0  0  0  0  0  0  0  0
   22.6339   18.1547   22.2066 H   0  0  0  0  0  0  0  0  0  0  0  0
   20.7012   18.6020   21.3063 C   0  0  0  0  0  0  0  0  0  0  0  0
   21.1316   19.1618   20.4655 H   0  0  0  0  0  0  0  0  0  0  0  0
   19.8433   18.0457   20.9073 H   0  0  0  0  0  0  0  0  0  0  0  0
   20.2276   19.5980   22.3867 C   0  0  0  0  0  0  0  0  0  0  0  0
   21.0984   20.1135   22.7996 H   0  0  0  0  0  0  0  0  0  0  0  0
   19.7364   19.0587   23.2001 H   0  0  0  0  0  0  0  0  0  0  0  0
   19.2658   20.6634   21.8866 N   0  3  0  0  0  0  0  0  0  0  0  0
   19.6806   21.1755   21.0933 H   0  0  0  0  0  0  0  0  0  0  0  0
   19.1295   21.3772   22.6195 H   0  0  0  0  0  0  0  0  0  0  0  0
   17.9214   20.0574   21.4982 C   0  0  0  0  0  0  0  0  0  0  0  0
   17.2475   20.8560   21.1804 H   0  0  0  0  0  0  0  0  0  0  0  0
   18.0652   19.3517   20.6776 H   0  0  0  0  0  0  0  0  0  0  0  0
   17.4974   19.5402   22.3615 H   0  0  0  0  0  0  0  0  0  0  0  0
  1  2  1  0  0  0  0
  1  3  1  0  0  0  0
  1  4  1  0  0  0  0
  1  5  1  0  0  0  0
  5  6  1  0  0  0  0
  5  7  1  0  0  0  0
  5  8  1  0  0  0  0
  8  9  1  0  0  0  0
  8 10  1  0  0  0  0
  8 11  1  0  0  0  0
 11 12  1  0  0  0  0
 11 13  1  0  0  0  0
 11 14  1  0  0  0  0
 14 15  1  0  0  0  0
 14 16  1  0  0  0  0
 14 17  1  0  0  0  0
 17 18  1  0  0  0  0
 17 19  1  0  0  0  0
 17 20  1  0  0  0  0
M  END
> <VConfSearch Rank>
103

> <Conf_Id>
53

> <Delta U+W>
0.379

> <U+W>
15.717

> <U>
70.163

> <W>
-54.446

> <W(PB)>
-56.322

> <W(SA)>
1.876

> <Valence>
1.420

> <Coulomb>
68.566

> <VdW>
0.177

> <VdW6>
-4.267

> <VdW12>
4.445

> <Bond>
0.146

> <Angle>
0.581

> <Pdih>
0.693

> <Idih>
0.000

> <Tether>
0.000

$$$$
VeraChem MOL file


 20 19  0  0  0  0  0  0  0  0999 V2000     
   21.3739   16.9715   23.6354 C   0  0  0  0  0  0  0  0  0  0  0  0
   22.4498   16.7827   23.7440 H   0  0  0  0  0  0  0  0  0  0  0  0
   20.9256   16.9457   24.6372 H   0  0  0  0  0  0  0  0  0  0  0  0
   20.9459   16.1486   23.0483 H   0  0  0  0  0  0  0  0  0  0  0  0
   21.1252   18.3321   22.9491 C   0  0  0  0  0  0  0  0  0  0  0  0
   21.6198   18.3345   21.9683 H   0  0  0  0  0  0  0  0  0  0  0  0
   21.5920   19.1306   23.5430 H   0  0  0  0  0  0  0  0  0  0  0  0
   19.6149   18.6215   22.7821 C   0  0  0  0  0  0  0  0  0  0  0  0
   19.1487   17.8412   22.1668 H   0  0  0  0  0  0  0  0  0  0  0  0
   19.1254   18.5726   23.7637 H   0  0  0  0  0  0  0  0  0  0  0  0
   19.3339   20.0113   22.1687 C   0  0  0  0  0  0  0  0  0  0  0  0
   19.7545   20.7793   22.8229 H   0  0  0  0  0  0  0  0  0  0  0  0
   18.2545   20.1736   22.1134 H   0  0  0  0  0  0  0  0  0  0  0  0
   19.9048   20.2373   20.7767 N   0  3  0  0  0  0  0  0  0  0  0  0
   20.9249   20.0908   20.7825 H   0  0  0  0  0  0  0  0  0  0  0  0
   19.7802   21.2263   20.5093 H   0  0  0  0  0  0  0  0  0  0  0  0
   19.2333   19.3336   19.7484 C   0  0  0  0  0  0  0  0  0  0  0  0
   18.1579   19.5239   19.7505 H   0  0  0  0  0  0  0  0  0  0  0  0
   19.6433   19.5503   18.7596 H   0  0  0  0  0  0  0  0  0  0  0  0
   19.4253   18.2896   20.0038 H   0  0  0  0  0  0  0  0  0  0  0  0
  1  2  1  0  0  0  0
  1  3  1  0  0  0  0
  1  4  1  0  0  0  0
  1  5  1  0  0  0  0
  5  6  1  0  0  0  0
  5  7  1  0  0  0  0
  5  8  1  0  0  0  0
  8  9  1  0  0  0  0
  8 10  1  0  0  0  0
  8 11  1  0  0  0  0
 11 12  1  0  0  0  0
 11 13  1  0  0  0  0
 11 14  1  0  0  0  0
 14 15  1  0  0  0  0
 14 16  1  0  0  0  0
 14 17  1  0  0  0  0
 17 18  1  0  0  0  0
 17 19  1  0  0  0  0
 17 20  1  0  0  0  0
M  END
> <VConfSearch Rank>
104

> <Conf_Id>
49

> <Delta U+W>
0.268

> <U+W>
15.607

> <U>
70.298

> <W>
-54.692

> <W(PB)>
-56.576

> <W(SA)>
1.885

> <Valence>
1.245

> <Coulomb>
68.933

> <VdW>
0.120

> <VdW6>
-4.430

> <VdW12>
4.550

> <Bond>
0.148

> <Angle>
0.587

> <Pdih>
0.509

> <Idih>
0.000

> <Tether>
0.000

$$$$
VeraChem MOL file


 20 19  0  0  0  0  0  0  0  0999 V2000     
   22.6494   18.8253   20.9987 C   0  0  0  0  0  0  0  0  0  0  0  0
   22.6578   19.7852   20.4661 H   0  0  0  0  0  0  0  0  0  0  0  0
   23.3693   18.8869   21.8251 H   0  0  0  0  0  0  0  0  0  0  0  0
   23.0017   18.0521   20.3036 H   0  0  0  0  0  0  0  0  0  0  0  0
   21.2341   18.4892   21.5166 C   0  0  0  0  0  0  0  0  0  0  0  0
   21.2516   17.5121   22.0195 H   0  0  0  0  0  0  0  0  0  0  0  0
   20.5554   18.3979   20.6584 H   0  0  0  0  0  0  0  0  0  0  0  0
   20.7091   19.5697   22.4906 C   0  0  0  0  0  0  0  0  0  0  0  0
   21.4542   19.7323   23.2807 H   0  0  0  0  0  0  0  0  0  0  0  0
   20.6065   20.5271   21.9629 H   0  0  0  0  0  0  0  0  0  0  0  0
   19.3674   19.2112   23.1689 C   0  0  0  0  0  0  0  0  0  0  0  0
   19.1256   20.0068   23.8783 H   0  0  0  0  0  0  0  0  0  0  0  0
   19.4643   18.2814   23.7350 H   0  0  0  0  0  0  0  0  0  0  0  0
   18.1734   19.0794   22.2361 N   0  3  0  0  0  0  0  0  0  0  0  0
   18.2651   19.7283   21.4403 H   0  0  0  0  0  0  0  0  0  0  0  0
   17.3206   19.3863   22.7296 H   0  0  0  0  0  0  0  0  0  0  0  0
   17.9897   17.6402   21.7653 C   0  0  0  0  0  0  0  0  0  0  0  0
   17.1112   17.5856   21.1186 H   0  0  0  0  0  0  0  0  0  0  0  0
   18.8719   17.3171   21.2115 H   0  0  0  0  0  0  0  0  0  0  0  0
   17.8450   16.9952   22.6346 H   0  0  0  0  0  0  0  0  0  0  0  0
  1  2  1  0  0  0  0
  1  3  1  0  0  0  0
  1  4  1  0  0  0  0
  1  5  1  0  0  0  0
  5  6  1  0  0  0  0
  5  7  1  0  0  0  0
  5  8  1  0  0  0  0
  8  9  1  0  0  0  0
  8 10  1  0  0  0  0
  8 11  1  0  0  0  0
 11 12  1  0  0  0  0
 11 13  1  0  0  0  0
 11 14  1  0  0  0  0
 14 15  1  0  0  0  0
 14 16  1  0  0  0  0
 14 17  1  0  0  0  0
 17 18  1  0  0  0  0
 17 19  1  0  0  0  0
 17 20  1  0  0  0  0
M  END
> <VConfSearch Rank>
105

> <Conf_Id>
65

> <Delta U+W>
1.775

> <U+W>
17.114

> <U>
71.726

> <W>
-54.613

> <W(PB)>
-56.495

> <W(SA)>
1.883

> <Valence>
2.885

> <Coulomb>
68.822

> <VdW>
0.019

> <VdW6>
-4.600

> <VdW12>
4.619

> <Bond>
0.152

> <Angle>
0.862

> <Pdih>
1.871

> <Idih>
0.000

> <Tether>
0.000

$$$$
VeraChem MOL file


 20 19  0  0  0  0  0  0  0  0999 V2000     
   19.7768   16.3928   22.0684 C   0  0  0  0  0  0  0  0  0  0  0  0
   20.7523   16.7611   21.7265 H   0  0  0  0  0  0  0  0  0  0  0  0
   19.9586   15.5169   22.7046 H   0  0  0  0  0  0  0  0  0  0  0  0
   19.2106   16.0564   21.1902 H   0  0  0  0  0  0  0  0  0  0  0  0
   18.9995   17.4777   22.8487 C   0  0  0  0  0  0  0  0  0  0  0  0
   19.5853   17.7967   23.7215 H   0  0  0  0  0  0  0  0  0  0  0  0
   18.0760   17.0366   23.2493 H   0  0  0  0  0  0  0  0  0  0  0  0
   18.6289   18.7041   21.9776 C   0  0  0  0  0  0  0  0  0  0  0  0
   17.9588   18.3831   21.1691 H   0  0  0  0  0  0  0  0  0  0  0  0
   18.0571   19.4211   22.5815 H   0  0  0  0  0  0  0  0  0  0  0  0
   19.8444   19.4216   21.3542 C   0  0  0  0  0  0  0  0  0  0  0  0
   19.4962   20.2509   20.7333 H   0  0  0  0  0  0  0  0  0  0  0  0
   20.3934   18.7268   20.7141 H   0  0  0  0  0  0  0  0  0  0  0  0
   20.8159   19.9862   22.3730 N   0  3  0  0  0  0  0  0  0  0  0  0
   21.1625   19.2326   22.9849 H   0  0  0  0  0  0  0  0  0  0  0  0
   20.3309   20.6480   22.9981 H   0  0  0  0  0  0  0  0  0  0  0  0
   21.9746   20.6725   21.6623 C   0  0  0  0  0  0  0  0  0  0  0  0
   21.5870   21.4860   21.0453 H   0  0  0  0  0  0  0  0  0  0  0  0
   22.6660   21.0727   22.4071 H   0  0  0  0  0  0  0  0  0  0  0  0
   22.4920   19.9454   21.0327 H   0  0  0  0  0  0  0  0  0  0  0  0
  1  2  1  0  0  0  0
  1  3  1  0  0  0  0
  1  4  1  0  0  0  0
  1  5  1  0  0  0  0
  5  6  1  0  0  0  0
  5  7  1  0  0  0  0
  5  8  1  0  0  0  0
  8  9  1  0  0  0  0
  8 10  1  0  0  0  0
  8 11  1  0  0  0  0
 11 12  1  0  0  0  0
 11 13  1  0  0  0  0
 11 14  1  0  0  0  0
 14 15  1  0  0  0  0
 14 16  1  0  0  0  0
 14 17  1  0  0  0  0
 17 18  1  0  0  0  0
 17 19  1  0  0  0  0
 17 20  1  0  0  0  0
M  END
> <VConfSearch Rank>
106

> <Conf_Id>
23

> <Delta U+W>
0.896

> <U+W>
16.234

> <U>
70.374

> <W>
-54.140

> <W(PB)>
-56.046

> <W(SA)>
1.907

> <Valence>
1.257

> <Coulomb>
69.240

> <VdW>
-0.123

> <VdW6>
-4.336

> <VdW12>
4.213

> <Bond>
0.128

> <Angle>
0.603

> <Pdih>
0.526

> <Idih>
0.000

> <Tether>
0.000

$$$$
VeraChem MOL file


 20 19  0  0  0  0  0  0  0  0999 V2000     
   20.2917   17.9644   24.2553 C   0  0  0  0  0  0  0  0  0  0  0  0
   19.2998   17.7457   24.6717 H   0  0  0  0  0  0  0  0  0  0  0  0
   21.0400   17.6729   25.0036 H   0  0  0  0  0  0  0  0  0  0  0  0
   20.3717   19.0495   24.1132 H   0  0  0  0  0  0  0  0  0  0  0  0
   20.5204   17.1978   22.9324 C   0  0  0  0  0  0  0  0  0  0  0  0
   20.5239   16.1187   23.1411 H   0  0  0  0  0  0  0  0  0  0  0  0
   21.5180   17.4323   22.5369 H   0  0  0  0  0  0  0  0  0  0  0  0
   19.4392   17.4951   21.8635 C   0  0  0  0  0  0  0  0  0  0  0  0
   19.6436   16.9011   20.9628 H   0  0  0  0  0  0  0  0  0  0  0  0
   18.4622   17.1593   22.2355 H   0  0  0  0  0  0  0  0  0  0  0  0
   19.3329   18.9848   21.4754 C   0  0  0  0  0  0  0  0  0  0  0  0
   19.0837   19.5781   22.3584 H   0  0  0  0  0  0  0  0  0  0  0  0
   18.5306   19.1122   20.7443 H   0  0  0  0  0  0  0  0  0  0  0  0
   20.6012   19.5560   20.8707 N   0  3  0  0  0  0  0  0  0  0  0  0
   20.8689   19.0181   20.0322 H   0  0  0  0  0  0  0  0  0  0  0  0
   21.3860   19.4474   21.5300 H   0  0  0  0  0  0  0  0  0  0  0  0
   20.3959   21.0239   20.5219 C   0  0  0  0  0  0  0  0  0  0  0  0
   20.1460   21.5779   21.4293 H   0  0  0  0  0  0  0  0  0  0  0  0
   21.3163   21.4221   20.0891 H   0  0  0  0  0  0  0  0  0  0  0  0
   19.5815   21.1115   19.7995 H   0  0  0  0  0  0  0  0  0  0  0  0
  1  2  1  0  0  0  0
  1  3  1  0  0  0  0
  1  4  1  0  0  0  0
  1  5  1  0  0  0  0
  5  6  1  0  0  0  0
  5  7  1  0  0  0  0
  5  8  1  0  0  0  0
  8  9  1  0  0  0  0
  8 10  1  0  0  0  0
  8 11  1  0  0  0  0
 11 12  1  0  0  0  0
 11 13  1  0  0  0  0
 11 14  1  0  0  0  0
 14 15  1  0  0  0  0
 14 16  1  0  0  0  0
 14 17  1  0  0  0  0
 17 18  1  0  0  0  0
 17 19  1  0  0  0  0
 17 20  1  0  0  0  0
M  END
> <VConfSearch Rank>
107

> <Conf_Id>
24

> <Delta U+W>
0.792

> <U+W>
16.130

> <U>
70.374

> <W>
-54.243

> <W(PB)>
-56.130

> <W(SA)>
1.887

> <Valence>
1.257

> <Coulomb>
69.240

> <VdW>
-0.123

> <VdW6>
-4.336

> <VdW12>
4.213

> <Bond>
0.128

> <Angle>
0.603

> <Pdih>
0.526

> <Idih>
0.000

> <Tether>
0.000

$$$$
VeraChem MOL file


 20 19  0  0  0  0  0  0  0  0999 V2000     
   19.5820   20.5517   23.2475 C   0  0  0  0  0  0  0  0  0  0  0  0
   19.3736   21.5866   23.5486 H   0  0  0  0  0  0  0  0  0  0  0  0
   18.7624   20.2376   22.5904 H   0  0  0  0  0  0  0  0  0  0  0  0
   19.5683   19.9331   24.1543 H   0  0  0  0  0  0  0  0  0  0  0  0
   20.9488   20.4682   22.5305 C   0  0  0  0  0  0  0  0  0  0  0  0
   21.6986   20.9878   23.1436 H   0  0  0  0  0  0  0  0  0  0  0  0
   20.8980   21.0201   21.5813 H   0  0  0  0  0  0  0  0  0  0  0  0
   21.4486   19.0247   22.2672 C   0  0  0  0  0  0  0  0  0  0  0  0
   22.4501   19.0899   21.8214 H   0  0  0  0  0  0  0  0  0  0  0  0
   21.5757   18.4854   23.2151 H   0  0  0  0  0  0  0  0  0  0  0  0
   20.5584   18.2057   21.3086 C   0  0  0  0  0  0  0  0  0  0  0  0
   21.1449   17.3833   20.8914 H   0  0  0  0  0  0  0  0  0  0  0  0
   20.2262   18.8385   20.4818 H   0  0  0  0  0  0  0  0  0  0  0  0
   19.3365   17.5893   21.9627 N   0  3  0  0  0  0  0  0  0  0  0  0
   18.7742   18.3214   22.4195 H   0  0  0  0  0  0  0  0  0  0  0  0
   19.6240   16.9514   22.7206 H   0  0  0  0  0  0  0  0  0  0  0  0
   18.5081   16.8461   20.9236 C   0  0  0  0  0  0  0  0  0  0  0  0
   18.1881   17.5472   20.1498 H   0  0  0  0  0  0  0  0  0  0  0  0
   19.1157   16.0557   20.4776 H   0  0  0  0  0  0  0  0  0  0  0  0
   17.6329   16.4080   21.4085 H   0  0  0  0  0  0  0  0  0  0  0  0
  1  2  1  0  0  0  0
  1  3  1  0  0  0  0
  1  4  1  0  0  0  0
  1  5  1  0  0  0  0
  5  6  1  0  0  0  0
  5  7  1  0  0  0  0
  5  8  1  0  0  0  0
  8  9  1  0  0  0  0
  8 10  1  0  0  0  0
  8 11  1  0  0  0  0
 11 12  1  0  0  0  0
 11 13  1  0  0  0  0
 11 14  1  0  0  0  0
 14 15  1  0  0  0  0
 14 16  1  0  0  0  0
 14 17  1  0  0  0  0
 17 18  1  0  0  0  0
 17 19  1  0  0  0  0
 17 20  1  0  0  0  0
M  END
> <VConfSearch Rank>
108

> <Conf_Id>
26

> <Delta U+W>
2.888

> <U+W>
18.226

> <U>
72.042

> <W>
-53.816

> <W(PB)>
-55.689

> <W(SA)>
1.873

> <Valence>
2.428

> <Coulomb>
69.829

> <VdW>
-0.215

> <VdW6>
-4.563

> <VdW12>
4.348

> <Bond>
0.137

> <Angle>
0.936

> <Pdih>
1.356

> <Idih>
0.000

> <Tether>
0.000

$$$$
VeraChem MOL file


 20 19  0  0  0  0  0  0  0  0999 V2000     
   21.8087   18.6304   20.7305 C   0  0  0  0  0  0  0  0  0  0  0  0
   22.4286   18.4797   19.8370 H   0  0  0  0  0  0  0  0  0  0  0  0
   22.4756   18.6213   21.6025 H   0  0  0  0  0  0  0  0  0  0  0  0
   21.1265   17.7746   20.7957 H   0  0  0  0  0  0  0  0  0  0  0  0
   21.0368   19.9657   20.6269 C   0  0  0  0  0  0  0  0  0  0  0  0
   20.3119   19.9058   19.8029 H   0  0  0  0  0  0  0  0  0  0  0  0
   21.7451   20.7595   20.3507 H   0  0  0  0  0  0  0  0  0  0  0  0
   20.3110   20.3904   21.9291 C   0  0  0  0  0  0  0  0  0  0  0  0
   21.0351   20.5269   22.7432 H   0  0  0  0  0  0  0  0  0  0  0  0
   19.8604   21.3771   21.7584 H   0  0  0  0  0  0  0  0  0  0  0  0
   19.1881   19.4304   22.3763 C   0  0  0  0  0  0  0  0  0  0  0  0
   18.6181   19.0977   21.5053 H   0  0  0  0  0  0  0  0  0  0  0  0
   18.5067   19.9641   23.0436 H   0  0  0  0  0  0  0  0  0  0  0  0
   19.6744   18.2062   23.1286 N   0  3  0  0  0  0  0  0  0  0  0  0
   20.1796   18.4917   23.9813 H   0  0  0  0  0  0  0  0  0  0  0  0
   20.3638   17.6941   22.5602 H   0  0  0  0  0  0  0  0  0  0  0  0
   18.4959   17.3086   23.4806 C   0  0  0  0  0  0  0  0  0  0  0  0
   17.9968   16.9930   22.5619 H   0  0  0  0  0  0  0  0  0  0  0  0
   18.8608   16.4326   24.0212 H   0  0  0  0  0  0  0  0  0  0  0  0
   17.7962   17.8638   24.1090 H   0  0  0  0  0  0  0  0  0  0  0  0
  1  2  1  0  0  0  0
  1  3  1  0  0  0  0
  1  4  1  0  0  0  0
  1  5  1  0  0  0  0
  5  6  1  0  0  0  0
  5  7  1  0  0  0  0
  5  8  1  0  0  0  0
  8  9  1  0  0  0  0
  8 10  1  0  0  0  0
  8 11  1  0  0  0  0
 11 12  1  0  0  0  0
 11 13  1  0  0  0  0
 11 14  1  0  0  0  0
 14 15  1  0  0  0  0
 14 16  1  0  0  0  0
 14 17  1  0  0  0  0
 17 18  1  0  0  0  0
 17 19  1  0  0  0  0
 17 20  1  0  0  0  0
M  END
> <VConfSearch Rank>
109

> <Conf_Id>
5

> <Delta U+W>
2.950

> <U+W>
18.289

> <U>
72.042

> <W>
-53.753

> <W(PB)>
-55.644

> <W(SA)>
1.891

> <Valence>
2.428

> <Coulomb>
69.829

> <VdW>
-0.215

> <VdW6>
-4.563

> <VdW12>
4.348

> <Bond>
0.137

> <Angle>
0.936

> <Pdih>
1.356

> <Idih>
0.000

> <Tether>
0.000

$$$$
VeraChem MOL file


 20 19  0  0  0  0  0  0  0  0999 V2000     
   19.3501   17.0415   20.5385 C   0  0  0  0  0  0  0  0  0  0  0  0
   18.2587   16.9790   20.4392 H   0  0  0  0  0  0  0  0  0  0  0  0
   19.7059   17.8569   19.8964 H   0  0  0  0  0  0  0  0  0  0  0  0
   19.7750   16.1062   20.1515 H   0  0  0  0  0  0  0  0  0  0  0  0
   19.7625   17.2550   22.0131 C   0  0  0  0  0  0  0  0  0  0  0  0
   20.8570   17.3106   22.0879 H   0  0  0  0  0  0  0  0  0  0  0  0
   19.4634   16.3743   22.5986 H   0  0  0  0  0  0  0  0  0  0  0  0
   19.1223   18.5155   22.6462 C   0  0  0  0  0  0  0  0  0  0  0  0
   18.0302   18.4021   22.6502 H   0  0  0  0  0  0  0  0  0  0  0  0
   19.4217   18.5860   23.6998 H   0  0  0  0  0  0  0  0  0  0  0  0
   19.4770   19.8331   21.9199 C   0  0  0  0  0  0  0  0  0  0  0  0
   18.9917   20.6714   22.4261 H   0  0  0  0  0  0  0  0  0  0  0  0
   19.0908   19.7913   20.8985 H   0  0  0  0  0  0  0  0  0  0  0  0
   20.9632   20.1442   21.8319 N   0  3  0  0  0  0  0  0  0  0  0  0
   21.1102   20.9592   21.2160 H   0  0  0  0  0  0  0  0  0  0  0  0
   21.4593   19.3675   21.3706 H   0  0  0  0  0  0  0  0  0  0  0  0
   21.5532   20.4218   23.2101 C   0  0  0  0  0  0  0  0  0  0  0  0
   21.4480   19.5325   23.8345 H   0  0  0  0  0  0  0  0  0  0  0  0
   22.6111   20.6715   23.1029 H   0  0  0  0  0  0  0  0  0  0  0  0
   21.0218   21.2597   23.6662 H   0  0  0  0  0  0  0  0  0  0  0  0
  1  2  1  0  0  0  0
  1  3  1  0  0  0  0
  1  4  1  0  0  0  0
  1  5  1  0  0  0  0
  5  6  1  0  0  0  0
  5  7  1  0  0  0  0
  5  8  1  0  0  0  0
  8  9  1  0  0  0  0
  8 10  1  0  0  0  0
  8 11  1  0  0  0  0
 11 12  1  0  0  0  0
 11 13  1  0  0  0  0
 11 14  1  0  0  0  0
 14 15  1  0  0  0  0
 14 16  1  0  0  0  0
 14 17  1  0  0  0  0
 17 18  1  0  0  0  0
 17 19  1  0  0  0  0
 17 20  1  0  0  0  0
M  END
> <VConfSearch Rank>
110

> <Conf_Id>
52

> <Delta U+W>
0.784

> <U+W>
16.122

> <U>
70.777

> <W>
-54.655

> <W(PB)>
-56.491

> <W(SA)>
1.836

> <Valence>
1.529

> <Coulomb>
69.166

> <VdW>
0.082

> <VdW6>
-5.166

> <VdW12>
5.248

> <Bond>
0.171

> <Angle>
0.752

> <Pdih>
0.605

> <Idih>
0.000

> <Tether>
0.000

$$$$
VeraChem MOL file


 20 19  0  0  0  0  0  0  0  0999 V2000     
   20.5478   20.6983   23.0159 C   0  0  0  0  0  0  0  0  0  0  0  0
   20.7947   21.7088   23.3667 H   0  0  0  0  0  0  0  0  0  0  0  0
   19.4934   20.5238   23.2585 H   0  0  0  0  0  0  0  0  0  0  0  0
   21.1649   19.9892   23.5832 H   0  0  0  0  0  0  0  0  0  0  0  0
   20.8092   20.5805   21.4969 C   0  0  0  0  0  0  0  0  0  0  0  0
   21.8072   20.9878   21.2823 H   0  0  0  0  0  0  0  0  0  0  0  0
   20.0983   21.2168   20.9513 H   0  0  0  0  0  0  0  0  0  0  0  0
   20.7462   19.1332   20.9453 C   0  0  0  0  0  0  0  0  0  0  0  0
   21.0385   19.1637   19.8874 H   0  0  0  0  0  0  0  0  0  0  0  0
   21.4957   18.5045   21.4421 H   0  0  0  0  0  0  0  0  0  0  0  0
   19.3490   18.4750   21.0244 C   0  0  0  0  0  0  0  0  0  0  0  0
   19.3113   17.6275   20.3354 H   0  0  0  0  0  0  0  0  0  0  0  0
   18.5953   19.1986   20.7039 H   0  0  0  0  0  0  0  0  0  0  0  0
   18.9416   17.9518   22.3930 N   0  3  0  0  0  0  0  0  0  0  0  0
   17.9381   17.7108   22.3859 H   0  0  0  0  0  0  0  0  0  0  0  0
   19.0361   18.6960   23.0980 H   0  0  0  0  0  0  0  0  0  0  0  0
   19.7640   16.7292   22.7849 C   0  0  0  0  0  0  0  0  0  0  0  0
   19.6338   15.9514   22.0294 H   0  0  0  0  0  0  0  0  0  0  0  0
   20.8176   17.0066   22.8528 H   0  0  0  0  0  0  0  0  0  0  0  0
   19.4191   16.3618   23.7539 H   0  0  0  0  0  0  0  0  0  0  0  0
  1  2  1  0  0  0  0
  1  3  1  0  0  0  0
  1  4  1  0  0  0  0
  1  5  1  0  0  0  0
  5  6  1  0  0  0  0
  5  7  1  0  0  0  0
  5  8  1  0  0  0  0
  8  9  1  0  0  0  0
  8 10  1  0  0  0  0
  8 11  1  0  0  0  0
 11 12  1  0  0  0  0
 11 13  1  0  0  0  0
 11 14  1  0  0  0  0
 14 15  1  0  0  0  0
 14 16  1  0  0  0  0
 14 17  1  0  0  0  0
 17 18  1  0  0  0  0
 17 19  1  0  0  0  0
 17 20  1  0  0  0  0
M  END
> <VConfSearch Rank>
111

> <Conf_Id>
55

> <Delta U+W>
2.745

> <U+W>
18.083

> <U>
72.490

> <W>
-54.407

> <W(PB)>
-56.269

> <W(SA)>
1.861

> <Valence>
2.738

> <Coulomb>
69.795

> <VdW>
-0.043

> <VdW6>
-5.333

> <VdW12>
5.290

> <Bond>
0.182

> <Angle>
1.135

> <Pdih>
1.422

> <Idih>
0.000

> <Tether>
0.000

$$$$
VeraChem MOL file


 20 19  0  0  0  0  0  0  0  0999 V2000     
   19.5659   18.0511   20.1107 C   0  0  0  0  0  0  0  0  0  0  0  0
   19.2668   17.5174   19.1992 H   0  0  0  0  0  0  0  0  0  0  0  0
   19.5796   19.1241   19.8786 H   0  0  0  0  0  0  0  0  0  0  0  0
   20.5849   17.7274   20.3514 H   0  0  0  0  0  0  0  0  0  0  0  0
   18.5826   17.7377   21.2615 C   0  0  0  0  0  0  0  0  0  0  0  0
   18.6763   16.6805   21.5471 H   0  0  0  0  0  0  0  0  0  0  0  0
   17.5567   17.8608   20.8867 H   0  0  0  0  0  0  0  0  0  0  0  0
   18.7533   18.6352   22.5138 C   0  0  0  0  0  0  0  0  0  0  0  0
   18.6009   19.6891   22.2492 H   0  0  0  0  0  0  0  0  0  0  0  0
   17.9481   18.3865   23.2177 H   0  0  0  0  0  0  0  0  0  0  0  0
   20.0965   18.4524   23.2579 C   0  0  0  0  0  0  0  0  0  0  0  0
   20.3188   17.3851   23.3355 H   0  0  0  0  0  0  0  0  0  0  0  0
   20.0022   18.8476   24.2725 H   0  0  0  0  0  0  0  0  0  0  0  0
   21.2999   19.1350   22.6266 N   0  3  0  0  0  0  0  0  0  0  0  0
   21.3871   18.8552   21.6397 H   0  0  0  0  0  0  0  0  0  0  0  0
   22.1643   18.8007   23.0807 H   0  0  0  0  0  0  0  0  0  0  0  0
   21.2039   20.6516   22.7512 C   0  0  0  0  0  0  0  0  0  0  0  0
   20.3216   21.0051   22.2143 H   0  0  0  0  0  0  0  0  0  0  0  0
   21.1278   20.9211   23.8068 H   0  0  0  0  0  0  0  0  0  0  0  0
   22.1000   21.1033   22.3202 H   0  0  0  0  0  0  0  0  0  0  0  0
  1  2  1  0  0  0  0
  1  3  1  0  0  0  0
  1  4  1  0  0  0  0
  1  5  1  0  0  0  0
  5  6  1  0  0  0  0
  5  7  1  0  0  0  0
  5  8  1  0  0  0  0
  8  9  1  0  0  0  0
  8 10  1  0  0  0  0
  8 11  1  0  0  0  0
 11 12  1  0  0  0  0
 11 13  1  0  0  0  0
 11 14  1  0  0  0  0
 14 15  1  0  0  0  0
 14 16  1  0  0  0  0
 14 17  1  0  0  0  0
 17 18  1  0  0  0  0
 17 19  1  0  0  0  0
 17 20  1  0  0  0  0
M  END
> <VConfSearch Rank>
112

> <Conf_Id>
76

> <Delta U+W>
2.799

> <U+W>
18.137

> <U>
72.490

> <W>
-54.353

> <W(PB)>
-56.201

> <W(SA)>
1.848

> <Valence>
2.738

> <Coulomb>
69.795

> <VdW>
-0.043

> <VdW6>
-5.334

> <VdW12>
5.290

> <Bond>
0.182

> <Angle>
1.135

> <Pdih>
1.421

> <Idih>
0.000

> <Tether>
0.000

$$$$
VeraChem MOL file


 20 19  0  0  0  0  0  0  0  0999 V2000     
   20.5500   17.6594   23.7943 C   0  0  0  0  0  0  0  0  0  0  0  0
   19.7259   17.2368   23.2066 H   0  0  0  0  0  0  0  0  0  0  0  0
   21.3988   16.9656   23.7392 H   0  0  0  0  0  0  0  0  0  0  0  0
   20.2220   17.7042   24.8408 H   0  0  0  0  0  0  0  0  0  0  0  0
   20.9495   19.0655   23.2904 C   0  0  0  0  0  0  0  0  0  0  0  0
   21.7255   19.4720   23.9541 H   0  0  0  0  0  0  0  0  0  0  0  0
   20.0976   19.7526   23.3730 H   0  0  0  0  0  0  0  0  0  0  0  0
   21.4920   19.0595   21.8402 C   0  0  0  0  0  0  0  0  0  0  0  0
   21.7962   20.0771   21.5618 H   0  0  0  0  0  0  0  0  0  0  0  0
   22.4072   18.4536   21.8105 H   0  0  0  0  0  0  0  0  0  0  0  0
   20.5170   18.5134   20.7707 C   0  0  0  0  0  0  0  0  0  0  0  0
   20.1906   17.5032   21.0285 H   0  0  0  0  0  0  0  0  0  0  0  0
   21.0602   18.4525   19.8241 H   0  0  0  0  0  0  0  0  0  0  0  0
   19.2848   19.3662   20.5072 N   0  3  0  0  0  0  0  0  0  0  0  0
   19.0049   19.2616   19.5196 H   0  0  0  0  0  0  0  0  0  0  0  0
   19.5115   20.3664   20.6114 H   0  0  0  0  0  0  0  0  0  0  0  0
   18.1180   18.9641   21.4028 C   0  0  0  0  0  0  0  0  0  0  0  0
   17.2508   19.5810   21.1573 H   0  0  0  0  0  0  0  0  0  0  0  0
   17.8801   17.9124   21.2301 H   0  0  0  0  0  0  0  0  0  0  0  0
   18.3875   19.1130   22.4489 H   0  0  0  0  0  0  0  0  0  0  0  0
  1  2  1  0  0  0  0
  1  3  1  0  0  0  0
  1  4  1  0  0  0  0
  1  5  1  0  0  0  0
  5  6  1  0  0  0  0
  5  7  1  0  0  0  0
  5  8  1  0  0  0  0
  8  9  1  0  0  0  0
  8 10  1  0  0  0  0
  8 11  1  0  0  0  0
 11 12  1  0  0  0  0
 11 13  1  0  0  0  0
 11 14  1  0  0  0  0
 14 15  1  0  0  0  0
 14 16  1  0  0  0  0
 14 17  1  0  0  0  0
 17 18  1  0  0  0  0
 17 19  1  0  0  0  0
 17 20  1  0  0  0  0
M  END
> <VConfSearch Rank>
113

> <Conf_Id>
60

> <Delta U+W>
1.788

> <U+W>
17.127

> <U>
72.122

> <W>
-54.995

> <W(PB)>
-56.810

> <W(SA)>
1.815

> <Valence>
3.197

> <Coulomb>
69.115

> <VdW>
-0.190

> <VdW6>
-5.585

> <VdW12>
5.395

> <Bond>
0.177

> <Angle>
1.207

> <Pdih>
1.813

> <Idih>
0.000

> <Tether>
0.000

$$$$
VeraChem MOL file


 20 19  0  0  0  0  0  0  0  0999 V2000     
   19.8466   16.9614   20.9212 C   0  0  0  0  0  0  0  0  0  0  0  0
   19.1643   16.1054   21.0026 H   0  0  0  0  0  0  0  0  0  0  0  0
   20.4090   16.8527   19.9848 H   0  0  0  0  0  0  0  0  0  0  0  0
   20.5571   16.8992   21.7544 H   0  0  0  0  0  0  0  0  0  0  0  0
   19.0554   18.2897   20.9419 C   0  0  0  0  0  0  0  0  0  0  0  0
   18.4812   18.3728   21.8737 H   0  0  0  0  0  0  0  0  0  0  0  0
   18.3108   18.2708   20.1338 H   0  0  0  0  0  0  0  0  0  0  0  0
   19.9557   19.5357   20.7566 C   0  0  0  0  0  0  0  0  0  0  0  0
   20.4324   19.4803   19.7690 H   0  0  0  0  0  0  0  0  0  0  0  0
   19.3291   20.4371   20.7375 H   0  0  0  0  0  0  0  0  0  0  0  0
   21.0659   19.7146   21.8187 C   0  0  0  0  0  0  0  0  0  0  0  0
   21.6949   20.5521   21.5061 H   0  0  0  0  0  0  0  0  0  0  0  0
   21.6999   18.8261   21.8651 H   0  0  0  0  0  0  0  0  0  0  0  0
   20.5844   20.0378   23.2253 N   0  3  0  0  0  0  0  0  0  0  0  0
   19.7341   20.6193   23.1890 H   0  0  0  0  0  0  0  0  0  0  0  0
   21.2869   20.6286   23.6968 H   0  0  0  0  0  0  0  0  0  0  0  0
   20.3595   18.7745   24.0492 C   0  0  0  0  0  0  0  0  0  0  0  0
   21.2931   18.2104   24.1015 H   0  0  0  0  0  0  0  0  0  0  0  0
   20.0451   19.0568   25.0564 H   0  0  0  0  0  0  0  0  0  0  0  0
   19.5861   18.1631   23.5833 H   0  0  0  0  0  0  0  0  0  0  0  0
  1  2  1  0  0  0  0
  1  3  1  0  0  0  0
  1  4  1  0  0  0  0
  1  5  1  0  0  0  0
  5  6  1  0  0  0  0
  5  7  1  0  0  0  0
  5  8  1  0  0  0  0
  8  9  1  0  0  0  0
  8 10  1  0  0  0  0
  8 11  1  0  0  0  0
 11 12  1  0  0  0  0
 11 13  1  0  0  0  0
 11 14  1  0  0  0  0
 14 15  1  0  0  0  0
 14 16  1  0  0  0  0
 14 17  1  0  0  0  0
 17 18  1  0  0  0  0
 17 19  1  0  0  0  0
 17 20  1  0  0  0  0
M  END
> <VConfSearch Rank>
114

> <Conf_Id>
54

> <Delta U+W>
1.880

> <U+W>
17.218

> <U>
72.122

> <W>
-54.903

> <W(PB)>
-56.724

> <W(SA)>
1.821

> <Valence>
3.197

> <Coulomb>
69.115

> <VdW>
-0.190

> <VdW6>
-5.585

> <VdW12>
5.395

> <Bond>
0.177

> <Angle>
1.207

> <Pdih>
1.813

> <Idih>
0.000

> <Tether>
0.000

$$$$
VeraChem MOL file


 20 19  0  0  0  0  0  0  0  0999 V2000     
   21.1612   21.7456   22.7235 C   0  0  0  0  0  0  0  0  0  0  0  0
   20.6651   22.2847   21.9060 H   0  0  0  0  0  0  0  0  0  0  0  0
   21.1637   22.4001   23.6048 H   0  0  0  0  0  0  0  0  0  0  0  0
   22.2051   21.5697   22.4327 H   0  0  0  0  0  0  0  0  0  0  0  0
   20.4383   20.4167   23.0329 C   0  0  0  0  0  0  0  0  0  0  0  0
   19.4084   20.6275   23.3539 H   0  0  0  0  0  0  0  0  0  0  0  0
   20.9362   19.9180   23.8765 H   0  0  0  0  0  0  0  0  0  0  0  0
   20.4194   19.4746   21.8090 C   0  0  0  0  0  0  0  0  0  0  0  0
   19.9188   19.9722   20.9678 H   0  0  0  0  0  0  0  0  0  0  0  0
   21.4487   19.2618   21.4909 H   0  0  0  0  0  0  0  0  0  0  0  0
   19.6971   18.1518   22.1255 C   0  0  0  0  0  0  0  0  0  0  0  0
   18.6673   18.3589   22.4275 H   0  0  0  0  0  0  0  0  0  0  0  0
   20.2023   17.6462   22.9523 H   0  0  0  0  0  0  0  0  0  0  0  0
   19.6536   17.1937   20.9512 N   0  3  0  0  0  0  0  0  0  0  0  0
   20.6103   16.9789   20.6306 H   0  0  0  0  0  0  0  0  0  0  0  0
   19.1891   17.6387   20.1448 H   0  0  0  0  0  0  0  0  0  0  0  0
   18.9249   15.9170   21.3490 C   0  0  0  0  0  0  0  0  0  0  0  0
   17.9050   16.1640   21.6515 H   0  0  0  0  0  0  0  0  0  0  0  0
   18.9009   15.2366   20.4949 H   0  0  0  0  0  0  0  0  0  0  0  0
   19.4530   15.4453   22.1806 H   0  0  0  0  0  0  0  0  0  0  0  0
  1  2  1  0  0  0  0
  1  3  1  0  0  0  0
  1  4  1  0  0  0  0
  1  5  1  0  0  0  0
  5  6  1  0  0  0  0
  5  7  1  0  0  0  0
  5  8  1  0  0  0  0
  8  9  1  0  0  0  0
  8 10  1  0  0  0  0
  8 11  1  0  0  0  0
 11 12  1  0  0  0  0
 11 13  1  0  0  0  0
 11 14  1  0  0  0  0
 14 15  1  0  0  0  0
 14 16  1  0  0  0  0
 14 17  1  0  0  0  0
 17 18  1  0  0  0  0
 17 19  1  0  0  0  0
 17 20  1  0  0  0  0
M  END
> <VConfSearch Rank>
115

> <Conf_Id>
67

> <Delta U+W>
0.000

> <U+W>
15.338

> <U>
69.277

> <W>
-53.939

> <W(PB)>
-55.889

> <W(SA)>
1.950

> <Valence>
0.846

> <Coulomb>
68.557

> <VdW>
-0.127

> <VdW6>
-3.008

> <VdW12>
2.882

> <Bond>
0.088

> <Angle>
0.332

> <Pdih>
0.426

> <Idih>
0.000

> <Tether>
0.000

$$$$
VeraChem MOL file


 20 19  0  0  0  0  0  0  0  0999 V2000     
   17.7016   17.7362   20.5570 C   0  0  0  0  0  0  0  0  0  0  0  0
   18.3557   17.3555   19.7618 H   0  0  0  0  0  0  0  0  0  0  0  0
   16.8776   17.0223   20.6849 H   0  0  0  0  0  0  0  0  0  0  0  0
   17.2719   18.6883   20.2193 H   0  0  0  0  0  0  0  0  0  0  0  0
   18.4791   17.9146   21.8791 C   0  0  0  0  0  0  0  0  0  0  0  0
   18.8671   16.9404   22.2089 H   0  0  0  0  0  0  0  0  0  0  0  0
   17.7913   18.2623   22.6630 H   0  0  0  0  0  0  0  0  0  0  0  0
   19.6460   18.9154   21.7290 C   0  0  0  0  0  0  0  0  0  0  0  0
   20.3298   18.5642   20.9455 H   0  0  0  0  0  0  0  0  0  0  0  0
   19.2572   19.8894   21.4038 H   0  0  0  0  0  0  0  0  0  0  0  0
   20.4154   19.0879   23.0550 C   0  0  0  0  0  0  0  0  0  0  0  0
   20.8471   18.1316   23.3608 H   0  0  0  0  0  0  0  0  0  0  0  0
   19.7159   19.4068   23.8319 H   0  0  0  0  0  0  0  0  0  0  0  0
   21.5361   20.1138   23.0076 N   0  3  0  0  0  0  0  0  0  0  0  0
   21.8862   20.2868   23.9631 H   0  0  0  0  0  0  0  0  0  0  0  0
   21.1728   21.0257   22.6908 H   0  0  0  0  0  0  0  0  0  0  0  0
   22.6800   19.6452   22.1146 C   0  0  0  0  0  0  0  0  0  0  0  0
   22.3171   19.5284   21.0916 H   0  0  0  0  0  0  0  0  0  0  0  0
   23.4790   20.3896   22.1368 H   0  0  0  0  0  0  0  0  0  0  0  0
   23.0572   18.6897   22.4853 H   0  0  0  0  0  0  0  0  0  0  0  0
  1  2  1  0  0  0  0
  1  3  1  0  0  0  0
  1  4  1  0  0  0  0
  1  5  1  0  0  0  0
  5  6  1  0  0  0  0
  5  7  1  0  0  0  0
  5  8  1  0  0  0  0
  8  9  1  0  0  0  0
  8 10  1  0  0  0  0
  8 11  1  0  0  0  0
 11 12  1  0  0  0  0
 11 13  1  0  0  0  0
 11 14  1  0  0  0  0
 14 15  1  0  0  0  0
 14 16  1  0  0  0  0
 14 17  1  0  0  0  0
 17 18  1  0  0  0  0
 17 19  1  0  0  0  0
 17 20  1  0  0  0  0
M  END
> <VConfSearch Rank>
116

> <Conf_Id>
37

> <Delta U+W>
-0.021

> <U+W>
15.318

> <U>
69.657

> <W>
-54.340

> <W(PB)>
-56.238

> <W(SA)>
1.899

> <Valence>
1.137

> <Coulomb>
68.383

> <VdW>
0.138

> <VdW6>
-3.703

> <VdW12>
3.841

> <Bond>
0.125

> <Angle>
0.468

> <Pdih>
0.543

> <Idih>
0.000

> <Tether>
0.000

$$$$
VeraChem MOL file


 20 19  0  0  0  0  0  0  0  0999 V2000     
   19.1784   15.8932   21.8718 C   0  0  0  0  0  0  0  0  0  0  0  0
   19.5307   14.9101   21.5335 H   0  0  0  0  0  0  0  0  0  0  0  0
   19.1046   15.8653   22.9667 H   0  0  0  0  0  0  0  0  0  0  0  0
   18.1703   16.0471   21.4653 H   0  0  0  0  0  0  0  0  0  0  0  0
   20.1414   17.0073   21.4073 C   0  0  0  0  0  0  0  0  0  0  0  0
   20.2213   16.9872   20.3111 H   0  0  0  0  0  0  0  0  0  0  0  0
   21.1481   16.8074   21.8010 H   0  0  0  0  0  0  0  0  0  0  0  0
   19.6701   18.4038   21.8693 C   0  0  0  0  0  0  0  0  0  0  0  0
   18.6663   18.6045   21.4721 H   0  0  0  0  0  0  0  0  0  0  0  0
   19.5917   18.4191   22.9640 H   0  0  0  0  0  0  0  0  0  0  0  0
   20.6374   19.5098   21.3993 C   0  0  0  0  0  0  0  0  0  0  0  0
   20.7296   19.4614   20.3112 H   0  0  0  0  0  0  0  0  0  0  0  0
   21.6281   19.3441   21.8300 H   0  0  0  0  0  0  0  0  0  0  0  0
   20.2032   20.9229   21.7533 N   0  3  0  0  0  0  0  0  0  0  0  0
   19.2555   21.1071   21.3903 H   0  0  0  0  0  0  0  0  0  0  0  0
   20.8090   21.6022   21.2665 H   0  0  0  0  0  0  0  0  0  0  0  0
   20.2640   21.1614   23.2583 C   0  0  0  0  0  0  0  0  0  0  0  0
   21.2815   20.9788   23.6104 H   0  0  0  0  0  0  0  0  0  0  0  0
   19.9823   22.1956   23.4681 H   0  0  0  0  0  0  0  0  0  0  0  0
   19.5709   20.4842   23.7612 H   0  0  0  0  0  0  0  0  0  0  0  0
  1  2  1  0  0  0  0
  1  3  1  0  0  0  0
  1  4  1  0  0  0  0
  1  5  1  0  0  0  0
  5  6  1  0  0  0  0
  5  7  1  0  0  0  0
  5  8  1  0  0  0  0
  8  9  1  0  0  0  0
  8 10  1  0  0  0  0
  8 11  1  0  0  0  0
 11 12  1  0  0  0  0
 11 13  1  0  0  0  0
 11 14  1  0  0  0  0
 14 15  1  0  0  0  0
 14 16  1  0  0  0  0
 14 17  1  0  0  0  0
 17 18  1  0  0  0  0
 17 19  1  0  0  0  0
 17 20  1  0  0  0  0
M  END
> <VConfSearch Rank>
117

> <Conf_Id>
2

> <Delta U+W>
0.069

> <U+W>
15.407

> <U>
69.657

> <W>
-54.250

> <W(PB)>
-56.176

> <W(SA)>
1.926

> <Valence>
1.137

> <Coulomb>
68.383

> <VdW>
0.138

> <VdW6>
-3.703

> <VdW12>
3.841

> <Bond>
0.125

> <Angle>
0.468

> <Pdih>
0.543

> <Idih>
0.000

> <Tether>
0.000

$$$$
VeraChem MOL file


 20 19  0  0  0  0  0  0  0  0999 V2000     
   20.7494   21.0722   23.1101 C   0  0  0  0  0  0  0  0  0  0  0  0
   21.2297   20.2268   23.6186 H   0  0  0  0  0  0  0  0  0  0  0  0
   21.3987   21.3892   22.2837 H   0  0  0  0  0  0  0  0  0  0  0  0
   20.6928   21.9008   23.8278 H   0  0  0  0  0  0  0  0  0  0  0  0
   19.3384   20.7010   22.5985 C   0  0  0  0  0  0  0  0  0  0  0  0
   18.8606   21.5988   22.1817 H   0  0  0  0  0  0  0  0  0  0  0  0
   18.7116   20.3819   23.4432 H   0  0  0  0  0  0  0  0  0  0  0  0
   19.3587   19.5950   21.5175 C   0  0  0  0  0  0  0  0  0  0  0  0
   18.3368   19.4386   21.1471 H   0  0  0  0  0  0  0  0  0  0  0  0
   19.9567   19.9299   20.6595 H   0  0  0  0  0  0  0  0  0  0  0  0
   19.9148   18.2583   22.0460 C   0  0  0  0  0  0  0  0  0  0  0  0
   19.3181   17.9240   22.8983 H   0  0  0  0  0  0  0  0  0  0  0  0
   20.9459   18.3949   22.3806 H   0  0  0  0  0  0  0  0  0  0  0  0
   19.9076   17.1517   21.0097 N   0  3  0  0  0  0  0  0  0  0  0  0
   20.4548   17.4345   20.1823 H   0  0  0  0  0  0  0  0  0  0  0  0
   18.9491   16.9946   20.6623 H   0  0  0  0  0  0  0  0  0  0  0  0
   20.4733   15.8725   21.6119 C   0  0  0  0  0  0  0  0  0  0  0  0
   19.8589   15.5735   22.4640 H   0  0  0  0  0  0  0  0  0  0  0  0
   20.4622   15.0845   20.8557 H   0  0  0  0  0  0  0  0  0  0  0  0
   21.4990   16.0524   21.9409 H   0  0  0  0  0  0  0  0  0  0  0  0
  1  2  1  0  0  0  0
  1  3  1  0  0  0  0
  1  4  1  0  0  0  0
  1  5  1  0  0  0  0
  5  6  1  0  0  0  0
  5  7  1  0  0  0  0
  5  8  1  0  0  0  0
  8  9  1  0  0  0  0
  8 10  1  0  0  0  0
  8 11  1  0  0  0  0
 11 12  1  0  0  0  0
 11 13  1  0  0  0  0
 11 14  1  0  0  0  0
 14 15  1  0  0  0  0
 14 16  1  0  0  0  0
 14 17  1  0  0  0  0
 17 18  1  0  0  0  0
 17 19  1  0  0  0  0
 17 20  1  0  0  0  0
M  END
> <VConfSearch Rank>
118

> <Conf_Id>
34

> <Delta U+W>
0.276

> <U+W>
15.615

> <U>
69.798

> <W>
-54.184

> <W(PB)>
-56.116

> <W(SA)>
1.933

> <Valence>
1.134

> <Coulomb>
68.735

> <VdW>
-0.070

> <VdW6>
-3.565

> <VdW12>
3.494

> <Bond>
0.108

> <Angle>
0.456

> <Pdih>
0.569

> <Idih>
0.000

> <Tether>
0.000

$$$$
VeraChem MOL file


 20 19  0  0  0  0  0  0  0  0999 V2000     
   21.9528   20.2837   20.1859 C   0  0  0  0  0  0  0  0  0  0  0  0
   21.6381   21.3331   20.1153 H   0  0  0  0  0  0  0  0  0  0  0  0
   23.0466   20.2667   20.2774 H   0  0  0  0  0  0  0  0  0  0  0  0
   21.6864   19.7834   19.2457 H   0  0  0  0  0  0  0  0  0  0  0  0
   21.2931   19.5846   21.3942 C   0  0  0  0  0  0  0  0  0  0  0  0
   21.6039   20.0882   22.3205 H   0  0  0  0  0  0  0  0  0  0  0  0
   21.6616   18.5517   21.4559 H   0  0  0  0  0  0  0  0  0  0  0  0
   19.7497   19.5947   21.2888 C   0  0  0  0  0  0  0  0  0  0  0  0
   19.3998   20.6308   21.1885 H   0  0  0  0  0  0  0  0  0  0  0  0
   19.4306   19.0683   20.3794 H   0  0  0  0  0  0  0  0  0  0  0  0
   19.0621   18.9654   22.5170 C   0  0  0  0  0  0  0  0  0  0  0  0
   17.9794   19.0830   22.4246 H   0  0  0  0  0  0  0  0  0  0  0  0
   19.3840   19.4834   23.4239 H   0  0  0  0  0  0  0  0  0  0  0  0
   19.3476   17.4860   22.6957 N   0  3  0  0  0  0  0  0  0  0  0  0
   20.3619   17.3285   22.7892 H   0  0  0  0  0  0  0  0  0  0  0  0
   19.0650   16.9649   21.8515 H   0  0  0  0  0  0  0  0  0  0  0  0
   18.6115   16.9589   23.9202 C   0  0  0  0  0  0  0  0  0  0  0  0
   18.9504   17.5018   24.8052 H   0  0  0  0  0  0  0  0  0  0  0  0
   17.5377   17.1057   23.7853 H   0  0  0  0  0  0  0  0  0  0  0  0
   18.8256   15.8943   24.0369 H   0  0  0  0  0  0  0  0  0  0  0  0
  1  2  1  0  0  0  0
  1  3  1  0  0  0  0
  1  4  1  0  0  0  0
  1  5  1  0  0  0  0
  5  6  1  0  0  0  0
  5  7  1  0  0  0  0
  5  8  1  0  0  0  0
  8  9  1  0  0  0  0
  8 10  1  0  0  0  0
  8 11  1  0  0  0  0
 11 12  1  0  0  0  0
 11 13  1  0  0  0  0
 11 14  1  0  0  0  0
 14 15  1  0  0  0  0
 14 16  1  0  0  0  0
 14 17  1  0  0  0  0
 17 18  1  0  0  0  0
 17 19  1  0  0  0  0
 17 20  1  0  0  0  0
M  END
> <VConfSearch Rank>
119

> <Conf_Id>
50

> <Delta U+W>
0.319

> <U+W>
15.657

> <U>
69.962

> <W>
-54.305

> <W(PB)>
-56.223

> <W(SA)>
1.918

> <Valence>
0.982

> <Coulomb>
69.058

> <VdW>
-0.078

> <VdW6>
-3.548

> <VdW12>
3.471

> <Bond>
0.105

> <Angle>
0.408

> <Pdih>
0.469

> <Idih>
0.000

> <Tether>
0.000

$$$$
VeraChem MOL file


 20 19  0  0  0  0  0  0  0  0999 V2000     
   17.6122   19.0239   20.2354 C   0  0  0  0  0  0  0  0  0  0  0  0
   17.3299   18.2883   19.4711 H   0  0  0  0  0  0  0  0  0  0  0  0
   16.7322   19.2083   20.8653 H   0  0  0  0  0  0  0  0  0  0  0  0
   17.8673   19.9605   19.7226 H   0  0  0  0  0  0  0  0  0  0  0  0
   18.8004   18.5088   21.0761 C   0  0  0  0  0  0  0  0  0  0  0  0
   19.6470   18.2978   20.4088 H   0  0  0  0  0  0  0  0  0  0  0  0
   18.5251   17.5561   21.5502 H   0  0  0  0  0  0  0  0  0  0  0  0
   19.2185   19.5288   22.1615 C   0  0  0  0  0  0  0  0  0  0  0  0
   19.5221   20.4745   21.6930 H   0  0  0  0  0  0  0  0  0  0  0  0
   18.3522   19.7589   22.7958 H   0  0  0  0  0  0  0  0  0  0  0  0
   20.3576   19.0106   23.0623 C   0  0  0  0  0  0  0  0  0  0  0  0
   20.0600   18.0658   23.5240 H   0  0  0  0  0  0  0  0  0  0  0  0
   20.5451   19.7343   23.8596 H   0  0  0  0  0  0  0  0  0  0  0  0
   21.6687   18.7837   22.3333 N   0  3  0  0  0  0  0  0  0  0  0  0
   21.9760   19.6553   21.8749 H   0  0  0  0  0  0  0  0  0  0  0  0
   21.5380   18.1032   21.5702 H   0  0  0  0  0  0  0  0  0  0  0  0
   22.7281   18.2918   23.3102 C   0  0  0  0  0  0  0  0  0  0  0  0
   23.6656   18.1325   22.7728 H   0  0  0  0  0  0  0  0  0  0  0  0
   22.8741   19.0419   24.0905 H   0  0  0  0  0  0  0  0  0  0  0  0
   22.3963   17.3525   23.7580 H   0  0  0  0  0  0  0  0  0  0  0  0
  1  2  1  0  0  0  0
  1  3  1  0  0  0  0
  1  4  1  0  0  0  0
  1  5  1  0  0  0  0
  5  6  1  0  0  0  0
  5  7  1  0  0  0  0
  5  8  1  0  0  0  0
  8  9  1  0  0  0  0
  8 10  1  0  0  0  0
  8 11  1  0  0  0  0
 11 12  1  0  0  0  0
 11 13  1  0  0  0  0
 11 14  1  0  0  0  0
 14 15  1  0  0  0  0
 14 16  1  0  0  0  0
 14 17  1  0  0  0  0
 17 18  1  0  0  0  0
 17 19  1  0  0  0  0
 17 20  1  0  0  0  0
M  END
> <VConfSearch Rank>
120

> <Conf_Id>
35

> <Delta U+W>
0.360

> <U+W>
15.698

> <U>
69.962

> <W>
-54.264

> <W(PB)>
-56.166

> <W(SA)>
1.902

> <Valence>
0.982

> <Coulomb>
69.058

> <VdW>
-0.078

> <VdW6>
-3.548

> <VdW12>
3.471

> <Bond>
0.105

> <Angle>
0.408

> <Pdih>
0.469

> <Idih>
0.000

> <Tether>
0.000

$$$$
VeraChem MOL file


 20 19  0  0  0  0  0  0  0  0999 V2000     
   21.6565   18.5704   24.0043 C   0  0  0  0  0  0  0  0  0  0  0  0
   20.6686   18.3714   24.4386 H   0  0  0  0  0  0  0  0  0  0  0  0
   22.4090   18.1783   24.7007 H   0  0  0  0  0  0  0  0  0  0  0  0
   21.7913   19.6582   23.9436 H   0  0  0  0  0  0  0  0  0  0  0  0
   21.8093   17.9123   22.6138 C   0  0  0  0  0  0  0  0  0  0  0  0
   21.6649   16.8262   22.7014 H   0  0  0  0  0  0  0  0  0  0  0  0
   22.8391   18.0590   22.2588 H   0  0  0  0  0  0  0  0  0  0  0  0
   20.8292   18.4855   21.5636 C   0  0  0  0  0  0  0  0  0  0  0  0
   21.0037   19.5635   21.4533 H   0  0  0  0  0  0  0  0  0  0  0  0
   21.0445   18.0304   20.5879 H   0  0  0  0  0  0  0  0  0  0  0  0
   19.3518   18.2248   21.9277 C   0  0  0  0  0  0  0  0  0  0  0  0
   19.1050   18.7291   22.8650 H   0  0  0  0  0  0  0  0  0  0  0  0
   19.2064   17.1513   22.0723 H   0  0  0  0  0  0  0  0  0  0  0  0
   18.3519   18.6795   20.8770 N   0  3  0  0  0  0  0  0  0  0  0  0
   17.4129   18.3250   21.1175 H   0  0  0  0  0  0  0  0  0  0  0  0
   18.5709   18.2496   19.9654 H   0  0  0  0  0  0  0  0  0  0  0  0
   18.3182   20.2000   20.7661 C   0  0  0  0  0  0  0  0  0  0  0  0
   19.2975   20.5623   20.4475 H   0  0  0  0  0  0  0  0  0  0  0  0
   17.5641   20.4883   20.0304 H   0  0  0  0  0  0  0  0  0  0  0  0
   18.0643   20.6259   21.7392 H   0  0  0  0  0  0  0  0  0  0  0  0
  1  2  1  0  0  0  0
  1  3  1  0  0  0  0
  1  4  1  0  0  0  0
  1  5  1  0  0  0  0
  5  6  1  0  0  0  0
  5  7  1  0  0  0  0
  5  8  1  0  0  0  0
  8  9  1  0  0  0  0
  8 10  1  0  0  0  0
  8 11  1  0  0  0  0
 11 12  1  0  0  0  0
 11 13  1  0  0  0  0
 11 14  1  0  0  0  0
 14 15  1  0  0  0  0
 14 16  1  0  0  0  0
 14 17  1  0  0  0  0
 17 18  1  0  0  0  0
 17 19  1  0  0  0  0
 17 20  1  0  0  0  0
M  END
> <VConfSearch Rank>
121

> <Conf_Id>
33

> <Delta U+W>
0.372

> <U+W>
15.711

> <U>
70.163

> <W>
-54.452

> <W(PB)>
-56.363

> <W(SA)>
1.911

> <Valence>
1.420

> <Coulomb>
68.566

> <VdW>
0.177

> <VdW6>
-4.267

> <VdW12>
4.445

> <Bond>
0.146

> <Angle>
0.581

> <Pdih>
0.693

> <Idih>
0.000

> <Tether>
0.000

$$$$
VeraChem MOL file


 20 19  0  0  0  0  0  0  0  0999 V2000     
   20.3867   19.5131   24.4706 C   0  0  0  0  0  0  0  0  0  0  0  0
   20.8456   19.8086   25.4229 H   0  0  0  0  0  0  0  0  0  0  0  0
   20.0424   20.4277   23.9716 H   0  0  0  0  0  0  0  0  0  0  0  0
   19.5081   18.8961   24.6998 H   0  0  0  0  0  0  0  0  0  0  0  0
   21.3998   18.7365   23.5984 C   0  0  0  0  0  0  0  0  0  0  0  0
   21.7853   17.8816   24.1716 H   0  0  0  0  0  0  0  0  0  0  0  0
   22.2658   19.3770   23.3795 H   0  0  0  0  0  0  0  0  0  0  0  0
   20.7862   18.2194   22.2762 C   0  0  0  0  0  0  0  0  0  0  0  0
   21.5349   17.6156   21.7467 H   0  0  0  0  0  0  0  0  0  0  0  0
   19.9456   17.5508   22.5021 H   0  0  0  0  0  0  0  0  0  0  0  0
   20.3162   19.3644   21.3534 C   0  0  0  0  0  0  0  0  0  0  0  0
   21.1556   20.0405   21.1719 H   0  0  0  0  0  0  0  0  0  0  0  0
   19.5224   19.9341   21.8423 H   0  0  0  0  0  0  0  0  0  0  0  0
   19.7980   18.9120   19.9980 N   0  3  0  0  0  0  0  0  0  0  0  0
   20.5087   18.3407   19.5161 H   0  0  0  0  0  0  0  0  0  0  0  0
   19.6619   19.7337   19.3885 H   0  0  0  0  0  0  0  0  0  0  0  0
   18.4865   18.1459   20.1343 C   0  0  0  0  0  0  0  0  0  0  0  0
   18.1281   17.8709   19.1399 H   0  0  0  0  0  0  0  0  0  0  0  0
   18.6534   17.2435   20.7256 H   0  0  0  0  0  0  0  0  0  0  0  0
   17.7486   18.7814   20.6285 H   0  0  0  0  0  0  0  0  0  0  0  0
  1  2  1  0  0  0  0
  1  3  1  0  0  0  0
  1  4  1  0  0  0  0
  1  5  1  0  0  0  0
  5  6  1  0  0  0  0
  5  7  1  0  0  0  0
  5  8  1  0  0  0  0
  8  9  1  0  0  0  0
  8 10  1  0  0  0  0
  8 11  1  0  0  0  0
 11 12  1  0  0  0  0
 11 13  1  0  0  0  0
 11 14  1  0  0  0  0
 14 15  1  0  0  0  0
 14 16  1  0  0  0  0
 14 17  1  0  0  0  0
 17 18  1  0  0  0  0
 17 19  1  0  0  0  0
 17 20  1  0  0  0  0
M  END
> <VConfSearch Rank>
122

> <Conf_Id>
53

> <Delta U+W>
0.379

> <U+W>
15.717

> <U>
70.163

> <W>
-54.446

> <W(PB)>
-56.322

> <W(SA)>
1.876

> <Valence>
1.420

> <Coulomb>
68.566

> <VdW>
0.177

> <VdW6>
-4.267

> <VdW12>
4.445

> <Bond>
0.146

> <Angle>
0.581

> <Pdih>
0.693

> <Idih>
0.000

> <Tether>
0.000

$$$$
VeraChem MOL file


 20 19  0  0  0  0  0  0  0  0999 V2000     
   22.3245   18.7547   20.2702 C   0  0  0  0  0  0  0  0  0  0  0  0
   22.9572   17.8903   20.0305 H   0  0  0  0  0  0  0  0  0  0  0  0
   22.1396   19.3044   19.3382 H   0  0  0  0  0  0  0  0  0  0  0  0
   22.8908   19.4087   20.9459 H   0  0  0  0  0  0  0  0  0  0  0  0
   21.0000   18.2981   20.9193 C   0  0  0  0  0  0  0  0  0  0  0  0
   21.2256   17.7200   21.8257 H   0  0  0  0  0  0  0  0  0  0  0  0
   20.4722   17.6208   20.2330 H   0  0  0  0  0  0  0  0  0  0  0  0
   20.0900   19.4989   21.2691 C   0  0  0  0  0  0  0  0  0  0  0  0
   20.6019   20.1648   21.9757 H   0  0  0  0  0  0  0  0  0  0  0  0
   19.9085   20.0925   20.3634 H   0  0  0  0  0  0  0  0  0  0  0  0
   18.7241   19.0687   21.8488 C   0  0  0  0  0  0  0  0  0  0  0  0
   18.2031   18.4541   21.1103 H   0  0  0  0  0  0  0  0  0  0  0  0
   18.1130   19.9549   22.0375 H   0  0  0  0  0  0  0  0  0  0  0  0
   18.7871   18.2697   23.1420 N   0  3  0  0  0  0  0  0  0  0  0  0
   19.3591   17.4228   23.0095 H   0  0  0  0  0  0  0  0  0  0  0  0
   17.8451   17.9197   23.3773 H   0  0  0  0  0  0  0  0  0  0  0  0
   19.3278   19.1148   24.2903 C   0  0  0  0  0  0  0  0  0  0  0  0
   18.6922   19.9934   24.4202 H   0  0  0  0  0  0  0  0  0  0  0  0
   19.3238   18.5191   25.2058 H   0  0  0  0  0  0  0  0  0  0  0  0
   20.3486   19.4266   24.0607 H   0  0  0  0  0  0  0  0  0  0  0  0
  1  2  1  0  0  0  0
  1  3  1  0  0  0  0
  1  4  1  0  0  0  0
  1  5  1  0  0  0  0
  5  6  1  0  0  0  0
  5  7  1  0  0  0  0
  5  8  1  0  0  0  0
  8  9  1  0  0  0  0
  8 10  1  0  0  0  0
  8 11  1  0  0  0  0
 11 12  1  0  0  0  0
 11 13  1  0  0  0  0
 11 14  1  0  0  0  0
 14 15  1  0  0  0  0
 14 16  1  0  0  0  0
 14 17  1  0  0  0  0
 17 18  1  0  0  0  0
 17 19  1  0  0  0  0
 17 20  1  0  0  0  0
M  END
> <VConfSearch Rank>
123

> <Conf_Id>
49

> <Delta U+W>
0.268

> <U+W>
15.607

> <U>
70.298

> <W>
-54.692

> <W(PB)>
-56.576

> <W(SA)>
1.885

> <Valence>
1.245

> <Coulomb>
68.933

> <VdW>
0.120

> <VdW6>
-4.430

> <VdW12>
4.550

> <Bond>
0.148

> <Angle>
0.587

> <Pdih>
0.509

> <Idih>
0.000

> <Tether>
0.000

$$$$
VeraChem MOL file


 20 19  0  0  0  0  0  0  0  0999 V2000     
   21.6321   20.7315   23.1033 C   0  0  0  0  0  0  0  0  0  0  0  0
   22.6246   20.2629   23.0779 H   0  0  0  0  0  0  0  0  0  0  0  0
   21.6573   21.6199   22.4590 H   0  0  0  0  0  0  0  0  0  0  0  0
   21.4454   21.0678   24.1314 H   0  0  0  0  0  0  0  0  0  0  0  0
   20.5384   19.7422   22.6458 C   0  0  0  0  0  0  0  0  0  0  0  0
   19.5554   20.2298   22.7086 H   0  0  0  0  0  0  0  0  0  0  0  0
   20.5201   18.8898   23.3376 H   0  0  0  0  0  0  0  0  0  0  0  0
   20.7842   19.2440   21.2025 C   0  0  0  0  0  0  0  0  0  0  0  0
   20.9162   20.1110   20.5418 H   0  0  0  0  0  0  0  0  0  0  0  0
   21.7246   18.6787   21.1599 H   0  0  0  0  0  0  0  0  0  0  0  0
   19.6390   18.3791   20.6287 C   0  0  0  0  0  0  0  0  0  0  0  0
   19.8859   18.1388   19.5914 H   0  0  0  0  0  0  0  0  0  0  0  0
   18.7028   18.9428   20.6239 H   0  0  0  0  0  0  0  0  0  0  0  0
   19.3954   17.0558   21.3378 N   0  3  0  0  0  0  0  0  0  0  0  0
   20.2808   16.6757   21.7045 H   0  0  0  0  0  0  0  0  0  0  0  0
   19.0723   16.3563   20.6513 H   0  0  0  0  0  0  0  0  0  0  0  0
   18.3495   17.1977   22.4391 C   0  0  0  0  0  0  0  0  0  0  0  0
   18.1883   16.2234   22.9057 H   0  0  0  0  0  0  0  0  0  0  0  0
   18.6968   17.9091   23.1891 H   0  0  0  0  0  0  0  0  0  0  0  0
   17.4144   17.5529   22.0008 H   0  0  0  0  0  0  0  0  0  0  0  0
  1  2  1  0  0  0  0
  1  3  1  0  0  0  0
  1  4  1  0  0  0  0
  1  5  1  0  0  0  0
  5  6  1  0  0  0  0
  5  7  1  0  0  0  0
  5  8  1  0  0  0  0
  8  9  1  0  0  0  0
  8 10  1  0  0  0  0
  8 11  1  0  0  0  0
 11 12  1  0  0  0  0
 11 13  1  0  0  0  0
 11 14  1  0  0  0  0
 14 15  1  0  0  0  0
 14 16  1  0  0  0  0
 14 17  1  0  0  0  0
 17 18  1  0  0  0  0
 17 19  1  0  0  0  0
 17 20  1  0  0  0  0
M  END
> <VConfSearch Rank>
124

> <Conf_Id>
65

> <Delta U+W>
1.775

> <U+W>
17.114

> <U>
71.726

> <W>
-54.613

> <W(PB)>
-56.495

> <W(SA)>
1.883

> <Valence>
2.885

> <Coulomb>
68.822

> <VdW>
0.019

> <VdW6>
-4.600

> <VdW12>
4.619

> <Bond>
0.152

> <Angle>
0.862

> <Pdih>
1.871

> <Idih>
0.000

> <Tether>
0.000

$$$$
VeraChem MOL file


 20 19  0  0  0  0  0  0  0  0999 V2000     
   20.1724   19.0687   24.3816 C   0  0  0  0  0  0  0  0  0  0  0  0
   20.9358   18.4165   23.9391 H   0  0  0  0  0  0  0  0  0  0  0  0
   20.6658   19.6851   25.1442 H   0  0  0  0  0  0  0  0  0  0  0  0
   19.4337   18.4355   24.8901 H   0  0  0  0  0  0  0  0  0  0  0  0
   19.4983   19.9622   23.3151 C   0  0  0  0  0  0  0  0  0  0  0  0
   20.2565   20.5856   22.8221 H   0  0  0  0  0  0  0  0  0  0  0  0
   18.8123   20.6599   23.8157 H   0  0  0  0  0  0  0  0  0  0  0  0
   18.7037   19.1534   22.2594 C   0  0  0  0  0  0  0  0  0  0  0  0
   17.8850   18.6170   22.7571 H   0  0  0  0  0  0  0  0  0  0  0  0
   18.2292   19.8454   21.5511 H   0  0  0  0  0  0  0  0  0  0  0  0
   19.5572   18.1332   21.4773 C   0  0  0  0  0  0  0  0  0  0  0  0
   18.9185   17.5860   20.7794 H   0  0  0  0  0  0  0  0  0  0  0  0
   19.9962   17.4122   22.1710 H   0  0  0  0  0  0  0  0  0  0  0  0
   20.6840   18.7577   20.6766 N   0  3  0  0  0  0  0  0  0  0  0  0
   21.3068   19.2909   21.3014 H   0  0  0  0  0  0  0  0  0  0  0  0
   20.3061   19.4475   20.0094 H   0  0  0  0  0  0  0  0  0  0  0  0
   21.4633   17.6746   19.9430 C   0  0  0  0  0  0  0  0  0  0  0  0
   20.7909   17.1444   19.2651 H   0  0  0  0  0  0  0  0  0  0  0  0
   22.2712   18.1378   19.3724 H   0  0  0  0  0  0  0  0  0  0  0  0
   21.8805   16.9756   20.6711 H   0  0  0  0  0  0  0  0  0  0  0  0
  1  2  1  0  0  0  0
  1  3  1  0  0  0  0
  1  4  1  0  0  0  0
  1  5  1  0  0  0  0
  5  6  1  0  0  0  0
  5  7  1  0  0  0  0
  5  8  1  0  0  0  0
  8  9  1  0  0  0  0
  8 10  1  0  0  0  0
  8 11  1  0  0  0  0
 11 12  1  0  0  0  0
 11 13  1  0  0  0  0
 11 14  1  0  0  0  0
 14 15  1  0  0  0  0
 14 16  1  0  0  0  0
 14 17  1  0  0  0  0
 17 18  1  0  0  0  0
 17 19  1  0  0  0  0
 17 20  1  0  0  0  0
M  END
> <VConfSearch Rank>
125

> <Conf_Id>
23

> <Delta U+W>
0.896

> <U+W>
16.234

> <U>
70.374

> <W>
-54.140

> <W(PB)>
-56.046

> <W(SA)>
1.907

> <Valence>
1.257

> <Coulomb>
69.240

> <VdW>
-0.123

> <VdW6>
-4.336

> <VdW12>
4.213

> <Bond>
0.128

> <Angle>
0.603

> <Pdih>
0.526

> <Idih>
0.000

> <Tether>
0.000

$$$$
VeraChem MOL file


 20 19  0  0  0  0  0  0  0  0999 V2000     
   22.0755   17.7884   21.1123 C   0  0  0  0  0  0  0  0  0  0  0  0
   22.4565   16.9939   21.7671 H   0  0  0  0  0  0  0  0  0  0  0  0
   22.7081   17.8146   20.2156 H   0  0  0  0  0  0  0  0  0  0  0  0
   22.1976   18.7475   21.6311 H   0  0  0  0  0  0  0  0  0  0  0  0
   20.6001   17.5319   20.7278 C   0  0  0  0  0  0  0  0  0  0  0  0
   20.5416   16.6104   20.1317 H   0  0  0  0  0  0  0  0  0  0  0  0
   20.2431   18.3385   20.0732 H   0  0  0  0  0  0  0  0  0  0  0  0
   19.6680   17.3902   21.9571 C   0  0  0  0  0  0  0  0  0  0  0  0
   18.6448   17.1829   21.6170 H   0  0  0  0  0  0  0  0  0  0  0  0
   19.9772   16.5161   22.5455 H   0  0  0  0  0  0  0  0  0  0  0  0
   19.6551   18.6261   22.8809 C   0  0  0  0  0  0  0  0  0  0  0  0
   20.6624   18.8119   23.2611 H   0  0  0  0  0  0  0  0  0  0  0  0
   19.0010   18.4330   23.7350 H   0  0  0  0  0  0  0  0  0  0  0  0
   19.1682   19.8944   22.2065 N   0  3  0  0  0  0  0  0  0  0  0  0
   18.2169   19.7558   21.8327 H   0  0  0  0  0  0  0  0  0  0  0  0
   19.7577   20.1069   21.3881 H   0  0  0  0  0  0  0  0  0  0  0  0
   19.1911   21.0515   23.1961 C   0  0  0  0  0  0  0  0  0  0  0  0
   20.2127   21.2001   23.5525 H   0  0  0  0  0  0  0  0  0  0  0  0
   18.8397   21.9574   22.6972 H   0  0  0  0  0  0  0  0  0  0  0  0
   18.5362   20.8175   24.0382 H   0  0  0  0  0  0  0  0  0  0  0  0
  1  2  1  0  0  0  0
  1  3  1  0  0  0  0
  1  4  1  0  0  0  0
  1  5  1  0  0  0  0
  5  6  1  0  0  0  0
  5  7  1  0  0  0  0
  5  8  1  0  0  0  0
  8  9  1  0  0  0  0
  8 10  1  0  0  0  0
  8 11  1  0  0  0  0
 11 12  1  0  0  0  0
 11 13  1  0  0  0  0
 11 14  1  0  0  0  0
 14 15  1  0  0  0  0
 14 16  1  0  0  0  0
 14 17  1  0  0  0  0
 17 18  1  0  0  0  0
 17 19  1  0  0  0  0
 17 20  1  0  0  0  0
M  END
> <VConfSearch Rank>
126

> <Conf_Id>
24

> <Delta U+W>
0.792

> <U+W>
16.130

> <U>
70.374

> <W>
-54.243

> <W(PB)>
-56.130

> <W(SA)>
1.887

> <Valence>
1.257

> <Coulomb>
69.240

> <VdW>
-0.123

> <VdW6>
-4.336

> <VdW12>
4.213

> <Bond>
0.128

> <Angle>
0.603

> <Pdih>
0.526

> <Idih>
0.000

> <Tether>
0.000

$$$$
VeraChem MOL file


 20 19  0  0  0  0  0  0  0  0999 V2000     
   18.7626   17.0192   22.4970 C   0  0  0  0  0  0  0  0  0  0  0  0
   18.0690   16.1735   22.4022 H   0  0  0  0  0  0  0  0  0  0  0  0
   19.5552   16.8687   21.7546 H   0  0  0  0  0  0  0  0  0  0  0  0
   19.2029   16.9764   23.5017 H   0  0  0  0  0  0  0  0  0  0  0  0
   18.0147   18.3524   22.2672 C   0  0  0  0  0  0  0  0  0  0  0  0
   17.1078   18.3571   22.8882 H   0  0  0  0  0  0  0  0  0  0  0  0
   17.6690   18.4027   21.2251 H   0  0  0  0  0  0  0  0  0  0  0  0
   18.8428   19.6191   22.6027 C   0  0  0  0  0  0  0  0  0  0  0  0
   18.1920   20.4935   22.4691 H   0  0  0  0  0  0  0  0  0  0  0  0
   19.1312   19.6177   23.6621 H   0  0  0  0  0  0  0  0  0  0  0  0
   20.0899   19.8200   21.7158 C   0  0  0  0  0  0  0  0  0  0  0  0
   20.3883   20.8708   21.7517 H   0  0  0  0  0  0  0  0  0  0  0  0
   19.8498   19.5712   20.6791 H   0  0  0  0  0  0  0  0  0  0  0  0
   21.2964   19.0036   22.1388 N   0  3  0  0  0  0  0  0  0  0  0  0
   21.0512   18.0040   22.1728 H   0  0  0  0  0  0  0  0  0  0  0  0
   21.5722   19.2513   23.1014 H   0  0  0  0  0  0  0  0  0  0  0  0
   22.4504   19.2408   21.1742 C   0  0  0  0  0  0  0  0  0  0  0  0
   22.1465   18.9413   20.1689 H   0  0  0  0  0  0  0  0  0  0  0  0
   22.7122   20.3011   21.1805 H   0  0  0  0  0  0  0  0  0  0  0  0
   23.3109   18.6474   21.4910 H   0  0  0  0  0  0  0  0  0  0  0  0
  1  2  1  0  0  0  0
  1  3  1  0  0  0  0
  1  4  1  0  0  0  0
  1  5  1  0  0  0  0
  5  6  1  0  0  0  0
  5  7  1  0  0  0  0
  5  8  1  0  0  0  0
  8  9  1  0  0  0  0
  8 10  1  0  0  0  0
  8 11  1  0  0  0  0
 11 12  1  0  0  0  0
 11 13  1  0  0  0  0
 11 14  1  0  0  0  0
 14 15  1  0  0  0  0
 14 16  1  0  0  0  0
 14 17  1  0  0  0  0
 17 18  1  0  0  0  0
 17 19  1  0  0  0  0
 17 20  1  0  0  0  0
M  END
> <VConfSearch Rank>
127

> <Conf_Id>
26

> <Delta U+W>
2.888

> <U+W>
18.226

> <U>
72.042

> <W>
-53.816

> <W(PB)>
-55.689

> <W(SA)>
1.873

> <Valence>
2.428

> <Coulomb>
69.829

> <VdW>
-0.215

> <VdW6>
-4.563

> <VdW12>
4.348

> <Bond>
0.137

> <Angle>
0.936

> <Pdih>
1.356

> <Idih>
0.000

> <Tether>
0.000

$$$$
VeraChem MOL file


 20 19  0  0  0  0  0  0  0  0999 V2000     
   18.2602   19.5163   23.0561 C   0  0  0  0  0  0  0  0  0  0  0  0
   17.5219   20.1068   23.6142 H   0  0  0  0  0  0  0  0  0  0  0  0
   17.8297   18.5207   22.8870 H   0  0  0  0  0  0  0  0  0  0  0  0
   19.1434   19.4175   23.6981 H   0  0  0  0  0  0  0  0  0  0  0  0
   18.6040   20.2144   21.7204 C   0  0  0  0  0  0  0  0  0  0  0  0
   19.1181   21.1639   21.9260 H   0  0  0  0  0  0  0  0  0  0  0  0
   17.6664   20.4808   21.2126 H   0  0  0  0  0  0  0  0  0  0  0  0
   19.4587   19.3591   20.7504 C   0  0  0  0  0  0  0  0  0  0  0  0
   18.9227   18.4404   20.4774 H   0  0  0  0  0  0  0  0  0  0  0  0
   19.5795   19.9255   19.8175 H   0  0  0  0  0  0  0  0  0  0  0  0
   20.8674   19.0122   21.2772 C   0  0  0  0  0  0  0  0  0  0  0  0
   21.2987   19.8822   21.7785 H   0  0  0  0  0  0  0  0  0  0  0  0
   21.5111   18.7541   20.4324 H   0  0  0  0  0  0  0  0  0  0  0  0
   20.9050   17.8374   22.2360 N   0  3  0  0  0  0  0  0  0  0  0  0
   20.5430   16.9899   21.7726 H   0  0  0  0  0  0  0  0  0  0  0  0
   20.2699   18.0088   23.0284 H   0  0  0  0  0  0  0  0  0  0  0  0
   22.3282   17.6113   22.7278 C   0  0  0  0  0  0  0  0  0  0  0  0
   22.6778   18.5087   23.2427 H   0  0  0  0  0  0  0  0  0  0  0  0
   22.3397   16.7635   23.4163 H   0  0  0  0  0  0  0  0  0  0  0  0
   22.9746   17.4002   21.8732 H   0  0  0  0  0  0  0  0  0  0  0  0
  1  2  1  0  0  0  0
  1  3  1  0  0  0  0
  1  4  1  0  0  0  0
  1  5  1  0  0  0  0
  5  6  1  0  0  0  0
  5  7  1  0  0  0  0
  5  8  1  0  0  0  0
  8  9  1  0  0  0  0
  8 10  1  0  0  0  0
  8 11  1  0  0  0  0
 11 12  1  0  0  0  0
 11 13  1  0  0  0  0
 11 14  1  0  0  0  0
 14 15  1  0  0  0  0
 14 16  1  0  0  0  0
 14 17  1  0  0  0  0
 17 18  1  0  0  0  0
 17 19  1  0  0  0  0
 17 20  1  0  0  0  0
M  END
> <VConfSearch Rank>
128

> <Conf_Id>
5

> <Delta U+W>
2.950

> <U+W>
18.289

> <U>
72.042

> <W>
-53.753

> <W(PB)>
-55.644

> <W(SA)>
1.891

> <Valence>
2.428

> <Coulomb>
69.829

> <VdW>
-0.215

> <VdW6>
-4.563

> <VdW12>
4.348

> <Bond>
0.137

> <Angle>
0.936

> <Pdih>
1.356

> <Idih>
0.000

> <Tether>
0.000

$$$$
VeraChem MOL file


 20 19  0  0  0  0  0  0  0  0999 V2000     
   18.7731   19.3371   24.0221 C   0  0  0  0  0  0  0  0  0  0  0  0
   17.8522   18.7436   24.0907 H   0  0  0  0  0  0  0  0  0  0  0  0
   19.6137   18.7005   24.3253 H   0  0  0  0  0  0  0  0  0  0  0  0
   18.6983   20.1554   24.7499 H   0  0  0  0  0  0  0  0  0  0  0  0
   18.9677   19.8974   22.5944 C   0  0  0  0  0  0  0  0  0  0  0  0
   19.8918   20.4898   22.5512 H   0  0  0  0  0  0  0  0  0  0  0  0
   18.1495   20.5962   22.3704 H   0  0  0  0  0  0  0  0  0  0  0  0
   18.9927   18.7942   21.5073 C   0  0  0  0  0  0  0  0  0  0  0  0
   18.0261   18.2735   21.4994 H   0  0  0  0  0  0  0  0  0  0  0  0
   19.0923   19.2596   20.5183 H   0  0  0  0  0  0  0  0  0  0  0  0
   20.1135   17.7471   21.6998 C   0  0  0  0  0  0  0  0  0  0  0  0
   20.0657   17.0088   20.8954 H   0  0  0  0  0  0  0  0  0  0  0  0
   19.9514   17.2223   22.6444 H   0  0  0  0  0  0  0  0  0  0  0  0
   21.5266   18.3089   21.7281 N   0  3  0  0  0  0  0  0  0  0  0  0
   22.1892   17.5653   21.9983 H   0  0  0  0  0  0  0  0  0  0  0  0
   21.6081   19.0215   22.4681 H   0  0  0  0  0  0  0  0  0  0  0  0
   21.9196   18.8872   20.3732 C   0  0  0  0  0  0  0  0  0  0  0  0
   21.2508   19.7136   20.1248 H   0  0  0  0  0  0  0  0  0  0  0  0
   22.9483   19.2507   20.4239 H   0  0  0  0  0  0  0  0  0  0  0  0
   21.8422   18.1067   19.6133 H   0  0  0  0  0  0  0  0  0  0  0  0
  1  2  1  0  0  0  0
  1  3  1  0  0  0  0
  1  4  1  0  0  0  0
  1  5  1  0  0  0  0
  5  6  1  0  0  0  0
  5  7  1  0  0  0  0
  5  8  1  0  0  0  0
  8  9  1  0  0  0  0
  8 10  1  0  0  0  0
  8 11  1  0  0  0  0
 11 12  1  0  0  0  0
 11 13  1  0  0  0  0
 11 14  1  0  0  0  0
 14 15  1  0  0  0  0
 14 16  1  0  0  0  0
 14 17  1  0  0  0  0
 17 18  1  0  0  0  0
 17 19  1  0  0  0  0
 17 20  1  0  0  0  0
M  END
> <VConfSearch Rank>
129

> <Conf_Id>
52

> <Delta U+W>
0.784

> <U+W>
16.122

> <U>
70.777

> <W>
-54.655

> <W(PB)>
-56.491

> <W(SA)>
1.836

> <Valence>
1.529

> <Coulomb>
69.166

> <VdW>
0.082

> <VdW6>
-5.166

> <VdW12>
5.248

> <Bond>
0.171

> <Angle>
0.752

> <Pdih>
0.605

> <Idih>
0.000

> <Tether>
0.000

$$$$
VeraChem MOL file


 20 19  0  0  0  0  0  0  0  0999 V2000     
   19.0027   18.3142   20.2993 C   0  0  0  0  0  0  0  0  0  0  0  0
   18.5313   17.8378   19.4298 H   0  0  0  0  0  0  0  0  0  0  0  0
   18.2446   18.3600   21.0894 H   0  0  0  0  0  0  0  0  0  0  0  0
   19.2768   19.3372   20.0103 H   0  0  0  0  0  0  0  0  0  0  0  0
   20.2419   17.5054   20.7461 C   0  0  0  0  0  0  0  0  0  0  0  0
   20.8563   17.2911   19.8603 H   0  0  0  0  0  0  0  0  0  0  0  0
   19.9221   16.5291   21.1368 H   0  0  0  0  0  0  0  0  0  0  0  0
   21.1324   18.2218   21.7933 C   0  0  0  0  0  0  0  0  0  0  0  0
   22.0213   17.5994   21.9607 H   0  0  0  0  0  0  0  0  0  0  0  0
   21.5065   19.1704   21.3882 H   0  0  0  0  0  0  0  0  0  0  0  0
   20.4562   18.4481   23.1656 C   0  0  0  0  0  0  0  0  0  0  0  0
   21.2254   18.6373   23.9186 H   0  0  0  0  0  0  0  0  0  0  0  0
   19.9235   17.5387   23.4548 H   0  0  0  0  0  0  0  0  0  0  0  0
   19.4737   19.6067   23.2351 N   0  3  0  0  0  0  0  0  0  0  0  0
   18.9424   19.5566   24.1184 H   0  0  0  0  0  0  0  0  0  0  0  0
   18.7690   19.5172   22.4900 H   0  0  0  0  0  0  0  0  0  0  0  0
   20.1927   20.9479   23.1398 C   0  0  0  0  0  0  0  0  0  0  0  0
   20.9222   21.0226   23.9491 H   0  0  0  0  0  0  0  0  0  0  0  0
   20.7002   21.0205   22.1761 H   0  0  0  0  0  0  0  0  0  0  0  0
   19.4605   21.7534   23.2295 H   0  0  0  0  0  0  0  0  0  0  0  0
  1  2  1  0  0  0  0
  1  3  1  0  0  0  0
  1  4  1  0  0  0  0
  1  5  1  0  0  0  0
  5  6  1  0  0  0  0
  5  7  1  0  0  0  0
  5  8  1  0  0  0  0
  8  9  1  0  0  0  0
  8 10  1  0  0  0  0
  8 11  1  0  0  0  0
 11 12  1  0  0  0  0
 11 13  1  0  0  0  0
 11 14  1  0  0  0  0
 14 15  1  0  0  0  0
 14 16  1  0  0  0  0
 14 17  1  0  0  0  0
 17 18  1  0  0  0  0
 17 19  1  0  0  0  0
 17 20  1  0  0  0  0
M  END
> <VConfSearch Rank>
130

> <Conf_Id>
55

> <Delta U+W>
2.745

> <U+W>
18.083

> <U>
72.490

> <W>
-54.407

> <W(PB)>
-56.269

> <W(SA)>
1.861

> <Valence>
2.738

> <Coulomb>
69.795

> <VdW>
-0.043

> <VdW6>
-5.333

> <VdW12>
5.290

> <Bond>
0.182

> <Angle>
1.135

> <Pdih>
1.422

> <Idih>
0.000

> <Tether>
0.000

$$$$
VeraChem MOL file


 20 19  0  0  0  0  0  0  0  0999 V2000     
   21.5944   20.0742   21.5883 C   0  0  0  0  0  0  0  0  0  0  0  0
   22.3379   20.8612   21.4065 H   0  0  0  0  0  0  0  0  0  0  0  0
   22.1249   19.2025   21.9933 H   0  0  0  0  0  0  0  0  0  0  0  0
   21.1657   19.8079   20.6154 H   0  0  0  0  0  0  0  0  0  0  0  0
   20.5108   20.5780   22.5688 C   0  0  0  0  0  0  0  0  0  0  0  0
   19.9228   21.3734   22.0895 H   0  0  0  0  0  0  0  0  0  0  0  0
   21.0095   21.0461   23.4291 H   0  0  0  0  0  0  0  0  0  0  0  0
   19.5618   19.4731   23.0994 C   0  0  0  0  0  0  0  0  0  0  0  0
   20.1349   18.7045   23.6330 H   0  0  0  0  0  0  0  0  0  0  0  0
   18.9036   19.9281   23.8513 H   0  0  0  0  0  0  0  0  0  0  0  0
   18.6614   18.8263   22.0212 C   0  0  0  0  0  0  0  0  0  0  0  0
   18.2550   19.6111   21.3783 H   0  0  0  0  0  0  0  0  0  0  0  0
   17.8205   18.3259   22.5080 H   0  0  0  0  0  0  0  0  0  0  0  0
   19.3350   17.7948   21.1297 N   0  3  0  0  0  0  0  0  0  0  0  0
   20.1837   18.1947   20.7060 H   0  0  0  0  0  0  0  0  0  0  0  0
   18.7163   17.5681   20.3354 H   0  0  0  0  0  0  0  0  0  0  0  0
   19.6660   16.5249   21.9058 C   0  0  0  0  0  0  0  0  0  0  0  0
   20.3709   16.7610   22.7052 H   0  0  0  0  0  0  0  0  0  0  0  0
   18.7478   16.1141   22.3310 H   0  0  0  0  0  0  0  0  0  0  0  0
   20.1140   15.7968   21.2260 H   0  0  0  0  0  0  0  0  0  0  0  0
  1  2  1  0  0  0  0
  1  3  1  0  0  0  0
  1  4  1  0  0  0  0
  1  5  1  0  0  0  0
  5  6  1  0  0  0  0
  5  7  1  0  0  0  0
  5  8  1  0  0  0  0
  8  9  1  0  0  0  0
  8 10  1  0  0  0  0
  8 11  1  0  0  0  0
 11 12  1  0  0  0  0
 11 13  1  0  0  0  0
 11 14  1  0  0  0  0
 14 15  1  0  0  0  0
 14 16  1  0  0  0  0
 14 17  1  0  0  0  0
 17 18  1  0  0  0  0
 17 19  1  0  0  0  0
 17 20  1  0  0  0  0
M  END
> <VConfSearch Rank>
131

> <Conf_Id>
76

> <Delta U+W>
2.799

> <U+W>
18.137

> <U>
72.490

> <W>
-54.353

> <W(PB)>
-56.201

> <W(SA)>
1.848

> <Valence>
2.738

> <Coulomb>
69.795

> <VdW>
-0.043

> <VdW6>
-5.334

> <VdW12>
5.290

> <Bond>
0.182

> <Angle>
1.135

> <Pdih>
1.421

> <Idih>
0.000

> <Tether>
0.000

$$$$
VeraChem MOL file


 20 19  0  0  0  0  0  0  0  0999 V2000     
   22.2209   18.7018   22.0210 C   0  0  0  0  0  0  0  0  0  0  0  0
   21.7641   19.6818   22.2052 H   0  0  0  0  0  0  0  0  0  0  0  0
   22.6916   18.3646   22.9536 H   0  0  0  0  0  0  0  0  0  0  0  0
   23.0154   18.8409   21.2766 H   0  0  0  0  0  0  0  0  0  0  0  0
   21.1824   17.6717   21.5200 C   0  0  0  0  0  0  0  0  0  0  0  0
   21.7014   16.7325   21.2829 H   0  0  0  0  0  0  0  0  0  0  0  0
   20.7375   18.0123   20.5761 H   0  0  0  0  0  0  0  0  0  0  0  0
   20.0717   17.3753   22.5573 C   0  0  0  0  0  0  0  0  0  0  0  0
   19.3961   16.6079   22.1571 H   0  0  0  0  0  0  0  0  0  0  0  0
   20.5341   16.9327   23.4495 H   0  0  0  0  0  0  0  0  0  0  0  0
   19.2380   18.5995   23.0031 C   0  0  0  0  0  0  0  0  0  0  0  0
   19.8881   19.3838   23.3979 H   0  0  0  0  0  0  0  0  0  0  0  0
   18.5801   18.2776   23.8144 H   0  0  0  0  0  0  0  0  0  0  0  0
   18.3409   19.2083   21.9356 N   0  3  0  0  0  0  0  0  0  0  0  0
   17.5008   19.6051   22.3845 H   0  0  0  0  0  0  0  0  0  0  0  0
   17.9811   18.4742   21.3077 H   0  0  0  0  0  0  0  0  0  0  0  0
   19.0565   20.3058   21.1555 C   0  0  0  0  0  0  0  0  0  0  0  0
   18.3660   20.7319   20.4242 H   0  0  0  0  0  0  0  0  0  0  0  0
   19.3815   21.0842   21.8491 H   0  0  0  0  0  0  0  0  0  0  0  0
   19.9219   19.8880   20.6402 H   0  0  0  0  0  0  0  0  0  0  0  0
  1  2  1  0  0  0  0
  1  3  1  0  0  0  0
  1  4  1  0  0  0  0
  1  5  1  0  0  0  0
  5  6  1  0  0  0  0
  5  7  1  0  0  0  0
  5  8  1  0  0  0  0
  8  9  1  0  0  0  0
  8 10  1  0  0  0  0
  8 11  1  0  0  0  0
 11 12  1  0  0  0  0
 11 13  1  0  0  0  0
 11 14  1  0  0  0  0
 14 15  1  0  0  0  0
 14 16  1  0  0  0  0
 14 17  1  0  0  0  0
 17 18  1  0  0  0  0
 17 19  1  0  0  0  0
 17 20  1  0  0  0  0
M  END
> <VConfSearch Rank>
132

> <Conf_Id>
60

> <Delta U+W>
1.788

> <U+W>
17.127

> <U>
72.122

> <W>
-54.995

> <W(PB)>
-56.810

> <W(SA)>
1.815

> <Valence>
3.197

> <Coulomb>
69.115

> <VdW>
-0.190

> <VdW6>
-5.585

> <VdW12>
5.395

> <Bond>
0.177

> <Angle>
1.207

> <Pdih>
1.813

> <Idih>
0.000

> <Tether>
0.000

$$$$
VeraChem MOL file


 20 19  0  0  0  0  0  0  0  0999 V2000     
   19.8121   20.8678   22.3990 C   0  0  0  0  0  0  0  0  0  0  0  0
   20.1482   21.5832   23.1607 H   0  0  0  0  0  0  0  0  0  0  0  0
   19.2734   21.4309   21.6259 H   0  0  0  0  0  0  0  0  0  0  0  0
   19.1021   20.1827   22.8783 H   0  0  0  0  0  0  0  0  0  0  0  0
   21.0180   20.1115   21.7954 C   0  0  0  0  0  0  0  0  0  0  0  0
   21.5588   19.5723   22.5837 H   0  0  0  0  0  0  0  0  0  0  0  0
   21.7307   20.8452   21.3935 H   0  0  0  0  0  0  0  0  0  0  0  0
   20.6176   19.1373   20.6605 C   0  0  0  0  0  0  0  0  0  0  0  0
   20.1792   19.7180   19.8381 H   0  0  0  0  0  0  0  0  0  0  0  0
   21.5208   18.6681   20.2488 H   0  0  0  0  0  0  0  0  0  0  0  0
   19.6117   18.0323   21.0603 C   0  0  0  0  0  0  0  0  0  0  0  0
   19.3254   17.4970   20.1514 H   0  0  0  0  0  0  0  0  0  0  0  0
   18.7053   18.4724   21.4825 H   0  0  0  0  0  0  0  0  0  0  0  0
   20.1368   16.9849   22.0310 N   0  3  0  0  0  0  0  0  0  0  0  0
   21.1378   16.8072   21.8604 H   0  0  0  0  0  0  0  0  0  0  0  0
   19.6734   16.0829   21.8399 H   0  0  0  0  0  0  0  0  0  0  0  0
   19.8814   17.3808   23.4812 C   0  0  0  0  0  0  0  0  0  0  0  0
   18.8082   17.5153   23.6318 H   0  0  0  0  0  0  0  0  0  0  0  0
   20.2468   16.5876   24.1372 H   0  0  0  0  0  0  0  0  0  0  0  0
   20.4037   18.3110   23.7072 H   0  0  0  0  0  0  0  0  0  0  0  0
  1  2  1  0  0  0  0
  1  3  1  0  0  0  0
  1  4  1  0  0  0  0
  1  5  1  0  0  0  0
  5  6  1  0  0  0  0
  5  7  1  0  0  0  0
  5  8  1  0  0  0  0
  8  9  1  0  0  0  0
  8 10  1  0  0  0  0
  8 11  1  0  0  0  0
 11 12  1  0  0  0  0
 11 13  1  0  0  0  0
 11 14  1  0  0  0  0
 14 15  1  0  0  0  0
 14 16  1  0  0  0  0
 14 17  1  0  0  0  0
 17 18  1  0  0  0  0
 17 19  1  0  0  0  0
 17 20  1  0  0  0  0
M  END
> <VConfSearch Rank>
133

> <Conf_Id>
54

> <Delta U+W>
1.880

> <U+W>
17.218

> <U>
72.122

> <W>
-54.903

> <W(PB)>
-56.724

> <W(SA)>
1.821

> <Valence>
3.197

> <Coulomb>
69.115

> <VdW>
-0.190

> <VdW6>
-5.585

> <VdW12>
5.395

> <Bond>
0.177

> <Angle>
1.207

> <Pdih>
1.813

> <Idih>
0.000

> <Tether>
0.000

$$$$
VeraChem MOL file


 20 19  0  0  0  0  0  0  0  0999 V2000     
   19.3086   15.6967   22.1038 C   0  0  0  0  0  0  0  0  0  0  0  0
   20.2025   15.3618   22.6461 H   0  0  0  0  0  0  0  0  0  0  0  0
   18.4600   15.0920   22.4491 H   0  0  0  0  0  0  0  0  0  0  0  0
   19.4582   15.4873   21.0366 H   0  0  0  0  0  0  0  0  0  0  0  0
   19.0421   17.1985   22.3442 C   0  0  0  0  0  0  0  0  0  0  0  0
   18.8621   17.3706   23.4148 H   0  0  0  0  0  0  0  0  0  0  0  0
   18.1238   17.4951   21.8179 H   0  0  0  0  0  0  0  0  0  0  0  0
   20.2213   18.0748   21.8673 C   0  0  0  0  0  0  0  0  0  0  0  0
   21.1377   17.7801   22.3960 H   0  0  0  0  0  0  0  0  0  0  0  0
   20.3984   17.9047   20.7969 H   0  0  0  0  0  0  0  0  0  0  0  0
   19.9479   19.5707   22.1102 C   0  0  0  0  0  0  0  0  0  0  0  0
   19.7866   19.7460   23.1769 H   0  0  0  0  0  0  0  0  0  0  0  0
   19.0451   19.8710   21.5725 H   0  0  0  0  0  0  0  0  0  0  0  0
   21.0804   20.4711   21.6569 N   0  3  0  0  0  0  0  0  0  0  0  0
   21.2691   20.3288   20.6528 H   0  0  0  0  0  0  0  0  0  0  0  0
   21.9556   20.2131   22.1382 H   0  0  0  0  0  0  0  0  0  0  0  0
   20.7290   21.9270   21.9328 C   0  0  0  0  0  0  0  0  0  0  0  0
   20.5675   22.0614   23.0045 H   0  0  0  0  0  0  0  0  0  0  0  0
   21.5524   22.5637   21.6019 H   0  0  0  0  0  0  0  0  0  0  0  0
   19.8199   22.1875   21.3865 H   0  0  0  0  0  0  0  0  0  0  0  0
  1  2  1  0  0  0  0
  1  3  1  0  0  0  0
  1  4  1  0  0  0  0
  1  5  1  0  0  0  0
  5  6  1  0  0  0  0
  5  7  1  0  0  0  0
  5  8  1  0  0  0  0
  8  9  1  0  0  0  0
  8 10  1  0  0  0  0
  8 11  1  0  0  0  0
 11 12  1  0  0  0  0
 11 13  1  0  0  0  0
 11 14  1  0  0  0  0
 14 15  1  0  0  0  0
 14 16  1  0  0  0  0
 14 17  1  0  0  0  0
 17 18  1  0  0  0  0
 17 19  1  0  0  0  0
 17 20  1  0  0  0  0
M  END
> <VConfSearch Rank>
134

> <Conf_Id>
67

> <Delta U+W>
0.000

> <U+W>
15.338

> <U>
69.277

> <W>
-53.939

> <W(PB)>
-55.889

> <W(SA)>
1.950

> <Valence>
0.846

> <Coulomb>
68.557

> <VdW>
-0.127

> <VdW6>
-3.008

> <VdW12>
2.882

> <Bond>
0.088

> <Angle>
0.332

> <Pdih>
0.426

> <Idih>
0.000

> <Tether>
0.000

$$$$
VeraChem MOL file


 20 19  0  0  0  0  0  0  0  0999 V2000     
   18.0785   20.4929   20.4367 C   0  0  0  0  0  0  0  0  0  0  0  0
   17.6872   20.9158   21.3712 H   0  0  0  0  0  0  0  0  0  0  0  0
   18.0066   21.2668   19.6616 H   0  0  0  0  0  0  0  0  0  0  0  0
   17.4285   19.6593   20.1406 H   0  0  0  0  0  0  0  0  0  0  0  0
   19.5402   20.0253   20.6068 C   0  0  0  0  0  0  0  0  0  0  0  0
   20.1710   20.8865   20.8690 H   0  0  0  0  0  0  0  0  0  0  0  0
   19.9143   19.6403   19.6476 H   0  0  0  0  0  0  0  0  0  0  0  0
   19.6720   18.9345   21.6925 C   0  0  0  0  0  0  0  0  0  0  0  0
   19.2973   19.3233   22.6481 H   0  0  0  0  0  0  0  0  0  0  0  0
   19.0451   18.0729   21.4277 H   0  0  0  0  0  0  0  0  0  0  0  0
   21.1351   18.4730   21.8539 C   0  0  0  0  0  0  0  0  0  0  0  0
   21.7579   19.3155   22.1649 H   0  0  0  0  0  0  0  0  0  0  0  0
   21.5038   18.1187   20.8879 H   0  0  0  0  0  0  0  0  0  0  0  0
   21.3369   17.3468   22.8548 N   0  3  0  0  0  0  0  0  0  0  0  0
   22.3025   16.9896   22.7824 H   0  0  0  0  0  0  0  0  0  0  0  0
   20.7390   16.5420   22.6126 H   0  0  0  0  0  0  0  0  0  0  0  0
   21.0646   17.8159   24.2801 C   0  0  0  0  0  0  0  0  0  0  0  0
   20.0225   18.1299   24.3658 H   0  0  0  0  0  0  0  0  0  0  0  0
   21.2564   16.9916   24.9706 H   0  0  0  0  0  0  0  0  0  0  0  0
   21.7245   18.6536   24.5151 H   0  0  0  0  0  0  0  0  0  0  0  0
  1  2  1  0  0  0  0
  1  3  1  0  0  0  0
  1  4  1  0  0  0  0
  1  5  1  0  0  0  0
  5  6  1  0  0  0  0
  5  7  1  0  0  0  0
  5  8  1  0  0  0  0
  8  9  1  0  0  0  0
  8 10  1  0  0  0  0
  8 11  1  0  0  0  0
 11 12  1  0  0  0  0
 11 13  1  0  0  0  0
 11 14  1  0  0  0  0
 14 15  1  0  0  0  0
 14 16  1  0  0  0  0
 14 17  1  0  0  0  0
 17 18  1  0  0  0  0
 17 19  1  0  0  0  0
 17 20  1  0  0  0  0
M  END
> <VConfSearch Rank>
135

> <Conf_Id>
37

> <Delta U+W>
-0.021

> <U+W>
15.318

> <U>
69.657

> <W>
-54.340

> <W(PB)>
-56.238

> <W(SA)>
1.899

> <Valence>
1.137

> <Coulomb>
68.383

> <VdW>
0.138

> <VdW6>
-3.703

> <VdW12>
3.841

> <Bond>
0.125

> <Angle>
0.468

> <Pdih>
0.543

> <Idih>
0.000

> <Tether>
0.000

$$$$
VeraChem MOL file


 20 19  0  0  0  0  0  0  0  0999 V2000     
   19.3084   15.8649   21.7804 C   0  0  0  0  0  0  0  0  0  0  0  0
   18.5052   15.1851   21.4677 H   0  0  0  0  0  0  0  0  0  0  0  0
   20.1623   15.7075   21.1086 H   0  0  0  0  0  0  0  0  0  0  0  0
   19.6148   15.5789   22.7950 H   0  0  0  0  0  0  0  0  0  0  0  0
   18.8293   17.3321   21.7368 C   0  0  0  0  0  0  0  0  0  0  0  0
   17.9537   17.4498   22.3909 H   0  0  0  0  0  0  0  0  0  0  0  0
   18.4976   17.5779   20.7180 H   0  0  0  0  0  0  0  0  0  0  0  0
   19.9403   18.3126   22.1727 C   0  0  0  0  0  0  0  0  0  0  0  0
   20.2681   18.0692   23.1920 H   0  0  0  0  0  0  0  0  0  0  0  0
   20.8121   18.1915   21.5170 H   0  0  0  0  0  0  0  0  0  0  0  0
   19.4517   19.7752   22.1274 C   0  0  0  0  0  0  0  0  0  0  0  0
   18.5654   19.8727   22.7595 H   0  0  0  0  0  0  0  0  0  0  0  0
   19.1690   20.0406   21.1056 H   0  0  0  0  0  0  0  0  0  0  0  0
   20.4671   20.7971   22.6128 N   0  3  0  0  0  0  0  0  0  0  0  0
   20.7837   20.5615   23.5657 H   0  0  0  0  0  0  0  0  0  0  0  0
   20.0116   21.7186   22.7062 H   0  0  0  0  0  0  0  0  0  0  0  0
   21.6511   20.8999   21.6572 C   0  0  0  0  0  0  0  0  0  0  0  0
   21.2883   21.1697   20.6630 H   0  0  0  0  0  0  0  0  0  0  0  0
   22.3372   21.6686   22.0194 H   0  0  0  0  0  0  0  0  0  0  0  0
   22.1676   19.9390   21.6148 H   0  0  0  0  0  0  0  0  0  0  0  0
  1  2  1  0  0  0  0
  1  3  1  0  0  0  0
  1  4  1  0  0  0  0
  1  5  1  0  0  0  0
  5  6  1  0  0  0  0
  5  7  1  0  0  0  0
  5  8  1  0  0  0  0
  8  9  1  0  0  0  0
  8 10  1  0  0  0  0
  8 11  1  0  0  0  0
 11 12  1  0  0  0  0
 11 13  1  0  0  0  0
 11 14  1  0  0  0  0
 14 15  1  0  0  0  0
 14 16  1  0  0  0  0
 14 17  1  0  0  0  0
 17 18  1  0  0  0  0
 17 19  1  0  0  0  0
 17 20  1  0  0  0  0
M  END
> <VConfSearch Rank>
136

> <Conf_Id>
2

> <Delta U+W>
0.069

> <U+W>
15.407

> <U>
69.657

> <W>
-54.250

> <W(PB)>
-56.176

> <W(SA)>
1.926

> <Valence>
1.137

> <Coulomb>
68.383

> <VdW>
0.138

> <VdW6>
-3.703

> <VdW12>
3.841

> <Bond>
0.125

> <Angle>
0.468

> <Pdih>
0.543

> <Idih>
0.000

> <Tether>
0.000

$$$$
VeraChem MOL file


 20 19  0  0  0  0  0  0  0  0999 V2000     
   22.1091   20.4023   22.1562 C   0  0  0  0  0  0  0  0  0  0  0  0
   21.8480   20.0099   23.1471 H   0  0  0  0  0  0  0  0  0  0  0  0
   22.8309   19.7159   21.6947 H   0  0  0  0  0  0  0  0  0  0  0  0
   22.6122   21.3666   22.3046 H   0  0  0  0  0  0  0  0  0  0  0  0
   20.8575   20.5754   21.2652 C   0  0  0  0  0  0  0  0  0  0  0  0
   21.1528   21.0558   20.3218 H   0  0  0  0  0  0  0  0  0  0  0  0
   20.1497   21.2611   21.7523 H   0  0  0  0  0  0  0  0  0  0  0  0
   20.1514   19.2365   20.9477 C   0  0  0  0  0  0  0  0  0  0  0  0
   19.3228   19.4257   20.2523 H   0  0  0  0  0  0  0  0  0  0  0  0
   20.8499   18.5658   20.4299 H   0  0  0  0  0  0  0  0  0  0  0  0
   19.6038   18.5402   22.2088 C   0  0  0  0  0  0  0  0  0  0  0  0
   18.9068   19.2070   22.7227 H   0  0  0  0  0  0  0  0  0  0  0  0
   20.4268   18.3120   22.8903 H   0  0  0  0  0  0  0  0  0  0  0  0
   18.8756   17.2440   21.9125 N   0  3  0  0  0  0  0  0  0  0  0  0
   19.5002   16.5893   21.4172 H   0  0  0  0  0  0  0  0  0  0  0  0
   18.0911   17.4155   21.2649 H   0  0  0  0  0  0  0  0  0  0  0  0
   18.3716   16.6233   23.2086 C   0  0  0  0  0  0  0  0  0  0  0  0
   17.6864   17.3187   23.6981 H   0  0  0  0  0  0  0  0  0  0  0  0
   17.8495   15.6913   22.9808 H   0  0  0  0  0  0  0  0  0  0  0  0
   19.2210   16.4186   23.8638 H   0  0  0  0  0  0  0  0  0  0  0  0
  1  2  1  0  0  0  0
  1  3  1  0  0  0  0
  1  4  1  0  0  0  0
  1  5  1  0  0  0  0
  5  6  1  0  0  0  0
  5  7  1  0  0  0  0
  5  8  1  0  0  0  0
  8  9  1  0  0  0  0
  8 10  1  0  0  0  0
  8 11  1  0  0  0  0
 11 12  1  0  0  0  0
 11 13  1  0  0  0  0
 11 14  1  0  0  0  0
 14 15  1  0  0  0  0
 14 16  1  0  0  0  0
 14 17  1  0  0  0  0
 17 18  1  0  0  0  0
 17 19  1  0  0  0  0
 17 20  1  0  0  0  0
M  END
> <VConfSearch Rank>
137

> <Conf_Id>
34

> <Delta U+W>
0.276

> <U+W>
15.615

> <U>
69.798

> <W>
-54.184

> <W(PB)>
-56.116

> <W(SA)>
1.933

> <Valence>
1.134

> <Coulomb>
68.735

> <VdW>
-0.070

> <VdW6>
-3.565

> <VdW12>
3.494

> <Bond>
0.108

> <Angle>
0.456

> <Pdih>
0.569

> <Idih>
0.000

> <Tether>
0.000

$$$$
VeraChem MOL file


 20 19  0  0  0  0  0  0  0  0999 V2000     
   20.4327   15.9066   22.8387 C   0  0  0  0  0  0  0  0  0  0  0  0
   19.4828   15.3677   22.7271 H   0  0  0  0  0  0  0  0  0  0  0  0
   21.2349   15.2521   22.4740 H   0  0  0  0  0  0  0  0  0  0  0  0
   20.6022   16.0817   23.9091 H   0  0  0  0  0  0  0  0  0  0  0  0
   20.4139   17.2362   22.0539 C   0  0  0  0  0  0  0  0  0  0  0  0
   20.2746   17.0255   20.9840 H   0  0  0  0  0  0  0  0  0  0  0  0
   21.3915   17.7265   22.1557 H   0  0  0  0  0  0  0  0  0  0  0  0
   19.2911   18.1778   22.5497 C   0  0  0  0  0  0  0  0  0  0  0  0
   18.3255   17.6597   22.4782 H   0  0  0  0  0  0  0  0  0  0  0  0
   19.4398   18.4153   23.6114 H   0  0  0  0  0  0  0  0  0  0  0  0
   19.2037   19.4848   21.7362 C   0  0  0  0  0  0  0  0  0  0  0  0
   18.3402   20.0634   22.0741 H   0  0  0  0  0  0  0  0  0  0  0  0
   19.0628   19.2502   20.6781 H   0  0  0  0  0  0  0  0  0  0  0  0
   20.4267   20.3740   21.8606 N   0  3  0  0  0  0  0  0  0  0  0  0
   21.2682   19.8666   21.5494 H   0  0  0  0  0  0  0  0  0  0  0  0
   20.5970   20.6078   22.8507 H   0  0  0  0  0  0  0  0  0  0  0  0
   20.2338   21.6409   21.0380 C   0  0  0  0  0  0  0  0  0  0  0  0
   20.0885   21.3708   19.9898 H   0  0  0  0  0  0  0  0  0  0  0  0
   19.3574   22.1788   21.4059 H   0  0  0  0  0  0  0  0  0  0  0  0
   21.1205   22.2711   21.1363 H   0  0  0  0  0  0  0  0  0  0  0  0
  1  2  1  0  0  0  0
  1  3  1  0  0  0  0
  1  4  1  0  0  0  0
  1  5  1  0  0  0  0
  5  6  1  0  0  0  0
  5  7  1  0  0  0  0
  5  8  1  0  0  0  0
  8  9  1  0  0  0  0
  8 10  1  0  0  0  0
  8 11  1  0  0  0  0
 11 12  1  0  0  0  0
 11 13  1  0  0  0  0
 11 14  1  0  0  0  0
 14 15  1  0  0  0  0
 14 16  1  0  0  0  0
 14 17  1  0  0  0  0
 17 18  1  0  0  0  0
 17 19  1  0  0  0  0
 17 20  1  0  0  0  0
M  END
> <VConfSearch Rank>
138

> <Conf_Id>
50

> <Delta U+W>
0.319

> <U+W>
15.657

> <U>
69.962

> <W>
-54.305

> <W(PB)>
-56.223

> <W(SA)>
1.918

> <Valence>
0.982

> <Coulomb>
69.058

> <VdW>
-0.078

> <VdW6>
-3.548

> <VdW12>
3.471

> <Bond>
0.105

> <Angle>
0.408

> <Pdih>
0.469

> <Idih>
0.000

> <Tether>
0.000

$$$$
VeraChem MOL file


 20 19  0  0  0  0  0  0  0  0999 V2000     
   20.8643   21.4373   23.3616 C   0  0  0  0  0  0  0  0  0  0  0  0
   21.6958   22.0821   23.0490 H   0  0  0  0  0  0  0  0  0  0  0  0
   19.9729   22.0686   23.4716 H   0  0  0  0  0  0  0  0  0  0  0  0
   21.1127   21.0225   24.3472 H   0  0  0  0  0  0  0  0  0  0  0  0
   20.6269   20.3139   22.3292 C   0  0  0  0  0  0  0  0  0  0  0  0
   21.5502   19.7297   22.2165 H   0  0  0  0  0  0  0  0  0  0  0  0
   20.4123   20.7605   21.3480 H   0  0  0  0  0  0  0  0  0  0  0  0
   19.4589   19.3897   22.7474 C   0  0  0  0  0  0  0  0  0  0  0  0
   19.6792   18.9179   23.7142 H   0  0  0  0  0  0  0  0  0  0  0  0
   18.5534   19.9934   22.8940 H   0  0  0  0  0  0  0  0  0  0  0  0
   19.1534   18.3005   21.6996 C   0  0  0  0  0  0  0  0  0  0  0  0
   18.9408   18.7680   20.7349 H   0  0  0  0  0  0  0  0  0  0  0  0
   18.2671   17.7405   22.0087 H   0  0  0  0  0  0  0  0  0  0  0  0
   20.2779   17.3020   21.4990 N   0  3  0  0  0  0  0  0  0  0  0  0
   20.5133   16.8470   22.3944 H   0  0  0  0  0  0  0  0  0  0  0  0
   21.1372   17.7888   21.2040 H   0  0  0  0  0  0  0  0  0  0  0  0
   19.8716   16.2630   20.4626 C   0  0  0  0  0  0  0  0  0  0  0  0
   20.6893   15.5514   20.3280 H   0  0  0  0  0  0  0  0  0  0  0  0
   18.9798   15.7372   20.8106 H   0  0  0  0  0  0  0  0  0  0  0  0
   19.6594   16.7634   19.5153 H   0  0  0  0  0  0  0  0  0  0  0  0
  1  2  1  0  0  0  0
  1  3  1  0  0  0  0
  1  4  1  0  0  0  0
  1  5  1  0  0  0  0
  5  6  1  0  0  0  0
  5  7  1  0  0  0  0
  5  8  1  0  0  0  0
  8  9  1  0  0  0  0
  8 10  1  0  0  0  0
  8 11  1  0  0  0  0
 11 12  1  0  0  0  0
 11 13  1  0  0  0  0
 11 14  1  0  0  0  0
 14 15  1  0  0  0  0
 14 16  1  0  0  0  0
 14 17  1  0  0  0  0
 17 18  1  0  0  0  0
 17 19  1  0  0  0  0
 17 20  1  0  0  0  0
M  END
> <VConfSearch Rank>
139

> <Conf_Id>
35

> <Delta U+W>
0.360

> <U+W>
15.698

> <U>
69.962

> <W>
-54.264

> <W(PB)>
-56.166

> <W(SA)>
1.902

> <Valence>
0.982

> <Coulomb>
69.058

> <VdW>
-0.078

> <VdW6>
-3.548

> <VdW12>
3.471

> <Bond>
0.105

> <Angle>
0.408

> <Pdih>
0.469

> <Idih>
0.000

> <Tether>
0.000

$$$$
VeraChem MOL file


 20 19  0  0  0  0  0  0  0  0999 V2000     
   21.1468   20.9743   21.3398 C   0  0  0  0  0  0  0  0  0  0  0  0
   20.9547   20.4760   20.3812 H   0  0  0  0  0  0  0  0  0  0  0  0
   21.2840   22.0439   21.1349 H   0  0  0  0  0  0  0  0  0  0  0  0
   22.0911   20.5872   21.7441 H   0  0  0  0  0  0  0  0  0  0  0  0
   19.9845   20.7577   22.3360 C   0  0  0  0  0  0  0  0  0  0  0  0
   19.0517   21.1486   21.9056 H   0  0  0  0  0  0  0  0  0  0  0  0
   20.1761   21.3466   23.2440 H   0  0  0  0  0  0  0  0  0  0  0  0
   19.7956   19.2741   22.7297 C   0  0  0  0  0  0  0  0  0  0  0  0
   20.7177   18.9002   23.1929 H   0  0  0  0  0  0  0  0  0  0  0  0
   19.0094   19.2041   23.4929 H   0  0  0  0  0  0  0  0  0  0  0  0
   19.4121   18.3860   21.5265 C   0  0  0  0  0  0  0  0  0  0  0  0
   20.2168   18.3930   20.7875 H   0  0  0  0  0  0  0  0  0  0  0  0
   18.5155   18.7961   21.0548 H   0  0  0  0  0  0  0  0  0  0  0  0
   19.1159   16.9373   21.8788 N   0  3  0  0  0  0  0  0  0  0  0  0
   18.7127   16.4579   21.0587 H   0  0  0  0  0  0  0  0  0  0  0  0
   18.3812   16.8881   22.6010 H   0  0  0  0  0  0  0  0  0  0  0  0
   20.3759   16.2099   22.3357 C   0  0  0  0  0  0  0  0  0  0  0  0
   20.7594   16.6830   23.2418 H   0  0  0  0  0  0  0  0  0  0  0  0
   20.1307   15.1660   22.5435 H   0  0  0  0  0  0  0  0  0  0  0  0
   21.1272   16.2608   21.5447 H   0  0  0  0  0  0  0  0  0  0  0  0
  1  2  1  0  0  0  0
  1  3  1  0  0  0  0
  1  4  1  0  0  0  0
  1  5  1  0  0  0  0
  5  6  1  0  0  0  0
  5  7  1  0  0  0  0
  5  8  1  0  0  0  0
  8  9  1  0  0  0  0
  8 10  1  0  0  0  0
  8 11  1  0  0  0  0
 11 12  1  0  0  0  0
 11 13  1  0  0  0  0
 11 14  1  0  0  0  0
 14 15  1  0  0  0  0
 14 16  1  0  0  0  0
 14 17  1  0  0  0  0
 17 18  1  0  0  0  0
 17 19  1  0  0  0  0
 17 20  1  0  0  0  0
M  END
> <VConfSearch Rank>
140

> <Conf_Id>
33

> <Delta U+W>
0.372

> <U+W>
15.711

> <U>
70.163

> <W>
-54.452

> <W(PB)>
-56.363

> <W(SA)>
1.911

> <Valence>
1.420

> <Coulomb>
68.566

> <VdW>
0.177

> <VdW6>
-4.267

> <VdW12>
4.445

> <Bond>
0.146

> <Angle>
0.581

> <Pdih>
0.693

> <Idih>
0.000

> <Tether>
0.000

$$$$
VeraChem MOL file


 20 19  0  0  0  0  0  0  0  0999 V2000     
   21.8547   16.9365   22.2856 C   0  0  0  0  0  0  0  0  0  0  0  0
   22.7961   16.4149   22.5017 H   0  0  0  0  0  0  0  0  0  0  0  0
   21.2140   16.8428   23.1715 H   0  0  0  0  0  0  0  0  0  0  0  0
   21.3663   16.4142   21.4527 H   0  0  0  0  0  0  0  0  0  0  0  0
   22.1240   18.4174   21.9327 C   0  0  0  0  0  0  0  0  0  0  0  0
   22.8399   18.4632   21.1000 H   0  0  0  0  0  0  0  0  0  0  0  0
   22.6078   18.9177   22.7835 H   0  0  0  0  0  0  0  0  0  0  0  0
   20.8419   19.1861   21.5361 C   0  0  0  0  0  0  0  0  0  0  0  0
   21.1163   20.2029   21.2258 H   0  0  0  0  0  0  0  0  0  0  0  0
   20.3838   18.7038   20.6630 H   0  0  0  0  0  0  0  0  0  0  0  0
   19.8196   19.2685   22.6900 C   0  0  0  0  0  0  0  0  0  0  0  0
   20.3046   19.7148   23.5619 H   0  0  0  0  0  0  0  0  0  0  0  0
   19.4868   18.2647   22.9645 H   0  0  0  0  0  0  0  0  0  0  0  0
   18.5853   20.1008   22.3830 N   0  3  0  0  0  0  0  0  0  0  0  0
   18.8589   21.0500   22.0866 H   0  0  0  0  0  0  0  0  0  0  0  0
   18.0396   20.2412   23.2477 H   0  0  0  0  0  0  0  0  0  0  0  0
   17.7151   19.4312   21.3249 C   0  0  0  0  0  0  0  0  0  0  0  0
   16.8226   20.0386   21.1591 H   0  0  0  0  0  0  0  0  0  0  0  0
   18.2779   19.3459   20.3933 H   0  0  0  0  0  0  0  0  0  0  0  0
   17.4244   18.4382   21.6743 H   0  0  0  0  0  0  0  0  0  0  0  0
  1  2  1  0  0  0  0
  1  3  1  0  0  0  0
  1  4  1  0  0  0  0
  1  5  1  0  0  0  0
  5  6  1  0  0  0  0
  5  7  1  0  0  0  0
  5  8  1  0  0  0  0
  8  9  1  0  0  0  0
  8 10  1  0  0  0  0
  8 11  1  0  0  0  0
 11 12  1  0  0  0  0
 11 13  1  0  0  0  0
 11 14  1  0  0  0  0
 14 15  1  0  0  0  0
 14 16  1  0  0  0  0
 14 17  1  0  0  0  0
 17 18  1  0  0  0  0
 17 19  1  0  0  0  0
 17 20  1  0  0  0  0
M  END
> <VConfSearch Rank>
141

> <Conf_Id>
53

> <Delta U+W>
0.379

> <U+W>
15.717

> <U>
70.163

> <W>
-54.446

> <W(PB)>
-56.322

> <W(SA)>
1.876

> <Valence>
1.420

> <Coulomb>
68.566

> <VdW>
0.177

> <VdW6>
-4.267

> <VdW12>
4.445

> <Bond>
0.146

> <Angle>
0.581

> <Pdih>
0.693

> <Idih>
0.000

> <Tether>
0.000

$$$$
VeraChem MOL file


 20 19  0  0  0  0  0  0  0  0999 V2000     
   20.3299   16.8738   23.9554 C   0  0  0  0  0  0  0  0  0  0  0  0
   20.8219   15.8953   23.8805 H   0  0  0  0  0  0  0  0  0  0  0  0
   20.5816   17.3022   24.9343 H   0  0  0  0  0  0  0  0  0  0  0  0
   19.2452   16.7079   23.9239 H   0  0  0  0  0  0  0  0  0  0  0  0
   20.7838   17.8021   22.8081 C   0  0  0  0  0  0  0  0  0  0  0  0
   20.5510   17.3241   21.8469 H   0  0  0  0  0  0  0  0  0  0  0  0
   21.8756   17.9229   22.8473 H   0  0  0  0  0  0  0  0  0  0  0  0
   20.1025   19.1884   22.8897 C   0  0  0  0  0  0  0  0  0  0  0  0
   19.0127   19.0758   22.8237 H   0  0  0  0  0  0  0  0  0  0  0  0
   20.3066   19.6357   23.8715 H   0  0  0  0  0  0  0  0  0  0  0  0
   20.5962   20.1654   21.7995 C   0  0  0  0  0  0  0  0  0  0  0  0
   21.6732   20.3111   21.9153 H   0  0  0  0  0  0  0  0  0  0  0  0
   20.1111   21.1356   21.9331 H   0  0  0  0  0  0  0  0  0  0  0  0
   20.3491   19.7213   20.3655 N   0  3  0  0  0  0  0  0  0  0  0  0
   20.7888   18.8047   20.1961 H   0  0  0  0  0  0  0  0  0  0  0  0
   20.8254   20.3680   19.7173 H   0  0  0  0  0  0  0  0  0  0  0  0
   18.8584   19.6742   20.0486 C   0  0  0  0  0  0  0  0  0  0  0  0
   18.4236   20.6615   20.2179 H   0  0  0  0  0  0  0  0  0  0  0  0
   18.7236   19.3871   19.0034 H   0  0  0  0  0  0  0  0  0  0  0  0
   18.3739   18.9401   20.6954 H   0  0  0  0  0  0  0  0  0  0  0  0
  1  2  1  0  0  0  0
  1  3  1  0  0  0  0
  1  4  1  0  0  0  0
  1  5  1  0  0  0  0
  5  6  1  0  0  0  0
  5  7  1  0  0  0  0
  5  8  1  0  0  0  0
  8  9  1  0  0  0  0
  8 10  1  0  0  0  0
  8 11  1  0  0  0  0
 11 12  1  0  0  0  0
 11 13  1  0  0  0  0
 11 14  1  0  0  0  0
 14 15  1  0  0  0  0
 14 16  1  0  0  0  0
 14 17  1  0  0  0  0
 17 18  1  0  0  0  0
 17 19  1  0  0  0  0
 17 20  1  0  0  0  0
M  END
> <VConfSearch Rank>
142

> <Conf_Id>
49

> <Delta U+W>
0.268

> <U+W>
15.607

> <U>
70.298

> <W>
-54.692

> <W(PB)>
-56.576

> <W(SA)>
1.885

> <Valence>
1.245

> <Coulomb>
68.933

> <VdW>
0.120

> <VdW6>
-4.430

> <VdW12>
4.550

> <Bond>
0.148

> <Angle>
0.587

> <Pdih>
0.509

> <Idih>
0.000

> <Tether>
0.000

$$$$
VeraChem MOL file


 20 19  0  0  0  0  0  0  0  0999 V2000     
   19.4998   18.5077   19.2626 C   0  0  0  0  0  0  0  0  0  0  0  0
   20.2935   17.8228   18.9366 H   0  0  0  0  0  0  0  0  0  0  0  0
   18.5340   18.0092   19.1086 H   0  0  0  0  0  0  0  0  0  0  0  0
   19.5293   19.3908   18.6113 H   0  0  0  0  0  0  0  0  0  0  0  0
   19.6880   18.9134   20.7406 C   0  0  0  0  0  0  0  0  0  0  0  0
   18.8966   19.6193   21.0292 H   0  0  0  0  0  0  0  0  0  0  0  0
   20.6448   19.4421   20.8435 H   0  0  0  0  0  0  0  0  0  0  0  0
   19.6614   17.6848   21.6795 C   0  0  0  0  0  0  0  0  0  0  0  0
   18.7518   17.1023   21.4817 H   0  0  0  0  0  0  0  0  0  0  0  0
   20.5067   17.0230   21.4492 H   0  0  0  0  0  0  0  0  0  0  0  0
   19.6815   18.0385   23.1840 C   0  0  0  0  0  0  0  0  0  0  0  0
   19.5943   17.1075   23.7499 H   0  0  0  0  0  0  0  0  0  0  0  0
   18.8215   18.6626   23.4392 H   0  0  0  0  0  0  0  0  0  0  0  0
   20.9398   18.7349   23.6791 N   0  3  0  0  0  0  0  0  0  0  0  0
   21.7625   18.4112   23.1489 H   0  0  0  0  0  0  0  0  0  0  0  0
   21.1252   18.4501   24.6535 H   0  0  0  0  0  0  0  0  0  0  0  0
   20.7976   20.2524   23.6188 C   0  0  0  0  0  0  0  0  0  0  0  0
   21.7108   20.7120   24.0034 H   0  0  0  0  0  0  0  0  0  0  0  0
   20.6362   20.5678   22.5874 H   0  0  0  0  0  0  0  0  0  0  0  0
   19.9478   20.5568   24.2334 H   0  0  0  0  0  0  0  0  0  0  0  0
  1  2  1  0  0  0  0
  1  3  1  0  0  0  0
  1  4  1  0  0  0  0
  1  5  1  0  0  0  0
  5  6  1  0  0  0  0
  5  7  1  0  0  0  0
  5  8  1  0  0  0  0
  8  9  1  0  0  0  0
  8 10  1  0  0  0  0
  8 11  1  0  0  0  0
 11 12  1  0  0  0  0
 11 13  1  0  0  0  0
 11 14  1  0  0  0  0
 14 15  1  0  0  0  0
 14 16  1  0  0  0  0
 14 17  1  0  0  0  0
 17 18  1  0  0  0  0
 17 19  1  0  0  0  0
 17 20  1  0  0  0  0
M  END
> <VConfSearch Rank>
143

> <Conf_Id>
65

> <Delta U+W>
1.775

> <U+W>
17.114

> <U>
71.726

> <W>
-54.613

> <W(PB)>
-56.495

> <W(SA)>
1.883

> <Valence>
2.885

> <Coulomb>
68.822

> <VdW>
0.019

> <VdW6>
-4.600

> <VdW12>
4.619

> <Bond>
0.152

> <Angle>
0.862

> <Pdih>
1.871

> <Idih>
0.000

> <Tether>
0.000

$$$$
VeraChem MOL file


 20 19  0  0  0  0  0  0  0  0999 V2000     
   20.5907   19.5952   24.1916 C   0  0  0  0  0  0  0  0  0  0  0  0
   19.7445   18.9014   24.1112 H   0  0  0  0  0  0  0  0  0  0  0  0
   21.1445   19.3370   25.1036 H   0  0  0  0  0  0  0  0  0  0  0  0
   20.1911   20.6096   24.3190 H   0  0  0  0  0  0  0  0  0  0  0  0
   21.5147   19.5130   22.9547 C   0  0  0  0  0  0  0  0  0  0  0  0
   21.9017   18.4904   22.8495 H   0  0  0  0  0  0  0  0  0  0  0  0
   22.3926   20.1528   23.1218 H   0  0  0  0  0  0  0  0  0  0  0  0
   20.8167   19.9569   21.6448 C   0  0  0  0  0  0  0  0  0  0  0  0
   20.5282   21.0129   21.7296 H   0  0  0  0  0  0  0  0  0  0  0  0
   21.5320   19.9016   20.8135 H   0  0  0  0  0  0  0  0  0  0  0  0
   19.5625   19.1306   21.2907 C   0  0  0  0  0  0  0  0  0  0  0  0
   19.1148   19.5260   20.3754 H   0  0  0  0  0  0  0  0  0  0  0  0
   18.8259   19.2178   22.0929 H   0  0  0  0  0  0  0  0  0  0  0  0
   19.8389   17.6560   21.0676 N   0  3  0  0  0  0  0  0  0  0  0  0
   20.2701   17.2469   21.9097 H   0  0  0  0  0  0  0  0  0  0  0  0
   20.5337   17.5344   20.3151 H   0  0  0  0  0  0  0  0  0  0  0  0
   18.5451   16.9305   20.7238 C   0  0  0  0  0  0  0  0  0  0  0  0
   18.1233   17.3595   19.8124 H   0  0  0  0  0  0  0  0  0  0  0  0
   18.7585   15.8708   20.5673 H   0  0  0  0  0  0  0  0  0  0  0  0
   17.8379   17.0457   21.5481 H   0  0  0  0  0  0  0  0  0  0  0  0
  1  2  1  0  0  0  0
  1  3  1  0  0  0  0
  1  4  1  0  0  0  0
  1  5  1  0  0  0  0
  5  6  1  0  0  0  0
  5  7  1  0  0  0  0
  5  8  1  0  0  0  0
  8  9  1  0  0  0  0
  8 10  1  0  0  0  0
  8 11  1  0  0  0  0
 11 12  1  0  0  0  0
 11 13  1  0  0  0  0
 11 14  1  0  0  0  0
 14 15  1  0  0  0  0
 14 16  1  0  0  0  0
 14 17  1  0  0  0  0
 17 18  1  0  0  0  0
 17 19  1  0  0  0  0
 17 20  1  0  0  0  0
M  END
> <VConfSearch Rank>
144

> <Conf_Id>
23

> <Delta U+W>
0.896

> <U+W>
16.234

> <U>
70.374

> <W>
-54.140

> <W(PB)>
-56.046

> <W(SA)>
1.907

> <Valence>
1.257

> <Coulomb>
69.240

> <VdW>
-0.123

> <VdW6>
-4.336

> <VdW12>
4.213

> <Bond>
0.128

> <Angle>
0.603

> <Pdih>
0.526

> <Idih>
0.000

> <Tether>
0.000

$$$$
VeraChem MOL file


 20 19  0  0  0  0  0  0  0  0999 V2000     
   22.2859   19.4690   22.7171 C   0  0  0  0  0  0  0  0  0  0  0  0
   22.6384   20.3152   22.1133 H   0  0  0  0  0  0  0  0  0  0  0  0
   23.0455   19.2654   23.4829 H   0  0  0  0  0  0  0  0  0  0  0  0
   22.2263   18.5864   22.0679 H   0  0  0  0  0  0  0  0  0  0  0  0
   20.9233   19.7853   23.3755 C   0  0  0  0  0  0  0  0  0  0  0  0
   21.0537   20.6147   24.0849 H   0  0  0  0  0  0  0  0  0  0  0  0
   20.5931   18.9252   23.9736 H   0  0  0  0  0  0  0  0  0  0  0  0
   19.8290   20.1740   22.3501 C   0  0  0  0  0  0  0  0  0  0  0  0
   18.8985   20.4121   22.8823 H   0  0  0  0  0  0  0  0  0  0  0  0
   20.1296   21.0952   21.8335 H   0  0  0  0  0  0  0  0  0  0  0  0
   19.5448   19.0867   21.2928 C   0  0  0  0  0  0  0  0  0  0  0  0
   20.4555   18.8767   20.7269 H   0  0  0  0  0  0  0  0  0  0  0  0
   18.7879   19.4506   20.5934 H   0  0  0  0  0  0  0  0  0  0  0  0
   19.0430   17.7785   21.8738 N   0  3  0  0  0  0  0  0  0  0  0  0
   18.1815   17.9384   22.4179 H   0  0  0  0  0  0  0  0  0  0  0  0
   19.7290   17.4057   22.5468 H   0  0  0  0  0  0  0  0  0  0  0  0
   18.7918   16.7754   20.7561 C   0  0  0  0  0  0  0  0  0  0  0  0
   19.7240   16.5976   20.2157 H   0  0  0  0  0  0  0  0  0  0  0  0
   18.4325   15.8389   21.1885 H   0  0  0  0  0  0  0  0  0  0  0  0
   18.0401   17.1780   20.0737 H   0  0  0  0  0  0  0  0  0  0  0  0
  1  2  1  0  0  0  0
  1  3  1  0  0  0  0
  1  4  1  0  0  0  0
  1  5  1  0  0  0  0
  5  6  1  0  0  0  0
  5  7  1  0  0  0  0
  5  8  1  0  0  0  0
  8  9  1  0  0  0  0
  8 10  1  0  0  0  0
  8 11  1  0  0  0  0
 11 12  1  0  0  0  0
 11 13  1  0  0  0  0
 11 14  1  0  0  0  0
 14 15  1  0  0  0  0
 14 16  1  0  0  0  0
 14 17  1  0  0  0  0
 17 18  1  0  0  0  0
 17 19  1  0  0  0  0
 17 20  1  0  0  0  0
M  END
> <VConfSearch Rank>
145

> <Conf_Id>
24

> <Delta U+W>
0.792

> <U+W>
16.130

> <U>
70.374

> <W>
-54.243

> <W(PB)>
-56.130

> <W(SA)>
1.887

> <Valence>
1.257

> <Coulomb>
69.240

> <VdW>
-0.123

> <VdW6>
-4.336

> <VdW12>
4.213

> <Bond>
0.128

> <Angle>
0.603

> <Pdih>
0.526

> <Idih>
0.000

> <Tether>
0.000

$$$$
VeraChem MOL file


 20 19  0  0  0  0  0  0  0  0999 V2000     
   18.2464   19.9494   22.6795 C   0  0  0  0  0  0  0  0  0  0  0  0
   17.3942   20.3258   23.2602 H   0  0  0  0  0  0  0  0  0  0  0  0
   19.1301   20.0190   23.3248 H   0  0  0  0  0  0  0  0  0  0  0  0
   18.3813   20.6160   21.8178 H   0  0  0  0  0  0  0  0  0  0  0  0
   17.9853   18.4939   22.2289 C   0  0  0  0  0  0  0  0  0  0  0  0
   16.9869   18.4421   21.7722 H   0  0  0  0  0  0  0  0  0  0  0  0
   17.9497   17.8390   23.1110 H   0  0  0  0  0  0  0  0  0  0  0  0
   19.0167   17.9419   21.2119 C   0  0  0  0  0  0  0  0  0  0  0  0
   18.6927   16.9357   20.9145 H   0  0  0  0  0  0  0  0  0  0  0  0
   19.0084   18.5443   20.2939 H   0  0  0  0  0  0  0  0  0  0  0  0
   20.4560   17.8314   21.7584 C   0  0  0  0  0  0  0  0  0  0  0  0
   21.0150   17.1158   21.1501 H   0  0  0  0  0  0  0  0  0  0  0  0
   20.4334   17.4584   22.7853 H   0  0  0  0  0  0  0  0  0  0  0  0
   21.2349   19.1328   21.7369 N   0  3  0  0  0  0  0  0  0  0  0  0
   20.7211   19.8597   22.2548 H   0  0  0  0  0  0  0  0  0  0  0  0
   21.3094   19.4854   20.7704 H   0  0  0  0  0  0  0  0  0  0  0  0
   22.6183   18.9222   22.3372 C   0  0  0  0  0  0  0  0  0  0  0  0
   22.5145   18.5808   23.3694 H   0  0  0  0  0  0  0  0  0  0  0  0
   23.1538   18.1716   21.7519 H   0  0  0  0  0  0  0  0  0  0  0  0
   23.1668   19.8664   22.3150 H   0  0  0  0  0  0  0  0  0  0  0  0
  1  2  1  0  0  0  0
  1  3  1  0  0  0  0
  1  4  1  0  0  0  0
  1  5  1  0  0  0  0
  5  6  1  0  0  0  0
  5  7  1  0  0  0  0
  5  8  1  0  0  0  0
  8  9  1  0  0  0  0
  8 10  1  0  0  0  0
  8 11  1  0  0  0  0
 11 12  1  0  0  0  0
 11 13  1  0  0  0  0
 11 14  1  0  0  0  0
 14 15  1  0  0  0  0
 14 16  1  0  0  0  0
 14 17  1  0  0  0  0
 17 18  1  0  0  0  0
 17 19  1  0  0  0  0
 17 20  1  0  0  0  0
M  END
> <VConfSearch Rank>
146

> <Conf_Id>
26

> <Delta U+W>
2.888

> <U+W>
18.226

> <U>
72.042

> <W>
-53.816

> <W(PB)>
-55.689

> <W(SA)>
1.873

> <Valence>
2.428

> <Coulomb>
69.829

> <VdW>
-0.215

> <VdW6>
-4.563

> <VdW12>
4.348

> <Bond>
0.137

> <Angle>
0.936

> <Pdih>
1.356

> <Idih>
0.000

> <Tether>
0.000

$$$$
VeraChem MOL file


 20 19  0  0  0  0  0  0  0  0999 V2000     
   20.1467   20.1567   23.8253 C   0  0  0  0  0  0  0  0  0  0  0  0
   20.3083   20.5115   24.8516 H   0  0  0  0  0  0  0  0  0  0  0  0
   19.6239   20.9517   23.2777 H   0  0  0  0  0  0  0  0  0  0  0  0
   19.4926   19.2791   23.8886 H   0  0  0  0  0  0  0  0  0  0  0  0
   21.4985   19.8109   23.1599 C   0  0  0  0  0  0  0  0  0  0  0  0
   21.9497   18.9509   23.6745 H   0  0  0  0  0  0  0  0  0  0  0  0
   22.1893   20.6521   23.3121 H   0  0  0  0  0  0  0  0  0  0  0  0
   21.4101   19.5204   21.6399 C   0  0  0  0  0  0  0  0  0  0  0  0
   21.0305   20.4004   21.1040 H   0  0  0  0  0  0  0  0  0  0  0  0
   22.4302   19.3579   21.2671 H   0  0  0  0  0  0  0  0  0  0  0  0
   20.5713   18.2772   21.2752 C   0  0  0  0  0  0  0  0  0  0  0  0
   20.7778   17.4715   21.9841 H   0  0  0  0  0  0  0  0  0  0  0  0
   20.8577   17.9330   20.2781 H   0  0  0  0  0  0  0  0  0  0  0  0
   19.0742   18.5193   21.2456 N   0  3  0  0  0  0  0  0  0  0  0  0
   18.8464   19.2469   20.5508 H   0  0  0  0  0  0  0  0  0  0  0  0
   18.7604   18.8972   22.1508 H   0  0  0  0  0  0  0  0  0  0  0  0
   18.3429   17.2235   20.9223 C   0  0  0  0  0  0  0  0  0  0  0  0
   18.5731   16.4796   21.6880 H   0  0  0  0  0  0  0  0  0  0  0  0
   17.2674   17.4130   20.9044 H   0  0  0  0  0  0  0  0  0  0  0  0
   18.6689   16.8609   19.9451 H   0  0  0  0  0  0  0  0  0  0  0  0
  1  2  1  0  0  0  0
  1  3  1  0  0  0  0
  1  4  1  0  0  0  0
  1  5  1  0  0  0  0
  5  6  1  0  0  0  0
  5  7  1  0  0  0  0
  5  8  1  0  0  0  0
  8  9  1  0  0  0  0
  8 10  1  0  0  0  0
  8 11  1  0  0  0  0
 11 12  1  0  0  0  0
 11 13  1  0  0  0  0
 11 14  1  0  0  0  0
 14 15  1  0  0  0  0
 14 16  1  0  0  0  0
 14 17  1  0  0  0  0
 17 18  1  0  0  0  0
 17 19  1  0  0  0  0
 17 20  1  0  0  0  0
M  END
> <VConfSearch Rank>
147

> <Conf_Id>
5

> <Delta U+W>
2.950

> <U+W>
18.289

> <U>
72.042

> <W>
-53.753

> <W(PB)>
-55.644

> <W(SA)>
1.891

> <Valence>
2.428

> <Coulomb>
69.829

> <VdW>
-0.215

> <VdW6>
-4.563

> <VdW12>
4.348

> <Bond>
0.137

> <Angle>
0.936

> <Pdih>
1.356

> <Idih>
0.000

> <Tether>
0.000

$$$$
VeraChem MOL file


 20 19  0  0  0  0  0  0  0  0999 V2000     
   20.5291   20.9417   23.1963 C   0  0  0  0  0  0  0  0  0  0  0  0
   19.7535   21.7025   23.0395 H   0  0  0  0  0  0  0  0  0  0  0  0
   20.1581   20.2227   23.9375 H   0  0  0  0  0  0  0  0  0  0  0  0
   21.4049   21.4417   23.6299 H   0  0  0  0  0  0  0  0  0  0  0  0
   20.9039   20.2481   21.8664 C   0  0  0  0  0  0  0  0  0  0  0  0
   21.6829   19.4950   22.0475 H   0  0  0  0  0  0  0  0  0  0  0  0
   21.3516   20.9901   21.1905 H   0  0  0  0  0  0  0  0  0  0  0  0
   19.6900   19.5969   21.1582 C   0  0  0  0  0  0  0  0  0  0  0  0
   18.9625   20.3772   20.8985 H   0  0  0  0  0  0  0  0  0  0  0  0
   20.0156   19.1596   20.2055 H   0  0  0  0  0  0  0  0  0  0  0  0
   18.9736   18.5183   22.0026 C   0  0  0  0  0  0  0  0  0  0  0  0
   18.1348   18.1075   21.4350 H   0  0  0  0  0  0  0  0  0  0  0  0
   18.5698   18.9835   22.9051 H   0  0  0  0  0  0  0  0  0  0  0  0
   19.8479   17.3542   22.4429 N   0  3  0  0  0  0  0  0  0  0  0  0
   19.3275   16.7639   23.1106 H   0  0  0  0  0  0  0  0  0  0  0  0
   20.6604   17.7038   22.9718 H   0  0  0  0  0  0  0  0  0  0  0  0
   20.2970   16.5171   21.2503 C   0  0  0  0  0  0  0  0  0  0  0  0
   20.8986   17.1349   20.5807 H   0  0  0  0  0  0  0  0  0  0  0  0
   20.8941   15.6756   21.6082 H   0  0  0  0  0  0  0  0  0  0  0  0
   19.4173   16.1452   20.7208 H   0  0  0  0  0  0  0  0  0  0  0  0
  1  2  1  0  0  0  0
  1  3  1  0  0  0  0
  1  4  1  0  0  0  0
  1  5  1  0  0  0  0
  5  6  1  0  0  0  0
  5  7  1  0  0  0  0
  5  8  1  0  0  0  0
  8  9  1  0  0  0  0
  8 10  1  0  0  0  0
  8 11  1  0  0  0  0
 11 12  1  0  0  0  0
 11 13  1  0  0  0  0
 11 14  1  0  0  0  0
 14 15  1  0  0  0  0
 14 16  1  0  0  0  0
 14 17  1  0  0  0  0
 17 18  1  0  0  0  0
 17 19  1  0  0  0  0
 17 20  1  0  0  0  0
M  END
> <VConfSearch Rank>
148

> <Conf_Id>
52

> <Delta U+W>
0.784

> <U+W>
16.122

> <U>
70.777

> <W>
-54.655

> <W(PB)>
-56.491

> <W(SA)>
1.836

> <Valence>
1.529

> <Coulomb>
69.166

> <VdW>
0.082

> <VdW6>
-5.166

> <VdW12>
5.248

> <Bond>
0.171

> <Angle>
0.752

> <Pdih>
0.605

> <Idih>
0.000

> <Tether>
0.000

$$$$
VeraChem MOL file


 20 19  0  0  0  0  0  0  0  0999 V2000     
   19.1678   18.6430   20.1340 C   0  0  0  0  0  0  0  0  0  0  0  0
   18.6719   18.3358   19.2040 H   0  0  0  0  0  0  0  0  0  0  0  0
   18.4389   19.2268   20.7077 H   0  0  0  0  0  0  0  0  0  0  0  0
   20.0095   19.2936   19.8629 H   0  0  0  0  0  0  0  0  0  0  0  0
   19.6475   17.4015   20.9200 C   0  0  0  0  0  0  0  0  0  0  0  0
   20.1827   16.7361   20.2280 H   0  0  0  0  0  0  0  0  0  0  0  0
   18.7769   16.8326   21.2753 H   0  0  0  0  0  0  0  0  0  0  0  0
   20.5864   17.7198   22.1116 C   0  0  0  0  0  0  0  0  0  0  0  0
   20.9339   16.7659   22.5298 H   0  0  0  0  0  0  0  0  0  0  0  0
   21.4884   18.2345   21.7574 H   0  0  0  0  0  0  0  0  0  0  0  0
   19.9227   18.5177   23.2582 C   0  0  0  0  0  0  0  0  0  0  0  0
   20.5214   18.4082   24.1659 H   0  0  0  0  0  0  0  0  0  0  0  0
   18.9338   18.0978   23.4588 H   0  0  0  0  0  0  0  0  0  0  0  0
   19.7558   20.0094   23.0147 N   0  3  0  0  0  0  0  0  0  0  0  0
   19.1416   20.4112   23.7403 H   0  0  0  0  0  0  0  0  0  0  0  0
   19.2634   20.1690   22.1248 H   0  0  0  0  0  0  0  0  0  0  0  0
   21.1020   20.7251   23.0227 C   0  0  0  0  0  0  0  0  0  0  0  0
   21.5951   20.5521   23.9817 H   0  0  0  0  0  0  0  0  0  0  0  0
   21.7233   20.3396   22.2121 H   0  0  0  0  0  0  0  0  0  0  0  0
   20.9387   21.7958   22.8813 H   0  0  0  0  0  0  0  0  0  0  0  0
  1  2  1  0  0  0  0
  1  3  1  0  0  0  0
  1  4  1  0  0  0  0
  1  5  1  0  0  0  0
  5  6  1  0  0  0  0
  5  7  1  0  0  0  0
  5  8  1  0  0  0  0
  8  9  1  0  0  0  0
  8 10  1  0  0  0  0
  8 11  1  0  0  0  0
 11 12  1  0  0  0  0
 11 13  1  0  0  0  0
 11 14  1  0  0  0  0
 14 15  1  0  0  0  0
 14 16  1  0  0  0  0
 14 17  1  0  0  0  0
 17 18  1  0  0  0  0
 17 19  1  0  0  0  0
 17 20  1  0  0  0  0
M  END
> <VConfSearch Rank>
149

> <Conf_Id>
55

> <Delta U+W>
2.745

> <U+W>
18.083

> <U>
72.490

> <W>
-54.407

> <W(PB)>
-56.269

> <W(SA)>
1.861

> <Valence>
2.738

> <Coulomb>
69.795

> <VdW>
-0.043

> <VdW6>
-5.333

> <VdW12>
5.290

> <Bond>
0.182

> <Angle>
1.135

> <Pdih>
1.422

> <Idih>
0.000

> <Tether>
0.000

$$$$
VeraChem MOL file


 20 19  0  0  0  0  0  0  0  0999 V2000     
   20.5993   17.7719   23.7280 C   0  0  0  0  0  0  0  0  0  0  0  0
   21.0897   17.1960   24.5236 H   0  0  0  0  0  0  0  0  0  0  0  0
   19.9805   18.5415   24.2075 H   0  0  0  0  0  0  0  0  0  0  0  0
   19.9460   17.0780   23.1867 H   0  0  0  0  0  0  0  0  0  0  0  0
   21.6573   18.4028   22.7942 C   0  0  0  0  0  0  0  0  0  0  0  0
   22.1814   17.6090   22.2434 H   0  0  0  0  0  0  0  0  0  0  0  0
   22.4195   18.8959   23.4138 H   0  0  0  0  0  0  0  0  0  0  0  0
   21.0924   19.4463   21.7969 C   0  0  0  0  0  0  0  0  0  0  0  0
   20.6201   20.2742   22.3405 H   0  0  0  0  0  0  0  0  0  0  0  0
   21.9402   19.8901   21.2586 H   0  0  0  0  0  0  0  0  0  0  0  0
   20.1212   18.8676   20.7417 C   0  0  0  0  0  0  0  0  0  0  0  0
   20.5318   17.9316   20.3546 H   0  0  0  0  0  0  0  0  0  0  0  0
   20.0404   19.5668   19.9056 H   0  0  0  0  0  0  0  0  0  0  0  0
   18.7066   18.5914   21.2266 N   0  3  0  0  0  0  0  0  0  0  0  0
   18.7311   17.9968   22.0667 H   0  0  0  0  0  0  0  0  0  0  0  0
   18.2002   18.0384   20.5175 H   0  0  0  0  0  0  0  0  0  0  0  0
   17.9543   19.8881   21.5048 C   0  0  0  0  0  0  0  0  0  0  0  0
   18.4601   20.4380   22.3006 H   0  0  0  0  0  0  0  0  0  0  0  0
   17.9303   20.4917   20.5950 H   0  0  0  0  0  0  0  0  0  0  0  0
   16.9345   19.6504   21.8151 H   0  0  0  0  0  0  0  0  0  0  0  0
  1  2  1  0  0  0  0
  1  3  1  0  0  0  0
  1  4  1  0  0  0  0
  1  5  1  0  0  0  0
  5  6  1  0  0  0  0
  5  7  1  0  0  0  0
  5  8  1  0  0  0  0
  8  9  1  0  0  0  0
  8 10  1  0  0  0  0
  8 11  1  0  0  0  0
 11 12  1  0  0  0  0
 11 13  1  0  0  0  0
 11 14  1  0  0  0  0
 14 15  1  0  0  0  0
 14 16  1  0  0  0  0
 14 17  1  0  0  0  0
 17 18  1  0  0  0  0
 17 19  1  0  0  0  0
 17 20  1  0  0  0  0
M  END
> <VConfSearch Rank>
150

> <Conf_Id>
76

> <Delta U+W>
2.799

> <U+W>
18.137

> <U>
72.490

> <W>
-54.353

> <W(PB)>
-56.201

> <W(SA)>
1.848

> <Valence>
2.738

> <Coulomb>
69.795

> <VdW>
-0.043

> <VdW6>
-5.334

> <VdW12>
5.290

> <Bond>
0.182

> <Angle>
1.135

> <Pdih>
1.421

> <Idih>
0.000

> <Tether>
0.000

$$$$
VeraChem MOL file


 20 19  0  0  0  0  0  0  0  0999 V2000     
   21.7678   19.7375   21.1530 C   0  0  0  0  0  0  0  0  0  0  0  0
   21.4580   18.8295   20.6214 H   0  0  0  0  0  0  0  0  0  0  0  0
   21.5458   20.6003   20.5117 H   0  0  0  0  0  0  0  0  0  0  0  0
   22.8565   19.6897   21.2842 H   0  0  0  0  0  0  0  0  0  0  0  0
   21.0615   19.8678   22.5222 C   0  0  0  0  0  0  0  0  0  0  0  0
   21.4584   20.7507   23.0426 H   0  0  0  0  0  0  0  0  0  0  0  0
   21.3113   19.0097   23.1593 H   0  0  0  0  0  0  0  0  0  0  0  0
   19.5248   20.0137   22.4014 C   0  0  0  0  0  0  0  0  0  0  0  0
   19.0925   20.1449   23.4021 H   0  0  0  0  0  0  0  0  0  0  0  0
   19.3022   20.9393   21.8543 H   0  0  0  0  0  0  0  0  0  0  0  0
   18.8027   18.8464   21.6883 C   0  0  0  0  0  0  0  0  0  0  0  0
   19.2206   18.6878   20.6914 H   0  0  0  0  0  0  0  0  0  0  0  0
   17.7540   19.1285   21.5647 H   0  0  0  0  0  0  0  0  0  0  0  0
   18.8079   17.5182   22.4305 N   0  3  0  0  0  0  0  0  0  0  0  0
   17.9428   17.0018   22.2078 H   0  0  0  0  0  0  0  0  0  0  0  0
   18.7651   17.6756   23.4484 H   0  0  0  0  0  0  0  0  0  0  0  0
   20.0122   16.6636   22.0501 C   0  0  0  0  0  0  0  0  0  0  0  0
   19.9568   15.7118   22.5829 H   0  0  0  0  0  0  0  0  0  0  0  0
   19.9964   16.4821   20.9733 H   0  0  0  0  0  0  0  0  0  0  0  0
   20.9326   17.1812   22.3221 H   0  0  0  0  0  0  0  0  0  0  0  0
  1  2  1  0  0  0  0
  1  3  1  0  0  0  0
  1  4  1  0  0  0  0
  1  5  1  0  0  0  0
  5  6  1  0  0  0  0
  5  7  1  0  0  0  0
  5  8  1  0  0  0  0
  8  9  1  0  0  0  0
  8 10  1  0  0  0  0
  8 11  1  0  0  0  0
 11 12  1  0  0  0  0
 11 13  1  0  0  0  0
 11 14  1  0  0  0  0
 14 15  1  0  0  0  0
 14 16  1  0  0  0  0
 14 17  1  0  0  0  0
 17 18  1  0  0  0  0
 17 19  1  0  0  0  0
 17 20  1  0  0  0  0
M  END
> <VConfSearch Rank>
151

> <Conf_Id>
60

> <Delta U+W>
1.788

> <U+W>
17.127

> <U>
72.122

> <W>
-54.995

> <W(PB)>
-56.810

> <W(SA)>
1.815

> <Valence>
3.197

> <Coulomb>
69.115

> <VdW>
-0.190

> <VdW6>
-5.585

> <VdW12>
5.395

> <Bond>
0.177

> <Angle>
1.207

> <Pdih>
1.813

> <Idih>
0.000

> <Tether>
0.000

$$$$
VeraChem MOL file


 20 19  0  0  0  0  0  0  0  0999 V2000     
   21.1001   20.6130   22.5919 C   0  0  0  0  0  0  0  0  0  0  0  0
   21.4001   21.0669   23.5452 H   0  0  0  0  0  0  0  0  0  0  0  0
   21.5121   21.2305   21.7832 H   0  0  0  0  0  0  0  0  0  0  0  0
   20.0059   20.6597   22.5325 H   0  0  0  0  0  0  0  0  0  0  0  0
   21.6165   19.1587   22.4973 C   0  0  0  0  0  0  0  0  0  0  0  0
   21.2141   18.5603   23.3247 H   0  0  0  0  0  0  0  0  0  0  0  0
   22.7070   19.1607   22.6339 H   0  0  0  0  0  0  0  0  0  0  0  0
   21.2887   18.4847   21.1423 C   0  0  0  0  0  0  0  0  0  0  0  0
   21.7953   19.0408   20.3424 H   0  0  0  0  0  0  0  0  0  0  0  0
   21.7191   17.4749   21.1253 H   0  0  0  0  0  0  0  0  0  0  0  0
   19.7845   18.3988   20.7921 C   0  0  0  0  0  0  0  0  0  0  0  0
   19.7009   18.0173   19.7713 H   0  0  0  0  0  0  0  0  0  0  0  0
   19.3284   19.3914   20.8111 H   0  0  0  0  0  0  0  0  0  0  0  0
   18.9571   17.4708   21.6691 N   0  3  0  0  0  0  0  0  0  0  0  0
   19.5193   16.6581   21.9625 H   0  0  0  0  0  0  0  0  0  0  0  0
   18.1888   17.0703   21.1087 H   0  0  0  0  0  0  0  0  0  0  0  0
   18.3701   18.2038   22.8705 C   0  0  0  0  0  0  0  0  0  0  0  0
   17.7463   19.0277   22.5173 H   0  0  0  0  0  0  0  0  0  0  0  0
   17.7620   17.5069   23.4514 H   0  0  0  0  0  0  0  0  0  0  0  0
   19.1751   18.5935   23.4943 H   0  0  0  0  0  0  0  0  0  0  0  0
  1  2  1  0  0  0  0
  1  3  1  0  0  0  0
  1  4  1  0  0  0  0
  1  5  1  0  0  0  0
  5  6  1  0  0  0  0
  5  7  1  0  0  0  0
  5  8  1  0  0  0  0
  8  9  1  0  0  0  0
  8 10  1  0  0  0  0
  8 11  1  0  0  0  0
 11 12  1  0  0  0  0
 11 13  1  0  0  0  0
 11 14  1  0  0  0  0
 14 15  1  0  0  0  0
 14 16  1  0  0  0  0
 14 17  1  0  0  0  0
 17 18  1  0  0  0  0
 17 19  1  0  0  0  0
 17 20  1  0  0  0  0
M  END
> <VConfSearch Rank>
152

> <Conf_Id>
54

> <Delta U+W>
1.880

> <U+W>
17.218

> <U>
72.122

> <W>
-54.903

> <W(PB)>
-56.724

> <W(SA)>
1.821

> <Valence>
3.197

> <Coulomb>
69.115

> <VdW>
-0.190

> <VdW6>
-5.585

> <VdW12>
5.395

> <Bond>
0.177

> <Angle>
1.207

> <Pdih>
1.813

> <Idih>
0.000

> <Tether>
0.000

$$$$
VeraChem MOL file


 20 19  0  0  0  0  0  0  0  0999 V2000     
   22.8860   17.3187   21.9228 C   0  0  0  0  0  0  0  0  0  0  0  0
   23.1587   17.5987   20.8969 H   0  0  0  0  0  0  0  0  0  0  0  0
   23.8029   17.3198   22.5264 H   0  0  0  0  0  0  0  0  0  0  0  0
   22.4968   16.2924   21.9047 H   0  0  0  0  0  0  0  0  0  0  0  0
   21.8458   18.2979   22.5089 C   0  0  0  0  0  0  0  0  0  0  0  0
   22.2764   19.3086   22.5463 H   0  0  0  0  0  0  0  0  0  0  0  0
   21.6196   18.0125   23.5461 H   0  0  0  0  0  0  0  0  0  0  0  0
   20.5435   18.3174   21.6787 C   0  0  0  0  0  0  0  0  0  0  0  0
   20.7698   18.6060   20.6436 H   0  0  0  0  0  0  0  0  0  0  0  0
   20.1123   17.3080   21.6446 H   0  0  0  0  0  0  0  0  0  0  0  0
   19.5115   19.2959   22.2695 C   0  0  0  0  0  0  0  0  0  0  0  0
   19.9319   20.3045   22.2906 H   0  0  0  0  0  0  0  0  0  0  0  0
   19.2721   19.0023   23.2947 H   0  0  0  0  0  0  0  0  0  0  0  0
   18.2146   19.3488   21.4859 N   0  3  0  0  0  0  0  0  0  0  0  0
   17.7891   18.4103   21.4366 H   0  0  0  0  0  0  0  0  0  0  0  0
   18.4000   19.6160   20.5070 H   0  0  0  0  0  0  0  0  0  0  0  0
   17.2546   20.3363   22.1359 C   0  0  0  0  0  0  0  0  0  0  0  0
   17.7112   21.3284   22.1461 H   0  0  0  0  0  0  0  0  0  0  0  0
   16.3258   20.3644   21.5620 H   0  0  0  0  0  0  0  0  0  0  0  0
   17.0457   20.0151   23.1587 H   0  0  0  0  0  0  0  0  0  0  0  0
  1  2  1  0  0  0  0
  1  3  1  0  0  0  0
  1  4  1  0  0  0  0
  1  5  1  0  0  0  0
  5  6  1  0  0  0  0
  5  7  1  0  0  0  0
  5  8  1  0  0  0  0
  8  9  1  0  0  0  0
  8 10  1  0  0  0  0
  8 11  1  0  0  0  0
 11 12  1  0  0  0  0
 11 13  1  0  0  0  0
 11 14  1  0  0  0  0
 14 15  1  0  0  0  0
 14 16  1  0  0  0  0
 14 17  1  0  0  0  0
 17 18  1  0  0  0  0
 17 19  1  0  0  0  0
 17 20  1  0  0  0  0
M  END
> <VConfSearch Rank>
153

> <Conf_Id>
67

> <Delta U+W>
0.000

> <U+W>
15.338

> <U>
69.277

> <W>
-53.939

> <W(PB)>
-55.889

> <W(SA)>
1.950

> <Valence>
0.846

> <Coulomb>
68.557

> <VdW>
-0.127

> <VdW6>
-3.008

> <VdW12>
2.882

> <Bond>
0.088

> <Angle>
0.332

> <Pdih>
0.426

> <Idih>
0.000

> <Tether>
0.000

$$$$
VeraChem MOL file


 20 19  0  0  0  0  0  0  0  0999 V2000     
   22.7748   18.1897   20.8401 C   0  0  0  0  0  0  0  0  0  0  0  0
   22.3508   18.1999   19.8275 H   0  0  0  0  0  0  0  0  0  0  0  0
   23.8069   18.5581   20.7760 H   0  0  0  0  0  0  0  0  0  0  0  0
   22.8105   17.1481   21.1849 H   0  0  0  0  0  0  0  0  0  0  0  0
   21.9416   19.0654   21.8010 C   0  0  0  0  0  0  0  0  0  0  0  0
   21.9530   20.1066   21.4487 H   0  0  0  0  0  0  0  0  0  0  0  0
   22.4098   19.0633   22.7955 H   0  0  0  0  0  0  0  0  0  0  0  0
   20.4829   18.5697   21.9113 C   0  0  0  0  0  0  0  0  0  0  0  0
   20.0196   18.5734   20.9163 H   0  0  0  0  0  0  0  0  0  0  0  0
   20.4721   17.5311   22.2673 H   0  0  0  0  0  0  0  0  0  0  0  0
   19.6593   19.4497   22.8743 C   0  0  0  0  0  0  0  0  0  0  0  0
   19.6245   20.4763   22.5010 H   0  0  0  0  0  0  0  0  0  0  0  0
   20.1499   19.4617   23.8509 H   0  0  0  0  0  0  0  0  0  0  0  0
   18.2295   18.9821   23.0929 N   0  3  0  0  0  0  0  0  0  0  0  0
   17.8051   19.5193   23.8652 H   0  0  0  0  0  0  0  0  0  0  0  0
   18.2192   18.0027   23.4159 H   0  0  0  0  0  0  0  0  0  0  0  0
   17.3929   19.1455   21.8284 C   0  0  0  0  0  0  0  0  0  0  0  0
   17.8096   18.5225   21.0346 H   0  0  0  0  0  0  0  0  0  0  0  0
   16.3664   18.8354   22.0362 H   0  0  0  0  0  0  0  0  0  0  0  0
   17.4055   20.1936   21.5219 H   0  0  0  0  0  0  0  0  0  0  0  0
  1  2  1  0  0  0  0
  1  3  1  0  0  0  0
  1  4  1  0  0  0  0
  1  5  1  0  0  0  0
  5  6  1  0  0  0  0
  5  7  1  0  0  0  0
  5  8  1  0  0  0  0
  8  9  1  0  0  0  0
  8 10  1  0  0  0  0
  8 11  1  0  0  0  0
 11 12  1  0  0  0  0
 11 13  1  0  0  0  0
 11 14  1  0  0  0  0
 14 15  1  0  0  0  0
 14 16  1  0  0  0  0
 14 17  1  0  0  0  0
 17 18  1  0  0  0  0
 17 19  1  0  0  0  0
 17 20  1  0  0  0  0
M  END
> <VConfSearch Rank>
154

> <Conf_Id>
37

> <Delta U+W>
-0.021

> <U+W>
15.318

> <U>
69.657

> <W>
-54.340

> <W(PB)>
-56.238

> <W(SA)>
1.899

> <Valence>
1.137

> <Coulomb>
68.383

> <VdW>
0.138

> <VdW6>
-3.703

> <VdW12>
3.841

> <Bond>
0.125

> <Angle>
0.468

> <Pdih>
0.543

> <Idih>
0.000

> <Tether>
0.000

$$$$
VeraChem MOL file


 20 19  0  0  0  0  0  0  0  0999 V2000     
   22.4140   19.6351   20.4251 C   0  0  0  0  0  0  0  0  0  0  0  0
   23.0564   19.3252   19.5907 H   0  0  0  0  0  0  0  0  0  0  0  0
   21.9067   20.5634   20.1317 H   0  0  0  0  0  0  0  0  0  0  0  0
   23.0616   19.8564   21.2835 H   0  0  0  0  0  0  0  0  0  0  0  0
   21.3938   18.5281   20.7687 C   0  0  0  0  0  0  0  0  0  0  0  0
   21.9306   17.6034   21.0236 H   0  0  0  0  0  0  0  0  0  0  0  0
   20.7844   18.3051   19.8815 H   0  0  0  0  0  0  0  0  0  0  0  0
   20.4753   18.9370   21.9412 C   0  0  0  0  0  0  0  0  0  0  0  0
   21.0845   19.1555   22.8282 H   0  0  0  0  0  0  0  0  0  0  0  0
   19.9416   19.8605   21.6822 H   0  0  0  0  0  0  0  0  0  0  0  0
   19.4610   17.8245   22.2779 C   0  0  0  0  0  0  0  0  0  0  0  0
   20.0059   16.9040   22.5024 H   0  0  0  0  0  0  0  0  0  0  0  0
   18.8182   17.6346   21.4146 H   0  0  0  0  0  0  0  0  0  0  0  0
   18.5673   18.1225   23.4708 N   0  3  0  0  0  0  0  0  0  0  0  0
   19.1397   18.3394   24.3009 H   0  0  0  0  0  0  0  0  0  0  0  0
   18.0404   17.2731   23.7280 H   0  0  0  0  0  0  0  0  0  0  0  0
   17.5981   19.2602   23.1675 C   0  0  0  0  0  0  0  0  0  0  0  0
   16.9927   18.9946   22.2982 H   0  0  0  0  0  0  0  0  0  0  0  0
   16.9501   19.4181   24.0324 H   0  0  0  0  0  0  0  0  0  0  0  0
   18.1620   20.1720   22.9615 H   0  0  0  0  0  0  0  0  0  0  0  0
  1  2  1  0  0  0  0
  1  3  1  0  0  0  0
  1  4  1  0  0  0  0
  1  5  1  0  0  0  0
  5  6  1  0  0  0  0
  5  7  1  0  0  0  0
  5  8  1  0  0  0  0
  8  9  1  0  0  0  0
  8 10  1  0  0  0  0
  8 11  1  0  0  0  0
 11 12  1  0  0  0  0
 11 13  1  0  0  0  0
 11 14  1  0  0  0  0
 14 15  1  0  0  0  0
 14 16  1  0  0  0  0
 14 17  1  0  0  0  0
 17 18  1  0  0  0  0
 17 19  1  0  0  0  0
 17 20  1  0  0  0  0
M  END
> <VConfSearch Rank>
155

> <Conf_Id>
2

> <Delta U+W>
0.069

> <U+W>
15.407

> <U>
69.657

> <W>
-54.250

> <W(PB)>
-56.176

> <W(SA)>
1.926

> <Valence>
1.137

> <Coulomb>
68.383

> <VdW>
0.138

> <VdW6>
-3.703

> <VdW12>
3.841

> <Bond>
0.125

> <Angle>
0.468

> <Pdih>
0.543

> <Idih>
0.000

> <Tether>
0.000

$$$$
VeraChem MOL file


 20 19  0  0  0  0  0  0  0  0999 V2000     
   20.3677   21.2212   22.9598 C   0  0  0  0  0  0  0  0  0  0  0  0
   20.2838   20.4939   23.7771 H   0  0  0  0  0  0  0  0  0  0  0  0
   21.4264   21.3038   22.6815 H   0  0  0  0  0  0  0  0  0  0  0  0
   20.0475   22.1958   23.3505 H   0  0  0  0  0  0  0  0  0  0  0  0
   19.5028   20.8137   21.7448 C   0  0  0  0  0  0  0  0  0  0  0  0
   19.5435   21.6132   20.9916 H   0  0  0  0  0  0  0  0  0  0  0  0
   18.4505   20.7322   22.0516 H   0  0  0  0  0  0  0  0  0  0  0  0
   19.9604   19.4871   21.0945 C   0  0  0  0  0  0  0  0  0  0  0  0
   19.3546   19.3013   20.1976 H   0  0  0  0  0  0  0  0  0  0  0  0
   21.0011   19.5824   20.7572 H   0  0  0  0  0  0  0  0  0  0  0  0
   19.8335   18.2834   22.0485 C   0  0  0  0  0  0  0  0  0  0  0  0
   18.7973   18.1873   22.3822 H   0  0  0  0  0  0  0  0  0  0  0  0
   20.4642   18.4413   22.9267 H   0  0  0  0  0  0  0  0  0  0  0  0
   20.2428   16.9680   21.4155 N   0  3  0  0  0  0  0  0  0  0  0  0
   21.2161   17.0223   21.0780 H   0  0  0  0  0  0  0  0  0  0  0  0
   19.6727   16.7835   20.5759 H   0  0  0  0  0  0  0  0  0  0  0  0
   20.0899   15.8367   22.4235 C   0  0  0  0  0  0  0  0  0  0  0  0
   19.0466   15.7758   22.7406 H   0  0  0  0  0  0  0  0  0  0  0  0
   20.3877   14.8961   21.9549 H   0  0  0  0  0  0  0  0  0  0  0  0
   20.7278   16.0357   23.2874 H   0  0  0  0  0  0  0  0  0  0  0  0
  1  2  1  0  0  0  0
  1  3  1  0  0  0  0
  1  4  1  0  0  0  0
  1  5  1  0  0  0  0
  5  6  1  0  0  0  0
  5  7  1  0  0  0  0
  5  8  1  0  0  0  0
  8  9  1  0  0  0  0
  8 10  1  0  0  0  0
  8 11  1  0  0  0  0
 11 12  1  0  0  0  0
 11 13  1  0  0  0  0
 11 14  1  0  0  0  0
 14 15  1  0  0  0  0
 14 16  1  0  0  0  0
 14 17  1  0  0  0  0
 17 18  1  0  0  0  0
 17 19  1  0  0  0  0
 17 20  1  0  0  0  0
M  END
> <VConfSearch Rank>
156

> <Conf_Id>
34

> <Delta U+W>
0.276

> <U+W>
15.615

> <U>
69.798

> <W>
-54.184

> <W(PB)>
-56.116

> <W(SA)>
1.933

> <Valence>
1.134

> <Coulomb>
68.735

> <VdW>
-0.070

> <VdW6>
-3.565

> <VdW12>
3.494

> <Bond>
0.108

> <Angle>
0.456

> <Pdih>
0.569

> <Idih>
0.000

> <Tether>
0.000

$$$$
VeraChem MOL file


 20 19  0  0  0  0  0  0  0  0999 V2000     
   22.5665   17.4126   21.0771 C   0  0  0  0  0  0  0  0  0  0  0  0
   23.4318   18.0246   21.3632 H   0  0  0  0  0  0  0  0  0  0  0  0
   22.8184   16.3623   21.2734 H   0  0  0  0  0  0  0  0  0  0  0  0
   22.4114   17.5247   19.9961 H   0  0  0  0  0  0  0  0  0  0  0  0
   21.3057   17.8279   21.8657 C   0  0  0  0  0  0  0  0  0  0  0  0
   21.4812   17.6745   22.9400 H   0  0  0  0  0  0  0  0  0  0  0  0
   20.4730   17.1696   21.5833 H   0  0  0  0  0  0  0  0  0  0  0  0
   20.9288   19.3056   21.6056 C   0  0  0  0  0  0  0  0  0  0  0  0
   21.7841   19.9474   21.8556 H   0  0  0  0  0  0  0  0  0  0  0  0
   20.7245   19.4601   20.5378 H   0  0  0  0  0  0  0  0  0  0  0  0
   19.7142   19.7681   22.4353 C   0  0  0  0  0  0  0  0  0  0  0  0
   19.5543   20.8376   22.2763 H   0  0  0  0  0  0  0  0  0  0  0  0
   19.9129   19.6085   23.4980 H   0  0  0  0  0  0  0  0  0  0  0  0
   18.4203   19.0560   22.0881 N   0  3  0  0  0  0  0  0  0  0  0  0
   18.5257   18.0399   22.2260 H   0  0  0  0  0  0  0  0  0  0  0  0
   18.2057   19.1768   21.0864 H   0  0  0  0  0  0  0  0  0  0  0  0
   17.2839   19.5951   22.9465 C   0  0  0  0  0  0  0  0  0  0  0  0
   17.5175   19.4268   24.0000 H   0  0  0  0  0  0  0  0  0  0  0  0
   17.1685   20.6650   22.7600 H   0  0  0  0  0  0  0  0  0  0  0  0
   16.3596   19.0744   22.6866 H   0  0  0  0  0  0  0  0  0  0  0  0
  1  2  1  0  0  0  0
  1  3  1  0  0  0  0
  1  4  1  0  0  0  0
  1  5  1  0  0  0  0
  5  6  1  0  0  0  0
  5  7  1  0  0  0  0
  5  8  1  0  0  0  0
  8  9  1  0  0  0  0
  8 10  1  0  0  0  0
  8 11  1  0  0  0  0
 11 12  1  0  0  0  0
 11 13  1  0  0  0  0
 11 14  1  0  0  0  0
 14 15  1  0  0  0  0
 14 16  1  0  0  0  0
 14 17  1  0  0  0  0
 17 18  1  0  0  0  0
 17 19  1  0  0  0  0
 17 20  1  0  0  0  0
M  END
> <VConfSearch Rank>
157

> <Conf_Id>
50

> <Delta U+W>
0.319

> <U+W>
15.657

> <U>
69.962

> <W>
-54.305

> <W(PB)>
-56.223

> <W(SA)>
1.918

> <Valence>
0.982

> <Coulomb>
69.058

> <VdW>
-0.078

> <VdW6>
-3.548

> <VdW12>
3.471

> <Bond>
0.105

> <Angle>
0.408

> <Pdih>
0.469

> <Idih>
0.000

> <Tether>
0.000

$$$$
VeraChem MOL file


 20 19  0  0  0  0  0  0  0  0999 V2000     
   19.5798   20.6999   24.3546 C   0  0  0  0  0  0  0  0  0  0  0  0
   18.6291   20.7942   24.8953 H   0  0  0  0  0  0  0  0  0  0  0  0
   20.3754   20.5546   25.0971 H   0  0  0  0  0  0  0  0  0  0  0  0
   19.7667   21.6488   23.8352 H   0  0  0  0  0  0  0  0  0  0  0  0
   19.5263   19.5216   23.3582 C   0  0  0  0  0  0  0  0  0  0  0  0
   18.6955   19.6818   22.6578 H   0  0  0  0  0  0  0  0  0  0  0  0
   19.3067   18.5930   23.9039 H   0  0  0  0  0  0  0  0  0  0  0  0
   20.8556   19.3675   22.5821 C   0  0  0  0  0  0  0  0  0  0  0  0
   21.0673   20.2817   22.0118 H   0  0  0  0  0  0  0  0  0  0  0  0
   21.6809   19.2474   23.2965 H   0  0  0  0  0  0  0  0  0  0  0  0
   20.8554   18.1544   21.6303 C   0  0  0  0  0  0  0  0  0  0  0  0
   20.6380   17.2444   22.1951 H   0  0  0  0  0  0  0  0  0  0  0  0
   21.8462   18.0473   21.1815 H   0  0  0  0  0  0  0  0  0  0  0  0
   19.8496   18.2557   20.4989 N   0  3  0  0  0  0  0  0  0  0  0  0
   20.0187   19.1116   19.9485 H   0  0  0  0  0  0  0  0  0  0  0  0
   18.8967   18.3567   20.8784 H   0  0  0  0  0  0  0  0  0  0  0  0
   19.9412   17.0224   19.6103 C   0  0  0  0  0  0  0  0  0  0  0  0
   19.2126   17.1083   18.8011 H   0  0  0  0  0  0  0  0  0  0  0  0
   20.9482   16.9536   19.1930 H   0  0  0  0  0  0  0  0  0  0  0  0
   19.7265   16.1327   20.2061 H   0  0  0  0  0  0  0  0  0  0  0  0
  1  2  1  0  0  0  0
  1  3  1  0  0  0  0
  1  4  1  0  0  0  0
  1  5  1  0  0  0  0
  5  6  1  0  0  0  0
  5  7  1  0  0  0  0
  5  8  1  0  0  0  0
  8  9  1  0  0  0  0
  8 10  1  0  0  0  0
  8 11  1  0  0  0  0
 11 12  1  0  0  0  0
 11 13  1  0  0  0  0
 11 14  1  0  0  0  0
 14 15  1  0  0  0  0
 14 16  1  0  0  0  0
 14 17  1  0  0  0  0
 17 18  1  0  0  0  0
 17 19  1  0  0  0  0
 17 20  1  0  0  0  0
M  END
> <VConfSearch Rank>
158

> <Conf_Id>
35

> <Delta U+W>
0.360

> <U+W>
15.698

> <U>
69.962

> <W>
-54.264

> <W(PB)>
-56.166

> <W(SA)>
1.902

> <Valence>
0.982

> <Coulomb>
69.058

> <VdW>
-0.078

> <VdW6>
-3.548

> <VdW12>
3.471

> <Bond>
0.105

> <Angle>
0.408

> <Pdih>
0.469

> <Idih>
0.000

> <Tether>
0.000

$$$$
VeraChem MOL file


 20 19  0  0  0  0  0  0  0  0999 V2000     
   20.5491   16.5169   23.1896 C   0  0  0  0  0  0  0  0  0  0  0  0
   19.5237   16.3962   22.8181 H   0  0  0  0  0  0  0  0  0  0  0  0
   20.9483   15.5142   23.3906 H   0  0  0  0  0  0  0  0  0  0  0  0
   20.5065   17.0575   24.1441 H   0  0  0  0  0  0  0  0  0  0  0  0
   21.4400   17.2605   22.1681 C   0  0  0  0  0  0  0  0  0  0  0  0
   21.4616   16.7021   21.2216 H   0  0  0  0  0  0  0  0  0  0  0  0
   22.4742   17.2778   22.5398 H   0  0  0  0  0  0  0  0  0  0  0  0
   20.9757   18.7123   21.9065 C   0  0  0  0  0  0  0  0  0  0  0  0
   20.9922   19.2750   22.8487 H   0  0  0  0  0  0  0  0  0  0  0  0
   21.6935   19.2018   21.2352 H   0  0  0  0  0  0  0  0  0  0  0  0
   19.5679   18.7797   21.2765 C   0  0  0  0  0  0  0  0  0  0  0  0
   18.8320   18.3559   21.9640 H   0  0  0  0  0  0  0  0  0  0  0  0
   19.5600   18.1820   20.3615 H   0  0  0  0  0  0  0  0  0  0  0  0
   19.1071   20.1801   20.9064 N   0  3  0  0  0  0  0  0  0  0  0  0
   18.2408   20.1225   20.3483 H   0  0  0  0  0  0  0  0  0  0  0  0
   19.7941   20.6291   20.2817 H   0  0  0  0  0  0  0  0  0  0  0  0
   18.8664   21.0304   22.1491 C   0  0  0  0  0  0  0  0  0  0  0  0
   19.8027   21.1413   22.6996 H   0  0  0  0  0  0  0  0  0  0  0  0
   18.5021   22.0140   21.8445 H   0  0  0  0  0  0  0  0  0  0  0  0
   18.1213   20.5415   22.7804 H   0  0  0  0  0  0  0  0  0  0  0  0
  1  2  1  0  0  0  0
  1  3  1  0  0  0  0
  1  4  1  0  0  0  0
  1  5  1  0  0  0  0
  5  6  1  0  0  0  0
  5  7  1  0  0  0  0
  5  8  1  0  0  0  0
  8  9  1  0  0  0  0
  8 10  1  0  0  0  0
  8 11  1  0  0  0  0
 11 12  1  0  0  0  0
 11 13  1  0  0  0  0
 11 14  1  0  0  0  0
 14 15  1  0  0  0  0
 14 16  1  0  0  0  0
 14 17  1  0  0  0  0
 17 18  1  0  0  0  0
 17 19  1  0  0  0  0
 17 20  1  0  0  0  0
M  END
> <VConfSearch Rank>
159

> <Conf_Id>
33

> <Delta U+W>
0.372

> <U+W>
15.711

> <U>
70.163

> <W>
-54.452

> <W(PB)>
-56.363

> <W(SA)>
1.911

> <Valence>
1.420

> <Coulomb>
68.566

> <VdW>
0.177

> <VdW6>
-4.267

> <VdW12>
4.445

> <Bond>
0.146

> <Angle>
0.581

> <Pdih>
0.693

> <Idih>
0.000

> <Tether>
0.000

$$$$
VeraChem MOL file


 20 19  0  0  0  0  0  0  0  0999 V2000     
   21.4700   16.6270   21.9973 C   0  0  0  0  0  0  0  0  0  0  0  0
   21.7402   15.5750   21.8385 H   0  0  0  0  0  0  0  0  0  0  0  0
   21.8997   17.2071   21.1709 H   0  0  0  0  0  0  0  0  0  0  0  0
   21.9444   16.9570   22.9307 H   0  0  0  0  0  0  0  0  0  0  0  0
   19.9340   16.7880   22.0666 C   0  0  0  0  0  0  0  0  0  0  0  0
   19.5383   16.1218   22.8460 H   0  0  0  0  0  0  0  0  0  0  0  0
   19.4849   16.4561   21.1198 H   0  0  0  0  0  0  0  0  0  0  0  0
   19.4922   18.2381   22.3730 C   0  0  0  0  0  0  0  0  0  0  0  0
   18.4001   18.2634   22.4834 H   0  0  0  0  0  0  0  0  0  0  0  0
   19.9131   18.5506   23.3373 H   0  0  0  0  0  0  0  0  0  0  0  0
   19.9114   19.2313   21.2679 C   0  0  0  0  0  0  0  0  0  0  0  0
   19.5169   18.8829   20.3100 H   0  0  0  0  0  0  0  0  0  0  0  0
   21.0008   19.2661   21.1927 H   0  0  0  0  0  0  0  0  0  0  0  0
   19.4130   20.6526   21.4728 N   0  3  0  0  0  0  0  0  0  0  0  0
   18.3874   20.6595   21.5818 H   0  0  0  0  0  0  0  0  0  0  0  0
   19.5918   21.2074   20.6211 H   0  0  0  0  0  0  0  0  0  0  0  0
   20.0908   21.3098   22.6703 C   0  0  0  0  0  0  0  0  0  0  0  0
   19.7355   22.3385   22.7623 H   0  0  0  0  0  0  0  0  0  0  0  0
   19.8429   20.7546   23.5771 H   0  0  0  0  0  0  0  0  0  0  0  0
   21.1722   21.3064   22.5178 H   0  0  0  0  0  0  0  0  0  0  0  0
  1  2  1  0  0  0  0
  1  3  1  0  0  0  0
  1  4  1  0  0  0  0
  1  5  1  0  0  0  0
  5  6  1  0  0  0  0
  5  7  1  0  0  0  0
  5  8  1  0  0  0  0
  8  9  1  0  0  0  0
  8 10  1  0  0  0  0
  8 11  1  0  0  0  0
 11 12  1  0  0  0  0
 11 13  1  0  0  0  0
 11 14  1  0  0  0  0
 14 15  1  0  0  0  0
 14 16  1  0  0  0  0
 14 17  1  0  0  0  0
 17 18  1  0  0  0  0
 17 19  1  0  0  0  0
 17 20  1  0  0  0  0
M  END
> <VConfSearch Rank>
160

> <Conf_Id>
53

> <Delta U+W>
0.379

> <U+W>
15.717

> <U>
70.163

> <W>
-54.446

> <W(PB)>
-56.322

> <W(SA)>
1.876

> <Valence>
1.420

> <Coulomb>
68.566

> <VdW>
0.177

> <VdW6>
-4.267

> <VdW12>
4.445

> <Bond>
0.146

> <Angle>
0.581

> <Pdih>
0.693

> <Idih>
0.000

> <Tether>
0.000

$$$$
VeraChem MOL file


 20 19  0  0  0  0  0  0  0  0999 V2000     
   19.5380   19.0810   19.2583 C   0  0  0  0  0  0  0  0  0  0  0  0
   19.1310   19.9520   18.7283 H   0  0  0  0  0  0  0  0  0  0  0  0
   20.3309   18.6485   18.6344 H   0  0  0  0  0  0  0  0  0  0  0  0
   18.7343   18.3391   19.3524 H   0  0  0  0  0  0  0  0  0  0  0  0
   20.0813   19.4906   20.6443 C   0  0  0  0  0  0  0  0  0  0  0  0
   19.2713   19.9534   21.2244 H   0  0  0  0  0  0  0  0  0  0  0  0
   20.8603   20.2559   20.5189 H   0  0  0  0  0  0  0  0  0  0  0  0
   20.6593   18.2795   21.4135 C   0  0  0  0  0  0  0  0  0  0  0  0
   19.8782   17.5235   21.5655 H   0  0  0  0  0  0  0  0  0  0  0  0
   21.4368   17.8002   20.8041 H   0  0  0  0  0  0  0  0  0  0  0  0
   21.2812   18.6720   22.7722 C   0  0  0  0  0  0  0  0  0  0  0  0
   22.0946   19.3810   22.5982 H   0  0  0  0  0  0  0  0  0  0  0  0
   21.7067   17.7848   23.2479 H   0  0  0  0  0  0  0  0  0  0  0  0
   20.3244   19.3128   23.7665 N   0  3  0  0  0  0  0  0  0  0  0  0
   19.8961   20.1553   23.3557 H   0  0  0  0  0  0  0  0  0  0  0  0
   20.8544   19.6557   24.5831 H   0  0  0  0  0  0  0  0  0  0  0  0
   19.2536   18.3267   24.2203 C   0  0  0  0  0  0  0  0  0  0  0  0
   19.7348   17.4546   24.6681 H   0  0  0  0  0  0  0  0  0  0  0  0
   18.6104   18.8114   24.9580 H   0  0  0  0  0  0  0  0  0  0  0  0
   18.6566   18.0192   23.3594 H   0  0  0  0  0  0  0  0  0  0  0  0
  1  2  1  0  0  0  0
  1  3  1  0  0  0  0
  1  4  1  0  0  0  0
  1  5  1  0  0  0  0
  5  6  1  0  0  0  0
  5  7  1  0  0  0  0
  5  8  1  0  0  0  0
  8  9  1  0  0  0  0
  8 10  1  0  0  0  0
  8 11  1  0  0  0  0
 11 12  1  0  0  0  0
 11 13  1  0  0  0  0
 11 14  1  0  0  0  0
 14 15  1  0  0  0  0
 14 16  1  0  0  0  0
 14 17  1  0  0  0  0
 17 18  1  0  0  0  0
 17 19  1  0  0  0  0
 17 20  1  0  0  0  0
M  END
> <VConfSearch Rank>
161

> <Conf_Id>
49

> <Delta U+W>
0.268

> <U+W>
15.607

> <U>
70.298

> <W>
-54.692

> <W(PB)>
-56.576

> <W(SA)>
1.885

> <Valence>
1.245

> <Coulomb>
68.933

> <VdW>
0.120

> <VdW6>
-4.430

> <VdW12>
4.550

> <Bond>
0.148

> <Angle>
0.587

> <Pdih>
0.509

> <Idih>
0.000

> <Tether>
0.000

$$$$
VeraChem MOL file


 20 19  0  0  0  0  0  0  0  0999 V2000     
   20.3255   19.5531   19.3292 C   0  0  0  0  0  0  0  0  0  0  0  0
   20.1545   18.6102   18.7936 H   0  0  0  0  0  0  0  0  0  0  0  0
   19.5256   20.2526   19.0535 H   0  0  0  0  0  0  0  0  0  0  0  0
   21.2757   19.9734   18.9751 H   0  0  0  0  0  0  0  0  0  0  0  0
   20.3649   19.3258   20.8560 C   0  0  0  0  0  0  0  0  0  0  0  0
   20.5651   20.2805   21.3624 H   0  0  0  0  0  0  0  0  0  0  0  0
   21.2007   18.6542   21.0925 H   0  0  0  0  0  0  0  0  0  0  0  0
   19.0405   18.7232   21.3797 C   0  0  0  0  0  0  0  0  0  0  0  0
   18.2033   19.3447   21.0355 H   0  0  0  0  0  0  0  0  0  0  0  0
   18.8859   17.7286   20.9410 H   0  0  0  0  0  0  0  0  0  0  0  0
   18.9567   18.6235   22.9198 C   0  0  0  0  0  0  0  0  0  0  0  0
   17.9632   18.2490   23.1794 H   0  0  0  0  0  0  0  0  0  0  0  0
   19.0657   19.6128   23.3712 H   0  0  0  0  0  0  0  0  0  0  0  0
   19.9614   17.6876   23.5740 N   0  3  0  0  0  0  0  0  0  0  0  0
   20.1697   16.8920   22.9523 H   0  0  0  0  0  0  0  0  0  0  0  0
   19.5349   17.2626   24.4121 H   0  0  0  0  0  0  0  0  0  0  0  0
   21.2320   18.4282   23.9787 C   0  0  0  0  0  0  0  0  0  0  0  0
   21.9147   17.7270   24.4637 H   0  0  0  0  0  0  0  0  0  0  0  0
   21.7102   18.8519   23.0949 H   0  0  0  0  0  0  0  0  0  0  0  0
   20.9731   19.2282   24.6756 H   0  0  0  0  0  0  0  0  0  0  0  0
  1  2  1  0  0  0  0
  1  3  1  0  0  0  0
  1  4  1  0  0  0  0
  1  5  1  0  0  0  0
  5  6  1  0  0  0  0
  5  7  1  0  0  0  0
  5  8  1  0  0  0  0
  8  9  1  0  0  0  0
  8 10  1  0  0  0  0
  8 11  1  0  0  0  0
 11 12  1  0  0  0  0
 11 13  1  0  0  0  0
 11 14  1  0  0  0  0
 14 15  1  0  0  0  0
 14 16  1  0  0  0  0
 14 17  1  0  0  0  0
 17 18  1  0  0  0  0
 17 19  1  0  0  0  0
 17 20  1  0  0  0  0
M  END
> <VConfSearch Rank>
162

> <Conf_Id>
65

> <Delta U+W>
1.775

> <U+W>
17.114

> <U>
71.726

> <W>
-54.613

> <W(PB)>
-56.495

> <W(SA)>
1.883

> <Valence>
2.885

> <Coulomb>
68.822

> <VdW>
0.019

> <VdW6>
-4.600

> <VdW12>
4.619

> <Bond>
0.152

> <Angle>
0.862

> <Pdih>
1.871

> <Idih>
0.000

> <Tether>
0.000

$$$$
VeraChem MOL file


 20 19  0  0  0  0  0  0  0  0999 V2000     
   20.8273   16.7027   21.0694 C   0  0  0  0  0  0  0  0  0  0  0  0
   20.2054   16.6357   21.9709 H   0  0  0  0  0  0  0  0  0  0  0  0
   20.4993   15.9122   20.3820 H   0  0  0  0  0  0  0  0  0  0  0  0
   21.8660   16.4891   21.3531 H   0  0  0  0  0  0  0  0  0  0  0  0
   20.7088   18.0897   20.3969 C   0  0  0  0  0  0  0  0  0  0  0  0
   19.6623   18.2793   20.1221 H   0  0  0  0  0  0  0  0  0  0  0  0
   21.2718   18.0781   19.4530 H   0  0  0  0  0  0  0  0  0  0  0  0
   21.2450   19.2419   21.2828 C   0  0  0  0  0  0  0  0  0  0  0  0
   22.3177   19.0901   21.4620 H   0  0  0  0  0  0  0  0  0  0  0  0
   21.1579   20.1916   20.7384 H   0  0  0  0  0  0  0  0  0  0  0  0
   20.5316   19.3707   22.6449 C   0  0  0  0  0  0  0  0  0  0  0  0
   20.9881   20.1820   23.2176 H   0  0  0  0  0  0  0  0  0  0  0  0
   20.6531   18.4453   23.2129 H   0  0  0  0  0  0  0  0  0  0  0  0
   19.0470   19.6623   22.5378 N   0  3  0  0  0  0  0  0  0  0  0  0
   18.5803   18.9201   21.9957 H   0  0  0  0  0  0  0  0  0  0  0  0
   18.8929   20.5317   22.0046 H   0  0  0  0  0  0  0  0  0  0  0  0
   18.4367   19.7721   23.9285 C   0  0  0  0  0  0  0  0  0  0  0  0
   18.9245   20.5839   24.4723 H   0  0  0  0  0  0  0  0  0  0  0  0
   17.3685   19.9806   23.8362 H   0  0  0  0  0  0  0  0  0  0  0  0
   18.5832   18.8300   24.4612 H   0  0  0  0  0  0  0  0  0  0  0  0
  1  2  1  0  0  0  0
  1  3  1  0  0  0  0
  1  4  1  0  0  0  0
  1  5  1  0  0  0  0
  5  6  1  0  0  0  0
  5  7  1  0  0  0  0
  5  8  1  0  0  0  0
  8  9  1  0  0  0  0
  8 10  1  0  0  0  0
  8 11  1  0  0  0  0
 11 12  1  0  0  0  0
 11 13  1  0  0  0  0
 11 14  1  0  0  0  0
 14 15  1  0  0  0  0
 14 16  1  0  0  0  0
 14 17  1  0  0  0  0
 17 18  1  0  0  0  0
 17 19  1  0  0  0  0
 17 20  1  0  0  0  0
M  END
> <VConfSearch Rank>
163

> <Conf_Id>
23

> <Delta U+W>
0.896

> <U+W>
16.234

> <U>
70.374

> <W>
-54.140

> <W(PB)>
-56.046

> <W(SA)>
1.907

> <Valence>
1.257

> <Coulomb>
69.240

> <VdW>
-0.123

> <VdW6>
-4.336

> <VdW12>
4.213

> <Bond>
0.128

> <Angle>
0.603

> <Pdih>
0.526

> <Idih>
0.000

> <Tether>
0.000

$$$$
VeraChem MOL file


 20 19  0  0  0  0  0  0  0  0999 V2000     
   21.5635   19.9653   23.4957 C   0  0  0  0  0  0  0  0  0  0  0  0
   22.1214   19.2742   24.1408 H   0  0  0  0  0  0  0  0  0  0  0  0
   21.9133   20.9826   23.7143 H   0  0  0  0  0  0  0  0  0  0  0  0
   20.5034   19.9134   23.7741 H   0  0  0  0  0  0  0  0  0  0  0  0
   21.7779   19.6274   22.0024 C   0  0  0  0  0  0  0  0  0  0  0  0
   22.8361   19.7833   21.7494 H   0  0  0  0  0  0  0  0  0  0  0  0
   21.2112   20.3321   21.3787 H   0  0  0  0  0  0  0  0  0  0  0  0
   21.3903   18.1700   21.6478 C   0  0  0  0  0  0  0  0  0  0  0  0
   21.5916   17.9876   20.5839 H   0  0  0  0  0  0  0  0  0  0  0  0
   22.0376   17.4790   22.2039 H   0  0  0  0  0  0  0  0  0  0  0  0
   19.9188   17.8198   21.9530 C   0  0  0  0  0  0  0  0  0  0  0  0
   19.7221   17.9544   23.0193 H   0  0  0  0  0  0  0  0  0  0  0  0
   19.7371   16.7711   21.7049 H   0  0  0  0  0  0  0  0  0  0  0  0
   18.9141   18.6553   21.1829 N   0  3  0  0  0  0  0  0  0  0  0  0
   19.0705   18.5539   20.1684 H   0  0  0  0  0  0  0  0  0  0  0  0
   19.0586   19.6556   21.3855 H   0  0  0  0  0  0  0  0  0  0  0  0
   17.4975   18.2351   21.5507 C   0  0  0  0  0  0  0  0  0  0  0  0
   17.3451   18.3821   22.6221 H   0  0  0  0  0  0  0  0  0  0  0  0
   16.7854   18.8450   20.9904 H   0  0  0  0  0  0  0  0  0  0  0  0
   17.3579   17.1816   21.2987 H   0  0  0  0  0  0  0  0  0  0  0  0
  1  2  1  0  0  0  0
  1  3  1  0  0  0  0
  1  4  1  0  0  0  0
  1  5  1  0  0  0  0
  5  6  1  0  0  0  0
  5  7  1  0  0  0  0
  5  8  1  0  0  0  0
  8  9  1  0  0  0  0
  8 10  1  0  0  0  0
  8 11  1  0  0  0  0
 11 12  1  0  0  0  0
 11 13  1  0  0  0  0
 11 14  1  0  0  0  0
 14 15  1  0  0  0  0
 14 16  1  0  0  0  0
 14 17  1  0  0  0  0
 17 18  1  0  0  0  0
 17 19  1  0  0  0  0
 17 20  1  0  0  0  0
M  END
> <VConfSearch Rank>
164

> <Conf_Id>
24

> <Delta U+W>
0.792

> <U+W>
16.130

> <U>
70.374

> <W>
-54.243

> <W(PB)>
-56.130

> <W(SA)>
1.887

> <Valence>
1.257

> <Coulomb>
69.240

> <VdW>
-0.123

> <VdW6>
-4.336

> <VdW12>
4.213

> <Bond>
0.128

> <Angle>
0.603

> <Pdih>
0.526

> <Idih>
0.000

> <Tether>
0.000

$$$$
VeraChem MOL file


 20 19  0  0  0  0  0  0  0  0999 V2000     
   21.3092   19.2669   23.6923 C   0  0  0  0  0  0  0  0  0  0  0  0
   21.6895   19.5311   24.6877 H   0  0  0  0  0  0  0  0  0  0  0  0
   20.7470   18.3320   23.8015 H   0  0  0  0  0  0  0  0  0  0  0  0
   22.1759   19.0875   23.0428 H   0  0  0  0  0  0  0  0  0  0  0  0
   20.4191   20.4040   23.1408 C   0  0  0  0  0  0  0  0  0  0  0  0
   20.9578   21.3557   23.2512 H   0  0  0  0  0  0  0  0  0  0  0  0
   19.5153   20.4936   23.7598 H   0  0  0  0  0  0  0  0  0  0  0  0
   20.0170   20.2403   21.6528 C   0  0  0  0  0  0  0  0  0  0  0  0
   19.4504   21.1329   21.3557 H   0  0  0  0  0  0  0  0  0  0  0  0
   20.9106   20.2250   21.0148 H   0  0  0  0  0  0  0  0  0  0  0  0
   19.1382   19.0054   21.3611 C   0  0  0  0  0  0  0  0  0  0  0  0
   18.6058   19.1604   20.4192 H   0  0  0  0  0  0  0  0  0  0  0  0
   18.3960   18.8847   22.1540 H   0  0  0  0  0  0  0  0  0  0  0  0
   19.9100   17.7068   21.2236 N   0  3  0  0  0  0  0  0  0  0  0  0
   20.4737   17.5406   22.0693 H   0  0  0  0  0  0  0  0  0  0  0  0
   20.5895   17.7784   20.4508 H   0  0  0  0  0  0  0  0  0  0  0  0
   18.9476   16.5514   20.9841 C   0  0  0  0  0  0  0  0  0  0  0  0
   18.2600   16.4748   21.8291 H   0  0  0  0  0  0  0  0  0  0  0  0
   18.3856   16.7359   20.0661 H   0  0  0  0  0  0  0  0  0  0  0  0
   19.5168   15.6243   20.8872 H   0  0  0  0  0  0  0  0  0  0  0  0
  1  2  1  0  0  0  0
  1  3  1  0  0  0  0
  1  4  1  0  0  0  0
  1  5  1  0  0  0  0
  5  6  1  0  0  0  0
  5  7  1  0  0  0  0
  5  8  1  0  0  0  0
  8  9  1  0  0  0  0
  8 10  1  0  0  0  0
  8 11  1  0  0  0  0
 11 12  1  0  0  0  0
 11 13  1  0  0  0  0
 11 14  1  0  0  0  0
 14 15  1  0  0  0  0
 14 16  1  0  0  0  0
 14 17  1  0  0  0  0
 17 18  1  0  0  0  0
 17 19  1  0  0  0  0
 17 20  1  0  0  0  0
M  END
> <VConfSearch Rank>
165

> <Conf_Id>
26

> <Delta U+W>
2.888

> <U+W>
18.226

> <U>
72.042

> <W>
-53.816

> <W(PB)>
-55.689

> <W(SA)>
1.873

> <Valence>
2.428

> <Coulomb>
69.829

> <VdW>
-0.215

> <VdW6>
-4.563

> <VdW12>
4.348

> <Bond>
0.137

> <Angle>
0.936

> <Pdih>
1.356

> <Idih>
0.000

> <Tether>
0.000

$$$$
VeraChem MOL file


 20 19  0  0  0  0  0  0  0  0999 V2000     
   18.5329   17.7073   21.0909 C   0  0  0  0  0  0  0  0  0  0  0  0
   17.5633   17.3767   20.6960 H   0  0  0  0  0  0  0  0  0  0  0  0
   19.2445   16.8821   20.9571 H   0  0  0  0  0  0  0  0  0  0  0  0
   18.3971   17.8894   22.1635 H   0  0  0  0  0  0  0  0  0  0  0  0
   19.0043   18.9814   20.3536 C   0  0  0  0  0  0  0  0  0  0  0  0
   18.3219   19.8114   20.5851 H   0  0  0  0  0  0  0  0  0  0  0  0
   18.9192   18.8117   19.2710 H   0  0  0  0  0  0  0  0  0  0  0  0
   20.4624   19.4030   20.6685 C   0  0  0  0  0  0  0  0  0  0  0  0
   21.1620   18.6106   20.3715 H   0  0  0  0  0  0  0  0  0  0  0  0
   20.7063   20.2705   20.0410 H   0  0  0  0  0  0  0  0  0  0  0  0
   20.7084   19.8011   22.1393 C   0  0  0  0  0  0  0  0  0  0  0  0
   19.8667   20.3930   22.5074 H   0  0  0  0  0  0  0  0  0  0  0  0
   21.6080   20.4191   22.1964 H   0  0  0  0  0  0  0  0  0  0  0  0
   20.9180   18.6282   23.0781 N   0  3  0  0  0  0  0  0  0  0  0  0
   21.7358   18.0757   22.7781 H   0  0  0  0  0  0  0  0  0  0  0  0
   20.1165   17.9839   23.0216 H   0  0  0  0  0  0  0  0  0  0  0  0
   21.1049   19.1288   24.5039 C   0  0  0  0  0  0  0  0  0  0  0  0
   20.2147   19.6820   24.8108 H   0  0  0  0  0  0  0  0  0  0  0  0
   21.2547   18.2744   25.1677 H   0  0  0  0  0  0  0  0  0  0  0  0
   21.9784   19.7832   24.5436 H   0  0  0  0  0  0  0  0  0  0  0  0
  1  2  1  0  0  0  0
  1  3  1  0  0  0  0
  1  4  1  0  0  0  0
  1  5  1  0  0  0  0
  5  6  1  0  0  0  0
  5  7  1  0  0  0  0
  5  8  1  0  0  0  0
  8  9  1  0  0  0  0
  8 10  1  0  0  0  0
  8 11  1  0  0  0  0
 11 12  1  0  0  0  0
 11 13  1  0  0  0  0
 11 14  1  0  0  0  0
 14 15  1  0  0  0  0
 14 16  1  0  0  0  0
 14 17  1  0  0  0  0
 17 18  1  0  0  0  0
 17 19  1  0  0  0  0
 17 20  1  0  0  0  0
M  END
> <VConfSearch Rank>
166

> <Conf_Id>
5

> <Delta U+W>
2.950

> <U+W>
18.289

> <U>
72.042

> <W>
-53.753

> <W(PB)>
-55.644

> <W(SA)>
1.891

> <Valence>
2.428

> <Coulomb>
69.829

> <VdW>
-0.215

> <VdW6>
-4.563

> <VdW12>
4.348

> <Bond>
0.137

> <Angle>
0.936

> <Pdih>
1.356

> <Idih>
0.000

> <Tether>
0.000

$$$$
VeraChem MOL file


 20 19  0  0  0  0  0  0  0  0999 V2000     
   21.9296   19.3729   23.5131 C   0  0  0  0  0  0  0  0  0  0  0  0
   22.7195   18.6106   23.4989 H   0  0  0  0  0  0  0  0  0  0  0  0
   22.0476   20.0043   22.6236 H   0  0  0  0  0  0  0  0  0  0  0  0
   22.0936   20.0077   24.3935 H   0  0  0  0  0  0  0  0  0  0  0  0
   20.5291   18.7206   23.5682 C   0  0  0  0  0  0  0  0  0  0  0  0
   19.7566   19.5015   23.5854 H   0  0  0  0  0  0  0  0  0  0  0  0
   20.4272   18.1731   24.5157 H   0  0  0  0  0  0  0  0  0  0  0  0
   20.2687   17.7417   22.3963 C   0  0  0  0  0  0  0  0  0  0  0  0
   20.9900   16.9156   22.4492 H   0  0  0  0  0  0  0  0  0  0  0  0
   19.2780   17.2847   22.5168 H   0  0  0  0  0  0  0  0  0  0  0  0
   20.3694   18.3935   20.9983 C   0  0  0  0  0  0  0  0  0  0  0  0
   20.1713   17.6422   20.2297 H   0  0  0  0  0  0  0  0  0  0  0  0
   21.3876   18.7617   20.8502 H   0  0  0  0  0  0  0  0  0  0  0  0
   19.4242   19.5606   20.7583 N   0  3  0  0  0  0  0  0  0  0  0  0
   19.6576   20.0163   19.8623 H   0  0  0  0  0  0  0  0  0  0  0  0
   19.5720   20.2871   21.4742 H   0  0  0  0  0  0  0  0  0  0  0  0
   17.9703   19.1015   20.7441 C   0  0  0  0  0  0  0  0  0  0  0  0
   17.7154   18.6771   21.7171 H   0  0  0  0  0  0  0  0  0  0  0  0
   17.3261   19.9591   20.5381 H   0  0  0  0  0  0  0  0  0  0  0  0
   17.8393   18.3474   19.9651 H   0  0  0  0  0  0  0  0  0  0  0  0
  1  2  1  0  0  0  0
  1  3  1  0  0  0  0
  1  4  1  0  0  0  0
  1  5  1  0  0  0  0
  5  6  1  0  0  0  0
  5  7  1  0  0  0  0
  5  8  1  0  0  0  0
  8  9  1  0  0  0  0
  8 10  1  0  0  0  0
  8 11  1  0  0  0  0
 11 12  1  0  0  0  0
 11 13  1  0  0  0  0
 11 14  1  0  0  0  0
 14 15  1  0  0  0  0
 14 16  1  0  0  0  0
 14 17  1  0  0  0  0
 17 18  1  0  0  0  0
 17 19  1  0  0  0  0
 17 20  1  0  0  0  0
M  END
> <VConfSearch Rank>
167

> <Conf_Id>
52

> <Delta U+W>
0.784

> <U+W>
16.122

> <U>
70.777

> <W>
-54.655

> <W(PB)>
-56.491

> <W(SA)>
1.836

> <Valence>
1.529

> <Coulomb>
69.166

> <VdW>
0.082

> <VdW6>
-5.166

> <VdW12>
5.248

> <Bond>
0.171

> <Angle>
0.752

> <Pdih>
0.605

> <Idih>
0.000

> <Tether>
0.000

$$$$
VeraChem MOL file


 20 19  0  0  0  0  0  0  0  0999 V2000     
   20.4729   16.9311   21.4644 C   0  0  0  0  0  0  0  0  0  0  0  0
   20.5245   15.8642   21.2108 H   0  0  0  0  0  0  0  0  0  0  0  0
   20.3396   17.4776   20.5238 H   0  0  0  0  0  0  0  0  0  0  0  0
   21.4369   17.2150   21.9065 H   0  0  0  0  0  0  0  0  0  0  0  0
   19.3065   17.1924   22.4445 C   0  0  0  0  0  0  0  0  0  0  0  0
   19.3631   16.4557   23.2581 H   0  0  0  0  0  0  0  0  0  0  0  0
   18.3502   17.0084   21.9349 H   0  0  0  0  0  0  0  0  0  0  0  0
   19.3009   18.6098   23.0720 C   0  0  0  0  0  0  0  0  0  0  0  0
   18.4921   18.6457   23.8137 H   0  0  0  0  0  0  0  0  0  0  0  0
   20.2273   18.7795   23.6348 H   0  0  0  0  0  0  0  0  0  0  0  0
   19.0612   19.7583   22.0645 C   0  0  0  0  0  0  0  0  0  0  0  0
   18.7429   20.6520   22.6070 H   0  0  0  0  0  0  0  0  0  0  0  0
   18.2524   19.4747   21.3863 H   0  0  0  0  0  0  0  0  0  0  0  0
   20.2609   20.1570   21.2193 N   0  3  0  0  0  0  0  0  0  0  0  0
   19.9549   20.7854   20.4599 H   0  0  0  0  0  0  0  0  0  0  0  0
   20.6497   19.3297   20.7457 H   0  0  0  0  0  0  0  0  0  0  0  0
   21.3271   20.8469   22.0630 C   0  0  0  0  0  0  0  0  0  0  0  0
   20.8927   21.7276   22.5409 H   0  0  0  0  0  0  0  0  0  0  0  0
   21.6920   20.1548   22.8243 H   0  0  0  0  0  0  0  0  0  0  0  0
   22.1540   21.1496   21.4169 H   0  0  0  0  0  0  0  0  0  0  0  0
  1  2  1  0  0  0  0
  1  3  1  0  0  0  0
  1  4  1  0  0  0  0
  1  5  1  0  0  0  0
  5  6  1  0  0  0  0
  5  7  1  0  0  0  0
  5  8  1  0  0  0  0
  8  9  1  0  0  0  0
  8 10  1  0  0  0  0
  8 11  1  0  0  0  0
 11 12  1  0  0  0  0
 11 13  1  0  0  0  0
 11 14  1  0  0  0  0
 14 15  1  0  0  0  0
 14 16  1  0  0  0  0
 14 17  1  0  0  0  0
 17 18  1  0  0  0  0
 17 19  1  0  0  0  0
 17 20  1  0  0  0  0
M  END
> <VConfSearch Rank>
168

> <Conf_Id>
55

> <Delta U+W>
2.745

> <U+W>
18.083

> <U>
72.490

> <W>
-54.407

> <W(PB)>
-56.269

> <W(SA)>
1.861

> <Valence>
2.738

> <Coulomb>
69.795

> <VdW>
-0.043

> <VdW6>
-5.333

> <VdW12>
5.290

> <Bond>
0.182

> <Angle>
1.135

> <Pdih>
1.422

> <Idih>
0.000

> <Tether>
0.000

$$$$
VeraChem MOL file


 20 19  0  0  0  0  0  0  0  0999 V2000     
   21.8225   19.5299   21.3532 C   0  0  0  0  0  0  0  0  0  0  0  0
   22.8279   19.7224   20.9568 H   0  0  0  0  0  0  0  0  0  0  0  0
   21.1957   20.3966   21.1055 H   0  0  0  0  0  0  0  0  0  0  0  0
   21.9160   19.4599   22.4430 H   0  0  0  0  0  0  0  0  0  0  0  0
   21.2481   18.2293   20.7467 C   0  0  0  0  0  0  0  0  0  0  0  0
   21.8291   17.3684   21.1063 H   0  0  0  0  0  0  0  0  0  0  0  0
   21.3925   18.2591   19.6576 H   0  0  0  0  0  0  0  0  0  0  0  0
   19.7417   17.9994   21.0309 C   0  0  0  0  0  0  0  0  0  0  0  0
   19.1476   18.8258   20.6210 H   0  0  0  0  0  0  0  0  0  0  0  0
   19.4278   17.1050   20.4768 H   0  0  0  0  0  0  0  0  0  0  0  0
   19.3956   17.7707   22.5206 C   0  0  0  0  0  0  0  0  0  0  0  0
   20.1283   17.0863   22.9558 H   0  0  0  0  0  0  0  0  0  0  0  0
   18.4134   17.2970   22.5930 H   0  0  0  0  0  0  0  0  0  0  0  0
   19.3505   19.0191   23.3878 N   0  3  0  0  0  0  0  0  0  0  0  0
   20.2294   19.5468   23.2930 H   0  0  0  0  0  0  0  0  0  0  0  0
   19.3033   18.7473   24.3823 H   0  0  0  0  0  0  0  0  0  0  0  0
   18.1538   19.8951   23.0341 C   0  0  0  0  0  0  0  0  0  0  0  0
   18.2430   20.2315   21.9994 H   0  0  0  0  0  0  0  0  0  0  0  0
   17.2360   19.3164   23.1576 H   0  0  0  0  0  0  0  0  0  0  0  0
   18.1350   20.7607   23.6999 H   0  0  0  0  0  0  0  0  0  0  0  0
  1  2  1  0  0  0  0
  1  3  1  0  0  0  0
  1  4  1  0  0  0  0
  1  5  1  0  0  0  0
  5  6  1  0  0  0  0
  5  7  1  0  0  0  0
  5  8  1  0  0  0  0
  8  9  1  0  0  0  0
  8 10  1  0  0  0  0
  8 11  1  0  0  0  0
 11 12  1  0  0  0  0
 11 13  1  0  0  0  0
 11 14  1  0  0  0  0
 14 15  1  0  0  0  0
 14 16  1  0  0  0  0
 14 17  1  0  0  0  0
 17 18  1  0  0  0  0
 17 19  1  0  0  0  0
 17 20  1  0  0  0  0
M  END
> <VConfSearch Rank>
169

> <Conf_Id>
76

> <Delta U+W>
2.799

> <U+W>
18.137

> <U>
72.490

> <W>
-54.353

> <W(PB)>
-56.201

> <W(SA)>
1.848

> <Valence>
2.738

> <Coulomb>
69.795

> <VdW>
-0.043

> <VdW6>
-5.334

> <VdW12>
5.290

> <Bond>
0.182

> <Angle>
1.135

> <Pdih>
1.421

> <Idih>
0.000

> <Tether>
0.000

$$$$
VeraChem MOL file


 20 19  0  0  0  0  0  0  0  0999 V2000     
   22.2079   18.9618   21.9897 C   0  0  0  0  0  0  0  0  0  0  0  0
   21.8102   18.3161   21.1972 H   0  0  0  0  0  0  0  0  0  0  0  0
   22.5927   19.8775   21.5224 H   0  0  0  0  0  0  0  0  0  0  0  0
   23.0566   18.4386   22.4488 H   0  0  0  0  0  0  0  0  0  0  0  0
   21.1340   19.2905   23.0524 C   0  0  0  0  0  0  0  0  0  0  0  0
   21.6000   19.8766   23.8569 H   0  0  0  0  0  0  0  0  0  0  0  0
   20.7760   18.3673   23.5259 H   0  0  0  0  0  0  0  0  0  0  0  0
   19.9407   20.0950   22.4813 C   0  0  0  0  0  0  0  0  0  0  0  0
   19.2401   20.3313   23.2929 H   0  0  0  0  0  0  0  0  0  0  0  0
   20.3123   21.0609   22.1145 H   0  0  0  0  0  0  0  0  0  0  0  0
   19.1681   19.4073   21.3312 C   0  0  0  0  0  0  0  0  0  0  0  0
   19.8449   19.1524   20.5123 H   0  0  0  0  0  0  0  0  0  0  0  0
   18.4383   20.1232   20.9446 H   0  0  0  0  0  0  0  0  0  0  0  0
   18.3867   18.1602   21.7174 N   0  3  0  0  0  0  0  0  0  0  0  0
   17.5494   18.0857   21.1189 H   0  0  0  0  0  0  0  0  0  0  0  0
   18.0175   18.2502   22.6756 H   0  0  0  0  0  0  0  0  0  0  0  0
   19.2265   16.8969   21.5615 C   0  0  0  0  0  0  0  0  0  0  0  0
   18.6163   16.0287   21.8200 H   0  0  0  0  0  0  0  0  0  0  0  0
   19.5600   16.8146   20.5248 H   0  0  0  0  0  0  0  0  0  0  0  0
   20.0918   16.9452   22.2232 H   0  0  0  0  0  0  0  0  0  0  0  0
  1  2  1  0  0  0  0
  1  3  1  0  0  0  0
  1  4  1  0  0  0  0
  1  5  1  0  0  0  0
  5  6  1  0  0  0  0
  5  7  1  0  0  0  0
  5  8  1  0  0  0  0
  8  9  1  0  0  0  0
  8 10  1  0  0  0  0
  8 11  1  0  0  0  0
 11 12  1  0  0  0  0
 11 13  1  0  0  0  0
 11 14  1  0  0  0  0
 14 15  1  0  0  0  0
 14 16  1  0  0  0  0
 14 17  1  0  0  0  0
 17 18  1  0  0  0  0
 17 19  1  0  0  0  0
 17 20  1  0  0  0  0
M  END
> <VConfSearch Rank>
170

> <Conf_Id>
60

> <Delta U+W>
1.788

> <U+W>
17.127

> <U>
72.122

> <W>
-54.995

> <W(PB)>
-56.810

> <W(SA)>
1.815

> <Valence>
3.197

> <Coulomb>
69.115

> <VdW>
-0.190

> <VdW6>
-5.585

> <VdW12>
5.395

> <Bond>
0.177

> <Angle>
1.207

> <Pdih>
1.813

> <Idih>
0.000

> <Tether>
0.000

$$$$
VeraChem MOL file


 20 19  0  0  0  0  0  0  0  0999 V2000     
   19.7949   18.1593   19.9806 C   0  0  0  0  0  0  0  0  0  0  0  0
   19.6147   18.6626   19.0219 H   0  0  0  0  0  0  0  0  0  0  0  0
   19.9279   17.0890   19.7765 H   0  0  0  0  0  0  0  0  0  0  0  0
   18.8928   18.2798   20.5927 H   0  0  0  0  0  0  0  0  0  0  0  0
   21.0422   18.7502   20.6775 C   0  0  0  0  0  0  0  0  0  0  0  0
   20.9029   19.8245   20.8541 H   0  0  0  0  0  0  0  0  0  0  0  0
   21.9003   18.6692   19.9956 H   0  0  0  0  0  0  0  0  0  0  0  0
   21.3942   18.0324   22.0035 C   0  0  0  0  0  0  0  0  0  0  0  0
   21.6366   16.9847   21.7816 H   0  0  0  0  0  0  0  0  0  0  0  0
   22.3099   18.4705   22.4219 H   0  0  0  0  0  0  0  0  0  0  0  0
   20.2858   18.0529   23.0822 C   0  0  0  0  0  0  0  0  0  0  0  0
   20.6128   17.4170   23.9088 H   0  0  0  0  0  0  0  0  0  0  0  0
   19.3586   17.6300   22.6884 H   0  0  0  0  0  0  0  0  0  0  0  0
   19.9774   19.4166   23.6824 N   0  3  0  0  0  0  0  0  0  0  0  0
   20.8345   19.9867   23.7377 H   0  0  0  0  0  0  0  0  0  0  0  0
   19.6783   19.2959   24.6626 H   0  0  0  0  0  0  0  0  0  0  0  0
   18.8785   20.1381   22.9097 C   0  0  0  0  0  0  0  0  0  0  0  0
   17.9760   19.5232   22.9128 H   0  0  0  0  0  0  0  0  0  0  0  0
   18.6714   21.0951   23.3936 H   0  0  0  0  0  0  0  0  0  0  0  0
   19.2020   20.3107   21.8828 H   0  0  0  0  0  0  0  0  0  0  0  0
  1  2  1  0  0  0  0
  1  3  1  0  0  0  0
  1  4  1  0  0  0  0
  1  5  1  0  0  0  0
  5  6  1  0  0  0  0
  5  7  1  0  0  0  0
  5  8  1  0  0  0  0
  8  9  1  0  0  0  0
  8 10  1  0  0  0  0
  8 11  1  0  0  0  0
 11 12  1  0  0  0  0
 11 13  1  0  0  0  0
 11 14  1  0  0  0  0
 14 15  1  0  0  0  0
 14 16  1  0  0  0  0
 14 17  1  0  0  0  0
 17 18  1  0  0  0  0
 17 19  1  0  0  0  0
 17 20  1  0  0  0  0
M  END
> <VConfSearch Rank>
171

> <Conf_Id>
54

> <Delta U+W>
1.880

> <U+W>
17.218

> <U>
72.122

> <W>
-54.903

> <W(PB)>
-56.724

> <W(SA)>
1.821

> <Valence>
3.197

> <Coulomb>
69.115

> <VdW>
-0.190

> <VdW6>
-5.585

> <VdW12>
5.395

> <Bond>
0.177

> <Angle>
1.207

> <Pdih>
1.813

> <Idih>
0.000

> <Tether>
0.000

$$$$
VeraChem MOL file


 20 19  0  0  0  0  0  0  0  0999 V2000     
   17.9673   18.9165   24.4492 C   0  0  0  0  0  0  0  0  0  0  0  0
   17.0528   18.9925   23.8467 H   0  0  0  0  0  0  0  0  0  0  0  0
   17.7418   18.2946   25.3252 H   0  0  0  0  0  0  0  0  0  0  0  0
   18.2246   19.9216   24.8078 H   0  0  0  0  0  0  0  0  0  0  0  0
   19.1244   18.3052   23.6295 C   0  0  0  0  0  0  0  0  0  0  0  0
   18.8513   17.2880   23.3148 H   0  0  0  0  0  0  0  0  0  0  0  0
   20.0138   18.2099   24.2684 H   0  0  0  0  0  0  0  0  0  0  0  0
   19.4639   19.1603   22.3888 C   0  0  0  0  0  0  0  0  0  0  0  0
   18.5758   19.2521   21.7494 H   0  0  0  0  0  0  0  0  0  0  0  0
   19.7399   20.1753   22.7043 H   0  0  0  0  0  0  0  0  0  0  0  0
   20.6185   18.5444   21.5770 C   0  0  0  0  0  0  0  0  0  0  0  0
   20.3410   17.5397   21.2482 H   0  0  0  0  0  0  0  0  0  0  0  0
   21.5088   18.4661   22.2061 H   0  0  0  0  0  0  0  0  0  0  0  0
   20.9873   19.3510   20.3473 N   0  3  0  0  0  0  0  0  0  0  0  0
   21.2488   20.3119   20.6164 H   0  0  0  0  0  0  0  0  0  0  0  0
   20.1676   19.4542   19.7295 H   0  0  0  0  0  0  0  0  0  0  0  0
   22.1324   18.6741   19.6060 C   0  0  0  0  0  0  0  0  0  0  0  0
   21.8216   17.6725   19.3010 H   0  0  0  0  0  0  0  0  0  0  0  0
   22.3875   19.2650   18.7235 H   0  0  0  0  0  0  0  0  0  0  0  0
   22.9992   18.6069   20.2670 H   0  0  0  0  0  0  0  0  0  0  0  0
  1  2  1  0  0  0  0
  1  3  1  0  0  0  0
  1  4  1  0  0  0  0
  1  5  1  0  0  0  0
  5  6  1  0  0  0  0
  5  7  1  0  0  0  0
  5  8  1  0  0  0  0
  8  9  1  0  0  0  0
  8 10  1  0  0  0  0
  8 11  1  0  0  0  0
 11 12  1  0  0  0  0
 11 13  1  0  0  0  0
 11 14  1  0  0  0  0
 14 15  1  0  0  0  0
 14 16  1  0  0  0  0
 14 17  1  0  0  0  0
 17 18  1  0  0  0  0
 17 19  1  0  0  0  0
 17 20  1  0  0  0  0
M  END
> <VConfSearch Rank>
172

> <Conf_Id>
67

> <Delta U+W>
0.000

> <U+W>
15.338

> <U>
69.277

> <W>
-53.939

> <W(PB)>
-55.889

> <W(SA)>
1.950

> <Valence>
0.846

> <Coulomb>
68.557

> <VdW>
-0.127

> <VdW6>
-3.008

> <VdW12>
2.882

> <Bond>
0.088

> <Angle>
0.332

> <Pdih>
0.426

> <Idih>
0.000

> <Tether>
0.000

$$$$
VeraChem MOL file


 20 19  0  0  0  0  0  0  0  0999 V2000     
   18.6494   20.8938   20.2803 C   0  0  0  0  0  0  0  0  0  0  0  0
   19.5827   21.1123   19.7450 H   0  0  0  0  0  0  0  0  0  0  0  0
   17.8221   20.9863   19.5648 H   0  0  0  0  0  0  0  0  0  0  0  0
   18.5120   21.6603   21.0540 H   0  0  0  0  0  0  0  0  0  0  0  0
   18.6807   19.4790   20.8982 C   0  0  0  0  0  0  0  0  0  0  0  0
   18.7845   18.7330   20.0975 H   0  0  0  0  0  0  0  0  0  0  0  0
   17.7216   19.2768   21.3958 H   0  0  0  0  0  0  0  0  0  0  0  0
   19.8362   19.3195   21.9106 C   0  0  0  0  0  0  0  0  0  0  0  0
   20.7914   19.5224   21.4095 H   0  0  0  0  0  0  0  0  0  0  0  0
   19.7295   20.0621   22.7123 H   0  0  0  0  0  0  0  0  0  0  0  0
   19.8582   17.9039   22.5234 C   0  0  0  0  0  0  0  0  0  0  0  0
   20.0129   17.1613   21.7366 H   0  0  0  0  0  0  0  0  0  0  0  0
   18.8903   17.7047   22.9905 H   0  0  0  0  0  0  0  0  0  0  0  0
   20.9246   17.6903   23.5853 N   0  3  0  0  0  0  0  0  0  0  0  0
   20.7669   16.7851   24.0555 H   0  0  0  0  0  0  0  0  0  0  0  0
   20.8314   18.3953   24.3324 H   0  0  0  0  0  0  0  0  0  0  0  0
   22.3241   17.7220   22.9805 C   0  0  0  0  0  0  0  0  0  0  0  0
   22.5082   18.7053   22.5433 H   0  0  0  0  0  0  0  0  0  0  0  0
   23.0577   17.5276   23.7661 H   0  0  0  0  0  0  0  0  0  0  0  0
   22.3996   16.9532   22.2085 H   0  0  0  0  0  0  0  0  0  0  0  0
  1  2  1  0  0  0  0
  1  3  1  0  0  0  0
  1  4  1  0  0  0  0
  1  5  1  0  0  0  0
  5  6  1  0  0  0  0
  5  7  1  0  0  0  0
  5  8  1  0  0  0  0
  8  9  1  0  0  0  0
  8 10  1  0  0  0  0
  8 11  1  0  0  0  0
 11 12  1  0  0  0  0
 11 13  1  0  0  0  0
 11 14  1  0  0  0  0
 14 15  1  0  0  0  0
 14 16  1  0  0  0  0
 14 17  1  0  0  0  0
 17 18  1  0  0  0  0
 17 19  1  0  0  0  0
 17 20  1  0  0  0  0
M  END
> <VConfSearch Rank>
173

> <Conf_Id>
37

> <Delta U+W>
-0.021

> <U+W>
15.318

> <U>
69.657

> <W>
-54.340

> <W(PB)>
-56.238

> <W(SA)>
1.899

> <Valence>
1.137

> <Coulomb>
68.383

> <VdW>
0.138

> <VdW6>
-3.703

> <VdW12>
3.841

> <Bond>
0.125

> <Angle>
0.468

> <Pdih>
0.543

> <Idih>
0.000

> <Tether>
0.000

$$$$
VeraChem MOL file


 20 19  0  0  0  0  0  0  0  0999 V2000     
   21.1897   20.3803   19.7378 C   0  0  0  0  0  0  0  0  0  0  0  0
   21.5801   20.2760   18.7172 H   0  0  0  0  0  0  0  0  0  0  0  0
   20.2867   21.0029   19.6902 H   0  0  0  0  0  0  0  0  0  0  0  0
   21.9420   20.9147   20.3325 H   0  0  0  0  0  0  0  0  0  0  0  0
   20.8794   18.9960   20.3474 C   0  0  0  0  0  0  0  0  0  0  0  0
   21.7930   18.3848   20.3492 H   0  0  0  0  0  0  0  0  0  0  0  0
   20.1505   18.4725   19.7126 H   0  0  0  0  0  0  0  0  0  0  0  0
   20.3279   19.1119   21.7855 C   0  0  0  0  0  0  0  0  0  0  0  0
   21.0583   19.6311   22.4200 H   0  0  0  0  0  0  0  0  0  0  0  0
   19.4160   19.7229   21.7788 H   0  0  0  0  0  0  0  0  0  0  0  0
   20.0225   17.7242   22.3863 C   0  0  0  0  0  0  0  0  0  0  0  0
   20.9311   17.1174   22.3570 H   0  0  0  0  0  0  0  0  0  0  0  0
   19.2600   17.2201   21.7873 H   0  0  0  0  0  0  0  0  0  0  0  0
   19.5434   17.7504   23.8287 N   0  3  0  0  0  0  0  0  0  0  0  0
   20.2240   18.2485   24.4224 H   0  0  0  0  0  0  0  0  0  0  0  0
   19.5213   16.7886   24.2025 H   0  0  0  0  0  0  0  0  0  0  0  0
   18.1597   18.3814   23.9424 C   0  0  0  0  0  0  0  0  0  0  0  0
   17.4574   17.8222   23.3205 H   0  0  0  0  0  0  0  0  0  0  0  0
   17.8357   18.3472   24.9849 H   0  0  0  0  0  0  0  0  0  0  0  0
   18.2057   19.4194   23.6074 H   0  0  0  0  0  0  0  0  0  0  0  0
  1  2  1  0  0  0  0
  1  3  1  0  0  0  0
  1  4  1  0  0  0  0
  1  5  1  0  0  0  0
  5  6  1  0  0  0  0
  5  7  1  0  0  0  0
  5  8  1  0  0  0  0
  8  9  1  0  0  0  0
  8 10  1  0  0  0  0
  8 11  1  0  0  0  0
 11 12  1  0  0  0  0
 11 13  1  0  0  0  0
 11 14  1  0  0  0  0
 14 15  1  0  0  0  0
 14 16  1  0  0  0  0
 14 17  1  0  0  0  0
 17 18  1  0  0  0  0
 17 19  1  0  0  0  0
 17 20  1  0  0  0  0
M  END
> <VConfSearch Rank>
174

> <Conf_Id>
2

> <Delta U+W>
0.069

> <U+W>
15.407

> <U>
69.657

> <W>
-54.250

> <W(PB)>
-56.176

> <W(SA)>
1.926

> <Valence>
1.137

> <Coulomb>
68.383

> <VdW>
0.138

> <VdW6>
-3.703

> <VdW12>
3.841

> <Bond>
0.125

> <Angle>
0.468

> <Pdih>
0.543

> <Idih>
0.000

> <Tether>
0.000

$$$$
VeraChem MOL file


 20 19  0  0  0  0  0  0  0  0999 V2000     
   18.1104   17.4107   20.7286 C   0  0  0  0  0  0  0  0  0  0  0  0
   17.6871   18.2200   21.3369 H   0  0  0  0  0  0  0  0  0  0  0  0
   18.3395   17.8135   19.7334 H   0  0  0  0  0  0  0  0  0  0  0  0
   17.3323   16.6458   20.6088 H   0  0  0  0  0  0  0  0  0  0  0  0
   19.3705   16.8036   21.3871 C   0  0  0  0  0  0  0  0  0  0  0  0
   19.7042   15.9404   20.7943 H   0  0  0  0  0  0  0  0  0  0  0  0
   19.1153   16.4140   22.3828 H   0  0  0  0  0  0  0  0  0  0  0  0
   20.5367   17.8127   21.5055 C   0  0  0  0  0  0  0  0  0  0  0  0
   21.4176   17.2950   21.9079 H   0  0  0  0  0  0  0  0  0  0  0  0
   20.8133   18.1743   20.5062 H   0  0  0  0  0  0  0  0  0  0  0  0
   20.1958   19.0104   22.4135 C   0  0  0  0  0  0  0  0  0  0  0  0
   19.9228   18.6504   23.4086 H   0  0  0  0  0  0  0  0  0  0  0  0
   19.3442   19.5557   21.9997 H   0  0  0  0  0  0  0  0  0  0  0  0
   21.3408   19.9915   22.5709 N   0  3  0  0  0  0  0  0  0  0  0  0
   21.6344   20.3478   21.6485 H   0  0  0  0  0  0  0  0  0  0  0  0
   22.1700   19.5131   22.9553 H   0  0  0  0  0  0  0  0  0  0  0  0
   20.9196   21.1404   23.4774 C   0  0  0  0  0  0  0  0  0  0  0  0
   20.6463   20.7438   24.4576 H   0  0  0  0  0  0  0  0  0  0  0  0
   21.7528   21.8387   23.5822 H   0  0  0  0  0  0  0  0  0  0  0  0
   20.0632   21.6531   23.0342 H   0  0  0  0  0  0  0  0  0  0  0  0
  1  2  1  0  0  0  0
  1  3  1  0  0  0  0
  1  4  1  0  0  0  0
  1  5  1  0  0  0  0
  5  6  1  0  0  0  0
  5  7  1  0  0  0  0
  5  8  1  0  0  0  0
  8  9  1  0  0  0  0
  8 10  1  0  0  0  0
  8 11  1  0  0  0  0
 11 12  1  0  0  0  0
 11 13  1  0  0  0  0
 11 14  1  0  0  0  0
 14 15  1  0  0  0  0
 14 16  1  0  0  0  0
 14 17  1  0  0  0  0
 17 18  1  0  0  0  0
 17 19  1  0  0  0  0
 17 20  1  0  0  0  0
M  END
> <VConfSearch Rank>
175

> <Conf_Id>
34

> <Delta U+W>
0.276

> <U+W>
15.615

> <U>
69.798

> <W>
-54.184

> <W(PB)>
-56.116

> <W(SA)>
1.933

> <Valence>
1.134

> <Coulomb>
68.735

> <VdW>
-0.070

> <VdW6>
-3.565

> <VdW12>
3.494

> <Bond>
0.108

> <Angle>
0.456

> <Pdih>
0.569

> <Idih>
0.000

> <Tether>
0.000

$$$$
VeraChem MOL file


 20 19  0  0  0  0  0  0  0  0999 V2000     
   19.6543   17.3503   24.6471 C   0  0  0  0  0  0  0  0  0  0  0  0
   18.6586   17.5862   25.0446 H   0  0  0  0  0  0  0  0  0  0  0  0
   19.8360   16.2800   24.8102 H   0  0  0  0  0  0  0  0  0  0  0  0
   20.3965   17.9100   25.2312 H   0  0  0  0  0  0  0  0  0  0  0  0
   19.7511   17.6977   23.1458 C   0  0  0  0  0  0  0  0  0  0  0  0
   19.0188   17.0992   22.5856 H   0  0  0  0  0  0  0  0  0  0  0  0
   20.7446   17.4116   22.7749 H   0  0  0  0  0  0  0  0  0  0  0  0
   19.4993   19.2023   22.8891 C   0  0  0  0  0  0  0  0  0  0  0  0
   18.5198   19.4814   23.2999 H   0  0  0  0  0  0  0  0  0  0  0  0
   20.2450   19.8059   23.4235 H   0  0  0  0  0  0  0  0  0  0  0  0
   19.5200   19.5652   21.3907 C   0  0  0  0  0  0  0  0  0  0  0  0
   19.2483   20.6170   21.2700 H   0  0  0  0  0  0  0  0  0  0  0  0
   18.7833   18.9604   20.8560 H   0  0  0  0  0  0  0  0  0  0  0  0
   20.8672   19.3616   20.7232 N   0  3  0  0  0  0  0  0  0  0  0  0
   21.1628   18.3781   20.8118 H   0  0  0  0  0  0  0  0  0  0  0  0
   21.5917   19.9115   21.2098 H   0  0  0  0  0  0  0  0  0  0  0  0
   20.7865   19.7636   19.2567 C   0  0  0  0  0  0  0  0  0  0  0  0
   20.0378   19.1467   18.7550 H   0  0  0  0  0  0  0  0  0  0  0  0
   20.5046   20.8165   19.1872 H   0  0  0  0  0  0  0  0  0  0  0  0
   21.7618   19.6122   18.7888 H   0  0  0  0  0  0  0  0  0  0  0  0
  1  2  1  0  0  0  0
  1  3  1  0  0  0  0
  1  4  1  0  0  0  0
  1  5  1  0  0  0  0
  5  6  1  0  0  0  0
  5  7  1  0  0  0  0
  5  8  1  0  0  0  0
  8  9  1  0  0  0  0
  8 10  1  0  0  0  0
  8 11  1  0  0  0  0
 11 12  1  0  0  0  0
 11 13  1  0  0  0  0
 11 14  1  0  0  0  0
 14 15  1  0  0  0  0
 14 16  1  0  0  0  0
 14 17  1  0  0  0  0
 17 18  1  0  0  0  0
 17 19  1  0  0  0  0
 17 20  1  0  0  0  0
M  END
> <VConfSearch Rank>
176

> <Conf_Id>
50

> <Delta U+W>
0.319

> <U+W>
15.657

> <U>
69.962

> <W>
-54.305

> <W(PB)>
-56.223

> <W(SA)>
1.918

> <Valence>
0.982

> <Coulomb>
69.058

> <VdW>
-0.078

> <VdW6>
-3.548

> <VdW12>
3.471

> <Bond>
0.105

> <Angle>
0.408

> <Pdih>
0.469

> <Idih>
0.000

> <Tether>
0.000

$$$$
VeraChem MOL file


 20 19  0  0  0  0  0  0  0  0999 V2000     
   17.2356   17.7542   21.9668 C   0  0  0  0  0  0  0  0  0  0  0  0
   16.7432   17.2477   22.8071 H   0  0  0  0  0  0  0  0  0  0  0  0
   16.5588   18.5390   21.6047 H   0  0  0  0  0  0  0  0  0  0  0  0
   17.3678   17.0193   21.1621 H   0  0  0  0  0  0  0  0  0  0  0  0
   18.5916   18.3476   22.4062 C   0  0  0  0  0  0  0  0  0  0  0  0
   19.2255   17.5411   22.7989 H   0  0  0  0  0  0  0  0  0  0  0  0
   18.4292   19.0543   23.2324 H   0  0  0  0  0  0  0  0  0  0  0  0
   19.3068   19.0673   21.2384 C   0  0  0  0  0  0  0  0  0  0  0  0
   19.4977   18.3603   20.4202 H   0  0  0  0  0  0  0  0  0  0  0  0
   18.6455   19.8439   20.8316 H   0  0  0  0  0  0  0  0  0  0  0  0
   20.6313   19.7309   21.6661 C   0  0  0  0  0  0  0  0  0  0  0  0
   20.4443   20.4299   22.4852 H   0  0  0  0  0  0  0  0  0  0  0  0
   21.0408   20.2952   20.8244 H   0  0  0  0  0  0  0  0  0  0  0  0
   21.6963   18.7503   22.1203 N   0  3  0  0  0  0  0  0  0  0  0  0
   21.8917   18.0664   21.3733 H   0  0  0  0  0  0  0  0  0  0  0  0
   21.3516   18.1954   22.9177 H   0  0  0  0  0  0  0  0  0  0  0  0
   22.9648   19.5011   22.5024 C   0  0  0  0  0  0  0  0  0  0  0  0
   23.7221   18.7842   22.8272 H   0  0  0  0  0  0  0  0  0  0  0  0
   23.3304   20.0547   21.6348 H   0  0  0  0  0  0  0  0  0  0  0  0
   22.7414   20.1946   23.3160 H   0  0  0  0  0  0  0  0  0  0  0  0
  1  2  1  0  0  0  0
  1  3  1  0  0  0  0
  1  4  1  0  0  0  0
  1  5  1  0  0  0  0
  5  6  1  0  0  0  0
  5  7  1  0  0  0  0
  5  8  1  0  0  0  0
  8  9  1  0  0  0  0
  8 10  1  0  0  0  0
  8 11  1  0  0  0  0
 11 12  1  0  0  0  0
 11 13  1  0  0  0  0
 11 14  1  0  0  0  0
 14 15  1  0  0  0  0
 14 16  1  0  0  0  0
 14 17  1  0  0  0  0
 17 18  1  0  0  0  0
 17 19  1  0  0  0  0
 17 20  1  0  0  0  0
M  END
> <VConfSearch Rank>
177

> <Conf_Id>
35

> <Delta U+W>
0.360

> <U+W>
15.698

> <U>
69.962

> <W>
-54.264

> <W(PB)>
-56.166

> <W(SA)>
1.902

> <Valence>
0.982

> <Coulomb>
69.058

> <VdW>
-0.078

> <VdW6>
-3.548

> <VdW12>
3.471

> <Bond>
0.105

> <Angle>
0.408

> <Pdih>
0.469

> <Idih>
0.000

> <Tether>
0.000

$$$$
VeraChem MOL file


 20 19  0  0  0  0  0  0  0  0999 V2000     
   22.2674   19.1730   20.7747 C   0  0  0  0  0  0  0  0  0  0  0  0
   21.8792   20.1782   20.9818 H   0  0  0  0  0  0  0  0  0  0  0  0
   23.3428   19.2683   20.5759 H   0  0  0  0  0  0  0  0  0  0  0  0
   21.7892   18.8029   19.8585 H   0  0  0  0  0  0  0  0  0  0  0  0
   22.0182   18.2120   21.9598 C   0  0  0  0  0  0  0  0  0  0  0  0
   22.5021   18.6075   22.8640 H   0  0  0  0  0  0  0  0  0  0  0  0
   22.5016   17.2480   21.7476 H   0  0  0  0  0  0  0  0  0  0  0  0
   20.5156   17.9708   22.2356 C   0  0  0  0  0  0  0  0  0  0  0  0
   20.0459   17.5410   21.3416 H   0  0  0  0  0  0  0  0  0  0  0  0
   20.4141   17.2241   23.0342 H   0  0  0  0  0  0  0  0  0  0  0  0
   19.7753   19.2599   22.6523 C   0  0  0  0  0  0  0  0  0  0  0  0
   19.8109   19.9887   21.8391 H   0  0  0  0  0  0  0  0  0  0  0  0
   20.2805   19.6944   23.5187 H   0  0  0  0  0  0  0  0  0  0  0  0
   18.3177   19.0572   23.0327 N   0  3  0  0  0  0  0  0  0  0  0  0
   17.9462   19.9243   23.4514 H   0  0  0  0  0  0  0  0  0  0  0  0
   18.2380   18.3489   23.7782 H   0  0  0  0  0  0  0  0  0  0  0  0
   17.4784   18.6668   21.8209 C   0  0  0  0  0  0  0  0  0  0  0  0
   17.8361   17.7150   21.4233 H   0  0  0  0  0  0  0  0  0  0  0  0
   16.4344   18.5668   22.1261 H   0  0  0  0  0  0  0  0  0  0  0  0
   17.5657   19.4432   21.0579 H   0  0  0  0  0  0  0  0  0  0  0  0
  1  2  1  0  0  0  0
  1  3  1  0  0  0  0
  1  4  1  0  0  0  0
  1  5  1  0  0  0  0
  5  6  1  0  0  0  0
  5  7  1  0  0  0  0
  5  8  1  0  0  0  0
  8  9  1  0  0  0  0
  8 10  1  0  0  0  0
  8 11  1  0  0  0  0
 11 12  1  0  0  0  0
 11 13  1  0  0  0  0
 11 14  1  0  0  0  0
 14 15  1  0  0  0  0
 14 16  1  0  0  0  0
 14 17  1  0  0  0  0
 17 18  1  0  0  0  0
 17 19  1  0  0  0  0
 17 20  1  0  0  0  0
M  END
> <VConfSearch Rank>
178

> <Conf_Id>
33

> <Delta U+W>
0.372

> <U+W>
15.711

> <U>
70.163

> <W>
-54.452

> <W(PB)>
-56.363

> <W(SA)>
1.911

> <Valence>
1.420

> <Coulomb>
68.566

> <VdW>
0.177

> <VdW6>
-4.267

> <VdW12>
4.445

> <Bond>
0.146

> <Angle>
0.581

> <Pdih>
0.693

> <Idih>
0.000

> <Tether>
0.000

$$$$
VeraChem MOL file


 20 19  0  0  0  0  0  0  0  0999 V2000     
   20.6865   17.7911   24.2971 C   0  0  0  0  0  0  0  0  0  0  0  0
   20.8846   17.0499   25.0822 H   0  0  0  0  0  0  0  0  0  0  0  0
   21.6558   18.1334   23.9134 H   0  0  0  0  0  0  0  0  0  0  0  0
   20.1813   18.6465   24.7643 H   0  0  0  0  0  0  0  0  0  0  0  0
   19.8169   17.1753   23.1769 C   0  0  0  0  0  0  0  0  0  0  0  0
   18.8987   16.7650   23.6203 H   0  0  0  0  0  0  0  0  0  0  0  0
   20.3467   16.3258   22.7231 H   0  0  0  0  0  0  0  0  0  0  0  0
   19.4331   18.1963   22.0806 C   0  0  0  0  0  0  0  0  0  0  0  0
   18.7566   17.7132   21.3632 H   0  0  0  0  0  0  0  0  0  0  0  0
   18.8719   19.0235   22.5340 H   0  0  0  0  0  0  0  0  0  0  0  0
   20.6626   18.7447   21.3250 C   0  0  0  0  0  0  0  0  0  0  0  0
   21.2297   17.9054   20.9145 H   0  0  0  0  0  0  0  0  0  0  0  0
   21.3126   19.2867   22.0160 H   0  0  0  0  0  0  0  0  0  0  0  0
   20.3316   19.6756   20.1699 N   0  3  0  0  0  0  0  0  0  0  0  0
   19.6905   19.2111   19.5088 H   0  0  0  0  0  0  0  0  0  0  0  0
   21.1857   19.8632   19.6218 H   0  0  0  0  0  0  0  0  0  0  0  0
   19.7384   20.9886   20.6694 C   0  0  0  0  0  0  0  0  0  0  0  0
   19.5491   21.6432   19.8158 H   0  0  0  0  0  0  0  0  0  0  0  0
   18.8009   20.7877   21.1915 H   0  0  0  0  0  0  0  0  0  0  0  0
   20.4462   21.4670   21.3498 H   0  0  0  0  0  0  0  0  0  0  0  0
  1  2  1  0  0  0  0
  1  3  1  0  0  0  0
  1  4  1  0  0  0  0
  1  5  1  0  0  0  0
  5  6  1  0  0  0  0
  5  7  1  0  0  0  0
  5  8  1  0  0  0  0
  8  9  1  0  0  0  0
  8 10  1  0  0  0  0
  8 11  1  0  0  0  0
 11 12  1  0  0  0  0
 11 13  1  0  0  0  0
 11 14  1  0  0  0  0
 14 15  1  0  0  0  0
 14 16  1  0  0  0  0
 14 17  1  0  0  0  0
 17 18  1  0  0  0  0
 17 19  1  0  0  0  0
 17 20  1  0  0  0  0
M  END
> <VConfSearch Rank>
179

> <Conf_Id>
53

> <Delta U+W>
0.379

> <U+W>
15.717

> <U>
70.163

> <W>
-54.446

> <W(PB)>
-56.322

> <W(SA)>
1.876

> <Valence>
1.420

> <Coulomb>
68.566

> <VdW>
0.177

> <VdW6>
-4.267

> <VdW12>
4.445

> <Bond>
0.146

> <Angle>
0.581

> <Pdih>
0.693

> <Idih>
0.000

> <Tether>
0.000

$$$$
VeraChem MOL file


 20 19  0  0  0  0  0  0  0  0999 V2000     
   20.0669   20.1764   24.4419 C   0  0  0  0  0  0  0  0  0  0  0  0
   19.5742   21.1270   24.6841 H   0  0  0  0  0  0  0  0  0  0  0  0
   19.8914   19.4850   25.2763 H   0  0  0  0  0  0  0  0  0  0  0  0
   21.1464   20.3646   24.3755 H   0  0  0  0  0  0  0  0  0  0  0  0
   19.5205   19.6006   23.1175 C   0  0  0  0  0  0  0  0  0  0  0  0
   19.6788   20.3342   22.3154 H   0  0  0  0  0  0  0  0  0  0  0  0
   18.4348   19.4533   23.2045 H   0  0  0  0  0  0  0  0  0  0  0  0
   20.2009   18.2604   22.7520 C   0  0  0  0  0  0  0  0  0  0  0  0
   21.2826   18.4072   22.6372 H   0  0  0  0  0  0  0  0  0  0  0  0
   20.0730   17.5509   23.5803 H   0  0  0  0  0  0  0  0  0  0  0  0
   19.6192   17.6210   21.4716 C   0  0  0  0  0  0  0  0  0  0  0  0
   18.5541   17.4285   21.6237 H   0  0  0  0  0  0  0  0  0  0  0  0
   20.1096   16.6616   21.2883 H   0  0  0  0  0  0  0  0  0  0  0  0
   19.7543   18.4556   20.2067 N   0  3  0  0  0  0  0  0  0  0  0  0
   19.3061   19.3743   20.3371 H   0  0  0  0  0  0  0  0  0  0  0  0
   19.2260   18.0089   19.4408 H   0  0  0  0  0  0  0  0  0  0  0  0
   21.2156   18.6178   19.8027 C   0  0  0  0  0  0  0  0  0  0  0  0
   21.6586   17.6309   19.6527 H   0  0  0  0  0  0  0  0  0  0  0  0
   21.2687   19.1900   18.8739 H   0  0  0  0  0  0  0  0  0  0  0  0
   21.7523   19.1488   20.5913 H   0  0  0  0  0  0  0  0  0  0  0  0
  1  2  1  0  0  0  0
  1  3  1  0  0  0  0
  1  4  1  0  0  0  0
  1  5  1  0  0  0  0
  5  6  1  0  0  0  0
  5  7  1  0  0  0  0
  5  8  1  0  0  0  0
  8  9  1  0  0  0  0
  8 10  1  0  0  0  0
  8 11  1  0  0  0  0
 11 12  1  0  0  0  0
 11 13  1  0  0  0  0
 11 14  1  0  0  0  0
 14 15  1  0  0  0  0
 14 16  1  0  0  0  0
 14 17  1  0  0  0  0
 17 18  1  0  0  0  0
 17 19  1  0  0  0  0
 17 20  1  0  0  0  0
M  END
> <VConfSearch Rank>
180

> <Conf_Id>
49

> <Delta U+W>
0.268

> <U+W>
15.607

> <U>
70.298

> <W>
-54.692

> <W(PB)>
-56.576

> <W(SA)>
1.885

> <Valence>
1.245

> <Coulomb>
68.933

> <VdW>
0.120

> <VdW6>
-4.430

> <VdW12>
4.550

> <Bond>
0.148

> <Angle>
0.587

> <Pdih>
0.509

> <Idih>
0.000

> <Tether>
0.000

$$$$
VeraChem MOL file


 20 19  0  0  0  0  0  0  0  0999 V2000     
   18.2748   17.2638   20.4429 C   0  0  0  0  0  0  0  0  0  0  0  0
   17.5471   16.9433   21.1997 H   0  0  0  0  0  0  0  0  0  0  0  0
   17.7556   17.9070   19.7205 H   0  0  0  0  0  0  0  0  0  0  0  0
   18.6200   16.3693   19.9083 H   0  0  0  0  0  0  0  0  0  0  0  0
   19.4640   18.0035   21.0933 C   0  0  0  0  0  0  0  0  0  0  0  0
   20.1875   18.2866   20.3158 H   0  0  0  0  0  0  0  0  0  0  0  0
   19.9782   17.3149   21.7767 H   0  0  0  0  0  0  0  0  0  0  0  0
   19.0032   19.2632   21.8630 C   0  0  0  0  0  0  0  0  0  0  0  0
   18.3914   19.8861   21.1970 H   0  0  0  0  0  0  0  0  0  0  0  0
   18.3507   18.9712   22.6964 H   0  0  0  0  0  0  0  0  0  0  0  0
   20.1612   20.1354   22.3989 C   0  0  0  0  0  0  0  0  0  0  0  0
   19.7262   21.0237   22.8641 H   0  0  0  0  0  0  0  0  0  0  0  0
   20.7968   20.4707   21.5757 H   0  0  0  0  0  0  0  0  0  0  0  0
   21.0461   19.4810   23.4487 N   0  3  0  0  0  0  0  0  0  0  0  0
   20.4958   18.8291   24.0275 H   0  0  0  0  0  0  0  0  0  0  0  0
   21.3809   20.2008   24.1080 H   0  0  0  0  0  0  0  0  0  0  0  0
   22.2460   18.7868   22.8123 C   0  0  0  0  0  0  0  0  0  0  0  0
   22.8654   18.3516   23.5997 H   0  0  0  0  0  0  0  0  0  0  0  0
   21.9037   17.9998   22.1395 H   0  0  0  0  0  0  0  0  0  0  0  0
   22.8287   19.5214   22.2523 H   0  0  0  0  0  0  0  0  0  0  0  0
  1  2  1  0  0  0  0
  1  3  1  0  0  0  0
  1  4  1  0  0  0  0
  1  5  1  0  0  0  0
  5  6  1  0  0  0  0
  5  7  1  0  0  0  0
  5  8  1  0  0  0  0
  8  9  1  0  0  0  0
  8 10  1  0  0  0  0
  8 11  1  0  0  0  0
 11 12  1  0  0  0  0
 11 13  1  0  0  0  0
 11 14  1  0  0  0  0
 14 15  1  0  0  0  0
 14 16  1  0  0  0  0
 14 17  1  0  0  0  0
 17 18  1  0  0  0  0
 17 19  1  0  0  0  0
 17 20  1  0  0  0  0
M  END
> <VConfSearch Rank>
181

> <Conf_Id>
65

> <Delta U+W>
1.775

> <U+W>
17.114

> <U>
71.726

> <W>
-54.613

> <W(PB)>
-56.495

> <W(SA)>
1.883

> <Valence>
2.885

> <Coulomb>
68.822

> <VdW>
0.019

> <VdW6>
-4.600

> <VdW12>
4.619

> <Bond>
0.152

> <Angle>
0.862

> <Pdih>
1.871

> <Idih>
0.000

> <Tether>
0.000

$$$$
VeraChem MOL file


 20 19  0  0  0  0  0  0  0  0999 V2000     
   18.8764   20.7861   21.8381 C   0  0  0  0  0  0  0  0  0  0  0  0
   19.9340   20.8062   21.5465 H   0  0  0  0  0  0  0  0  0  0  0  0
   18.3202   21.3858   21.1060 H   0  0  0  0  0  0  0  0  0  0  0  0
   18.7810   21.2781   22.8148 H   0  0  0  0  0  0  0  0  0  0  0  0
   18.3258   19.3423   21.8868 C   0  0  0  0  0  0  0  0  0  0  0  0
   18.4316   18.8727   20.8995 H   0  0  0  0  0  0  0  0  0  0  0  0
   17.2463   19.3786   22.0902 H   0  0  0  0  0  0  0  0  0  0  0  0
   19.0076   18.4685   22.9692 C   0  0  0  0  0  0  0  0  0  0  0  0
   18.8042   18.8969   23.9596 H   0  0  0  0  0  0  0  0  0  0  0  0
   18.5538   17.4686   22.9700 H   0  0  0  0  0  0  0  0  0  0  0  0
   20.5348   18.3324   22.7958 C   0  0  0  0  0  0  0  0  0  0  0  0
   20.9400   17.7304   23.6131 H   0  0  0  0  0  0  0  0  0  0  0  0
   20.9997   19.3202   22.8403 H   0  0  0  0  0  0  0  0  0  0  0  0
   20.9511   17.6778   21.4924 N   0  3  0  0  0  0  0  0  0  0  0  0
   20.5802   18.2146   20.6943 H   0  0  0  0  0  0  0  0  0  0  0  0
   20.5283   16.7402   21.4145 H   0  0  0  0  0  0  0  0  0  0  0  0
   22.4692   17.5885   21.4166 C   0  0  0  0  0  0  0  0  0  0  0  0
   22.8365   16.9901   22.2532 H   0  0  0  0  0  0  0  0  0  0  0  0
   22.7544   17.1169   20.4736 H   0  0  0  0  0  0  0  0  0  0  0  0
   22.8920   18.5942   21.4680 H   0  0  0  0  0  0  0  0  0  0  0  0
  1  2  1  0  0  0  0
  1  3  1  0  0  0  0
  1  4  1  0  0  0  0
  1  5  1  0  0  0  0
  5  6  1  0  0  0  0
  5  7  1  0  0  0  0
  5  8  1  0  0  0  0
  8  9  1  0  0  0  0
  8 10  1  0  0  0  0
  8 11  1  0  0  0  0
 11 12  1  0  0  0  0
 11 13  1  0  0  0  0
 11 14  1  0  0  0  0
 14 15  1  0  0  0  0
 14 16  1  0  0  0  0
 14 17  1  0  0  0  0
 17 18  1  0  0  0  0
 17 19  1  0  0  0  0
 17 20  1  0  0  0  0
M  END
> <VConfSearch Rank>
182

> <Conf_Id>
23

> <Delta U+W>
0.896

> <U+W>
16.234

> <U>
70.374

> <W>
-54.140

> <W(PB)>
-56.046

> <W(SA)>
1.907

> <Valence>
1.257

> <Coulomb>
69.240

> <VdW>
-0.123

> <VdW6>
-4.336

> <VdW12>
4.213

> <Bond>
0.128

> <Angle>
0.603

> <Pdih>
0.526

> <Idih>
0.000

> <Tether>
0.000

$$$$
VeraChem MOL file


 20 19  0  0  0  0  0  0  0  0999 V2000     
   21.1961   18.3785   19.9476 C   0  0  0  0  0  0  0  0  0  0  0  0
   21.4544   17.3173   19.8371 H   0  0  0  0  0  0  0  0  0  0  0  0
   21.4783   18.8898   19.0181 H   0  0  0  0  0  0  0  0  0  0  0  0
   21.8096   18.7980   20.7549 H   0  0  0  0  0  0  0  0  0  0  0  0
   19.6862   18.5569   20.2276 C   0  0  0  0  0  0  0  0  0  0  0  0
   19.1175   18.2084   19.3540 H   0  0  0  0  0  0  0  0  0  0  0  0
   19.4533   19.6252   20.3332 H   0  0  0  0  0  0  0  0  0  0  0  0
   19.2045   17.7796   21.4781 C   0  0  0  0  0  0  0  0  0  0  0  0
   18.1235   17.9254   21.6043 H   0  0  0  0  0  0  0  0  0  0  0  0
   19.3502   16.7039   21.3126 H   0  0  0  0  0  0  0  0  0  0  0  0
   19.9259   18.1793   22.7822 C   0  0  0  0  0  0  0  0  0  0  0  0
   20.9979   17.9935   22.6815 H   0  0  0  0  0  0  0  0  0  0  0  0
   19.5519   17.5658   23.6058 H   0  0  0  0  0  0  0  0  0  0  0  0
   19.7376   19.6335   23.1698 N   0  3  0  0  0  0  0  0  0  0  0  0
   18.7337   19.8468   23.2731 H   0  0  0  0  0  0  0  0  0  0  0  0
   20.0731   20.2465   22.4121 H   0  0  0  0  0  0  0  0  0  0  0  0
   20.4832   19.9277   24.4644 C   0  0  0  0  0  0  0  0  0  0  0  0
   21.5469   19.7260   24.3209 H   0  0  0  0  0  0  0  0  0  0  0  0
   20.3400   20.9773   24.7305 H   0  0  0  0  0  0  0  0  0  0  0  0
   20.0900   19.2897   25.2589 H   0  0  0  0  0  0  0  0  0  0  0  0
  1  2  1  0  0  0  0
  1  3  1  0  0  0  0
  1  4  1  0  0  0  0
  1  5  1  0  0  0  0
  5  6  1  0  0  0  0
  5  7  1  0  0  0  0
  5  8  1  0  0  0  0
  8  9  1  0  0  0  0
  8 10  1  0  0  0  0
  8 11  1  0  0  0  0
 11 12  1  0  0  0  0
 11 13  1  0  0  0  0
 11 14  1  0  0  0  0
 14 15  1  0  0  0  0
 14 16  1  0  0  0  0
 14 17  1  0  0  0  0
 17 18  1  0  0  0  0
 17 19  1  0  0  0  0
 17 20  1  0  0  0  0
M  END
> <VConfSearch Rank>
183

> <Conf_Id>
24

> <Delta U+W>
0.792

> <U+W>
16.130

> <U>
70.374

> <W>
-54.243

> <W(PB)>
-56.130

> <W(SA)>
1.887

> <Valence>
1.257

> <Coulomb>
69.240

> <VdW>
-0.123

> <VdW6>
-4.336

> <VdW12>
4.213

> <Bond>
0.128

> <Angle>
0.603

> <Pdih>
0.526

> <Idih>
0.000

> <Tether>
0.000

$$$$
VeraChem MOL file


 20 19  0  0  0  0  0  0  0  0999 V2000     
   20.8567   16.8208   22.4229 C   0  0  0  0  0  0  0  0  0  0  0  0
   21.5426   16.0292   22.7517 H   0  0  0  0  0  0  0  0  0  0  0  0
   20.5799   17.3960   23.3143 H   0  0  0  0  0  0  0  0  0  0  0  0
   19.9586   16.3353   22.0192 H   0  0  0  0  0  0  0  0  0  0  0  0
   21.5393   17.7127   21.3608 C   0  0  0  0  0  0  0  0  0  0  0  0
   21.9849   17.0647   20.5929 H   0  0  0  0  0  0  0  0  0  0  0  0
   22.3761   18.2555   21.8224 H   0  0  0  0  0  0  0  0  0  0  0  0
   20.5898   18.7180   20.6603 C   0  0  0  0  0  0  0  0  0  0  0  0
   21.1648   19.2423   19.8855 H   0  0  0  0  0  0  0  0  0  0  0  0
   19.7899   18.1832   20.1313 H   0  0  0  0  0  0  0  0  0  0  0  0
   19.9828   19.7827   21.5984 C   0  0  0  0  0  0  0  0  0  0  0  0
   19.6523   20.6372   21.0024 H   0  0  0  0  0  0  0  0  0  0  0  0
   20.7435   20.1331   22.3005 H   0  0  0  0  0  0  0  0  0  0  0  0
   18.7806   19.3058   22.3911 N   0  3  0  0  0  0  0  0  0  0  0  0
   19.0265   18.4649   22.9324 H   0  0  0  0  0  0  0  0  0  0  0  0
   18.0285   19.0095   21.7504 H   0  0  0  0  0  0  0  0  0  0  0  0
   18.2915   20.4141   23.3135 C   0  0  0  0  0  0  0  0  0  0  0  0
   19.0928   20.6882   24.0031 H   0  0  0  0  0  0  0  0  0  0  0  0
   18.0072   21.2816   22.7140 H   0  0  0  0  0  0  0  0  0  0  0  0
   17.4268   20.0568   23.8770 H   0  0  0  0  0  0  0  0  0  0  0  0
  1  2  1  0  0  0  0
  1  3  1  0  0  0  0
  1  4  1  0  0  0  0
  1  5  1  0  0  0  0
  5  6  1  0  0  0  0
  5  7  1  0  0  0  0
  5  8  1  0  0  0  0
  8  9  1  0  0  0  0
  8 10  1  0  0  0  0
  8 11  1  0  0  0  0
 11 12  1  0  0  0  0
 11 13  1  0  0  0  0
 11 14  1  0  0  0  0
 14 15  1  0  0  0  0
 14 16  1  0  0  0  0
 14 17  1  0  0  0  0
 17 18  1  0  0  0  0
 17 19  1  0  0  0  0
 17 20  1  0  0  0  0
M  END
> <VConfSearch Rank>
184

> <Conf_Id>
26

> <Delta U+W>
2.888

> <U+W>
18.226

> <U>
72.042

> <W>
-53.816

> <W(PB)>
-55.689

> <W(SA)>
1.873

> <Valence>
2.428

> <Coulomb>
69.829

> <VdW>
-0.215

> <VdW6>
-4.563

> <VdW12>
4.348

> <Bond>
0.137

> <Angle>
0.936

> <Pdih>
1.356

> <Idih>
0.000

> <Tether>
0.000

$$$$
VeraChem MOL file


 20 19  0  0  0  0  0  0  0  0999 V2000     
   19.9201   20.2172   23.7733 C   0  0  0  0  0  0  0  0  0  0  0  0
   19.6262   21.0445   24.4324 H   0  0  0  0  0  0  0  0  0  0  0  0
   20.6833   19.6290   24.2991 H   0  0  0  0  0  0  0  0  0  0  0  0
   20.3693   20.6640   22.8785 H   0  0  0  0  0  0  0  0  0  0  0  0
   18.6888   19.3523   23.4191 C   0  0  0  0  0  0  0  0  0  0  0  0
   17.9885   19.9441   22.8130 H   0  0  0  0  0  0  0  0  0  0  0  0
   18.1540   19.1070   24.3475 H   0  0  0  0  0  0  0  0  0  0  0  0
   19.0236   18.0291   22.6844 C   0  0  0  0  0  0  0  0  0  0  0  0
   19.6631   17.3945   23.3122 H   0  0  0  0  0  0  0  0  0  0  0  0
   18.0872   17.4717   22.5486 H   0  0  0  0  0  0  0  0  0  0  0  0
   19.6669   18.2160   21.2939 C   0  0  0  0  0  0  0  0  0  0  0  0
   19.1732   19.0356   20.7658 H   0  0  0  0  0  0  0  0  0  0  0  0
   19.5264   17.3030   20.7097 H   0  0  0  0  0  0  0  0  0  0  0  0
   21.1577   18.4943   21.3266 N   0  3  0  0  0  0  0  0  0  0  0  0
   21.6541   17.7133   21.7822 H   0  0  0  0  0  0  0  0  0  0  0  0
   21.3493   19.3195   21.9122 H   0  0  0  0  0  0  0  0  0  0  0  0
   21.6793   18.7070   19.9120 C   0  0  0  0  0  0  0  0  0  0  0  0
   21.1632   19.5579   19.4622 H   0  0  0  0  0  0  0  0  0  0  0  0
   22.7525   18.9060   19.9513 H   0  0  0  0  0  0  0  0  0  0  0  0
   21.4932   17.8075   19.3211 H   0  0  0  0  0  0  0  0  0  0  0  0
  1  2  1  0  0  0  0
  1  3  1  0  0  0  0
  1  4  1  0  0  0  0
  1  5  1  0  0  0  0
  5  6  1  0  0  0  0
  5  7  1  0  0  0  0
  5  8  1  0  0  0  0
  8  9  1  0  0  0  0
  8 10  1  0  0  0  0
  8 11  1  0  0  0  0
 11 12  1  0  0  0  0
 11 13  1  0  0  0  0
 11 14  1  0  0  0  0
 14 15  1  0  0  0  0
 14 16  1  0  0  0  0
 14 17  1  0  0  0  0
 17 18  1  0  0  0  0
 17 19  1  0  0  0  0
 17 20  1  0  0  0  0
M  END
> <VConfSearch Rank>
185

> <Conf_Id>
5

> <Delta U+W>
2.950

> <U+W>
18.289

> <U>
72.042

> <W>
-53.753

> <W(PB)>
-55.644

> <W(SA)>
1.891

> <Valence>
2.428

> <Coulomb>
69.829

> <VdW>
-0.215

> <VdW6>
-4.563

> <VdW12>
4.348

> <Bond>
0.137

> <Angle>
0.936

> <Pdih>
1.356

> <Idih>
0.000

> <Tether>
0.000

$$$$
VeraChem MOL file


 20 19  0  0  0  0  0  0  0  0999 V2000     
   19.4567   16.5925   21.3181 C   0  0  0  0  0  0  0  0  0  0  0  0
   19.4634   15.8731   22.1473 H   0  0  0  0  0  0  0  0  0  0  0  0
   18.5298   17.1763   21.3792 H   0  0  0  0  0  0  0  0  0  0  0  0
   19.4271   16.0218   20.3809 H   0  0  0  0  0  0  0  0  0  0  0  0
   20.7069   17.5009   21.3607 C   0  0  0  0  0  0  0  0  0  0  0  0
   20.6801   18.2084   20.5208 H   0  0  0  0  0  0  0  0  0  0  0  0
   21.6027   16.8828   21.2073 H   0  0  0  0  0  0  0  0  0  0  0  0
   20.8541   18.2690   22.6977 C   0  0  0  0  0  0  0  0  0  0  0  0
   20.9755   17.5478   23.5167 H   0  0  0  0  0  0  0  0  0  0  0  0
   21.7784   18.8607   22.6780 H   0  0  0  0  0  0  0  0  0  0  0  0
   19.6583   19.1911   23.0281 C   0  0  0  0  0  0  0  0  0  0  0  0
   19.8388   19.6966   23.9801 H   0  0  0  0  0  0  0  0  0  0  0  0
   18.7588   18.5808   23.1397 H   0  0  0  0  0  0  0  0  0  0  0  0
   19.3573   20.2590   21.9877 N   0  3  0  0  0  0  0  0  0  0  0  0
   18.4689   20.7293   22.2216 H   0  0  0  0  0  0  0  0  0  0  0  0
   19.1941   19.8206   21.0694 H   0  0  0  0  0  0  0  0  0  0  0  0
   20.4821   21.2850   21.9062 C   0  0  0  0  0  0  0  0  0  0  0  0
   21.4039   20.7877   21.5980 H   0  0  0  0  0  0  0  0  0  0  0  0
   20.2161   22.0504   21.1739 H   0  0  0  0  0  0  0  0  0  0  0  0
   20.6198   21.7459   22.8866 H   0  0  0  0  0  0  0  0  0  0  0  0
  1  2  1  0  0  0  0
  1  3  1  0  0  0  0
  1  4  1  0  0  0  0
  1  5  1  0  0  0  0
  5  6  1  0  0  0  0
  5  7  1  0  0  0  0
  5  8  1  0  0  0  0
  8  9  1  0  0  0  0
  8 10  1  0  0  0  0
  8 11  1  0  0  0  0
 11 12  1  0  0  0  0
 11 13  1  0  0  0  0
 11 14  1  0  0  0  0
 14 15  1  0  0  0  0
 14 16  1  0  0  0  0
 14 17  1  0  0  0  0
 17 18  1  0  0  0  0
 17 19  1  0  0  0  0
 17 20  1  0  0  0  0
M  END
> <VConfSearch Rank>
186

> <Conf_Id>
52

> <Delta U+W>
0.784

> <U+W>
16.122

> <U>
70.777

> <W>
-54.655

> <W(PB)>
-56.491

> <W(SA)>
1.836

> <Valence>
1.529

> <Coulomb>
69.166

> <VdW>
0.082

> <VdW6>
-5.166

> <VdW12>
5.248

> <Bond>
0.171

> <Angle>
0.752

> <Pdih>
0.605

> <Idih>
0.000

> <Tether>
0.000

$$$$
VeraChem MOL file


 20 19  0  0  0  0  0  0  0  0999 V2000     
   19.2764   18.6548   20.0861 C   0  0  0  0  0  0  0  0  0  0  0  0
   18.7670   18.6599   19.1136 H   0  0  0  0  0  0  0  0  0  0  0  0
   20.2182   19.2003   19.9570 H   0  0  0  0  0  0  0  0  0  0  0  0
   19.5025   17.6104   20.3378 H   0  0  0  0  0  0  0  0  0  0  0  0
   18.3816   19.3112   21.1622 C   0  0  0  0  0  0  0  0  0  0  0  0
   17.3738   18.8788   21.0888 H   0  0  0  0  0  0  0  0  0  0  0  0
   18.2688   20.3822   20.9429 H   0  0  0  0  0  0  0  0  0  0  0  0
   18.8853   19.1250   22.6163 C   0  0  0  0  0  0  0  0  0  0  0  0
   18.1282   19.5463   23.2908 H   0  0  0  0  0  0  0  0  0  0  0  0
   18.9427   18.0578   22.8645 H   0  0  0  0  0  0  0  0  0  0  0  0
   20.2284   19.8261   22.9265 C   0  0  0  0  0  0  0  0  0  0  0  0
   20.3373   19.9317   24.0088 H   0  0  0  0  0  0  0  0  0  0  0  0
   20.2151   20.8295   22.4936 H   0  0  0  0  0  0  0  0  0  0  0  0
   21.4758   19.1169   22.4228 N   0  3  0  0  0  0  0  0  0  0  0  0
   22.2891   19.7465   22.5077 H   0  0  0  0  0  0  0  0  0  0  0  0
   21.3887   18.9218   21.4158 H   0  0  0  0  0  0  0  0  0  0  0  0
   21.7336   17.8316   23.2015 C   0  0  0  0  0  0  0  0  0  0  0  0
   21.8368   18.0689   24.2624 H   0  0  0  0  0  0  0  0  0  0  0  0
   20.8980   17.1445   23.0554 H   0  0  0  0  0  0  0  0  0  0  0  0
   22.6543   17.3710   22.8366 H   0  0  0  0  0  0  0  0  0  0  0  0
  1  2  1  0  0  0  0
  1  3  1  0  0  0  0
  1  4  1  0  0  0  0
  1  5  1  0  0  0  0
  5  6  1  0  0  0  0
  5  7  1  0  0  0  0
  5  8  1  0  0  0  0
  8  9  1  0  0  0  0
  8 10  1  0  0  0  0
  8 11  1  0  0  0  0
 11 12  1  0  0  0  0
 11 13  1  0  0  0  0
 11 14  1  0  0  0  0
 14 15  1  0  0  0  0
 14 16  1  0  0  0  0
 14 17  1  0  0  0  0
 17 18  1  0  0  0  0
 17 19  1  0  0  0  0
 17 20  1  0  0  0  0
M  END
> <VConfSearch Rank>
187

> <Conf_Id>
55

> <Delta U+W>
2.745

> <U+W>
18.083

> <U>
72.490

> <W>
-54.407

> <W(PB)>
-56.269

> <W(SA)>
1.861

> <Valence>
2.738

> <Coulomb>
69.795

> <VdW>
-0.043

> <VdW6>
-5.333

> <VdW12>
5.290

> <Bond>
0.182

> <Angle>
1.135

> <Pdih>
1.422

> <Idih>
0.000

> <Tether>
0.000

$$$$
VeraChem MOL file


 20 19  0  0  0  0  0  0  0  0999 V2000     
   19.7886   17.4194   20.4730 C   0  0  0  0  0  0  0  0  0  0  0  0
   19.7688   16.8158   19.5562 H   0  0  0  0  0  0  0  0  0  0  0  0
   20.0424   16.7509   21.3061 H   0  0  0  0  0  0  0  0  0  0  0  0
   18.7740   17.8052   20.6243 H   0  0  0  0  0  0  0  0  0  0  0  0
   20.8183   18.5643   20.3376 C   0  0  0  0  0  0  0  0  0  0  0  0
   20.4765   19.2776   19.5744 H   0  0  0  0  0  0  0  0  0  0  0  0
   21.7602   18.1431   19.9588 H   0  0  0  0  0  0  0  0  0  0  0  0
   21.1192   19.3164   21.6592 C   0  0  0  0  0  0  0  0  0  0  0  0
   21.5189   18.6219   22.4088 H   0  0  0  0  0  0  0  0  0  0  0  0
   21.9252   20.0351   21.4609 H   0  0  0  0  0  0  0  0  0  0  0  0
   19.9216   20.1060   22.2370 C   0  0  0  0  0  0  0  0  0  0  0  0
   19.4212   20.6395   21.4249 H   0  0  0  0  0  0  0  0  0  0  0  0
   20.2907   20.8506   22.9468 H   0  0  0  0  0  0  0  0  0  0  0  0
   18.8749   19.2788   22.9667 N   0  3  0  0  0  0  0  0  0  0  0  0
   18.5499   18.5096   22.3645 H   0  0  0  0  0  0  0  0  0  0  0  0
   18.0386   19.8573   23.1428 H   0  0  0  0  0  0  0  0  0  0  0  0
   19.4173   18.7394   24.2857 C   0  0  0  0  0  0  0  0  0  0  0  0
   20.2623   18.0774   24.0875 H   0  0  0  0  0  0  0  0  0  0  0  0
   19.7402   19.5753   24.9099 H   0  0  0  0  0  0  0  0  0  0  0  0
   18.6281   18.1829   24.7961 H   0  0  0  0  0  0  0  0  0  0  0  0
  1  2  1  0  0  0  0
  1  3  1  0  0  0  0
  1  4  1  0  0  0  0
  1  5  1  0  0  0  0
  5  6  1  0  0  0  0
  5  7  1  0  0  0  0
  5  8  1  0  0  0  0
  8  9  1  0  0  0  0
  8 10  1  0  0  0  0
  8 11  1  0  0  0  0
 11 12  1  0  0  0  0
 11 13  1  0  0  0  0
 11 14  1  0  0  0  0
 14 15  1  0  0  0  0
 14 16  1  0  0  0  0
 14 17  1  0  0  0  0
 17 18  1  0  0  0  0
 17 19  1  0  0  0  0
 17 20  1  0  0  0  0
M  END
> <VConfSearch Rank>
188

> <Conf_Id>
76

> <Delta U+W>
2.799

> <U+W>
18.137

> <U>
72.490

> <W>
-54.353

> <W(PB)>
-56.201

> <W(SA)>
1.848

> <Valence>
2.738

> <Coulomb>
69.795

> <VdW>
-0.043

> <VdW6>
-5.334

> <VdW12>
5.290

> <Bond>
0.182

> <Angle>
1.135

> <Pdih>
1.421

> <Idih>
0.000

> <Tether>
0.000

$$$$
VeraChem MOL file


 20 19  0  0  0  0  0  0  0  0999 V2000     
   19.4292   18.4879   24.0238 C   0  0  0  0  0  0  0  0  0  0  0  0
   18.8855   19.2461   23.4470 H   0  0  0  0  0  0  0  0  0  0  0  0
   18.7442   17.6529   24.2199 H   0  0  0  0  0  0  0  0  0  0  0  0
   19.6967   18.9349   24.9899 H   0  0  0  0  0  0  0  0  0  0  0  0
   20.6957   18.0035   23.2808 C   0  0  0  0  0  0  0  0  0  0  0  0
   21.2398   17.3023   23.9290 H   0  0  0  0  0  0  0  0  0  0  0  0
   21.3799   18.8450   23.1124 H   0  0  0  0  0  0  0  0  0  0  0  0
   20.3801   17.2955   21.9405 C   0  0  0  0  0  0  0  0  0  0  0  0
   21.3153   16.9400   21.4883 H   0  0  0  0  0  0  0  0  0  0  0  0
   19.7868   16.3957   22.1502 H   0  0  0  0  0  0  0  0  0  0  0  0
   19.6111   18.1497   20.9053 C   0  0  0  0  0  0  0  0  0  0  0  0
   18.6785   18.5247   21.3334 H   0  0  0  0  0  0  0  0  0  0  0  0
   19.3504   17.5010   20.0651 H   0  0  0  0  0  0  0  0  0  0  0  0
   20.3806   19.3249   20.3208 N   0  3  0  0  0  0  0  0  0  0  0  0
   20.0641   19.4896   19.3525 H   0  0  0  0  0  0  0  0  0  0  0  0
   21.3809   19.0916   20.2339 H   0  0  0  0  0  0  0  0  0  0  0  0
   20.1749   20.5965   21.1370 C   0  0  0  0  0  0  0  0  0  0  0  0
   20.7198   21.4162   20.6637 H   0  0  0  0  0  0  0  0  0  0  0  0
   19.1094   20.8340   21.1670 H   0  0  0  0  0  0  0  0  0  0  0  0
   20.5472   20.4481   22.1511 H   0  0  0  0  0  0  0  0  0  0  0  0
  1  2  1  0  0  0  0
  1  3  1  0  0  0  0
  1  4  1  0  0  0  0
  1  5  1  0  0  0  0
  5  6  1  0  0  0  0
  5  7  1  0  0  0  0
  5  8  1  0  0  0  0
  8  9  1  0  0  0  0
  8 10  1  0  0  0  0
  8 11  1  0  0  0  0
 11 12  1  0  0  0  0
 11 13  1  0  0  0  0
 11 14  1  0  0  0  0
 14 15  1  0  0  0  0
 14 16  1  0  0  0  0
 14 17  1  0  0  0  0
 17 18  1  0  0  0  0
 17 19  1  0  0  0  0
 17 20  1  0  0  0  0
M  END
> <VConfSearch Rank>
189

> <Conf_Id>
60

> <Delta U+W>
1.788

> <U+W>
17.127

> <U>
72.122

> <W>
-54.995

> <W(PB)>
-56.810

> <W(SA)>
1.815

> <Valence>
3.197

> <Coulomb>
69.115

> <VdW>
-0.190

> <VdW6>
-5.585

> <VdW12>
5.395

> <Bond>
0.177

> <Angle>
1.207

> <Pdih>
1.813

> <Idih>
0.000

> <Tether>
0.000

$$$$
VeraChem MOL file


 20 19  0  0  0  0  0  0  0  0999 V2000     
   19.4114   20.7520   22.4472 C   0  0  0  0  0  0  0  0  0  0  0  0
   18.4300   21.2436   22.4380 H   0  0  0  0  0  0  0  0  0  0  0  0
   20.1274   21.4435   22.9098 H   0  0  0  0  0  0  0  0  0  0  0  0
   19.7136   20.5961   21.4044 H   0  0  0  0  0  0  0  0  0  0  0  0
   19.3433   19.4195   23.2284 C   0  0  0  0  0  0  0  0  0  0  0  0
   18.6073   18.7483   22.7671 H   0  0  0  0  0  0  0  0  0  0  0  0
   18.9681   19.6218   24.2414 H   0  0  0  0  0  0  0  0  0  0  0  0
   20.7153   18.7107   23.3410 C   0  0  0  0  0  0  0  0  0  0  0  0
   21.3999   19.3592   23.9035 H   0  0  0  0  0  0  0  0  0  0  0  0
   20.6046   17.7981   23.9413 H   0  0  0  0  0  0  0  0  0  0  0  0
   21.3877   18.3516   21.9951 C   0  0  0  0  0  0  0  0  0  0  0  0
   22.3891   17.9718   22.2132 H   0  0  0  0  0  0  0  0  0  0  0  0
   21.5017   19.2423   21.3729 H   0  0  0  0  0  0  0  0  0  0  0  0
   20.6876   17.2773   21.1761 N   0  3  0  0  0  0  0  0  0  0  0  0
   20.2513   16.5797   21.7971 H   0  0  0  0  0  0  0  0  0  0  0  0
   21.3916   16.7474   20.6392 H   0  0  0  0  0  0  0  0  0  0  0  0
   19.6700   17.8765   20.2112 C   0  0  0  0  0  0  0  0  0  0  0  0
   20.1786   18.5743   19.5427 H   0  0  0  0  0  0  0  0  0  0  0  0
   19.2170   17.0730   19.6263 H   0  0  0  0  0  0  0  0  0  0  0  0
   18.8957   18.4018   20.7710 H   0  0  0  0  0  0  0  0  0  0  0  0
  1  2  1  0  0  0  0
  1  3  1  0  0  0  0
  1  4  1  0  0  0  0
  1  5  1  0  0  0  0
  5  6  1  0  0  0  0
  5  7  1  0  0  0  0
  5  8  1  0  0  0  0
  8  9  1  0  0  0  0
  8 10  1  0  0  0  0
  8 11  1  0  0  0  0
 11 12  1  0  0  0  0
 11 13  1  0  0  0  0
 11 14  1  0  0  0  0
 14 15  1  0  0  0  0
 14 16  1  0  0  0  0
 14 17  1  0  0  0  0
 17 18  1  0  0  0  0
 17 19  1  0  0  0  0
 17 20  1  0  0  0  0
M  END
> <VConfSearch Rank>
190

> <Conf_Id>
54

> <Delta U+W>
1.880

> <U+W>
17.218

> <U>
72.122

> <W>
-54.903

> <W(PB)>
-56.724

> <W(SA)>
1.821

> <Valence>
3.197

> <Coulomb>
69.115

> <VdW>
-0.190

> <VdW6>
-5.585

> <VdW12>
5.395

> <Bond>
0.177

> <Angle>
1.207

> <Pdih>
1.813

> <Idih>
0.000

> <Tether>
0.000

$$$$
VeraChem MOL file


 20 19  0  0  0  0  0  0  0  0999 V2000     
   21.4185   21.4845   20.8492 C   0  0  0  0  0  0  0  0  0  0  0  0
   20.7898   21.5841   19.9548 H   0  0  0  0  0  0  0  0  0  0  0  0
   21.6326   22.4940   21.2235 H   0  0  0  0  0  0  0  0  0  0  0  0
   22.3707   21.0287   20.5483 H   0  0  0  0  0  0  0  0  0  0  0  0
   20.7147   20.6388   21.9326 C   0  0  0  0  0  0  0  0  0  0  0  0
   19.7838   21.1377   22.2377 H   0  0  0  0  0  0  0  0  0  0  0  0
   21.3524   20.5865   22.8264 H   0  0  0  0  0  0  0  0  0  0  0  0
   20.4006   19.2114   21.4332 C   0  0  0  0  0  0  0  0  0  0  0  0
   19.7606   19.2644   20.5423 H   0  0  0  0  0  0  0  0  0  0  0  0
   21.3314   18.7126   21.1317 H   0  0  0  0  0  0  0  0  0  0  0  0
   19.6991   18.3745   22.5190 C   0  0  0  0  0  0  0  0  0  0  0  0
   18.7644   18.8603   22.8103 H   0  0  0  0  0  0  0  0  0  0  0  0
   20.3402   18.3065   23.4015 H   0  0  0  0  0  0  0  0  0  0  0  0
   19.3705   16.9632   22.0729 N   0  3  0  0  0  0  0  0  0  0  0  0
   20.2296   16.4722   21.7814 H   0  0  0  0  0  0  0  0  0  0  0  0
   18.7706   16.9849   21.2340 H   0  0  0  0  0  0  0  0  0  0  0  0
   18.6817   16.2084   23.2021 C   0  0  0  0  0  0  0  0  0  0  0  0
   17.7585   16.7265   23.4706 H   0  0  0  0  0  0  0  0  0  0  0  0
   18.4509   15.1946   22.8675 H   0  0  0  0  0  0  0  0  0  0  0  0
   19.3477   16.1680   24.0668 H   0  0  0  0  0  0  0  0  0  0  0  0
  1  2  1  0  0  0  0
  1  3  1  0  0  0  0
  1  4  1  0  0  0  0
  1  5  1  0  0  0  0
  5  6  1  0  0  0  0
  5  7  1  0  0  0  0
  5  8  1  0  0  0  0
  8  9  1  0  0  0  0
  8 10  1  0  0  0  0
  8 11  1  0  0  0  0
 11 12  1  0  0  0  0
 11 13  1  0  0  0  0
 11 14  1  0  0  0  0
 14 15  1  0  0  0  0
 14 16  1  0  0  0  0
 14 17  1  0  0  0  0
 17 18  1  0  0  0  0
 17 19  1  0  0  0  0
 17 20  1  0  0  0  0
M  END
> <VConfSearch Rank>
191

> <Conf_Id>
67

> <Delta U+W>
0.000

> <U+W>
15.338

> <U>
69.277

> <W>
-53.939

> <W(PB)>
-55.889

> <W(SA)>
1.950

> <Valence>
0.846

> <Coulomb>
68.557

> <VdW>
-0.127

> <VdW6>
-3.008

> <VdW12>
2.882

> <Bond>
0.088

> <Angle>
0.332

> <Pdih>
0.426

> <Idih>
0.000

> <Tether>
0.000

$$$$
VeraChem MOL file


 20 19  0  0  0  0  0  0  0  0999 V2000     
   17.8052   18.4485   20.0773 C   0  0  0  0  0  0  0  0  0  0  0  0
   18.0144   17.3709   20.0625 H   0  0  0  0  0  0  0  0  0  0  0  0
   16.7195   18.5813   19.9834 H   0  0  0  0  0  0  0  0  0  0  0  0
   18.2766   18.9001   19.1947 H   0  0  0  0  0  0  0  0  0  0  0  0
   18.3238   19.0981   21.3786 C   0  0  0  0  0  0  0  0  0  0  0  0
   17.8094   18.6500   22.2406 H   0  0  0  0  0  0  0  0  0  0  0  0
   18.0688   20.1674   21.3796 H   0  0  0  0  0  0  0  0  0  0  0  0
   19.8506   18.9269   21.5374 C   0  0  0  0  0  0  0  0  0  0  0  0
   20.1004   17.8581   21.5358 H   0  0  0  0  0  0  0  0  0  0  0  0
   20.3639   19.3785   20.6782 H   0  0  0  0  0  0  0  0  0  0  0  0
   20.3592   19.5803   22.8391 C   0  0  0  0  0  0  0  0  0  0  0  0
   19.8889   19.1029   23.7024 H   0  0  0  0  0  0  0  0  0  0  0  0
   20.0754   20.6358   22.8404 H   0  0  0  0  0  0  0  0  0  0  0  0
   21.8657   19.5174   23.0323 N   0  3  0  0  0  0  0  0  0  0  0  0
   22.1363   20.1127   23.8308 H   0  0  0  0  0  0  0  0  0  0  0  0
   22.3478   19.9311   22.2197 H   0  0  0  0  0  0  0  0  0  0  0  0
   22.3352   18.0864   23.2715 C   0  0  0  0  0  0  0  0  0  0  0  0
   22.1049   17.4777   22.3949 H   0  0  0  0  0  0  0  0  0  0  0  0
   23.4139   18.0879   23.4428 H   0  0  0  0  0  0  0  0  0  0  0  0
   21.8242   17.6822   24.1479 H   0  0  0  0  0  0  0  0  0  0  0  0
  1  2  1  0  0  0  0
  1  3  1  0  0  0  0
  1  4  1  0  0  0  0
  1  5  1  0  0  0  0
  5  6  1  0  0  0  0
  5  7  1  0  0  0  0
  5  8  1  0  0  0  0
  8  9  1  0  0  0  0
  8 10  1  0  0  0  0
  8 11  1  0  0  0  0
 11 12  1  0  0  0  0
 11 13  1  0  0  0  0
 11 14  1  0  0  0  0
 14 15  1  0  0  0  0
 14 16  1  0  0  0  0
 14 17  1  0  0  0  0
 17 18  1  0  0  0  0
 17 19  1  0  0  0  0
 17 20  1  0  0  0  0
M  END
> <VConfSearch Rank>
192

> <Conf_Id>
37

> <Delta U+W>
-0.021

> <U+W>
15.318

> <U>
69.657

> <W>
-54.340

> <W(PB)>
-56.238

> <W(SA)>
1.899

> <Valence>
1.137

> <Coulomb>
68.383

> <VdW>
0.138

> <VdW6>
-3.703

> <VdW12>
3.841

> <Bond>
0.125

> <Angle>
0.468

> <Pdih>
0.543

> <Idih>
0.000

> <Tether>
0.000

$$$$
VeraChem MOL file


 20 19  0  0  0  0  0  0  0  0999 V2000     
   20.4431   15.8663   22.5403 C   0  0  0  0  0  0  0  0  0  0  0  0
   21.1971   15.1672   22.9248 H   0  0  0  0  0  0  0  0  0  0  0  0
   19.5940   15.8610   23.2362 H   0  0  0  0  0  0  0  0  0  0  0  0
   20.0936   15.4846   21.5722 H   0  0  0  0  0  0  0  0  0  0  0  0
   21.0367   17.2846   22.3976 C   0  0  0  0  0  0  0  0  0  0  0  0
   21.9045   17.2510   21.7238 H   0  0  0  0  0  0  0  0  0  0  0  0
   21.4083   17.6250   23.3745 H   0  0  0  0  0  0  0  0  0  0  0  0
   19.9969   18.2910   21.8574 C   0  0  0  0  0  0  0  0  0  0  0  0
   19.6293   17.9526   20.8796 H   0  0  0  0  0  0  0  0  0  0  0  0
   19.1325   18.3211   22.5331 H   0  0  0  0  0  0  0  0  0  0  0  0
   20.5995   19.7041   21.7169 C   0  0  0  0  0  0  0  0  0  0  0  0
   21.4771   19.6524   21.0673 H   0  0  0  0  0  0  0  0  0  0  0  0
   20.9240   20.0682   22.6949 H   0  0  0  0  0  0  0  0  0  0  0  0
   19.6573   20.7377   21.1214 N   0  3  0  0  0  0  0  0  0  0  0  0
   19.3029   20.4143   20.2084 H   0  0  0  0  0  0  0  0  0  0  0  0
   20.1815   21.6014   20.9101 H   0  0  0  0  0  0  0  0  0  0  0  0
   18.5057   21.0509   22.0707 C   0  0  0  0  0  0  0  0  0  0  0  0
   18.9097   21.4096   23.0199 H   0  0  0  0  0  0  0  0  0  0  0  0
   17.8744   21.8226   21.6248 H   0  0  0  0  0  0  0  0  0  0  0  0
   17.9164   20.1470   22.2369 H   0  0  0  0  0  0  0  0  0  0  0  0
  1  2  1  0  0  0  0
  1  3  1  0  0  0  0
  1  4  1  0  0  0  0
  1  5  1  0  0  0  0
  5  6  1  0  0  0  0
  5  7  1  0  0  0  0
  5  8  1  0  0  0  0
  8  9  1  0  0  0  0
  8 10  1  0  0  0  0
  8 11  1  0  0  0  0
 11 12  1  0  0  0  0
 11 13  1  0  0  0  0
 11 14  1  0  0  0  0
 14 15  1  0  0  0  0
 14 16  1  0  0  0  0
 14 17  1  0  0  0  0
 17 18  1  0  0  0  0
 17 19  1  0  0  0  0
 17 20  1  0  0  0  0
M  END
> <VConfSearch Rank>
193

> <Conf_Id>
2

> <Delta U+W>
0.069

> <U+W>
15.407

> <U>
69.657

> <W>
-54.250

> <W(PB)>
-56.176

> <W(SA)>
1.926

> <Valence>
1.137

> <Coulomb>
68.383

> <VdW>
0.138

> <VdW6>
-3.703

> <VdW12>
3.841

> <Bond>
0.125

> <Angle>
0.468

> <Pdih>
0.543

> <Idih>
0.000

> <Tether>
0.000

$$$$
VeraChem MOL file


 20 19  0  0  0  0  0  0  0  0999 V2000     
   22.2430   18.1128   20.6914 C   0  0  0  0  0  0  0  0  0  0  0  0
   22.4355   18.2011   21.7681 H   0  0  0  0  0  0  0  0  0  0  0  0
   21.9578   17.0744   20.4781 H   0  0  0  0  0  0  0  0  0  0  0  0
   23.1873   18.3142   20.1692 H   0  0  0  0  0  0  0  0  0  0  0  0
   21.1459   19.0981   20.2271 C   0  0  0  0  0  0  0  0  0  0  0  0
   21.0528   19.0414   19.1334 H   0  0  0  0  0  0  0  0  0  0  0  0
   21.4532   20.1280   20.4576 H   0  0  0  0  0  0  0  0  0  0  0  0
   19.7661   18.8109   20.8642 C   0  0  0  0  0  0  0  0  0  0  0  0
   19.0239   19.4955   20.4327 H   0  0  0  0  0  0  0  0  0  0  0  0
   19.4450   17.7936   20.6037 H   0  0  0  0  0  0  0  0  0  0  0  0
   19.7741   18.9747   22.3967 C   0  0  0  0  0  0  0  0  0  0  0  0
   20.0914   19.9879   22.6557 H   0  0  0  0  0  0  0  0  0  0  0  0
   20.4816   18.2693   22.8389 H   0  0  0  0  0  0  0  0  0  0  0  0
   18.4202   18.7331   23.0348 N   0  3  0  0  0  0  0  0  0  0  0  0
   18.0812   17.7865   22.8043 H   0  0  0  0  0  0  0  0  0  0  0  0
   17.7191   19.3780   22.6389 H   0  0  0  0  0  0  0  0  0  0  0  0
   18.5179   18.9122   24.5439 C   0  0  0  0  0  0  0  0  0  0  0  0
   18.8450   19.9305   24.7651 H   0  0  0  0  0  0  0  0  0  0  0  0
   17.5368   18.7356   24.9904 H   0  0  0  0  0  0  0  0  0  0  0  0
   19.2391   18.1970   24.9453 H   0  0  0  0  0  0  0  0  0  0  0  0
  1  2  1  0  0  0  0
  1  3  1  0  0  0  0
  1  4  1  0  0  0  0
  1  5  1  0  0  0  0
  5  6  1  0  0  0  0
  5  7  1  0  0  0  0
  5  8  1  0  0  0  0
  8  9  1  0  0  0  0
  8 10  1  0  0  0  0
  8 11  1  0  0  0  0
 11 12  1  0  0  0  0
 11 13  1  0  0  0  0
 11 14  1  0  0  0  0
 14 15  1  0  0  0  0
 14 16  1  0  0  0  0
 14 17  1  0  0  0  0
 17 18  1  0  0  0  0
 17 19  1  0  0  0  0
 17 20  1  0  0  0  0
M  END
> <VConfSearch Rank>
194

> <Conf_Id>
34

> <Delta U+W>
0.276

> <U+W>
15.615

> <U>
69.798

> <W>
-54.184

> <W(PB)>
-56.116

> <W(SA)>
1.933

> <Valence>
1.134

> <Coulomb>
68.735

> <VdW>
-0.070

> <VdW6>
-3.565

> <VdW12>
3.494

> <Bond>
0.108

> <Angle>
0.456

> <Pdih>
0.569

> <Idih>
0.000

> <Tether>
0.000

$$$$
VeraChem MOL file


 20 19  0  0  0  0  0  0  0  0999 V2000     
   22.0198   17.2583   23.7035 C   0  0  0  0  0  0  0  0  0  0  0  0
   22.5059   16.4964   23.0803 H   0  0  0  0  0  0  0  0  0  0  0  0
   22.7903   17.7137   24.3391 H   0  0  0  0  0  0  0  0  0  0  0  0
   21.2983   16.7537   24.3592 H   0  0  0  0  0  0  0  0  0  0  0  0
   21.3266   18.3294   22.8339 C   0  0  0  0  0  0  0  0  0  0  0  0
   22.0785   18.8372   22.2134 H   0  0  0  0  0  0  0  0  0  0  0  0
   20.8874   19.0939   23.4890 H   0  0  0  0  0  0  0  0  0  0  0  0
   20.2347   17.7124   21.9282 C   0  0  0  0  0  0  0  0  0  0  0  0
   20.6810   16.9239   21.3078 H   0  0  0  0  0  0  0  0  0  0  0  0
   19.4648   17.2274   22.5429 H   0  0  0  0  0  0  0  0  0  0  0  0
   19.5738   18.7488   20.9971 C   0  0  0  0  0  0  0  0  0  0  0  0
   18.8799   18.2389   20.3240 H   0  0  0  0  0  0  0  0  0  0  0  0
   20.3395   19.2376   20.3895 H   0  0  0  0  0  0  0  0  0  0  0  0
   18.7943   19.8272   21.7260 N   0  3  0  0  0  0  0  0  0  0  0  0
   19.4133   20.3371   22.3735 H   0  0  0  0  0  0  0  0  0  0  0  0
   18.0669   19.4002   22.3197 H   0  0  0  0  0  0  0  0  0  0  0  0
   18.1691   20.7854   20.7211 C   0  0  0  0  0  0  0  0  0  0  0  0
   18.9591   21.2497   20.1268 H   0  0  0  0  0  0  0  0  0  0  0  0
   17.4928   20.2304   20.0674 H   0  0  0  0  0  0  0  0  0  0  0  0
   17.6117   21.5558   21.2586 H   0  0  0  0  0  0  0  0  0  0  0  0
  1  2  1  0  0  0  0
  1  3  1  0  0  0  0
  1  4  1  0  0  0  0
  1  5  1  0  0  0  0
  5  6  1  0  0  0  0
  5  7  1  0  0  0  0
  5  8  1  0  0  0  0
  8  9  1  0  0  0  0
  8 10  1  0  0  0  0
  8 11  1  0  0  0  0
 11 12  1  0  0  0  0
 11 13  1  0  0  0  0
 11 14  1  0  0  0  0
 14 15  1  0  0  0  0
 14 16  1  0  0  0  0
 14 17  1  0  0  0  0
 17 18  1  0  0  0  0
 17 19  1  0  0  0  0
 17 20  1  0  0  0  0
M  END
> <VConfSearch Rank>
195

> <Conf_Id>
50

> <Delta U+W>
0.319

> <U+W>
15.657

> <U>
69.962

> <W>
-54.305

> <W(PB)>
-56.223

> <W(SA)>
1.918

> <Valence>
0.982

> <Coulomb>
69.058

> <VdW>
-0.078

> <VdW6>
-3.548

> <VdW12>
3.471

> <Bond>
0.105

> <Angle>
0.408

> <Pdih>
0.469

> <Idih>
0.000

> <Tether>
0.000

$$$$
VeraChem MOL file


 20 19  0  0  0  0  0  0  0  0999 V2000     
   19.2546   19.2419   24.9030 C   0  0  0  0  0  0  0  0  0  0  0  0
   18.3679   19.7968   25.2360 H   0  0  0  0  0  0  0  0  0  0  0  0
   19.2523   18.2689   25.4114 H   0  0  0  0  0  0  0  0  0  0  0  0
   20.1422   19.7974   25.2328 H   0  0  0  0  0  0  0  0  0  0  0  0
   19.2454   19.0684   23.3688 C   0  0  0  0  0  0  0  0  0  0  0  0
   19.2072   20.0592   22.8961 H   0  0  0  0  0  0  0  0  0  0  0  0
   18.3310   18.5378   23.0678 H   0  0  0  0  0  0  0  0  0  0  0  0
   20.4866   18.2890   22.8735 C   0  0  0  0  0  0  0  0  0  0  0  0
   21.4036   18.8280   23.1462 H   0  0  0  0  0  0  0  0  0  0  0  0
   20.5323   17.3177   23.3836 H   0  0  0  0  0  0  0  0  0  0  0  0
   20.4683   18.0394   21.3520 C   0  0  0  0  0  0  0  0  0  0  0  0
   19.5528   17.5092   21.0777 H   0  0  0  0  0  0  0  0  0  0  0  0
   21.3198   17.4111   21.0788 H   0  0  0  0  0  0  0  0  0  0  0  0
   20.5462   19.3034   20.5165 N   0  3  0  0  0  0  0  0  0  0  0  0
   21.3959   19.8366   20.7569 H   0  0  0  0  0  0  0  0  0  0  0  0
   19.7573   19.9275   20.7415 H   0  0  0  0  0  0  0  0  0  0  0  0
   20.5394   18.9487   19.0356 C   0  0  0  0  0  0  0  0  0  0  0  0
   20.5957   19.8667   18.4464 H   0  0  0  0  0  0  0  0  0  0  0  0
   21.4009   18.3154   18.8134 H   0  0  0  0  0  0  0  0  0  0  0  0
   19.6170   18.4145   18.7977 H   0  0  0  0  0  0  0  0  0  0  0  0
  1  2  1  0  0  0  0
  1  3  1  0  0  0  0
  1  4  1  0  0  0  0
  1  5  1  0  0  0  0
  5  6  1  0  0  0  0
  5  7  1  0  0  0  0
  5  8  1  0  0  0  0
  8  9  1  0  0  0  0
  8 10  1  0  0  0  0
  8 11  1  0  0  0  0
 11 12  1  0  0  0  0
 11 13  1  0  0  0  0
 11 14  1  0  0  0  0
 14 15  1  0  0  0  0
 14 16  1  0  0  0  0
 14 17  1  0  0  0  0
 17 18  1  0  0  0  0
 17 19  1  0  0  0  0
 17 20  1  0  0  0  0
M  END
> <VConfSearch Rank>
196

> <Conf_Id>
35

> <Delta U+W>
0.360

> <U+W>
15.698

> <U>
69.962

> <W>
-54.264

> <W(PB)>
-56.166

> <W(SA)>
1.902

> <Valence>
0.982

> <Coulomb>
69.058

> <VdW>
-0.078

> <VdW6>
-3.548

> <VdW12>
3.471

> <Bond>
0.105

> <Angle>
0.408

> <Pdih>
0.469

> <Idih>
0.000

> <Tether>
0.000

$$$$
VeraChem MOL file


 20 19  0  0  0  0  0  0  0  0999 V2000     
   22.5109   18.0952   21.6395 C   0  0  0  0  0  0  0  0  0  0  0  0
   21.9498   17.2205   21.2871 H   0  0  0  0  0  0  0  0  0  0  0  0
   23.5168   18.0405   21.2037 H   0  0  0  0  0  0  0  0  0  0  0  0
   22.6141   18.0198   22.7298 H   0  0  0  0  0  0  0  0  0  0  0  0
   21.8164   19.4163   21.2364 C   0  0  0  0  0  0  0  0  0  0  0  0
   21.7210   19.4645   20.1424 H   0  0  0  0  0  0  0  0  0  0  0  0
   22.4560   20.2613   21.5278 H   0  0  0  0  0  0  0  0  0  0  0  0
   20.4252   19.5906   21.8892 C   0  0  0  0  0  0  0  0  0  0  0  0
   20.5318   19.5792   22.9815 H   0  0  0  0  0  0  0  0  0  0  0  0
   20.0261   20.5780   21.6223 H   0  0  0  0  0  0  0  0  0  0  0  0
   19.4223   18.5038   21.4459 C   0  0  0  0  0  0  0  0  0  0  0  0
   19.7747   17.5200   21.7648 H   0  0  0  0  0  0  0  0  0  0  0  0
   19.3594   18.5035   20.3547 H   0  0  0  0  0  0  0  0  0  0  0  0
   18.0116   18.6891   21.9807 N   0  3  0  0  0  0  0  0  0  0  0  0
   17.3746   18.0260   21.5118 H   0  0  0  0  0  0  0  0  0  0  0  0
   17.6533   19.6227   21.7281 H   0  0  0  0  0  0  0  0  0  0  0  0
   17.9594   18.4775   23.4899 C   0  0  0  0  0  0  0  0  0  0  0  0
   18.5845   19.2247   23.9827 H   0  0  0  0  0  0  0  0  0  0  0  0
   16.9268   18.5820   23.8302 H   0  0  0  0  0  0  0  0  0  0  0  0
   18.3246   17.4756   23.7253 H   0  0  0  0  0  0  0  0  0  0  0  0
  1  2  1  0  0  0  0
  1  3  1  0  0  0  0
  1  4  1  0  0  0  0
  1  5  1  0  0  0  0
  5  6  1  0  0  0  0
  5  7  1  0  0  0  0
  5  8  1  0  0  0  0
  8  9  1  0  0  0  0
  8 10  1  0  0  0  0
  8 11  1  0  0  0  0
 11 12  1  0  0  0  0
 11 13  1  0  0  0  0
 11 14  1  0  0  0  0
 14 15  1  0  0  0  0
 14 16  1  0  0  0  0
 14 17  1  0  0  0  0
 17 18  1  0  0  0  0
 17 19  1  0  0  0  0
 17 20  1  0  0  0  0
M  END
> <VConfSearch Rank>
197

> <Conf_Id>
33

> <Delta U+W>
0.372

> <U+W>
15.711

> <U>
70.163

> <W>
-54.452

> <W(PB)>
-56.363

> <W(SA)>
1.911

> <Valence>
1.420

> <Coulomb>
68.566

> <VdW>
0.177

> <VdW6>
-4.267

> <VdW12>
4.445

> <Bond>
0.146

> <Angle>
0.581

> <Pdih>
0.693

> <Idih>
0.000

> <Tether>
0.000

$$$$
VeraChem MOL file


 20 19  0  0  0  0  0  0  0  0999 V2000     
   18.3301   20.6637   21.9743 C   0  0  0  0  0  0  0  0  0  0  0  0
   17.5625   21.3719   22.3123 H   0  0  0  0  0  0  0  0  0  0  0  0
   19.2777   21.2124   21.9027 H   0  0  0  0  0  0  0  0  0  0  0  0
   18.0530   20.3254   20.9673 H   0  0  0  0  0  0  0  0  0  0  0  0
   18.4361   19.4712   22.9524 C   0  0  0  0  0  0  0  0  0  0  0  0
   17.4453   19.0085   23.0626 H   0  0  0  0  0  0  0  0  0  0  0  0
   18.7191   19.8359   23.9500 H   0  0  0  0  0  0  0  0  0  0  0  0
   19.4441   18.3952   22.4854 C   0  0  0  0  0  0  0  0  0  0  0  0
   19.4114   17.5479   23.1829 H   0  0  0  0  0  0  0  0  0  0  0  0
   19.1354   18.0082   21.5057 H   0  0  0  0  0  0  0  0  0  0  0  0
   20.8899   18.9311   22.4090 C   0  0  0  0  0  0  0  0  0  0  0  0
   21.1654   19.3475   23.3812 H   0  0  0  0  0  0  0  0  0  0  0  0
   20.9512   19.7318   21.6682 H   0  0  0  0  0  0  0  0  0  0  0  0
   21.9338   17.8855   22.0521 N   0  3  0  0  0  0  0  0  0  0  0  0
   21.8863   17.0934   22.7110 H   0  0  0  0  0  0  0  0  0  0  0  0
   22.8779   18.2814   22.1827 H   0  0  0  0  0  0  0  0  0  0  0  0
   21.7682   17.4060   20.6140 C   0  0  0  0  0  0  0  0  0  0  0  0
   22.5564   16.6857   20.3842 H   0  0  0  0  0  0  0  0  0  0  0  0
   20.7925   16.9294   20.5007 H   0  0  0  0  0  0  0  0  0  0  0  0
   21.8433   18.2613   19.9390 H   0  0  0  0  0  0  0  0  0  0  0  0
  1  2  1  0  0  0  0
  1  3  1  0  0  0  0
  1  4  1  0  0  0  0
  1  5  1  0  0  0  0
  5  6  1  0  0  0  0
  5  7  1  0  0  0  0
  5  8  1  0  0  0  0
  8  9  1  0  0  0  0
  8 10  1  0  0  0  0
  8 11  1  0  0  0  0
 11 12  1  0  0  0  0
 11 13  1  0  0  0  0
 11 14  1  0  0  0  0
 14 15  1  0  0  0  0
 14 16  1  0  0  0  0
 14 17  1  0  0  0  0
 17 18  1  0  0  0  0
 17 19  1  0  0  0  0
 17 20  1  0  0  0  0
M  END
> <VConfSearch Rank>
198

> <Conf_Id>
53

> <Delta U+W>
0.379

> <U+W>
15.717

> <U>
70.163

> <W>
-54.446

> <W(PB)>
-56.322

> <W(SA)>
1.876

> <Valence>
1.420

> <Coulomb>
68.566

> <VdW>
0.177

> <VdW6>
-4.267

> <VdW12>
4.445

> <Bond>
0.146

> <Angle>
0.581

> <Pdih>
0.693

> <Idih>
0.000

> <Tether>
0.000

$$$$
VeraChem MOL file


 20 19  0  0  0  0  0  0  0  0999 V2000     
   22.0106   18.6708   19.9340 C   0  0  0  0  0  0  0  0  0  0  0  0
   22.0485   17.9460   19.1105 H   0  0  0  0  0  0  0  0  0  0  0  0
   22.2591   19.6584   19.5239 H   0  0  0  0  0  0  0  0  0  0  0  0
   22.7879   18.3967   20.6591 H   0  0  0  0  0  0  0  0  0  0  0  0
   20.6138   18.6767   20.5920 C   0  0  0  0  0  0  0  0  0  0  0  0
   20.3844   17.6657   20.9551 H   0  0  0  0  0  0  0  0  0  0  0  0
   19.8555   18.9228   19.8354 H   0  0  0  0  0  0  0  0  0  0  0  0
   20.5346   19.6897   21.7584 C   0  0  0  0  0  0  0  0  0  0  0  0
   21.2717   19.4325   22.5299 H   0  0  0  0  0  0  0  0  0  0  0  0
   20.8087   20.6876   21.3914 H   0  0  0  0  0  0  0  0  0  0  0  0
   19.1255   19.7739   22.3860 C   0  0  0  0  0  0  0  0  0  0  0  0
   18.4133   20.0867   21.6182 H   0  0  0  0  0  0  0  0  0  0  0  0
   19.1223   20.5315   23.1738 H   0  0  0  0  0  0  0  0  0  0  0  0
   18.6026   18.4796   22.9909 N   0  3  0  0  0  0  0  0  0  0  0  0
   18.5916   17.7336   22.2799 H   0  0  0  0  0  0  0  0  0  0  0  0
   17.6146   18.6008   23.2636 H   0  0  0  0  0  0  0  0  0  0  0  0
   19.4273   18.0609   24.2031 C   0  0  0  0  0  0  0  0  0  0  0  0
   19.4050   18.8606   24.9465 H   0  0  0  0  0  0  0  0  0  0  0  0
   19.0003   17.1504   24.6293 H   0  0  0  0  0  0  0  0  0  0  0  0
   20.4568   17.8721   23.8927 H   0  0  0  0  0  0  0  0  0  0  0  0
  1  2  1  0  0  0  0
  1  3  1  0  0  0  0
  1  4  1  0  0  0  0
  1  5  1  0  0  0  0
  5  6  1  0  0  0  0
  5  7  1  0  0  0  0
  5  8  1  0  0  0  0
  8  9  1  0  0  0  0
  8 10  1  0  0  0  0
  8 11  1  0  0  0  0
 11 12  1  0  0  0  0
 11 13  1  0  0  0  0
 11 14  1  0  0  0  0
 14 15  1  0  0  0  0
 14 16  1  0  0  0  0
 14 17  1  0  0  0  0
 17 18  1  0  0  0  0
 17 19  1  0  0  0  0
 17 20  1  0  0  0  0
M  END
> <VConfSearch Rank>
199

> <Conf_Id>
49

> <Delta U+W>
0.268

> <U+W>
15.607

> <U>
70.298

> <W>
-54.692

> <W(PB)>
-56.576

> <W(SA)>
1.885

> <Valence>
1.245

> <Coulomb>
68.933

> <VdW>
0.120

> <VdW6>
-4.430

> <VdW12>
4.550

> <Bond>
0.148

> <Angle>
0.587

> <Pdih>
0.509

> <Idih>
0.000

> <Tether>
0.000

$$$$
VeraChem MOL file


 20 19  0  0  0  0  0  0  0  0999 V2000     
   19.6951   18.9092   24.7201 C   0  0  0  0  0  0  0  0  0  0  0  0
   19.5195   19.9841   24.8579 H   0  0  0  0  0  0  0  0  0  0  0  0
   18.7862   18.3731   25.0229 H   0  0  0  0  0  0  0  0  0  0  0  0
   20.5032   18.6107   25.4003 H   0  0  0  0  0  0  0  0  0  0  0  0
   20.0684   18.5902   23.2561 C   0  0  0  0  0  0  0  0  0  0  0  0
   20.2652   17.5135   23.1556 H   0  0  0  0  0  0  0  0  0  0  0  0
   21.0011   19.1129   23.0066 H   0  0  0  0  0  0  0  0  0  0  0  0
   18.9498   19.0116   22.2749 C   0  0  0  0  0  0  0  0  0  0  0  0
   17.9989   18.5733   22.6060 H   0  0  0  0  0  0  0  0  0  0  0  0
   18.8153   20.1007   22.3105 H   0  0  0  0  0  0  0  0  0  0  0  0
   19.1924   18.5719   20.8132 C   0  0  0  0  0  0  0  0  0  0  0  0
   18.3179   18.8616   20.2249 H   0  0  0  0  0  0  0  0  0  0  0  0
   19.2855   17.4846   20.7538 H   0  0  0  0  0  0  0  0  0  0  0  0
   20.4026   19.1921   20.1320 N   0  3  0  0  0  0  0  0  0  0  0  0
   20.5630   20.1477   20.4839 H   0  0  0  0  0  0  0  0  0  0  0  0
   20.2031   19.3114   19.1266 H   0  0  0  0  0  0  0  0  0  0  0  0
   21.6432   18.3201   20.2971 C   0  0  0  0  0  0  0  0  0  0  0  0
   22.4807   18.7886   19.7756 H   0  0  0  0  0  0  0  0  0  0  0  0
   21.8838   18.2164   21.3557 H   0  0  0  0  0  0  0  0  0  0  0  0
   21.4483   17.3356   19.8664 H   0  0  0  0  0  0  0  0  0  0  0  0
  1  2  1  0  0  0  0
  1  3  1  0  0  0  0
  1  4  1  0  0  0  0
  1  5  1  0  0  0  0
  5  6  1  0  0  0  0
  5  7  1  0  0  0  0
  5  8  1  0  0  0  0
  8  9  1  0  0  0  0
  8 10  1  0  0  0  0
  8 11  1  0  0  0  0
 11 12  1  0  0  0  0
 11 13  1  0  0  0  0
 11 14  1  0  0  0  0
 14 15  1  0  0  0  0
 14 16  1  0  0  0  0
 14 17  1  0  0  0  0
 17 18  1  0  0  0  0
 17 19  1  0  0  0  0
 17 20  1  0  0  0  0
M  END
> <VConfSearch Rank>
200

> <Conf_Id>
65

> <Delta U+W>
1.775

> <U+W>
17.114

> <U>
71.726

> <W>
-54.613

> <W(PB)>
-56.495

> <W(SA)>
1.883

> <Valence>
2.885

> <Coulomb>
68.822

> <VdW>
0.019

> <VdW6>
-4.600

> <VdW12>
4.619

> <Bond>
0.152

> <Angle>
0.862

> <Pdih>
1.871

> <Idih>
0.000

> <Tether>
0.000

$$$$
VeraChem MOL file


 20 19  0  0  0  0  0  0  0  0999 V2000     
   18.7518   20.2375   23.3124 C   0  0  0  0  0  0  0  0  0  0  0  0
   19.6962   20.6312   22.9160 H   0  0  0  0  0  0  0  0  0  0  0  0
   17.9924   21.0217   23.1972 H   0  0  0  0  0  0  0  0  0  0  0  0
   18.8817   20.0532   24.3867 H   0  0  0  0  0  0  0  0  0  0  0  0
   18.3173   18.9495   22.5759 C   0  0  0  0  0  0  0  0  0  0  0  0
   18.1935   19.1598   21.5049 H   0  0  0  0  0  0  0  0  0  0  0  0
   17.3259   18.6467   22.9411 H   0  0  0  0  0  0  0  0  0  0  0  0
   19.3038   17.7722   22.7780 C   0  0  0  0  0  0  0  0  0  0  0  0
   19.3366   17.5078   23.8433 H   0  0  0  0  0  0  0  0  0  0  0  0
   18.9245   16.8845   22.2547 H   0  0  0  0  0  0  0  0  0  0  0  0
   20.7406   18.0680   22.2995 C   0  0  0  0  0  0  0  0  0  0  0  0
   21.3763   17.2031   22.5056 H   0  0  0  0  0  0  0  0  0  0  0  0
   21.1429   18.9223   22.8490 H   0  0  0  0  0  0  0  0  0  0  0  0
   20.8460   18.3733   20.8175 N   0  3  0  0  0  0  0  0  0  0  0  0
   20.2522   19.1820   20.5813 H   0  0  0  0  0  0  0  0  0  0  0  0
   20.4729   17.5863   20.2650 H   0  0  0  0  0  0  0  0  0  0  0  0
   22.2964   18.6487   20.4449 C   0  0  0  0  0  0  0  0  0  0  0  0
   22.9003   17.7682   20.6748 H   0  0  0  0  0  0  0  0  0  0  0  0
   22.3571   18.8680   19.3767 H   0  0  0  0  0  0  0  0  0  0  0  0
   22.6588   19.5051   21.0178 H   0  0  0  0  0  0  0  0  0  0  0  0
  1  2  1  0  0  0  0
  1  3  1  0  0  0  0
  1  4  1  0  0  0  0
  1  5  1  0  0  0  0
  5  6  1  0  0  0  0
  5  7  1  0  0  0  0
  5  8  1  0  0  0  0
  8  9  1  0  0  0  0
  8 10  1  0  0  0  0
  8 11  1  0  0  0  0
 11 12  1  0  0  0  0
 11 13  1  0  0  0  0
 11 14  1  0  0  0  0
 14 15  1  0  0  0  0
 14 16  1  0  0  0  0
 14 17  1  0  0  0  0
 17 18  1  0  0  0  0
 17 19  1  0  0  0  0
 17 20  1  0  0  0  0
M  END
> <VConfSearch Rank>
201

> <Conf_Id>
23

> <Delta U+W>
0.896

> <U+W>
16.234

> <U>
70.374

> <W>
-54.140

> <W(PB)>
-56.046

> <W(SA)>
1.907

> <Valence>
1.257

> <Coulomb>
69.240

> <VdW>
-0.123

> <VdW6>
-4.336

> <VdW12>
4.213

> <Bond>
0.128

> <Angle>
0.603

> <Pdih>
0.526

> <Idih>
0.000

> <Tether>
0.000

$$$$
VeraChem MOL file


 20 19  0  0  0  0  0  0  0  0999 V2000     
   19.1378   18.3302   24.1476 C   0  0  0  0  0  0  0  0  0  0  0  0
   19.7891   17.6861   24.7527 H   0  0  0  0  0  0  0  0  0  0  0  0
   18.2681   18.5975   24.7618 H   0  0  0  0  0  0  0  0  0  0  0  0
   18.7727   17.7436   23.2951 H   0  0  0  0  0  0  0  0  0  0  0  0
   19.8869   19.6013   23.6859 C   0  0  0  0  0  0  0  0  0  0  0  0
   20.1502   20.2009   24.5686 H   0  0  0  0  0  0  0  0  0  0  0  0
   19.2151   20.2284   23.0841 H   0  0  0  0  0  0  0  0  0  0  0  0
   21.1798   19.2895   22.8915 C   0  0  0  0  0  0  0  0  0  0  0  0
   21.6761   20.2302   22.6185 H   0  0  0  0  0  0  0  0  0  0  0  0
   21.8821   18.7515   23.5421 H   0  0  0  0  0  0  0  0  0  0  0  0
   20.9471   18.4503   21.6177 C   0  0  0  0  0  0  0  0  0  0  0  0
   20.4955   17.4922   21.8857 H   0  0  0  0  0  0  0  0  0  0  0  0
   21.9073   18.2492   21.1360 H   0  0  0  0  0  0  0  0  0  0  0  0
   20.0504   19.1200   20.5940 N   0  3  0  0  0  0  0  0  0  0  0  0
   20.4458   20.0316   20.3172 H   0  0  0  0  0  0  0  0  0  0  0  0
   19.1337   19.3334   21.0143 H   0  0  0  0  0  0  0  0  0  0  0  0
   19.8837   18.2177   19.3789 C   0  0  0  0  0  0  0  0  0  0  0  0
   19.4339   17.2728   19.6912 H   0  0  0  0  0  0  0  0  0  0  0  0
   19.2356   18.7114   18.6514 H   0  0  0  0  0  0  0  0  0  0  0  0
   20.8628   18.0311   18.9324 H   0  0  0  0  0  0  0  0  0  0  0  0
  1  2  1  0  0  0  0
  1  3  1  0  0  0  0
  1  4  1  0  0  0  0
  1  5  1  0  0  0  0
  5  6  1  0  0  0  0
  5  7  1  0  0  0  0
  5  8  1  0  0  0  0
  8  9  1  0  0  0  0
  8 10  1  0  0  0  0
  8 11  1  0  0  0  0
 11 12  1  0  0  0  0
 11 13  1  0  0  0  0
 11 14  1  0  0  0  0
 14 15  1  0  0  0  0
 14 16  1  0  0  0  0
 14 17  1  0  0  0  0
 17 18  1  0  0  0  0
 17 19  1  0  0  0  0
 17 20  1  0  0  0  0
M  END
> <VConfSearch Rank>
202

> <Conf_Id>
24

> <Delta U+W>
0.792

> <U+W>
16.130

> <U>
70.374

> <W>
-54.243

> <W(PB)>
-56.130

> <W(SA)>
1.887

> <Valence>
1.257

> <Coulomb>
69.240

> <VdW>
-0.123

> <VdW6>
-4.336

> <VdW12>
4.213

> <Bond>
0.128

> <Angle>
0.603

> <Pdih>
0.526

> <Idih>
0.000

> <Tether>
0.000

$$$$
VeraChem MOL file


 20 19  0  0  0  0  0  0  0  0999 V2000     
   18.2923   18.8556   23.4320 C   0  0  0  0  0  0  0  0  0  0  0  0
   17.6920   18.8192   24.3504 H   0  0  0  0  0  0  0  0  0  0  0  0
   19.0706   19.6120   23.5872 H   0  0  0  0  0  0  0  0  0  0  0  0
   17.6335   19.1845   22.6177 H   0  0  0  0  0  0  0  0  0  0  0  0
   18.9015   17.4661   23.1359 C   0  0  0  0  0  0  0  0  0  0  0  0
   18.1040   16.7126   23.2011 H   0  0  0  0  0  0  0  0  0  0  0  0
   19.6261   17.2098   23.9216 H   0  0  0  0  0  0  0  0  0  0  0  0
   19.5761   17.3439   21.7456 C   0  0  0  0  0  0  0  0  0  0  0  0
   19.9069   16.3043   21.6207 H   0  0  0  0  0  0  0  0  0  0  0  0
   18.8433   17.5244   20.9480 H   0  0  0  0  0  0  0  0  0  0  0  0
   20.8054   18.2565   21.5500 C   0  0  0  0  0  0  0  0  0  0  0  0
   21.4212   17.8574   20.7401 H   0  0  0  0  0  0  0  0  0  0  0  0
   21.4081   18.2645   22.4616 H   0  0  0  0  0  0  0  0  0  0  0  0
   20.4688   19.6895   21.1839 N   0  3  0  0  0  0  0  0  0  0  0  0
   19.8427   20.0967   21.8930 H   0  0  0  0  0  0  0  0  0  0  0  0
   19.9360   19.7140   20.3010 H   0  0  0  0  0  0  0  0  0  0  0  0
   21.7457   20.5097   21.0606 C   0  0  0  0  0  0  0  0  0  0  0  0
   22.2757   20.4962   22.0155 H   0  0  0  0  0  0  0  0  0  0  0  0
   22.3771   20.0771   20.2815 H   0  0  0  0  0  0  0  0  0  0  0  0
   21.4881   21.5378   20.7969 H   0  0  0  0  0  0  0  0  0  0  0  0
  1  2  1  0  0  0  0
  1  3  1  0  0  0  0
  1  4  1  0  0  0  0
  1  5  1  0  0  0  0
  5  6  1  0  0  0  0
  5  7  1  0  0  0  0
  5  8  1  0  0  0  0
  8  9  1  0  0  0  0
  8 10  1  0  0  0  0
  8 11  1  0  0  0  0
 11 12  1  0  0  0  0
 11 13  1  0  0  0  0
 11 14  1  0  0  0  0
 14 15  1  0  0  0  0
 14 16  1  0  0  0  0
 14 17  1  0  0  0  0
 17 18  1  0  0  0  0
 17 19  1  0  0  0  0
 17 20  1  0  0  0  0
M  END
> <VConfSearch Rank>
203

> <Conf_Id>
26

> <Delta U+W>
2.888

> <U+W>
18.226

> <U>
72.042

> <W>
-53.816

> <W(PB)>
-55.689

> <W(SA)>
1.873

> <Valence>
2.428

> <Coulomb>
69.829

> <VdW>
-0.215

> <VdW6>
-4.563

> <VdW12>
4.348

> <Bond>
0.137

> <Angle>
0.936

> <Pdih>
1.356

> <Idih>
0.000

> <Tether>
0.000

$$$$
VeraChem MOL file


 20 19  0  0  0  0  0  0  0  0999 V2000     
   20.2297   17.2478   20.6260 C   0  0  0  0  0  0  0  0  0  0  0  0
   20.4801   16.6472   19.7418 H   0  0  0  0  0  0  0  0  0  0  0  0
   19.5529   16.6514   21.2516 H   0  0  0  0  0  0  0  0  0  0  0  0
   19.6945   18.1358   20.2694 H   0  0  0  0  0  0  0  0  0  0  0  0
   21.5153   17.6300   21.3945 C   0  0  0  0  0  0  0  0  0  0  0  0
   22.1249   18.3030   20.7752 H   0  0  0  0  0  0  0  0  0  0  0  0
   22.1187   16.7230   21.5412 H   0  0  0  0  0  0  0  0  0  0  0  0
   21.2661   18.2799   22.7796 C   0  0  0  0  0  0  0  0  0  0  0  0
   20.7220   17.5867   23.4347 H   0  0  0  0  0  0  0  0  0  0  0  0
   22.2415   18.4422   23.2571 H   0  0  0  0  0  0  0  0  0  0  0  0
   20.5359   19.6386   22.7252 C   0  0  0  0  0  0  0  0  0  0  0  0
   20.9231   20.2329   21.8938 H   0  0  0  0  0  0  0  0  0  0  0  0
   20.7292   20.1853   23.6516 H   0  0  0  0  0  0  0  0  0  0  0  0
   19.0295   19.5339   22.5804 N   0  3  0  0  0  0  0  0  0  0  0  0
   18.6321   19.0136   23.3775 H   0  0  0  0  0  0  0  0  0  0  0  0
   18.7935   18.9786   21.7458 H   0  0  0  0  0  0  0  0  0  0  0  0
   18.4166   20.9248   22.4908 C   0  0  0  0  0  0  0  0  0  0  0  0
   18.8274   21.4439   21.6221 H   0  0  0  0  0  0  0  0  0  0  0  0
   17.3332   20.8338   22.3870 H   0  0  0  0  0  0  0  0  0  0  0  0
   18.6537   21.4815   23.4000 H   0  0  0  0  0  0  0  0  0  0  0  0
  1  2  1  0  0  0  0
  1  3  1  0  0  0  0
  1  4  1  0  0  0  0
  1  5  1  0  0  0  0
  5  6  1  0  0  0  0
  5  7  1  0  0  0  0
  5  8  1  0  0  0  0
  8  9  1  0  0  0  0
  8 10  1  0  0  0  0
  8 11  1  0  0  0  0
 11 12  1  0  0  0  0
 11 13  1  0  0  0  0
 11 14  1  0  0  0  0
 14 15  1  0  0  0  0
 14 16  1  0  0  0  0
 14 17  1  0  0  0  0
 17 18  1  0  0  0  0
 17 19  1  0  0  0  0
 17 20  1  0  0  0  0
M  END
> <VConfSearch Rank>
204

> <Conf_Id>
5

> <Delta U+W>
2.950

> <U+W>
18.289

> <U>
72.042

> <W>
-53.753

> <W(PB)>
-55.644

> <W(SA)>
1.891

> <Valence>
2.428

> <Coulomb>
69.829

> <VdW>
-0.215

> <VdW6>
-4.563

> <VdW12>
4.348

> <Bond>
0.137

> <Angle>
0.936

> <Pdih>
1.356

> <Idih>
0.000

> <Tether>
0.000

$$$$
VeraChem MOL file


 20 19  0  0  0  0  0  0  0  0999 V2000     
   20.1687   21.2172   21.3936 C   0  0  0  0  0  0  0  0  0  0  0  0
   20.7095   21.3945   20.4549 H   0  0  0  0  0  0  0  0  0  0  0  0
   19.1619   20.8585   21.1458 H   0  0  0  0  0  0  0  0  0  0  0  0
   20.0596   22.1829   21.9040 H   0  0  0  0  0  0  0  0  0  0  0  0
   20.9276   20.2124   22.2906 C   0  0  0  0  0  0  0  0  0  0  0  0
   20.3703   20.0540   23.2239 H   0  0  0  0  0  0  0  0  0  0  0  0
   21.8908   20.6527   22.5843 H   0  0  0  0  0  0  0  0  0  0  0  0
   21.1920   18.8550   21.5929 C   0  0  0  0  0  0  0  0  0  0  0  0
   21.8300   19.0190   20.7145 H   0  0  0  0  0  0  0  0  0  0  0  0
   21.7668   18.2055   22.2657 H   0  0  0  0  0  0  0  0  0  0  0  0
   19.9095   18.1211   21.1388 C   0  0  0  0  0  0  0  0  0  0  0  0
   20.1792   17.1761   20.6606 H   0  0  0  0  0  0  0  0  0  0  0  0
   19.3925   18.7347   20.3970 H   0  0  0  0  0  0  0  0  0  0  0  0
   18.9141   17.8112   22.2463 N   0  3  0  0  0  0  0  0  0  0  0  0
   18.0386   17.4524   21.8342 H   0  0  0  0  0  0  0  0  0  0  0  0
   18.6450   18.6796   22.7316 H   0  0  0  0  0  0  0  0  0  0  0  0
   19.4801   16.7934   23.2303 C   0  0  0  0  0  0  0  0  0  0  0  0
   20.3712   17.2072   23.7064 H   0  0  0  0  0  0  0  0  0  0  0  0
   18.7272   16.5732   23.9902 H   0  0  0  0  0  0  0  0  0  0  0  0
   19.7384   15.8788   22.6924 H   0  0  0  0  0  0  0  0  0  0  0  0
  1  2  1  0  0  0  0
  1  3  1  0  0  0  0
  1  4  1  0  0  0  0
  1  5  1  0  0  0  0
  5  6  1  0  0  0  0
  5  7  1  0  0  0  0
  5  8  1  0  0  0  0
  8  9  1  0  0  0  0
  8 10  1  0  0  0  0
  8 11  1  0  0  0  0
 11 12  1  0  0  0  0
 11 13  1  0  0  0  0
 11 14  1  0  0  0  0
 14 15  1  0  0  0  0
 14 16  1  0  0  0  0
 14 17  1  0  0  0  0
 17 18  1  0  0  0  0
 17 19  1  0  0  0  0
 17 20  1  0  0  0  0
M  END
> <VConfSearch Rank>
205

> <Conf_Id>
52

> <Delta U+W>
0.784

> <U+W>
16.122

> <U>
70.777

> <W>
-54.655

> <W(PB)>
-56.491

> <W(SA)>
1.836

> <Valence>
1.529

> <Coulomb>
69.166

> <VdW>
0.082

> <VdW6>
-5.166

> <VdW12>
5.248

> <Bond>
0.171

> <Angle>
0.752

> <Pdih>
0.605

> <Idih>
0.000

> <Tether>
0.000

$$$$
VeraChem MOL file


 20 19  0  0  0  0  0  0  0  0999 V2000     
   21.8444   19.9198   22.4197 C   0  0  0  0  0  0  0  0  0  0  0  0
   22.8149   20.3153   22.7467 H   0  0  0  0  0  0  0  0  0  0  0  0
   22.0235   19.3531   21.4989 H   0  0  0  0  0  0  0  0  0  0  0  0
   21.1967   20.7759   22.1896 H   0  0  0  0  0  0  0  0  0  0  0  0
   21.2292   19.0307   23.5244 C   0  0  0  0  0  0  0  0  0  0  0  0
   21.2874   19.5711   24.4797 H   0  0  0  0  0  0  0  0  0  0  0  0
   21.8401   18.1257   23.6504 H   0  0  0  0  0  0  0  0  0  0  0  0
   19.7508   18.6341   23.2799 C   0  0  0  0  0  0  0  0  0  0  0  0
   19.3980   18.0896   24.1657 H   0  0  0  0  0  0  0  0  0  0  0  0
   19.1229   19.5315   23.2138 H   0  0  0  0  0  0  0  0  0  0  0  0
   19.5240   17.7229   22.0511 C   0  0  0  0  0  0  0  0  0  0  0  0
   18.5526   17.2307   22.1429 H   0  0  0  0  0  0  0  0  0  0  0  0
   20.2916   16.9450   22.0376 H   0  0  0  0  0  0  0  0  0  0  0  0
   19.5418   18.4197   20.6996 N   0  3  0  0  0  0  0  0  0  0  0  0
   19.5742   17.7137   19.9474 H   0  0  0  0  0  0  0  0  0  0  0  0
   20.4081   18.9660   20.5953 H   0  0  0  0  0  0  0  0  0  0  0  0
   18.3171   19.3100   20.5203 C   0  0  0  0  0  0  0  0  0  0  0  0
   17.4144   18.7036   20.6205 H   0  0  0  0  0  0  0  0  0  0  0  0
   18.3231   20.0934   21.2804 H   0  0  0  0  0  0  0  0  0  0  0  0
   18.3469   19.7635   19.5271 H   0  0  0  0  0  0  0  0  0  0  0  0
  1  2  1  0  0  0  0
  1  3  1  0  0  0  0
  1  4  1  0  0  0  0
  1  5  1  0  0  0  0
  5  6  1  0  0  0  0
  5  7  1  0  0  0  0
  5  8  1  0  0  0  0
  8  9  1  0  0  0  0
  8 10  1  0  0  0  0
  8 11  1  0  0  0  0
 11 12  1  0  0  0  0
 11 13  1  0  0  0  0
 11 14  1  0  0  0  0
 14 15  1  0  0  0  0
 14 16  1  0  0  0  0
 14 17  1  0  0  0  0
 17 18  1  0  0  0  0
 17 19  1  0  0  0  0
 17 20  1  0  0  0  0
M  END
> <VConfSearch Rank>
206

> <Conf_Id>
55

> <Delta U+W>
2.745

> <U+W>
18.083

> <U>
72.490

> <W>
-54.407

> <W(PB)>
-56.269

> <W(SA)>
1.861

> <Valence>
2.738

> <Coulomb>
69.795

> <VdW>
-0.043

> <VdW6>
-5.333

> <VdW12>
5.290

> <Bond>
0.182

> <Angle>
1.135

> <Pdih>
1.422

> <Idih>
0.000

> <Tether>
0.000

$$$$
VeraChem MOL file


 20 19  0  0  0  0  0  0  0  0999 V2000     
   19.3194   20.7728   22.5139 C   0  0  0  0  0  0  0  0  0  0  0  0
   18.9499   21.8037   22.5908 H   0  0  0  0  0  0  0  0  0  0  0  0
   19.0136   20.2411   23.4245 H   0  0  0  0  0  0  0  0  0  0  0  0
   20.4137   20.8262   22.4851 H   0  0  0  0  0  0  0  0  0  0  0  0
   18.7493   20.0930   21.2481 C   0  0  0  0  0  0  0  0  0  0  0  0
   19.1649   20.5763   20.3527 H   0  0  0  0  0  0  0  0  0  0  0  0
   17.6655   20.2724   21.2141 H   0  0  0  0  0  0  0  0  0  0  0  0
   18.9910   18.5635   21.1771 C   0  0  0  0  0  0  0  0  0  0  0  0
   18.5262   18.0653   22.0371 H   0  0  0  0  0  0  0  0  0  0  0  0
   18.4650   18.1809   20.2925 H   0  0  0  0  0  0  0  0  0  0  0  0
   20.4764   18.1521   21.0508 C   0  0  0  0  0  0  0  0  0  0  0  0
   20.9652   18.8012   20.3199 H   0  0  0  0  0  0  0  0  0  0  0  0
   20.5350   17.1267   20.6774 H   0  0  0  0  0  0  0  0  0  0  0  0
   21.2876   18.2027   22.3361 N   0  3  0  0  0  0  0  0  0  0  0  0
   21.2007   19.1312   22.7722 H   0  0  0  0  0  0  0  0  0  0  0  0
   22.2906   18.0994   22.1158 H   0  0  0  0  0  0  0  0  0  0  0  0
   20.8560   17.1082   23.3059 C   0  0  0  0  0  0  0  0  0  0  0  0
   19.8116   17.2609   23.5845 H   0  0  0  0  0  0  0  0  0  0  0  0
   20.9723   16.1351   22.8241 H   0  0  0  0  0  0  0  0  0  0  0  0
   21.4834   17.1538   24.1987 H   0  0  0  0  0  0  0  0  0  0  0  0
  1  2  1  0  0  0  0
  1  3  1  0  0  0  0
  1  4  1  0  0  0  0
  1  5  1  0  0  0  0
  5  6  1  0  0  0  0
  5  7  1  0  0  0  0
  5  8  1  0  0  0  0
  8  9  1  0  0  0  0
  8 10  1  0  0  0  0
  8 11  1  0  0  0  0
 11 12  1  0  0  0  0
 11 13  1  0  0  0  0
 11 14  1  0  0  0  0
 14 15  1  0  0  0  0
 14 16  1  0  0  0  0
 14 17  1  0  0  0  0
 17 18  1  0  0  0  0
 17 19  1  0  0  0  0
 17 20  1  0  0  0  0
M  END
> <VConfSearch Rank>
207

> <Conf_Id>
76

> <Delta U+W>
2.799

> <U+W>
18.137

> <U>
72.490

> <W>
-54.353

> <W(PB)>
-56.201

> <W(SA)>
1.848

> <Valence>
2.738

> <Coulomb>
69.795

> <VdW>
-0.043

> <VdW6>
-5.334

> <VdW12>
5.290

> <Bond>
0.182

> <Angle>
1.135

> <Pdih>
1.421

> <Idih>
0.000

> <Tether>
0.000

$$$$
VeraChem MOL file


 20 19  0  0  0  0  0  0  0  0999 V2000     
   21.2905   17.8699   23.5424 C   0  0  0  0  0  0  0  0  0  0  0  0
   20.2373   17.5637   23.5547 H   0  0  0  0  0  0  0  0  0  0  0  0
   21.8955   16.9987   23.2595 H   0  0  0  0  0  0  0  0  0  0  0  0
   21.5663   18.1501   24.5672 H   0  0  0  0  0  0  0  0  0  0  0  0
   21.5315   19.0506   22.5736 C   0  0  0  0  0  0  0  0  0  0  0  0
   22.5818   19.3642   22.6523 H   0  0  0  0  0  0  0  0  0  0  0  0
   20.9374   19.9202   22.8827 H   0  0  0  0  0  0  0  0  0  0  0  0
   21.2301   18.6958   21.0969 C   0  0  0  0  0  0  0  0  0  0  0  0
   21.4624   19.5601   20.4609 H   0  0  0  0  0  0  0  0  0  0  0  0
   21.9149   17.8977   20.7811 H   0  0  0  0  0  0  0  0  0  0  0  0
   19.7829   18.2314   20.8094 C   0  0  0  0  0  0  0  0  0  0  0  0
   19.5221   17.3762   21.4372 H   0  0  0  0  0  0  0  0  0  0  0  0
   19.7391   17.9014   19.7683 H   0  0  0  0  0  0  0  0  0  0  0  0
   18.7067   19.2946   20.9709 N   0  3  0  0  0  0  0  0  0  0  0  0
   17.9414   19.1065   20.3048 H   0  0  0  0  0  0  0  0  0  0  0  0
   19.0715   20.2192   20.6975 H   0  0  0  0  0  0  0  0  0  0  0  0
   18.1424   19.3162   22.3874 C   0  0  0  0  0  0  0  0  0  0  0  0
   17.3555   20.0712   22.4465 H   0  0  0  0  0  0  0  0  0  0  0  0
   17.7261   18.3341   22.6218 H   0  0  0  0  0  0  0  0  0  0  0  0
   18.9347   19.5583   23.0965 H   0  0  0  0  0  0  0  0  0  0  0  0
  1  2  1  0  0  0  0
  1  3  1  0  0  0  0
  1  4  1  0  0  0  0
  1  5  1  0  0  0  0
  5  6  1  0  0  0  0
  5  7  1  0  0  0  0
  5  8  1  0  0  0  0
  8  9  1  0  0  0  0
  8 10  1  0  0  0  0
  8 11  1  0  0  0  0
 11 12  1  0  0  0  0
 11 13  1  0  0  0  0
 11 14  1  0  0  0  0
 14 15  1  0  0  0  0
 14 16  1  0  0  0  0
 14 17  1  0  0  0  0
 17 18  1  0  0  0  0
 17 19  1  0  0  0  0
 17 20  1  0  0  0  0
M  END
> <VConfSearch Rank>
208

> <Conf_Id>
60

> <Delta U+W>
1.788

> <U+W>
17.127

> <U>
72.122

> <W>
-54.995

> <W(PB)>
-56.810

> <W(SA)>
1.815

> <Valence>
3.197

> <Coulomb>
69.115

> <VdW>
-0.190

> <VdW6>
-5.585

> <VdW12>
5.395

> <Bond>
0.177

> <Angle>
1.207

> <Pdih>
1.813

> <Idih>
0.000

> <Tether>
0.000

$$$$
VeraChem MOL file


 20 19  0  0  0  0  0  0  0  0999 V2000     
   21.7131   20.0227   22.7789 C   0  0  0  0  0  0  0  0  0  0  0  0
   21.9002   21.1020   22.8505 H   0  0  0  0  0  0  0  0  0  0  0  0
   22.4909   19.5094   23.3589 H   0  0  0  0  0  0  0  0  0  0  0  0
   21.8278   19.7357   21.7265 H   0  0  0  0  0  0  0  0  0  0  0  0
   20.3041   19.6796   23.3152 C   0  0  0  0  0  0  0  0  0  0  0  0
   19.5397   20.2177   22.7400 H   0  0  0  0  0  0  0  0  0  0  0  0
   20.2176   20.0510   24.3459 H   0  0  0  0  0  0  0  0  0  0  0  0
   20.0055   18.1603   23.3097 C   0  0  0  0  0  0  0  0  0  0  0  0
   20.7170   17.6606   23.9803 H   0  0  0  0  0  0  0  0  0  0  0  0
   19.0114   17.9838   23.7409 H   0  0  0  0  0  0  0  0  0  0  0  0
   20.0847   17.4748   21.9253 C   0  0  0  0  0  0  0  0  0  0  0  0
   19.9736   16.3984   22.0792 H   0  0  0  0  0  0  0  0  0  0  0  0
   21.0629   17.6430   21.4687 H   0  0  0  0  0  0  0  0  0  0  0  0
   19.0102   17.8814   20.9277 N   0  3  0  0  0  0  0  0  0  0  0  0
   18.1231   18.0765   21.4151 H   0  0  0  0  0  0  0  0  0  0  0  0
   18.8006   17.0817   20.3103 H   0  0  0  0  0  0  0  0  0  0  0  0
   19.4499   19.0680   20.0768 C   0  0  0  0  0  0  0  0  0  0  0  0
   20.3658   18.8058   19.5431 H   0  0  0  0  0  0  0  0  0  0  0  0
   18.6617   19.3032   19.3582 H   0  0  0  0  0  0  0  0  0  0  0  0
   19.6315   19.9329   20.7156 H   0  0  0  0  0  0  0  0  0  0  0  0
  1  2  1  0  0  0  0
  1  3  1  0  0  0  0
  1  4  1  0  0  0  0
  1  5  1  0  0  0  0
  5  6  1  0  0  0  0
  5  7  1  0  0  0  0
  5  8  1  0  0  0  0
  8  9  1  0  0  0  0
  8 10  1  0  0  0  0
  8 11  1  0  0  0  0
 11 12  1  0  0  0  0
 11 13  1  0  0  0  0
 11 14  1  0  0  0  0
 14 15  1  0  0  0  0
 14 16  1  0  0  0  0
 14 17  1  0  0  0  0
 17 18  1  0  0  0  0
 17 19  1  0  0  0  0
 17 20  1  0  0  0  0
M  END
> <VConfSearch Rank>
209

> <Conf_Id>
54

> <Delta U+W>
1.880

> <U+W>
17.218

> <U>
72.122

> <W>
-54.903

> <W(PB)>
-56.724

> <W(SA)>
1.821

> <Valence>
3.197

> <Coulomb>
69.115

> <VdW>
-0.190

> <VdW6>
-5.585

> <VdW12>
5.395

> <Bond>
0.177

> <Angle>
1.207

> <Pdih>
1.813

> <Idih>
0.000

> <Tether>
0.000

$$$$
VeraChem MOL file


 20 19  0  0  0  0  0  0  0  0999 V2000     
   20.0046   15.9816   20.5041 C   0  0  0  0  0  0  0  0  0  0  0  0
   19.0165   15.6568   20.8553 H   0  0  0  0  0  0  0  0  0  0  0  0
   20.1280   15.6266   19.4727 H   0  0  0  0  0  0  0  0  0  0  0  0
   20.7659   15.4884   21.1225 H   0  0  0  0  0  0  0  0  0  0  0  0
   20.1420   17.5180   20.5725 C   0  0  0  0  0  0  0  0  0  0  0  0
   19.3906   17.9813   19.9175 H   0  0  0  0  0  0  0  0  0  0  0  0
   21.1262   17.8143   20.1828 H   0  0  0  0  0  0  0  0  0  0  0  0
   19.9726   18.0464   22.0140 C   0  0  0  0  0  0  0  0  0  0  0  0
   18.9878   17.7530   22.4014 H   0  0  0  0  0  0  0  0  0  0  0  0
   20.7257   17.5856   22.6670 H   0  0  0  0  0  0  0  0  0  0  0  0
   20.1110   19.5790   22.0739 C   0  0  0  0  0  0  0  0  0  0  0  0
   19.3527   20.0413   21.4370 H   0  0  0  0  0  0  0  0  0  0  0  0
   21.0963   19.8733   21.7036 H   0  0  0  0  0  0  0  0  0  0  0  0
   19.9516   20.1437   23.4719 N   0  3  0  0  0  0  0  0  0  0  0  0
   20.6475   19.7243   24.1074 H   0  0  0  0  0  0  0  0  0  0  0  0
   19.0332   19.8799   23.8605 H   0  0  0  0  0  0  0  0  0  0  0  0
   20.1024   21.6588   23.4405 C   0  0  0  0  0  0  0  0  0  0  0  0
   19.3350   22.0835   22.7898 H   0  0  0  0  0  0  0  0  0  0  0  0
   19.9854   22.0520   24.4528 H   0  0  0  0  0  0  0  0  0  0  0  0
   21.0933   21.9141   23.0588 H   0  0  0  0  0  0  0  0  0  0  0  0
  1  2  1  0  0  0  0
  1  3  1  0  0  0  0
  1  4  1  0  0  0  0
  1  5  1  0  0  0  0
  5  6  1  0  0  0  0
  5  7  1  0  0  0  0
  5  8  1  0  0  0  0
  8  9  1  0  0  0  0
  8 10  1  0  0  0  0
  8 11  1  0  0  0  0
 11 12  1  0  0  0  0
 11 13  1  0  0  0  0
 11 14  1  0  0  0  0
 14 15  1  0  0  0  0
 14 16  1  0  0  0  0
 14 17  1  0  0  0  0
 17 18  1  0  0  0  0
 17 19  1  0  0  0  0
 17 20  1  0  0  0  0
M  END
> <VConfSearch Rank>
210

> <Conf_Id>
67

> <Delta U+W>
0.000

> <U+W>
15.338

> <U>
69.277

> <W>
-53.939

> <W(PB)>
-55.889

> <W(SA)>
1.950

> <Valence>
0.846

> <Coulomb>
68.557

> <VdW>
-0.127

> <VdW6>
-3.008

> <VdW12>
2.882

> <Bond>
0.088

> <Angle>
0.332

> <Pdih>
0.426

> <Idih>
0.000

> <Tether>
0.000

$$$$
VeraChem MOL file


 20 19  0  0  0  0  0  0  0  0999 V2000     
   22.1288   16.7080   22.3633 C   0  0  0  0  0  0  0  0  0  0  0  0
   22.1925   16.5734   21.2757 H   0  0  0  0  0  0  0  0  0  0  0  0
   23.1260   16.5236   22.7837 H   0  0  0  0  0  0  0  0  0  0  0  0
   21.4491   15.9441   22.7628 H   0  0  0  0  0  0  0  0  0  0  0  0
   21.6404   18.1287   22.7204 C   0  0  0  0  0  0  0  0  0  0  0  0
   22.3577   18.8684   22.3375 H   0  0  0  0  0  0  0  0  0  0  0  0
   21.6209   18.2440   23.8134 H   0  0  0  0  0  0  0  0  0  0  0  0
   20.2377   18.4165   22.1414 C   0  0  0  0  0  0  0  0  0  0  0  0
   20.2620   18.3001   21.0503 H   0  0  0  0  0  0  0  0  0  0  0  0
   19.5209   17.6799   22.5276 H   0  0  0  0  0  0  0  0  0  0  0  0
   19.7580   19.8371   22.5046 C   0  0  0  0  0  0  0  0  0  0  0  0
   20.4405   20.5787   22.0820 H   0  0  0  0  0  0  0  0  0  0  0  0
   19.7696   19.9481   23.5919 H   0  0  0  0  0  0  0  0  0  0  0  0
   18.3525   20.1709   22.0315 N   0  3  0  0  0  0  0  0  0  0  0  0
   18.0499   21.0637   22.4518 H   0  0  0  0  0  0  0  0  0  0  0  0
   17.6811   19.4721   22.3847 H   0  0  0  0  0  0  0  0  0  0  0  0
   18.2869   20.2666   20.5110 C   0  0  0  0  0  0  0  0  0  0  0  0
   18.5440   19.2992   20.0751 H   0  0  0  0  0  0  0  0  0  0  0  0
   17.2733   20.5443   20.2135 H   0  0  0  0  0  0  0  0  0  0  0  0
   18.9921   21.0267   20.1679 H   0  0  0  0  0  0  0  0  0  0  0  0
  1  2  1  0  0  0  0
  1  3  1  0  0  0  0
  1  4  1  0  0  0  0
  1  5  1  0  0  0  0
  5  6  1  0  0  0  0
  5  7  1  0  0  0  0
  5  8  1  0  0  0  0
  8  9  1  0  0  0  0
  8 10  1  0  0  0  0
  8 11  1  0  0  0  0
 11 12  1  0  0  0  0
 11 13  1  0  0  0  0
 11 14  1  0  0  0  0
 14 15  1  0  0  0  0
 14 16  1  0  0  0  0
 14 17  1  0  0  0  0
 17 18  1  0  0  0  0
 17 19  1  0  0  0  0
 17 20  1  0  0  0  0
M  END
> <VConfSearch Rank>
211

> <Conf_Id>
37

> <Delta U+W>
-0.021

> <U+W>
15.318

> <U>
69.657

> <W>
-54.340

> <W(PB)>
-56.238

> <W(SA)>
1.899

> <Valence>
1.137

> <Coulomb>
68.383

> <VdW>
0.138

> <VdW6>
-3.703

> <VdW12>
3.841

> <Bond>
0.125

> <Angle>
0.468

> <Pdih>
0.543

> <Idih>
0.000

> <Tether>
0.000

$$$$
VeraChem MOL file


 20 19  0  0  0  0  0  0  0  0999 V2000     
   17.9527   20.8756   21.2636 C   0  0  0  0  0  0  0  0  0  0  0  0
   17.2928   21.1923   20.4455 H   0  0  0  0  0  0  0  0  0  0  0  0
   17.3196   20.5557   22.1015 H   0  0  0  0  0  0  0  0  0  0  0  0
   18.5308   21.7510   21.5871 H   0  0  0  0  0  0  0  0  0  0  0  0
   18.8839   19.7335   20.8023 C   0  0  0  0  0  0  0  0  0  0  0  0
   19.4784   20.0721   19.9420 H   0  0  0  0  0  0  0  0  0  0  0  0
   18.2771   18.8861   20.4529 H   0  0  0  0  0  0  0  0  0  0  0  0
   19.8255   19.2670   21.9344 C   0  0  0  0  0  0  0  0  0  0  0  0
   20.4343   20.1129   22.2800 H   0  0  0  0  0  0  0  0  0  0  0  0
   19.2276   18.9300   22.7910 H   0  0  0  0  0  0  0  0  0  0  0  0
   20.7525   18.1274   21.4637 C   0  0  0  0  0  0  0  0  0  0  0  0
   21.3174   18.4671   20.5918 H   0  0  0  0  0  0  0  0  0  0  0  0
   20.1551   17.2629   21.1634 H   0  0  0  0  0  0  0  0  0  0  0  0
   21.7608   17.6619   22.5017 N   0  3  0  0  0  0  0  0  0  0  0  0
   22.3246   18.4588   22.8348 H   0  0  0  0  0  0  0  0  0  0  0  0
   22.4411   17.0237   22.0600 H   0  0  0  0  0  0  0  0  0  0  0  0
   21.0731   16.9587   23.6670 C   0  0  0  0  0  0  0  0  0  0  0  0
   20.5013   16.1092   23.2873 H   0  0  0  0  0  0  0  0  0  0  0  0
   21.8312   16.6070   24.3702 H   0  0  0  0  0  0  0  0  0  0  0  0
   20.4045   17.6599   24.1703 H   0  0  0  0  0  0  0  0  0  0  0  0
  1  2  1  0  0  0  0
  1  3  1  0  0  0  0
  1  4  1  0  0  0  0
  1  5  1  0  0  0  0
  5  6  1  0  0  0  0
  5  7  1  0  0  0  0
  5  8  1  0  0  0  0
  8  9  1  0  0  0  0
  8 10  1  0  0  0  0
  8 11  1  0  0  0  0
 11 12  1  0  0  0  0
 11 13  1  0  0  0  0
 11 14  1  0  0  0  0
 14 15  1  0  0  0  0
 14 16  1  0  0  0  0
 14 17  1  0  0  0  0
 17 18  1  0  0  0  0
 17 19  1  0  0  0  0
 17 20  1  0  0  0  0
M  END
> <VConfSearch Rank>
212

> <Conf_Id>
2

> <Delta U+W>
0.069

> <U+W>
15.407

> <U>
69.657

> <W>
-54.250

> <W(PB)>
-56.176

> <W(SA)>
1.926

> <Valence>
1.137

> <Coulomb>
68.383

> <VdW>
0.138

> <VdW6>
-3.703

> <VdW12>
3.841

> <Bond>
0.125

> <Angle>
0.468

> <Pdih>
0.543

> <Idih>
0.000

> <Tether>
0.000

$$$$
VeraChem MOL file


 20 19  0  0  0  0  0  0  0  0999 V2000     
   20.3637   17.8232   24.4996 C   0  0  0  0  0  0  0  0  0  0  0  0
   19.4753   18.4640   24.4337 H   0  0  0  0  0  0  0  0  0  0  0  0
   20.0592   16.7913   24.2816 H   0  0  0  0  0  0  0  0  0  0  0  0
   20.7178   17.8551   25.5382 H   0  0  0  0  0  0  0  0  0  0  0  0
   21.4758   18.2915   23.5331 C   0  0  0  0  0  0  0  0  0  0  0  0
   22.3752   17.6821   23.6994 H   0  0  0  0  0  0  0  0  0  0  0  0
   21.7573   19.3276   23.7686 H   0  0  0  0  0  0  0  0  0  0  0  0
   21.0668   18.1880   22.0451 C   0  0  0  0  0  0  0  0  0  0  0  0
   21.9262   18.4613   21.4185 H   0  0  0  0  0  0  0  0  0  0  0  0
   20.8196   17.1458   21.8030 H   0  0  0  0  0  0  0  0  0  0  0  0
   19.8743   19.0983   21.6923 C   0  0  0  0  0  0  0  0  0  0  0  0
   20.1214   20.1357   21.9310 H   0  0  0  0  0  0  0  0  0  0  0  0
   19.0020   18.8081   22.2828 H   0  0  0  0  0  0  0  0  0  0  0  0
   19.4832   19.0376   20.2288 N   0  3  0  0  0  0  0  0  0  0  0  0
   19.2510   18.0686   19.9617 H   0  0  0  0  0  0  0  0  0  0  0  0
   20.2843   19.3001   19.6343 H   0  0  0  0  0  0  0  0  0  0  0  0
   18.3004   19.9608   19.9685 C   0  0  0  0  0  0  0  0  0  0  0  0
   18.5798   20.9849   20.2256 H   0  0  0  0  0  0  0  0  0  0  0  0
   18.0294   19.9075   18.9118 H   0  0  0  0  0  0  0  0  0  0  0  0
   17.4543   19.6435   20.5819 H   0  0  0  0  0  0  0  0  0  0  0  0
  1  2  1  0  0  0  0
  1  3  1  0  0  0  0
  1  4  1  0  0  0  0
  1  5  1  0  0  0  0
  5  6  1  0  0  0  0
  5  7  1  0  0  0  0
  5  8  1  0  0  0  0
  8  9  1  0  0  0  0
  8 10  1  0  0  0  0
  8 11  1  0  0  0  0
 11 12  1  0  0  0  0
 11 13  1  0  0  0  0
 11 14  1  0  0  0  0
 14 15  1  0  0  0  0
 14 16  1  0  0  0  0
 14 17  1  0  0  0  0
 17 18  1  0  0  0  0
 17 19  1  0  0  0  0
 17 20  1  0  0  0  0
M  END
> <VConfSearch Rank>
213

> <Conf_Id>
34

> <Delta U+W>
0.276

> <U+W>
15.615

> <U>
69.798

> <W>
-54.184

> <W(PB)>
-56.116

> <W(SA)>
1.933

> <Valence>
1.134

> <Coulomb>
68.735

> <VdW>
-0.070

> <VdW6>
-3.565

> <VdW12>
3.494

> <Bond>
0.108

> <Angle>
0.456

> <Pdih>
0.569

> <Idih>
0.000

> <Tether>
0.000

$$$$
VeraChem MOL file


 20 19  0  0  0  0  0  0  0  0999 V2000     
   17.0505   18.4529   22.4786 C   0  0  0  0  0  0  0  0  0  0  0  0
   16.5198   19.3142   22.0523 H   0  0  0  0  0  0  0  0  0  0  0  0
   16.4747   17.5503   22.2364 H   0  0  0  0  0  0  0  0  0  0  0  0
   17.0588   18.5634   23.5708 H   0  0  0  0  0  0  0  0  0  0  0  0
   18.4860   18.3510   21.9191 C   0  0  0  0  0  0  0  0  0  0  0  0
   18.4430   18.2096   20.8298 H   0  0  0  0  0  0  0  0  0  0  0  0
   18.9707   17.4578   22.3358 H   0  0  0  0  0  0  0  0  0  0  0  0
   19.3194   19.6122   22.2479 C   0  0  0  0  0  0  0  0  0  0  0  0
   18.8027   20.4998   21.8591 H   0  0  0  0  0  0  0  0  0  0  0  0
   19.3903   19.7441   23.3357 H   0  0  0  0  0  0  0  0  0  0  0  0
   20.7359   19.5684   21.6403 C   0  0  0  0  0  0  0  0  0  0  0  0
   21.2399   20.5194   21.8302 H   0  0  0  0  0  0  0  0  0  0  0  0
   20.6675   19.4300   20.5584 H   0  0  0  0  0  0  0  0  0  0  0  0
   21.6151   18.4655   22.1994 N   0  3  0  0  0  0  0  0  0  0  0  0
   21.1769   17.5463   22.0399 H   0  0  0  0  0  0  0  0  0  0  0  0
   21.6940   18.5586   23.2237 H   0  0  0  0  0  0  0  0  0  0  0  0
   22.9917   18.5192   21.5506 C   0  0  0  0  0  0  0  0  0  0  0  0
   22.8866   18.3857   20.4717 H   0  0  0  0  0  0  0  0  0  0  0  0
   23.4506   19.4880   21.7600 H   0  0  0  0  0  0  0  0  0  0  0  0
   23.6136   17.7209   21.9615 H   0  0  0  0  0  0  0  0  0  0  0  0
  1  2  1  0  0  0  0
  1  3  1  0  0  0  0
  1  4  1  0  0  0  0
  1  5  1  0  0  0  0
  5  6  1  0  0  0  0
  5  7  1  0  0  0  0
  5  8  1  0  0  0  0
  8  9  1  0  0  0  0
  8 10  1  0  0  0  0
  8 11  1  0  0  0  0
 11 12  1  0  0  0  0
 11 13  1  0  0  0  0
 11 14  1  0  0  0  0
 14 15  1  0  0  0  0
 14 16  1  0  0  0  0
 14 17  1  0  0  0  0
 17 18  1  0  0  0  0
 17 19  1  0  0  0  0
 17 20  1  0  0  0  0
M  END
> <VConfSearch Rank>
214

> <Conf_Id>
50

> <Delta U+W>
0.319

> <U+W>
15.657

> <U>
69.962

> <W>
-54.305

> <W(PB)>
-56.223

> <W(SA)>
1.918

> <Valence>
0.982

> <Coulomb>
69.058

> <VdW>
-0.078

> <VdW6>
-3.548

> <VdW12>
3.471

> <Bond>
0.105

> <Angle>
0.408

> <Pdih>
0.469

> <Idih>
0.000

> <Tether>
0.000

$$$$
VeraChem MOL file


 20 19  0  0  0  0  0  0  0  0999 V2000     
   20.9008   16.0385   22.8351 C   0  0  0  0  0  0  0  0  0  0  0  0
   20.8901   15.6571   23.8643 H   0  0  0  0  0  0  0  0  0  0  0  0
   20.3785   15.3099   22.2015 H   0  0  0  0  0  0  0  0  0  0  0  0
   21.9470   16.0890   22.5062 H   0  0  0  0  0  0  0  0  0  0  0  0
   20.2268   17.4257   22.7601 C   0  0  0  0  0  0  0  0  0  0  0  0
   20.7505   18.1157   23.4355 H   0  0  0  0  0  0  0  0  0  0  0  0
   19.1928   17.3483   23.1250 H   0  0  0  0  0  0  0  0  0  0  0  0
   20.2295   17.9862   21.3182 C   0  0  0  0  0  0  0  0  0  0  0  0
   21.2610   18.0929   20.9572 H   0  0  0  0  0  0  0  0  0  0  0  0
   19.7375   17.2679   20.6490 H   0  0  0  0  0  0  0  0  0  0  0  0
   19.4996   19.3394   21.2011 C   0  0  0  0  0  0  0  0  0  0  0  0
   18.4748   19.2369   21.5666 H   0  0  0  0  0  0  0  0  0  0  0  0
   19.4576   19.6374   20.1504 H   0  0  0  0  0  0  0  0  0  0  0  0
   20.1609   20.4678   21.9701 N   0  3  0  0  0  0  0  0  0  0  0  0
   21.1367   20.5868   21.6576 H   0  0  0  0  0  0  0  0  0  0  0  0
   20.2201   20.2289   22.9710 H   0  0  0  0  0  0  0  0  0  0  0  0
   19.3766   21.7585   21.7759 C   0  0  0  0  0  0  0  0  0  0  0  0
   19.8629   22.5615   22.3343 H   0  0  0  0  0  0  0  0  0  0  0  0
   19.3550   22.0099   20.7133 H   0  0  0  0  0  0  0  0  0  0  0  0
   18.3576   21.6192   22.1434 H   0  0  0  0  0  0  0  0  0  0  0  0
  1  2  1  0  0  0  0
  1  3  1  0  0  0  0
  1  4  1  0  0  0  0
  1  5  1  0  0  0  0
  5  6  1  0  0  0  0
  5  7  1  0  0  0  0
  5  8  1  0  0  0  0
  8  9  1  0  0  0  0
  8 10  1  0  0  0  0
  8 11  1  0  0  0  0
 11 12  1  0  0  0  0
 11 13  1  0  0  0  0
 11 14  1  0  0  0  0
 14 15  1  0  0  0  0
 14 16  1  0  0  0  0
 14 17  1  0  0  0  0
 17 18  1  0  0  0  0
 17 19  1  0  0  0  0
 17 20  1  0  0  0  0
M  END
> <VConfSearch Rank>
215

> <Conf_Id>
35

> <Delta U+W>
0.360

> <U+W>
15.698

> <U>
69.962

> <W>
-54.264

> <W(PB)>
-56.166

> <W(SA)>
1.902

> <Valence>
0.982

> <Coulomb>
69.058

> <VdW>
-0.078

> <VdW6>
-3.548

> <VdW12>
3.471

> <Bond>
0.105

> <Angle>
0.408

> <Pdih>
0.469

> <Idih>
0.000

> <Tether>
0.000

$$$$
VeraChem MOL file


 20 19  0  0  0  0  0  0  0  0999 V2000     
   21.7060   19.9886   23.5279 C   0  0  0  0  0  0  0  0  0  0  0  0
   22.3287   19.2565   22.9983 H   0  0  0  0  0  0  0  0  0  0  0  0
   22.3726   20.7678   23.9198 H   0  0  0  0  0  0  0  0  0  0  0  0
   21.2392   19.4856   24.3847 H   0  0  0  0  0  0  0  0  0  0  0  0
   20.6384   20.6067   22.5961 C   0  0  0  0  0  0  0  0  0  0  0  0
   21.1309   21.0987   21.7455 H   0  0  0  0  0  0  0  0  0  0  0  0
   20.1011   21.3961   23.1403 H   0  0  0  0  0  0  0  0  0  0  0  0
   19.6160   19.5687   22.0774 C   0  0  0  0  0  0  0  0  0  0  0  0
   19.1009   19.1078   22.9300 H   0  0  0  0  0  0  0  0  0  0  0  0
   18.8478   20.0868   21.4884 H   0  0  0  0  0  0  0  0  0  0  0  0
   20.2711   18.4770   21.2042 C   0  0  0  0  0  0  0  0  0  0  0  0
   20.9911   17.9083   21.7976 H   0  0  0  0  0  0  0  0  0  0  0  0
   20.8118   18.9562   20.3841 H   0  0  0  0  0  0  0  0  0  0  0  0
   19.2938   17.4902   20.5867 N   0  3  0  0  0  0  0  0  0  0  0  0
   19.7862   16.9030   19.8954 H   0  0  0  0  0  0  0  0  0  0  0  0
   18.5751   17.9916   20.0428 H   0  0  0  0  0  0  0  0  0  0  0  0
   18.6513   16.6074   21.6513 C   0  0  0  0  0  0  0  0  0  0  0  0
   18.0779   17.2299   22.3409 H   0  0  0  0  0  0  0  0  0  0  0  0
   17.9860   15.8894   21.1667 H   0  0  0  0  0  0  0  0  0  0  0  0
   19.4333   16.0744   22.1962 H   0  0  0  0  0  0  0  0  0  0  0  0
  1  2  1  0  0  0  0
  1  3  1  0  0  0  0
  1  4  1  0  0  0  0
  1  5  1  0  0  0  0
  5  6  1  0  0  0  0
  5  7  1  0  0  0  0
  5  8  1  0  0  0  0
  8  9  1  0  0  0  0
  8 10  1  0  0  0  0
  8 11  1  0  0  0  0
 11 12  1  0  0  0  0
 11 13  1  0  0  0  0
 11 14  1  0  0  0  0
 14 15  1  0  0  0  0
 14 16  1  0  0  0  0
 14 17  1  0  0  0  0
 17 18  1  0  0  0  0
 17 19  1  0  0  0  0
 17 20  1  0  0  0  0
M  END
> <VConfSearch Rank>
216

> <Conf_Id>
33

> <Delta U+W>
0.372

> <U+W>
15.711

> <U>
70.163

> <W>
-54.452

> <W(PB)>
-56.363

> <W(SA)>
1.911

> <Valence>
1.420

> <Coulomb>
68.566

> <VdW>
0.177

> <VdW6>
-4.267

> <VdW12>
4.445

> <Bond>
0.146

> <Angle>
0.581

> <Pdih>
0.693

> <Idih>
0.000

> <Tether>
0.000

$$$$
VeraChem MOL file


 20 19  0  0  0  0  0  0  0  0999 V2000     
   20.6339   17.3873   19.9313 C   0  0  0  0  0  0  0  0  0  0  0  0
   20.9808   17.0932   18.9323 H   0  0  0  0  0  0  0  0  0  0  0  0
   21.4143   17.1041   20.6489 H   0  0  0  0  0  0  0  0  0  0  0  0
   19.7321   16.8038   20.1577 H   0  0  0  0  0  0  0  0  0  0  0  0
   20.3415   18.9047   19.9789 C   0  0  0  0  0  0  0  0  0  0  0  0
   19.6243   19.1567   19.1851 H   0  0  0  0  0  0  0  0  0  0  0  0
   21.2600   19.4650   19.7541 H   0  0  0  0  0  0  0  0  0  0  0  0
   19.7686   19.3666   21.3391 C   0  0  0  0  0  0  0  0  0  0  0  0
   19.5138   20.4328   21.2763 H   0  0  0  0  0  0  0  0  0  0  0  0
   18.8320   18.8309   21.5404 H   0  0  0  0  0  0  0  0  0  0  0  0
   20.7597   19.1518   22.5032 C   0  0  0  0  0  0  0  0  0  0  0  0
   21.6987   19.6590   22.2673 H   0  0  0  0  0  0  0  0  0  0  0  0
   20.9706   18.0862   22.6203 H   0  0  0  0  0  0  0  0  0  0  0  0
   20.2832   19.6826   23.8454 N   0  3  0  0  0  0  0  0  0  0  0  0
   20.0412   20.6823   23.7691 H   0  0  0  0  0  0  0  0  0  0  0  0
   21.0593   19.6499   24.5250 H   0  0  0  0  0  0  0  0  0  0  0  0
   19.1006   18.8763   24.3715 C   0  0  0  0  0  0  0  0  0  0  0  0
   18.8117   19.2630   25.3513 H   0  0  0  0  0  0  0  0  0  0  0  0
   18.2614   18.9696   23.6794 H   0  0  0  0  0  0  0  0  0  0  0  0
   19.3919   17.8276   24.4612 H   0  0  0  0  0  0  0  0  0  0  0  0
  1  2  1  0  0  0  0
  1  3  1  0  0  0  0
  1  4  1  0  0  0  0
  1  5  1  0  0  0  0
  5  6  1  0  0  0  0
  5  7  1  0  0  0  0
  5  8  1  0  0  0  0
  8  9  1  0  0  0  0
  8 10  1  0  0  0  0
  8 11  1  0  0  0  0
 11 12  1  0  0  0  0
 11 13  1  0  0  0  0
 11 14  1  0  0  0  0
 14 15  1  0  0  0  0
 14 16  1  0  0  0  0
 14 17  1  0  0  0  0
 17 18  1  0  0  0  0
 17 19  1  0  0  0  0
 17 20  1  0  0  0  0
M  END
> <VConfSearch Rank>
217

> <Conf_Id>
53

> <Delta U+W>
0.379

> <U+W>
15.717

> <U>
70.163

> <W>
-54.446

> <W(PB)>
-56.322

> <W(SA)>
1.876

> <Valence>
1.420

> <Coulomb>
68.566

> <VdW>
0.177

> <VdW6>
-4.267

> <VdW12>
4.445

> <Bond>
0.146

> <Angle>
0.581

> <Pdih>
0.693

> <Idih>
0.000

> <Tether>
0.000

$$$$
VeraChem MOL file


 20 19  0  0  0  0  0  0  0  0999 V2000     
   22.4462   20.1498   21.1537 C   0  0  0  0  0  0  0  0  0  0  0  0
   22.9774   20.0396   20.1994 H   0  0  0  0  0  0  0  0  0  0  0  0
   22.4267   21.2180   21.4058 H   0  0  0  0  0  0  0  0  0  0  0  0
   23.0278   19.6275   21.9244 H   0  0  0  0  0  0  0  0  0  0  0  0
   21.0165   19.5757   21.0518 C   0  0  0  0  0  0  0  0  0  0  0  0
   21.0748   18.5180   20.7609 H   0  0  0  0  0  0  0  0  0  0  0  0
   20.4708   20.0961   20.2521 H   0  0  0  0  0  0  0  0  0  0  0  0
   20.2464   19.7170   22.3858 C   0  0  0  0  0  0  0  0  0  0  0  0
   20.7729   19.1761   23.1826 H   0  0  0  0  0  0  0  0  0  0  0  0
   20.2336   20.7727   22.6872 H   0  0  0  0  0  0  0  0  0  0  0  0
   18.7860   19.2217   22.2917 C   0  0  0  0  0  0  0  0  0  0  0  0
   18.2605   19.8091   21.5345 H   0  0  0  0  0  0  0  0  0  0  0  0
   18.2840   19.3838   23.2488 H   0  0  0  0  0  0  0  0  0  0  0  0
   18.6173   17.7544   21.9267 N   0  3  0  0  0  0  0  0  0  0  0  0
   19.0807   17.5558   21.0278 H   0  0  0  0  0  0  0  0  0  0  0  0
   17.6188   17.5530   21.7607 H   0  0  0  0  0  0  0  0  0  0  0  0
   19.1540   16.8442   23.0259 C   0  0  0  0  0  0  0  0  0  0  0  0
   18.6325   17.0629   23.9602 H   0  0  0  0  0  0  0  0  0  0  0  0
   18.9826   15.8030   22.7439 H   0  0  0  0  0  0  0  0  0  0  0  0
   20.2246   17.0186   23.1497 H   0  0  0  0  0  0  0  0  0  0  0  0
  1  2  1  0  0  0  0
  1  3  1  0  0  0  0
  1  4  1  0  0  0  0
  1  5  1  0  0  0  0
  5  6  1  0  0  0  0
  5  7  1  0  0  0  0
  5  8  1  0  0  0  0
  8  9  1  0  0  0  0
  8 10  1  0  0  0  0
  8 11  1  0  0  0  0
 11 12  1  0  0  0  0
 11 13  1  0  0  0  0
 11 14  1  0  0  0  0
 14 15  1  0  0  0  0
 14 16  1  0  0  0  0
 14 17  1  0  0  0  0
 17 18  1  0  0  0  0
 17 19  1  0  0  0  0
 17 20  1  0  0  0  0
M  END
> <VConfSearch Rank>
218

> <Conf_Id>
49

> <Delta U+W>
0.268

> <U+W>
15.607

> <U>
70.298

> <W>
-54.692

> <W(PB)>
-56.576

> <W(SA)>
1.885

> <Valence>
1.245

> <Coulomb>
68.933

> <VdW>
0.120

> <VdW6>
-4.430

> <VdW12>
4.550

> <Bond>
0.148

> <Angle>
0.587

> <Pdih>
0.509

> <Idih>
0.000

> <Tether>
0.000

$$$$
VeraChem MOL file


 20 19  0  0  0  0  0  0  0  0999 V2000     
   20.6737   16.4079   20.6198 C   0  0  0  0  0  0  0  0  0  0  0  0
   20.2652   15.6469   21.2975 H   0  0  0  0  0  0  0  0  0  0  0  0
   20.1233   16.3518   19.6717 H   0  0  0  0  0  0  0  0  0  0  0  0
   21.7208   16.1491   20.4158 H   0  0  0  0  0  0  0  0  0  0  0  0
   20.5714   17.8179   21.2409 C   0  0  0  0  0  0  0  0  0  0  0  0
   21.0126   18.5529   20.5531 H   0  0  0  0  0  0  0  0  0  0  0  0
   21.1660   17.8424   22.1636 H   0  0  0  0  0  0  0  0  0  0  0  0
   19.1056   18.2031   21.5485 C   0  0  0  0  0  0  0  0  0  0  0  0
   18.5004   18.0616   20.6433 H   0  0  0  0  0  0  0  0  0  0  0  0
   18.6931   17.5214   22.3040 H   0  0  0  0  0  0  0  0  0  0  0  0
   18.9215   19.6636   22.0198 C   0  0  0  0  0  0  0  0  0  0  0  0
   17.8507   19.8447   22.1443 H   0  0  0  0  0  0  0  0  0  0  0  0
   19.2881   20.3575   21.2594 H   0  0  0  0  0  0  0  0  0  0  0  0
   19.5812   20.0154   23.3443 N   0  3  0  0  0  0  0  0  0  0  0  0
   19.5821   19.1990   23.9739 H   0  0  0  0  0  0  0  0  0  0  0  0
   19.0100   20.7235   23.8315 H   0  0  0  0  0  0  0  0  0  0  0  0
   20.9897   20.5631   23.1375 C   0  0  0  0  0  0  0  0  0  0  0  0
   21.4173   20.8239   24.1081 H   0  0  0  0  0  0  0  0  0  0  0  0
   21.6123   19.8091   22.6546 H   0  0  0  0  0  0  0  0  0  0  0  0
   20.9381   21.4546   22.5088 H   0  0  0  0  0  0  0  0  0  0  0  0
  1  2  1  0  0  0  0
  1  3  1  0  0  0  0
  1  4  1  0  0  0  0
  1  5  1  0  0  0  0
  5  6  1  0  0  0  0
  5  7  1  0  0  0  0
  5  8  1  0  0  0  0
  8  9  1  0  0  0  0
  8 10  1  0  0  0  0
  8 11  1  0  0  0  0
 11 12  1  0  0  0  0
 11 13  1  0  0  0  0
 11 14  1  0  0  0  0
 14 15  1  0  0  0  0
 14 16  1  0  0  0  0
 14 17  1  0  0  0  0
 17 18  1  0  0  0  0
 17 19  1  0  0  0  0
 17 20  1  0  0  0  0
M  END
> <VConfSearch Rank>
219

> <Conf_Id>
65

> <Delta U+W>
1.775

> <U+W>
17.114

> <U>
71.726

> <W>
-54.613

> <W(PB)>
-56.495

> <W(SA)>
1.883

> <Valence>
2.885

> <Coulomb>
68.822

> <VdW>
0.019

> <VdW6>
-4.600

> <VdW12>
4.619

> <Bond>
0.152

> <Angle>
0.862

> <Pdih>
1.871

> <Idih>
0.000

> <Tether>
0.000

$$$$
VeraChem MOL file


 20 19  0  0  0  0  0  0  0  0999 V2000     
   19.5940   16.6537   21.0191 C   0  0  0  0  0  0  0  0  0  0  0  0
   20.1049   17.3987   20.3962 H   0  0  0  0  0  0  0  0  0  0  0  0
   20.0494   15.6776   20.8076 H   0  0  0  0  0  0  0  0  0  0  0  0
   18.5431   16.6074   20.7051 H   0  0  0  0  0  0  0  0  0  0  0  0
   19.7104   16.9919   22.5231 C   0  0  0  0  0  0  0  0  0  0  0  0
   20.7694   17.0316   22.8124 H   0  0  0  0  0  0  0  0  0  0  0  0
   19.2676   16.1737   23.1083 H   0  0  0  0  0  0  0  0  0  0  0  0
   19.0032   18.3165   22.9043 C   0  0  0  0  0  0  0  0  0  0  0  0
   17.9277   18.2219   22.7041 H   0  0  0  0  0  0  0  0  0  0  0  0
   19.0991   18.4833   23.9854 H   0  0  0  0  0  0  0  0  0  0  0  0
   19.5374   19.5527   22.1509 C   0  0  0  0  0  0  0  0  0  0  0  0
   18.9674   20.4350   22.4527 H   0  0  0  0  0  0  0  0  0  0  0  0
   19.4032   19.4146   21.0755 H   0  0  0  0  0  0  0  0  0  0  0  0
   21.0040   19.8434   22.4058 N   0  3  0  0  0  0  0  0  0  0  0  0
   21.5763   19.0285   22.1394 H   0  0  0  0  0  0  0  0  0  0  0  0
   21.1696   19.9787   23.4149 H   0  0  0  0  0  0  0  0  0  0  0  0
   21.4337   21.0766   21.6228 C   0  0  0  0  0  0  0  0  0  0  0  0
   20.8361   21.9326   21.9437 H   0  0  0  0  0  0  0  0  0  0  0  0
   22.4908   21.2732   21.8145 H   0  0  0  0  0  0  0  0  0  0  0  0
   21.2800   20.8975   20.5565 H   0  0  0  0  0  0  0  0  0  0  0  0
  1  2  1  0  0  0  0
  1  3  1  0  0  0  0
  1  4  1  0  0  0  0
  1  5  1  0  0  0  0
  5  6  1  0  0  0  0
  5  7  1  0  0  0  0
  5  8  1  0  0  0  0
  8  9  1  0  0  0  0
  8 10  1  0  0  0  0
  8 11  1  0  0  0  0
 11 12  1  0  0  0  0
 11 13  1  0  0  0  0
 11 14  1  0  0  0  0
 14 15  1  0  0  0  0
 14 16  1  0  0  0  0
 14 17  1  0  0  0  0
 17 18  1  0  0  0  0
 17 19  1  0  0  0  0
 17 20  1  0  0  0  0
M  END
> <VConfSearch Rank>
220

> <Conf_Id>
23

> <Delta U+W>
0.896

> <U+W>
16.234

> <U>
70.374

> <W>
-54.140

> <W(PB)>
-56.046

> <W(SA)>
1.907

> <Valence>
1.257

> <Coulomb>
69.240

> <VdW>
-0.123

> <VdW6>
-4.336

> <VdW12>
4.213

> <Bond>
0.128

> <Angle>
0.603

> <Pdih>
0.526

> <Idih>
0.000

> <Tether>
0.000

$$$$
VeraChem MOL file


 20 19  0  0  0  0  0  0  0  0999 V2000     
   21.1953   20.8972   22.0731 C   0  0  0  0  0  0  0  0  0  0  0  0
   22.2869   20.7826   22.0542 H   0  0  0  0  0  0  0  0  0  0  0  0
   20.9715   21.9715   22.0480 H   0  0  0  0  0  0  0  0  0  0  0  0
   20.8264   20.5050   23.0291 H   0  0  0  0  0  0  0  0  0  0  0  0
   20.5402   20.1786   20.8712 C   0  0  0  0  0  0  0  0  0  0  0  0
   20.8679   20.6658   19.9421 H   0  0  0  0  0  0  0  0  0  0  0  0
   19.4502   20.3083   20.9122 H   0  0  0  0  0  0  0  0  0  0  0  0
   20.8960   18.6727   20.7965 C   0  0  0  0  0  0  0  0  0  0  0  0
   20.4239   18.2299   19.9094 H   0  0  0  0  0  0  0  0  0  0  0  0
   21.9791   18.5646   20.6519 H   0  0  0  0  0  0  0  0  0  0  0  0
   20.4832   17.8673   22.0462 C   0  0  0  0  0  0  0  0  0  0  0  0
   20.9854   18.2728   22.9278 H   0  0  0  0  0  0  0  0  0  0  0  0
   20.7965   16.8271   21.9266 H   0  0  0  0  0  0  0  0  0  0  0  0
   18.9905   17.8698   22.3156 N   0  3  0  0  0  0  0  0  0  0  0  0
   18.4816   17.4932   21.5013 H   0  0  0  0  0  0  0  0  0  0  0  0
   18.6542   18.8378   22.4273 H   0  0  0  0  0  0  0  0  0  0  0  0
   18.6856   17.0512   23.5628 C   0  0  0  0  0  0  0  0  0  0  0  0
   19.2084   17.4877   24.4166 H   0  0  0  0  0  0  0  0  0  0  0  0
   17.6088   17.0627   23.7452 H   0  0  0  0  0  0  0  0  0  0  0  0
   19.0219   16.0235   23.4096 H   0  0  0  0  0  0  0  0  0  0  0  0
  1  2  1  0  0  0  0
  1  3  1  0  0  0  0
  1  4  1  0  0  0  0
  1  5  1  0  0  0  0
  5  6  1  0  0  0  0
  5  7  1  0  0  0  0
  5  8  1  0  0  0  0
  8  9  1  0  0  0  0
  8 10  1  0  0  0  0
  8 11  1  0  0  0  0
 11 12  1  0  0  0  0
 11 13  1  0  0  0  0
 11 14  1  0  0  0  0
 14 15  1  0  0  0  0
 14 16  1  0  0  0  0
 14 17  1  0  0  0  0
 17 18  1  0  0  0  0
 17 19  1  0  0  0  0
 17 20  1  0  0  0  0
M  END
> <VConfSearch Rank>
221

> <Conf_Id>
24

> <Delta U+W>
0.792

> <U+W>
16.130

> <U>
70.374

> <W>
-54.243

> <W(PB)>
-56.130

> <W(SA)>
1.887

> <Valence>
1.257

> <Coulomb>
69.240

> <VdW>
-0.123

> <VdW6>
-4.336

> <VdW12>
4.213

> <Bond>
0.128

> <Angle>
0.603

> <Pdih>
0.526

> <Idih>
0.000

> <Tether>
0.000

$$$$
VeraChem MOL file


 20 19  0  0  0  0  0  0  0  0999 V2000     
   18.3840   19.9931   22.9124 C   0  0  0  0  0  0  0  0  0  0  0  0
   17.8506   20.7879   23.4499 H   0  0  0  0  0  0  0  0  0  0  0  0
   18.9739   20.4780   22.1257 H   0  0  0  0  0  0  0  0  0  0  0  0
   17.6310   19.3454   22.4449 H   0  0  0  0  0  0  0  0  0  0  0  0
   19.2821   19.1980   23.8874 C   0  0  0  0  0  0  0  0  0  0  0  0
   18.6829   18.9151   24.7644 H   0  0  0  0  0  0  0  0  0  0  0  0
   20.0812   19.8519   24.2642 H   0  0  0  0  0  0  0  0  0  0  0  0
   19.9028   17.9118   23.2847 C   0  0  0  0  0  0  0  0  0  0  0  0
   20.4576   17.3989   24.0815 H   0  0  0  0  0  0  0  0  0  0  0  0
   19.1127   17.2162   22.9724 H   0  0  0  0  0  0  0  0  0  0  0  0
   20.8793   18.1614   22.1158 C   0  0  0  0  0  0  0  0  0  0  0  0
   21.5329   17.2925   22.0046 H   0  0  0  0  0  0  0  0  0  0  0  0
   21.5048   19.0299   22.3362 H   0  0  0  0  0  0  0  0  0  0  0  0
   20.2061   18.3820   20.7745 N   0  3  0  0  0  0  0  0  0  0  0  0
   19.5361   19.1614   20.8404 H   0  0  0  0  0  0  0  0  0  0  0  0
   19.6423   17.5563   20.5207 H   0  0  0  0  0  0  0  0  0  0  0  0
   21.2534   18.6633   19.7057 C   0  0  0  0  0  0  0  0  0  0  0  0
   21.8152   19.5591   19.9791 H   0  0  0  0  0  0  0  0  0  0  0  0
   21.9312   17.8101   19.6330 H   0  0  0  0  0  0  0  0  0  0  0  0
   20.7547   18.8199   18.7466 H   0  0  0  0  0  0  0  0  0  0  0  0
  1  2  1  0  0  0  0
  1  3  1  0  0  0  0
  1  4  1  0  0  0  0
  1  5  1  0  0  0  0
  5  6  1  0  0  0  0
  5  7  1  0  0  0  0
  5  8  1  0  0  0  0
  8  9  1  0  0  0  0
  8 10  1  0  0  0  0
  8 11  1  0  0  0  0
 11 12  1  0  0  0  0
 11 13  1  0  0  0  0
 11 14  1  0  0  0  0
 14 15  1  0  0  0  0
 14 16  1  0  0  0  0
 14 17  1  0  0  0  0
 17 18  1  0  0  0  0
 17 19  1  0  0  0  0
 17 20  1  0  0  0  0
M  END
> <VConfSearch Rank>
222

> <Conf_Id>
26

> <Delta U+W>
2.888

> <U+W>
18.226

> <U>
72.042

> <W>
-53.816

> <W(PB)>
-55.689

> <W(SA)>
1.873

> <Valence>
2.428

> <Coulomb>
69.829

> <VdW>
-0.215

> <VdW6>
-4.563

> <VdW12>
4.348

> <Bond>
0.137

> <Angle>
0.936

> <Pdih>
1.356

> <Idih>
0.000

> <Tether>
0.000

$$$$
VeraChem MOL file


 20 19  0  0  0  0  0  0  0  0999 V2000     
   21.3974   20.5522   21.4958 C   0  0  0  0  0  0  0  0  0  0  0  0
   21.8246   21.4189   20.9748 H   0  0  0  0  0  0  0  0  0  0  0  0
   22.0997   20.2619   22.2881 H   0  0  0  0  0  0  0  0  0  0  0  0
   21.3310   19.7386   20.7638 H   0  0  0  0  0  0  0  0  0  0  0  0
   20.0099   20.9080   22.0770 C   0  0  0  0  0  0  0  0  0  0  0  0
   19.3074   21.1008   21.2539 H   0  0  0  0  0  0  0  0  0  0  0  0
   20.0941   21.8531   22.6317 H   0  0  0  0  0  0  0  0  0  0  0  0
   19.4175   19.8356   23.0267 C   0  0  0  0  0  0  0  0  0  0  0  0
   20.0749   19.6877   23.8936 H   0  0  0  0  0  0  0  0  0  0  0  0
   18.4726   20.2250   23.4284 H   0  0  0  0  0  0  0  0  0  0  0  0
   19.1196   18.4798   22.3519 C   0  0  0  0  0  0  0  0  0  0  0  0
   18.6862   18.6468   21.3628 H   0  0  0  0  0  0  0  0  0  0  0  0
   18.3891   17.9339   22.9543 H   0  0  0  0  0  0  0  0  0  0  0  0
   20.3295   17.5774   22.2002 N   0  3  0  0  0  0  0  0  0  0  0  0
   20.7333   17.3674   23.1258 H   0  0  0  0  0  0  0  0  0  0  0  0
   21.0722   18.0679   21.6822 H   0  0  0  0  0  0  0  0  0  0  0  0
   19.9348   16.2924   21.4851 C   0  0  0  0  0  0  0  0  0  0  0  0
   19.5409   16.5372   20.4963 H   0  0  0  0  0  0  0  0  0  0  0  0
   20.8147   15.6534   21.3832 H   0  0  0  0  0  0  0  0  0  0  0  0
   19.1705   15.7757   22.0696 H   0  0  0  0  0  0  0  0  0  0  0  0
  1  2  1  0  0  0  0
  1  3  1  0  0  0  0
  1  4  1  0  0  0  0
  1  5  1  0  0  0  0
  5  6  1  0  0  0  0
  5  7  1  0  0  0  0
  5  8  1  0  0  0  0
  8  9  1  0  0  0  0
  8 10  1  0  0  0  0
  8 11  1  0  0  0  0
 11 12  1  0  0  0  0
 11 13  1  0  0  0  0
 11 14  1  0  0  0  0
 14 15  1  0  0  0  0
 14 16  1  0  0  0  0
 14 17  1  0  0  0  0
 17 18  1  0  0  0  0
 17 19  1  0  0  0  0
 17 20  1  0  0  0  0
M  END
> <VConfSearch Rank>
223

> <Conf_Id>
5

> <Delta U+W>
2.950

> <U+W>
18.289

> <U>
72.042

> <W>
-53.753

> <W(PB)>
-55.644

> <W(SA)>
1.891

> <Valence>
2.428

> <Coulomb>
69.829

> <VdW>
-0.215

> <VdW6>
-4.563

> <VdW12>
4.348

> <Bond>
0.137

> <Angle>
0.936

> <Pdih>
1.356

> <Idih>
0.000

> <Tether>
0.000

$$$$
VeraChem MOL file


 20 19  0  0  0  0  0  0  0  0999 V2000     
   19.0410   17.5258   23.7828 C   0  0  0  0  0  0  0  0  0  0  0  0
   18.3104   16.7991   23.4045 H   0  0  0  0  0  0  0  0  0  0  0  0
   20.0461   17.1183   23.6169 H   0  0  0  0  0  0  0  0  0  0  0  0
   18.8943   17.6136   24.8671 H   0  0  0  0  0  0  0  0  0  0  0  0
   18.8626   18.9005   23.0984 C   0  0  0  0  0  0  0  0  0  0  0  0
   19.6008   19.6108   23.4950 H   0  0  0  0  0  0  0  0  0  0  0  0
   17.8772   19.3072   23.3656 H   0  0  0  0  0  0  0  0  0  0  0  0
   18.9706   18.8288   21.5548 C   0  0  0  0  0  0  0  0  0  0  0  0
   18.1665   18.1902   21.1662 H   0  0  0  0  0  0  0  0  0  0  0  0
   18.7950   19.8259   21.1308 H   0  0  0  0  0  0  0  0  0  0  0  0
   20.3231   18.2819   21.0438 C   0  0  0  0  0  0  0  0  0  0  0  0
   20.3210   18.2652   19.9510 H   0  0  0  0  0  0  0  0  0  0  0  0
   20.4456   17.2537   21.3929 H   0  0  0  0  0  0  0  0  0  0  0  0
   21.5485   19.0636   21.4917 N   0  3  0  0  0  0  0  0  0  0  0  0
   22.4030   18.5509   21.2233 H   0  0  0  0  0  0  0  0  0  0  0  0
   21.5784   19.1132   22.5206 H   0  0  0  0  0  0  0  0  0  0  0  0
   21.5677   20.4605   20.8810 C   0  0  0  0  0  0  0  0  0  0  0  0
   20.6912   21.0158   21.2204 H   0  0  0  0  0  0  0  0  0  0  0  0
   22.4755   20.9778   21.1992 H   0  0  0  0  0  0  0  0  0  0  0  0
   21.5545   20.3768   19.7922 H   0  0  0  0  0  0  0  0  0  0  0  0
  1  2  1  0  0  0  0
  1  3  1  0  0  0  0
  1  4  1  0  0  0  0
  1  5  1  0  0  0  0
  5  6  1  0  0  0  0
  5  7  1  0  0  0  0
  5  8  1  0  0  0  0
  8  9  1  0  0  0  0
  8 10  1  0  0  0  0
  8 11  1  0  0  0  0
 11 12  1  0  0  0  0
 11 13  1  0  0  0  0
 11 14  1  0  0  0  0
 14 15  1  0  0  0  0
 14 16  1  0  0  0  0
 14 17  1  0  0  0  0
 17 18  1  0  0  0  0
 17 19  1  0  0  0  0
 17 20  1  0  0  0  0
M  END
> <VConfSearch Rank>
224

> <Conf_Id>
52

> <Delta U+W>
0.784

> <U+W>
16.122

> <U>
70.777

> <W>
-54.655

> <W(PB)>
-56.491

> <W(SA)>
1.836

> <Valence>
1.529

> <Coulomb>
69.166

> <VdW>
0.082

> <VdW6>
-5.166

> <VdW12>
5.248

> <Bond>
0.171

> <Angle>
0.752

> <Pdih>
0.605

> <Idih>
0.000

> <Tether>
0.000

$$$$
VeraChem MOL file


 20 19  0  0  0  0  0  0  0  0999 V2000     
   20.7205   20.8079   22.6327 C   0  0  0  0  0  0  0  0  0  0  0  0
   21.1952   21.7058   23.0495 H   0  0  0  0  0  0  0  0  0  0  0  0
   21.1567   20.6465   21.6403 H   0  0  0  0  0  0  0  0  0  0  0  0
   19.6492   21.0200   22.5195 H   0  0  0  0  0  0  0  0  0  0  0  0
   20.9582   19.5963   23.5626 C   0  0  0  0  0  0  0  0  0  0  0  0
   20.7169   19.8946   24.5926 H   0  0  0  0  0  0  0  0  0  0  0  0
   22.0266   19.3383   23.5641 H   0  0  0  0  0  0  0  0  0  0  0  0
   20.1175   18.3424   23.2105 C   0  0  0  0  0  0  0  0  0  0  0  0
   20.2981   17.5877   23.9873 H   0  0  0  0  0  0  0  0  0  0  0  0
   19.0468   18.5752   23.2664 H   0  0  0  0  0  0  0  0  0  0  0  0
   20.4615   17.6997   21.8466 C   0  0  0  0  0  0  0  0  0  0  0  0
   20.0859   16.6735   21.8278 H   0  0  0  0  0  0  0  0  0  0  0  0
   21.5480   17.6588   21.7356 H   0  0  0  0  0  0  0  0  0  0  0  0
   19.8934   18.4019   20.6232 N   0  3  0  0  0  0  0  0  0  0  0  0
   20.3295   18.0172   19.7706 H   0  0  0  0  0  0  0  0  0  0  0  0
   20.1541   19.3977   20.6348 H   0  0  0  0  0  0  0  0  0  0  0  0
   18.3791   18.2412   20.5468 C   0  0  0  0  0  0  0  0  0  0  0  0
   18.1316   17.1778   20.5205 H   0  0  0  0  0  0  0  0  0  0  0  0
   17.9198   18.7067   21.4208 H   0  0  0  0  0  0  0  0  0  0  0  0
   18.0133   18.7262   19.6391 H   0  0  0  0  0  0  0  0  0  0  0  0
  1  2  1  0  0  0  0
  1  3  1  0  0  0  0
  1  4  1  0  0  0  0
  1  5  1  0  0  0  0
  5  6  1  0  0  0  0
  5  7  1  0  0  0  0
  5  8  1  0  0  0  0
  8  9  1  0  0  0  0
  8 10  1  0  0  0  0
  8 11  1  0  0  0  0
 11 12  1  0  0  0  0
 11 13  1  0  0  0  0
 11 14  1  0  0  0  0
 14 15  1  0  0  0  0
 14 16  1  0  0  0  0
 14 17  1  0  0  0  0
 17 18  1  0  0  0  0
 17 19  1  0  0  0  0
 17 20  1  0  0  0  0
M  END
> <VConfSearch Rank>
225

> <Conf_Id>
55

> <Delta U+W>
2.745

> <U+W>
18.083

> <U>
72.490

> <W>
-54.407

> <W(PB)>
-56.269

> <W(SA)>
1.861

> <Valence>
2.738

> <Coulomb>
69.795

> <VdW>
-0.043

> <VdW6>
-5.333

> <VdW12>
5.290

> <Bond>
0.182

> <Angle>
1.135

> <Pdih>
1.422

> <Idih>
0.000

> <Tether>
0.000

$$$$
VeraChem MOL file


 20 19  0  0  0  0  0  0  0  0999 V2000     
   20.9323   16.9650   21.9823 C   0  0  0  0  0  0  0  0  0  0  0  0
   21.5842   16.0860   21.8955 H   0  0  0  0  0  0  0  0  0  0  0  0
   20.3065   16.8283   22.8740 H   0  0  0  0  0  0  0  0  0  0  0  0
   20.2885   16.9750   21.0955 H   0  0  0  0  0  0  0  0  0  0  0  0
   21.7812   18.2528   22.0837 C   0  0  0  0  0  0  0  0  0  0  0  0
   22.3065   18.4224   21.1332 H   0  0  0  0  0  0  0  0  0  0  0  0
   22.5641   18.0958   22.8390 H   0  0  0  0  0  0  0  0  0  0  0  0
   20.9791   19.5212   22.4718 C   0  0  0  0  0  0  0  0  0  0  0  0
   20.5003   19.3833   23.4494 H   0  0  0  0  0  0  0  0  0  0  0  0
   21.6945   20.3435   22.6051 H   0  0  0  0  0  0  0  0  0  0  0  0
   19.9403   19.9726   21.4189 C   0  0  0  0  0  0  0  0  0  0  0  0
   20.3910   19.9132   20.4251 H   0  0  0  0  0  0  0  0  0  0  0  0
   19.6734   21.0165   21.6017 H   0  0  0  0  0  0  0  0  0  0  0  0
   18.6417   19.1817   21.3906 N   0  3  0  0  0  0  0  0  0  0  0  0
   18.8426   18.1762   21.2989 H   0  0  0  0  0  0  0  0  0  0  0  0
   18.1049   19.4293   20.5445 H   0  0  0  0  0  0  0  0  0  0  0  0
   17.8015   19.4533   22.6336 C   0  0  0  0  0  0  0  0  0  0  0  0
   18.3498   19.1300   23.5204 H   0  0  0  0  0  0  0  0  0  0  0  0
   17.5907   20.5229   22.6980 H   0  0  0  0  0  0  0  0  0  0  0  0
   16.8641   18.8977   22.5600 H   0  0  0  0  0  0  0  0  0  0  0  0
  1  2  1  0  0  0  0
  1  3  1  0  0  0  0
  1  4  1  0  0  0  0
  1  5  1  0  0  0  0
  5  6  1  0  0  0  0
  5  7  1  0  0  0  0
  5  8  1  0  0  0  0
  8  9  1  0  0  0  0
  8 10  1  0  0  0  0
  8 11  1  0  0  0  0
 11 12  1  0  0  0  0
 11 13  1  0  0  0  0
 11 14  1  0  0  0  0
 14 15  1  0  0  0  0
 14 16  1  0  0  0  0
 14 17  1  0  0  0  0
 17 18  1  0  0  0  0
 17 19  1  0  0  0  0
 17 20  1  0  0  0  0
M  END
> <VConfSearch Rank>
226

> <Conf_Id>
76

> <Delta U+W>
2.799

> <U+W>
18.137

> <U>
72.490

> <W>
-54.353

> <W(PB)>
-56.201

> <W(SA)>
1.848

> <Valence>
2.738

> <Coulomb>
69.795

> <VdW>
-0.043

> <VdW6>
-5.334

> <VdW12>
5.290

> <Bond>
0.182

> <Angle>
1.135

> <Pdih>
1.421

> <Idih>
0.000

> <Tether>
0.000

$$$$
VeraChem MOL file


 20 19  0  0  0  0  0  0  0  0999 V2000     
   18.6248   20.2483   21.6032 C   0  0  0  0  0  0  0  0  0  0  0  0
   18.6514   19.8871   22.6385 H   0  0  0  0  0  0  0  0  0  0  0  0
   18.9955   21.2815   21.5930 H   0  0  0  0  0  0  0  0  0  0  0  0
   17.5742   20.2669   21.2855 H   0  0  0  0  0  0  0  0  0  0  0  0
   19.4603   19.3500   20.6622 C   0  0  0  0  0  0  0  0  0  0  0  0
   19.3423   19.7112   19.6310 H   0  0  0  0  0  0  0  0  0  0  0  0
   19.0635   18.3266   20.6661 H   0  0  0  0  0  0  0  0  0  0  0  0
   20.9682   19.3392   21.0135 C   0  0  0  0  0  0  0  0  0  0  0  0
   21.5068   18.7201   20.2840 H   0  0  0  0  0  0  0  0  0  0  0  0
   21.3635   20.3566   20.8940 H   0  0  0  0  0  0  0  0  0  0  0  0
   21.3123   18.8527   22.4409 C   0  0  0  0  0  0  0  0  0  0  0  0
   20.7811   19.4472   23.1879 H   0  0  0  0  0  0  0  0  0  0  0  0
   22.3829   19.0076   22.5972 H   0  0  0  0  0  0  0  0  0  0  0  0
   21.0444   17.3805   22.7163 N   0  3  0  0  0  0  0  0  0  0  0  0
   21.7313   17.0336   23.4037 H   0  0  0  0  0  0  0  0  0  0  0  0
   21.2152   16.8197   21.8684 H   0  0  0  0  0  0  0  0  0  0  0  0
   19.6371   17.1545   23.2583 C   0  0  0  0  0  0  0  0  0  0  0  0
   19.5022   16.0913   23.4686 H   0  0  0  0  0  0  0  0  0  0  0  0
   19.5115   17.7287   24.1786 H   0  0  0  0  0  0  0  0  0  0  0  0
   18.9015   17.4769   22.5207 H   0  0  0  0  0  0  0  0  0  0  0  0
  1  2  1  0  0  0  0
  1  3  1  0  0  0  0
  1  4  1  0  0  0  0
  1  5  1  0  0  0  0
  5  6  1  0  0  0  0
  5  7  1  0  0  0  0
  5  8  1  0  0  0  0
  8  9  1  0  0  0  0
  8 10  1  0  0  0  0
  8 11  1  0  0  0  0
 11 12  1  0  0  0  0
 11 13  1  0  0  0  0
 11 14  1  0  0  0  0
 14 15  1  0  0  0  0
 14 16  1  0  0  0  0
 14 17  1  0  0  0  0
 17 18  1  0  0  0  0
 17 19  1  0  0  0  0
 17 20  1  0  0  0  0
M  END
> <VConfSearch Rank>
227

> <Conf_Id>
60

> <Delta U+W>
1.788

> <U+W>
17.127

> <U>
72.122

> <W>
-54.995

> <W(PB)>
-56.810

> <W(SA)>
1.815

> <Valence>
3.197

> <Coulomb>
69.115

> <VdW>
-0.190

> <VdW6>
-5.585

> <VdW12>
5.395

> <Bond>
0.177

> <Angle>
1.207

> <Pdih>
1.813

> <Idih>
0.000

> <Tether>
0.000

$$$$
VeraChem MOL file


 20 19  0  0  0  0  0  0  0  0999 V2000     
   21.7775   19.7913   21.0389 C   0  0  0  0  0  0  0  0  0  0  0  0
   22.8273   19.9945   21.2866 H   0  0  0  0  0  0  0  0  0  0  0  0
   21.6141   20.0982   19.9977 H   0  0  0  0  0  0  0  0  0  0  0  0
   21.1564   20.4262   21.6825 H   0  0  0  0  0  0  0  0  0  0  0  0
   21.4550   18.2916   21.2322 C   0  0  0  0  0  0  0  0  0  0  0  0
   21.6447   17.9953   22.2719 H   0  0  0  0  0  0  0  0  0  0  0  0
   22.1503   17.6985   20.6218 H   0  0  0  0  0  0  0  0  0  0  0  0
   20.0057   17.9251   20.8286 C   0  0  0  0  0  0  0  0  0  0  0  0
   19.8778   18.1288   19.7572 H   0  0  0  0  0  0  0  0  0  0  0  0
   19.8575   16.8439   20.9486 H   0  0  0  0  0  0  0  0  0  0  0  0
   18.8938   18.6759   21.5984 C   0  0  0  0  0  0  0  0  0  0  0  0
   17.9366   18.4170   21.1388 H   0  0  0  0  0  0  0  0  0  0  0  0
   19.0232   19.7566   21.5031 H   0  0  0  0  0  0  0  0  0  0  0  0
   18.7703   18.3332   23.0756 N   0  3  0  0  0  0  0  0  0  0  0  0
   19.0005   17.3411   23.2345 H   0  0  0  0  0  0  0  0  0  0  0  0
   17.7834   18.4234   23.3632 H   0  0  0  0  0  0  0  0  0  0  0  0
   19.6289   19.2489   23.9414 C   0  0  0  0  0  0  0  0  0  0  0  0
   19.3241   20.2848   23.7783 H   0  0  0  0  0  0  0  0  0  0  0  0
   19.4845   18.9855   24.9915 H   0  0  0  0  0  0  0  0  0  0  0  0
   20.6797   19.1288   23.6760 H   0  0  0  0  0  0  0  0  0  0  0  0
  1  2  1  0  0  0  0
  1  3  1  0  0  0  0
  1  4  1  0  0  0  0
  1  5  1  0  0  0  0
  5  6  1  0  0  0  0
  5  7  1  0  0  0  0
  5  8  1  0  0  0  0
  8  9  1  0  0  0  0
  8 10  1  0  0  0  0
  8 11  1  0  0  0  0
 11 12  1  0  0  0  0
 11 13  1  0  0  0  0
 11 14  1  0  0  0  0
 14 15  1  0  0  0  0
 14 16  1  0  0  0  0
 14 17  1  0  0  0  0
 17 18  1  0  0  0  0
 17 19  1  0  0  0  0
 17 20  1  0  0  0  0
M  END
> <VConfSearch Rank>
228

> <Conf_Id>
54

> <Delta U+W>
1.880

> <U+W>
17.218

> <U>
72.122

> <W>
-54.903

> <W(PB)>
-56.724

> <W(SA)>
1.821

> <Valence>
3.197

> <Coulomb>
69.115

> <VdW>
-0.190

> <VdW6>
-5.585

> <VdW12>
5.395

> <Bond>
0.177

> <Angle>
1.207

> <Pdih>
1.813

> <Idih>
0.000

> <Tether>
0.000

$$$$
VeraChem MOL file


 20 19  0  0  0  0  0  0  0  0999 V2000     
   19.1181   17.7389   24.8825 C   0  0  0  0  0  0  0  0  0  0  0  0
   18.9859   16.6872   24.5968 H   0  0  0  0  0  0  0  0  0  0  0  0
   19.5148   17.7618   25.9058 H   0  0  0  0  0  0  0  0  0  0  0  0
   18.1296   18.2164   24.8945 H   0  0  0  0  0  0  0  0  0  0  0  0
   20.0741   18.4636   23.9104 C   0  0  0  0  0  0  0  0  0  0  0  0
   21.0632   17.9852   23.9465 H   0  0  0  0  0  0  0  0  0  0  0  0
   20.2136   19.5023   24.2419 H   0  0  0  0  0  0  0  0  0  0  0  0
   19.5407   18.4470   22.4609 C   0  0  0  0  0  0  0  0  0  0  0  0
   19.4051   17.4090   22.1293 H   0  0  0  0  0  0  0  0  0  0  0  0
   18.5542   18.9280   22.4250 H   0  0  0  0  0  0  0  0  0  0  0  0
   20.4994   19.1715   21.4978 C   0  0  0  0  0  0  0  0  0  0  0  0
   21.4782   18.6856   21.5194 H   0  0  0  0  0  0  0  0  0  0  0  0
   20.6244   20.2096   21.8161 H   0  0  0  0  0  0  0  0  0  0  0  0
   20.0162   19.1805   20.0608 N   0  3  0  0  0  0  0  0  0  0  0  0
   19.0877   19.6260   19.9995 H   0  0  0  0  0  0  0  0  0  0  0  0
   19.8783   18.2150   19.7248 H   0  0  0  0  0  0  0  0  0  0  0  0
   21.0189   19.9138   19.1799 C   0  0  0  0  0  0  0  0  0  0  0  0
   21.9841   19.4054   19.2332 H   0  0  0  0  0  0  0  0  0  0  0  0
   20.6588   19.9127   18.1487 H   0  0  0  0  0  0  0  0  0  0  0  0
   21.1230   20.9423   19.5322 H   0  0  0  0  0  0  0  0  0  0  0  0
  1  2  1  0  0  0  0
  1  3  1  0  0  0  0
  1  4  1  0  0  0  0
  1  5  1  0  0  0  0
  5  6  1  0  0  0  0
  5  7  1  0  0  0  0
  5  8  1  0  0  0  0
  8  9  1  0  0  0  0
  8 10  1  0  0  0  0
  8 11  1  0  0  0  0
 11 12  1  0  0  0  0
 11 13  1  0  0  0  0
 11 14  1  0  0  0  0
 14 15  1  0  0  0  0
 14 16  1  0  0  0  0
 14 17  1  0  0  0  0
 17 18  1  0  0  0  0
 17 19  1  0  0  0  0
 17 20  1  0  0  0  0
M  END
> <VConfSearch Rank>
229

> <Conf_Id>
67

> <Delta U+W>
0.000

> <U+W>
15.338

> <U>
69.277

> <W>
-53.939

> <W(PB)>
-55.889

> <W(SA)>
1.950

> <Valence>
0.846

> <Coulomb>
68.557

> <VdW>
-0.127

> <VdW6>
-3.008

> <VdW12>
2.882

> <Bond>
0.088

> <Angle>
0.332

> <Pdih>
0.426

> <Idih>
0.000

> <Tether>
0.000

$$$$
VeraChem MOL file


 20 19  0  0  0  0  0  0  0  0999 V2000     
   22.7887   19.6780   23.0311 C   0  0  0  0  0  0  0  0  0  0  0  0
   23.1623   18.6607   22.8559 H   0  0  0  0  0  0  0  0  0  0  0  0
   23.6147   20.3762   22.8439 H   0  0  0  0  0  0  0  0  0  0  0  0
   22.5109   19.7621   24.0899 H   0  0  0  0  0  0  0  0  0  0  0  0
   21.5876   19.9951   22.1140 C   0  0  0  0  0  0  0  0  0  0  0  0
   21.9051   19.9364   21.0632 H   0  0  0  0  0  0  0  0  0  0  0  0
   21.2592   21.0297   22.2873 H   0  0  0  0  0  0  0  0  0  0  0  0
   20.4085   19.0272   22.3559 C   0  0  0  0  0  0  0  0  0  0  0  0
   20.7411   17.9958   22.1818 H   0  0  0  0  0  0  0  0  0  0  0  0
   20.0892   19.0896   23.4045 H   0  0  0  0  0  0  0  0  0  0  0  0
   19.2134   19.3530   21.4363 C   0  0  0  0  0  0  0  0  0  0  0  0
   19.5101   19.2458   20.3900 H   0  0  0  0  0  0  0  0  0  0  0  0
   18.9144   20.3918   21.5981 H   0  0  0  0  0  0  0  0  0  0  0  0
   17.9843   18.4884   21.6655 N   0  3  0  0  0  0  0  0  0  0  0  0
   17.1875   18.8737   21.1345 H   0  0  0  0  0  0  0  0  0  0  0  0
   17.6916   18.5379   22.6533 H   0  0  0  0  0  0  0  0  0  0  0  0
   18.2357   17.0441   21.2455 C   0  0  0  0  0  0  0  0  0  0  0  0
   19.0354   16.6223   21.8575 H   0  0  0  0  0  0  0  0  0  0  0  0
   17.3207   16.4654   21.3895 H   0  0  0  0  0  0  0  0  0  0  0  0
   18.5236   17.0209   20.1923 H   0  0  0  0  0  0  0  0  0  0  0  0
  1  2  1  0  0  0  0
  1  3  1  0  0  0  0
  1  4  1  0  0  0  0
  1  5  1  0  0  0  0
  5  6  1  0  0  0  0
  5  7  1  0  0  0  0
  5  8  1  0  0  0  0
  8  9  1  0  0  0  0
  8 10  1  0  0  0  0
  8 11  1  0  0  0  0
 11 12  1  0  0  0  0
 11 13  1  0  0  0  0
 11 14  1  0  0  0  0
 14 15  1  0  0  0  0
 14 16  1  0  0  0  0
 14 17  1  0  0  0  0
 17 18  1  0  0  0  0
 17 19  1  0  0  0  0
 17 20  1  0  0  0  0
M  END
> <VConfSearch Rank>
230

> <Conf_Id>
37

> <Delta U+W>
-0.021

> <U+W>
15.318

> <U>
69.657

> <W>
-54.340

> <W(PB)>
-56.238

> <W(SA)>
1.899

> <Valence>
1.137

> <Coulomb>
68.383

> <VdW>
0.138

> <VdW6>
-3.703

> <VdW12>
3.841

> <Bond>
0.125

> <Angle>
0.468

> <Pdih>
0.543

> <Idih>
0.000

> <Tether>
0.000

$$$$
VeraChem MOL file


 20 19  0  0  0  0  0  0  0  0999 V2000     
   18.6433   16.1968   22.7086 C   0  0  0  0  0  0  0  0  0  0  0  0
   17.7204   15.6268   22.5405 H   0  0  0  0  0  0  0  0  0  0  0  0
   19.4722   15.6343   22.2597 H   0  0  0  0  0  0  0  0  0  0  0  0
   18.8132   16.2493   23.7919 H   0  0  0  0  0  0  0  0  0  0  0  0
   18.5319   17.6089   22.0939 C   0  0  0  0  0  0  0  0  0  0  0  0
   17.6736   18.1334   22.5372 H   0  0  0  0  0  0  0  0  0  0  0  0
   18.3281   17.5235   21.0171 H   0  0  0  0  0  0  0  0  0  0  0  0
   19.8179   18.4352   22.3157 C   0  0  0  0  0  0  0  0  0  0  0  0
   20.0186   18.5238   23.3916 H   0  0  0  0  0  0  0  0  0  0  0  0
   20.6720   17.9078   21.8717 H   0  0  0  0  0  0  0  0  0  0  0  0
   19.6965   19.8444   21.6997 C   0  0  0  0  0  0  0  0  0  0  0  0
   18.8240   20.3445   22.1279 H   0  0  0  0  0  0  0  0  0  0  0  0
   19.5449   19.7657   20.6202 H   0  0  0  0  0  0  0  0  0  0  0  0
   20.8968   20.7457   21.9397 N   0  3  0  0  0  0  0  0  0  0  0  0
   21.0923   20.8192   22.9497 H   0  0  0  0  0  0  0  0  0  0  0  0
   20.6701   21.7082   21.6440 H   0  0  0  0  0  0  0  0  0  0  0  0
   22.1242   20.2481   21.1839 C   0  0  0  0  0  0  0  0  0  0  0  0
   21.8946   20.1997   20.1173 H   0  0  0  0  0  0  0  0  0  0  0  0
   22.9521   20.9408   21.3508 H   0  0  0  0  0  0  0  0  0  0  0  0
   22.3978   19.2563   21.5492 H   0  0  0  0  0  0  0  0  0  0  0  0
  1  2  1  0  0  0  0
  1  3  1  0  0  0  0
  1  4  1  0  0  0  0
  1  5  1  0  0  0  0
  5  6  1  0  0  0  0
  5  7  1  0  0  0  0
  5  8  1  0  0  0  0
  8  9  1  0  0  0  0
  8 10  1  0  0  0  0
  8 11  1  0  0  0  0
 11 12  1  0  0  0  0
 11 13  1  0  0  0  0
 11 14  1  0  0  0  0
 14 15  1  0  0  0  0
 14 16  1  0  0  0  0
 14 17  1  0  0  0  0
 17 18  1  0  0  0  0
 17 19  1  0  0  0  0
 17 20  1  0  0  0  0
M  END
> <VConfSearch Rank>
231

> <Conf_Id>
2

> <Delta U+W>
0.069

> <U+W>
15.407

> <U>
69.657

> <W>
-54.250

> <W(PB)>
-56.176

> <W(SA)>
1.926

> <Valence>
1.137

> <Coulomb>
68.383

> <VdW>
0.138

> <VdW6>
-3.703

> <VdW12>
3.841

> <Bond>
0.125

> <Angle>
0.468

> <Pdih>
0.543

> <Idih>
0.000

> <Tether>
0.000

$$$$
VeraChem MOL file


 20 19  0  0  0  0  0  0  0  0999 V2000     
   21.0221   21.1388   21.3909 C   0  0  0  0  0  0  0  0  0  0  0  0
   20.4187   20.7309   20.5701 H   0  0  0  0  0  0  0  0  0  0  0  0
   20.3607   21.7191   22.0473 H   0  0  0  0  0  0  0  0  0  0  0  0
   21.7507   21.8328   20.9522 H   0  0  0  0  0  0  0  0  0  0  0  0
   21.7441   20.0199   22.1765 C   0  0  0  0  0  0  0  0  0  0  0  0
   22.4064   20.4775   22.9248 H   0  0  0  0  0  0  0  0  0  0  0  0
   22.3938   19.4514   21.4961 H   0  0  0  0  0  0  0  0  0  0  0  0
   20.7681   19.0565   22.8915 C   0  0  0  0  0  0  0  0  0  0  0  0
   21.3471   18.3395   23.4886 H   0  0  0  0  0  0  0  0  0  0  0  0
   20.1437   19.6214   23.5964 H   0  0  0  0  0  0  0  0  0  0  0  0
   19.8683   18.2841   21.9070 C   0  0  0  0  0  0  0  0  0  0  0  0
   20.4898   17.7201   21.2071 H   0  0  0  0  0  0  0  0  0  0  0  0
   19.2587   18.9879   21.3353 H   0  0  0  0  0  0  0  0  0  0  0  0
   18.9303   17.3073   22.5885 N   0  3  0  0  0  0  0  0  0  0  0  0
   18.3311   17.8024   23.2667 H   0  0  0  0  0  0  0  0  0  0  0  0
   19.4682   16.6261   23.1459 H   0  0  0  0  0  0  0  0  0  0  0  0
   18.0796   16.5918   21.5476 C   0  0  0  0  0  0  0  0  0  0  0  0
   18.7324   16.0473   20.8618 H   0  0  0  0  0  0  0  0  0  0  0  0
   17.4094   15.8919   22.0515 H   0  0  0  0  0  0  0  0  0  0  0  0
   17.4937   17.3284   20.9936 H   0  0  0  0  0  0  0  0  0  0  0  0
  1  2  1  0  0  0  0
  1  3  1  0  0  0  0
  1  4  1  0  0  0  0
  1  5  1  0  0  0  0
  5  6  1  0  0  0  0
  5  7  1  0  0  0  0
  5  8  1  0  0  0  0
  8  9  1  0  0  0  0
  8 10  1  0  0  0  0
  8 11  1  0  0  0  0
 11 12  1  0  0  0  0
 11 13  1  0  0  0  0
 11 14  1  0  0  0  0
 14 15  1  0  0  0  0
 14 16  1  0  0  0  0
 14 17  1  0  0  0  0
 17 18  1  0  0  0  0
 17 19  1  0  0  0  0
 17 20  1  0  0  0  0
M  END
> <VConfSearch Rank>
232

> <Conf_Id>
34

> <Delta U+W>
0.276

> <U+W>
15.615

> <U>
69.798

> <W>
-54.184

> <W(PB)>
-56.116

> <W(SA)>
1.933

> <Valence>
1.134

> <Coulomb>
68.735

> <VdW>
-0.070

> <VdW6>
-3.565

> <VdW12>
3.494

> <Bond>
0.108

> <Angle>
0.456

> <Pdih>
0.569

> <Idih>
0.000

> <Tether>
0.000

$$$$
VeraChem MOL file


 20 19  0  0  0  0  0  0  0  0999 V2000     
   20.3102   21.8136   22.2137 C   0  0  0  0  0  0  0  0  0  0  0  0
   21.0246   22.1584   21.4548 H   0  0  0  0  0  0  0  0  0  0  0  0
   19.4736   22.5240   22.2346 H   0  0  0  0  0  0  0  0  0  0  0  0
   20.8069   21.8503   23.1920 H   0  0  0  0  0  0  0  0  0  0  0  0
   19.8078   20.3880   21.8983 C   0  0  0  0  0  0  0  0  0  0  0  0
   19.2885   20.3910   20.9295 H   0  0  0  0  0  0  0  0  0  0  0  0
   19.0671   20.0935   22.6541 H   0  0  0  0  0  0  0  0  0  0  0  0
   20.9690   19.3665   21.8636 C   0  0  0  0  0  0  0  0  0  0  0  0
   21.7193   19.6950   21.1321 H   0  0  0  0  0  0  0  0  0  0  0  0
   21.4750   19.3377   22.8377 H   0  0  0  0  0  0  0  0  0  0  0  0
   20.5054   17.9465   21.4811 C   0  0  0  0  0  0  0  0  0  0  0  0
   21.3778   17.2950   21.3862 H   0  0  0  0  0  0  0  0  0  0  0  0
   19.9952   17.9744   20.5150 H   0  0  0  0  0  0  0  0  0  0  0  0
   19.5668   17.3096   22.4887 N   0  3  0  0  0  0  0  0  0  0  0  0
   18.7252   17.8926   22.6086 H   0  0  0  0  0  0  0  0  0  0  0  0
   20.0128   17.2761   23.4182 H   0  0  0  0  0  0  0  0  0  0  0  0
   19.1837   15.9093   22.0292 C   0  0  0  0  0  0  0  0  0  0  0  0
   18.6843   15.9726   21.0600 H   0  0  0  0  0  0  0  0  0  0  0  0
   20.0859   15.3002   21.9409 H   0  0  0  0  0  0  0  0  0  0  0  0
   18.5087   15.4629   22.7627 H   0  0  0  0  0  0  0  0  0  0  0  0
  1  2  1  0  0  0  0
  1  3  1  0  0  0  0
  1  4  1  0  0  0  0
  1  5  1  0  0  0  0
  5  6  1  0  0  0  0
  5  7  1  0  0  0  0
  5  8  1  0  0  0  0
  8  9  1  0  0  0  0
  8 10  1  0  0  0  0
  8 11  1  0  0  0  0
 11 12  1  0  0  0  0
 11 13  1  0  0  0  0
 11 14  1  0  0  0  0
 14 15  1  0  0  0  0
 14 16  1  0  0  0  0
 14 17  1  0  0  0  0
 17 18  1  0  0  0  0
 17 19  1  0  0  0  0
 17 20  1  0  0  0  0
M  END
> <VConfSearch Rank>
233

> <Conf_Id>
50

> <Delta U+W>
0.319

> <U+W>
15.657

> <U>
69.962

> <W>
-54.305

> <W(PB)>
-56.223

> <W(SA)>
1.918

> <Valence>
0.982

> <Coulomb>
69.058

> <VdW>
-0.078

> <VdW6>
-3.548

> <VdW12>
3.471

> <Bond>
0.105

> <Angle>
0.408

> <Pdih>
0.469

> <Idih>
0.000

> <Tether>
0.000

$$$$
VeraChem MOL file


 20 19  0  0  0  0  0  0  0  0999 V2000     
   19.4012   16.7929   24.1475 C   0  0  0  0  0  0  0  0  0  0  0  0
   18.3932   16.5914   24.5326 H   0  0  0  0  0  0  0  0  0  0  0  0
   19.8553   15.8311   23.8758 H   0  0  0  0  0  0  0  0  0  0  0  0
   19.9913   17.2309   24.9630 H   0  0  0  0  0  0  0  0  0  0  0  0
   19.3410   17.7433   22.9320 C   0  0  0  0  0  0  0  0  0  0  0  0
   18.8457   18.6770   23.2311 H   0  0  0  0  0  0  0  0  0  0  0  0
   18.7185   17.2913   22.1469 H   0  0  0  0  0  0  0  0  0  0  0  0
   20.7507   18.0439   22.3702 C   0  0  0  0  0  0  0  0  0  0  0  0
   21.3697   18.5216   23.1412 H   0  0  0  0  0  0  0  0  0  0  0  0
   21.2475   17.0991   22.1125 H   0  0  0  0  0  0  0  0  0  0  0  0
   20.7158   18.9345   21.1119 C   0  0  0  0  0  0  0  0  0  0  0  0
   20.0943   18.4639   20.3459 H   0  0  0  0  0  0  0  0  0  0  0  0
   21.7283   19.0360   20.7131 H   0  0  0  0  0  0  0  0  0  0  0  0
   20.1791   20.3321   21.3577 N   0  3  0  0  0  0  0  0  0  0  0  0
   20.7372   20.8044   22.0854 H   0  0  0  0  0  0  0  0  0  0  0  0
   19.2209   20.2838   21.7345 H   0  0  0  0  0  0  0  0  0  0  0  0
   20.2026   21.1329   20.0627 C   0  0  0  0  0  0  0  0  0  0  0  0
   19.8139   22.1357   20.2537 H   0  0  0  0  0  0  0  0  0  0  0  0
   21.2304   21.1996   19.6995 H   0  0  0  0  0  0  0  0  0  0  0  0
   19.5795   20.6322   19.3185 H   0  0  0  0  0  0  0  0  0  0  0  0
  1  2  1  0  0  0  0
  1  3  1  0  0  0  0
  1  4  1  0  0  0  0
  1  5  1  0  0  0  0
  5  6  1  0  0  0  0
  5  7  1  0  0  0  0
  5  8  1  0  0  0  0
  8  9  1  0  0  0  0
  8 10  1  0  0  0  0
  8 11  1  0  0  0  0
 11 12  1  0  0  0  0
 11 13  1  0  0  0  0
 11 14  1  0  0  0  0
 14 15  1  0  0  0  0
 14 16  1  0  0  0  0
 14 17  1  0  0  0  0
 17 18  1  0  0  0  0
 17 19  1  0  0  0  0
 17 20  1  0  0  0  0
M  END
> <VConfSearch Rank>
234

> <Conf_Id>
35

> <Delta U+W>
0.360

> <U+W>
15.698

> <U>
69.962

> <W>
-54.264

> <W(PB)>
-56.166

> <W(SA)>
1.902

> <Valence>
0.982

> <Coulomb>
69.058

> <VdW>
-0.078

> <VdW6>
-3.548

> <VdW12>
3.471

> <Bond>
0.105

> <Angle>
0.408

> <Pdih>
0.469

> <Idih>
0.000

> <Tether>
0.000

$$$$
VeraChem MOL file


 20 19  0  0  0  0  0  0  0  0999 V2000     
   19.5635   16.9992   23.8310 C   0  0  0  0  0  0  0  0  0  0  0  0
   19.2001   16.5278   22.9092 H   0  0  0  0  0  0  0  0  0  0  0  0
   19.7119   16.2039   24.5730 H   0  0  0  0  0  0  0  0  0  0  0  0
   18.7771   17.6660   24.2080 H   0  0  0  0  0  0  0  0  0  0  0  0
   20.8814   17.7717   23.5932 C   0  0  0  0  0  0  0  0  0  0  0  0
   21.6490   17.0837   23.2119 H   0  0  0  0  0  0  0  0  0  0  0  0
   21.2551   18.1483   24.5557 H   0  0  0  0  0  0  0  0  0  0  0  0
   20.7164   18.9609   22.6182 C   0  0  0  0  0  0  0  0  0  0  0  0
   19.9761   19.6631   23.0226 H   0  0  0  0  0  0  0  0  0  0  0  0
   21.6669   19.5070   22.5563 H   0  0  0  0  0  0  0  0  0  0  0  0
   20.2985   18.5119   21.2014 C   0  0  0  0  0  0  0  0  0  0  0  0
   19.3209   18.0254   21.2385 H   0  0  0  0  0  0  0  0  0  0  0  0
   21.0251   17.7840   20.8316 H   0  0  0  0  0  0  0  0  0  0  0  0
   20.2217   19.6343   20.1793 N   0  3  0  0  0  0  0  0  0  0  0  0
   20.1002   19.2344   19.2356 H   0  0  0  0  0  0  0  0  0  0  0  0
   21.1186   20.1417   20.1375 H   0  0  0  0  0  0  0  0  0  0  0  0
   19.0725   20.5876   20.4892 C   0  0  0  0  0  0  0  0  0  0  0  0
   19.2420   21.0563   21.4605 H   0  0  0  0  0  0  0  0  0  0  0  0
   19.0269   21.3564   19.7147 H   0  0  0  0  0  0  0  0  0  0  0  0
   18.1353   20.0272   20.5067 H   0  0  0  0  0  0  0  0  0  0  0  0
  1  2  1  0  0  0  0
  1  3  1  0  0  0  0
  1  4  1  0  0  0  0
  1  5  1  0  0  0  0
  5  6  1  0  0  0  0
  5  7  1  0  0  0  0
  5  8  1  0  0  0  0
  8  9  1  0  0  0  0
  8 10  1  0  0  0  0
  8 11  1  0  0  0  0
 11 12  1  0  0  0  0
 11 13  1  0  0  0  0
 11 14  1  0  0  0  0
 14 15  1  0  0  0  0
 14 16  1  0  0  0  0
 14 17  1  0  0  0  0
 17 18  1  0  0  0  0
 17 19  1  0  0  0  0
 17 20  1  0  0  0  0
M  END
> <VConfSearch Rank>
235

> <Conf_Id>
33

> <Delta U+W>
0.372

> <U+W>
15.711

> <U>
70.163

> <W>
-54.452

> <W(PB)>
-56.363

> <W(SA)>
1.911

> <Valence>
1.420

> <Coulomb>
68.566

> <VdW>
0.177

> <VdW6>
-4.267

> <VdW12>
4.445

> <Bond>
0.146

> <Angle>
0.581

> <Pdih>
0.693

> <Idih>
0.000

> <Tether>
0.000

$$$$
VeraChem MOL file


 20 19  0  0  0  0  0  0  0  0999 V2000     
   20.9287   20.1539   24.0543 C   0  0  0  0  0  0  0  0  0  0  0  0
   21.4462   20.9026   24.6680 H   0  0  0  0  0  0  0  0  0  0  0  0
   19.9054   20.5130   23.8876 H   0  0  0  0  0  0  0  0  0  0  0  0
   20.8753   19.2240   24.6354 H   0  0  0  0  0  0  0  0  0  0  0  0
   21.6785   19.9341   22.7202 C   0  0  0  0  0  0  0  0  0  0  0  0
   22.7220   19.6644   22.9355 H   0  0  0  0  0  0  0  0  0  0  0  0
   21.7135   20.8771   22.1566 H   0  0  0  0  0  0  0  0  0  0  0  0
   21.0435   18.8274   21.8462 C   0  0  0  0  0  0  0  0  0  0  0  0
   21.6675   18.6727   20.9561 H   0  0  0  0  0  0  0  0  0  0  0  0
   21.0455   17.8800   22.4003 H   0  0  0  0  0  0  0  0  0  0  0  0
   19.6066   19.1752   21.4014 C   0  0  0  0  0  0  0  0  0  0  0  0
   19.6185   20.1393   20.8867 H   0  0  0  0  0  0  0  0  0  0  0  0
   18.9582   19.2665   22.2761 H   0  0  0  0  0  0  0  0  0  0  0  0
   18.9751   18.1655   20.4569 N   0  3  0  0  0  0  0  0  0  0  0  0
   19.5754   18.0255   19.6300 H   0  0  0  0  0  0  0  0  0  0  0  0
   18.0933   18.5483   20.0813 H   0  0  0  0  0  0  0  0  0  0  0  0
   18.7052   16.8408   21.1624 C   0  0  0  0  0  0  0  0  0  0  0  0
   18.2190   16.1562   20.4639 H   0  0  0  0  0  0  0  0  0  0  0  0
   19.6501   16.4100   21.4991 H   0  0  0  0  0  0  0  0  0  0  0  0
   18.0520   17.0168   22.0198 H   0  0  0  0  0  0  0  0  0  0  0  0
  1  2  1  0  0  0  0
  1  3  1  0  0  0  0
  1  4  1  0  0  0  0
  1  5  1  0  0  0  0
  5  6  1  0  0  0  0
  5  7  1  0  0  0  0
  5  8  1  0  0  0  0
  8  9  1  0  0  0  0
  8 10  1  0  0  0  0
  8 11  1  0  0  0  0
 11 12  1  0  0  0  0
 11 13  1  0  0  0  0
 11 14  1  0  0  0  0
 14 15  1  0  0  0  0
 14 16  1  0  0  0  0
 14 17  1  0  0  0  0
 17 18  1  0  0  0  0
 17 19  1  0  0  0  0
 17 20  1  0  0  0  0
M  END
> <VConfSearch Rank>
236

> <Conf_Id>
53

> <Delta U+W>
0.379

> <U+W>
15.717

> <U>
70.163

> <W>
-54.446

> <W(PB)>
-56.322

> <W(SA)>
1.876

> <Valence>
1.420

> <Coulomb>
68.566

> <VdW>
0.177

> <VdW6>
-4.267

> <VdW12>
4.445

> <Bond>
0.146

> <Angle>
0.581

> <Pdih>
0.693

> <Idih>
0.000

> <Tether>
0.000

$$$$
VeraChem MOL file


 20 19  0  0  0  0  0  0  0  0999 V2000     
   21.5738   17.0776   23.5875 C   0  0  0  0  0  0  0  0  0  0  0  0
   21.3398   16.7420   24.6061 H   0  0  0  0  0  0  0  0  0  0  0  0
   21.9247   16.2064   23.0191 H   0  0  0  0  0  0  0  0  0  0  0  0
   22.3994   17.7982   23.6523 H   0  0  0  0  0  0  0  0  0  0  0  0
   20.3328   17.7125   22.9235 C   0  0  0  0  0  0  0  0  0  0  0  0
   19.9882   18.5545   23.5390 H   0  0  0  0  0  0  0  0  0  0  0  0
   19.5151   16.9782   22.9020 H   0  0  0  0  0  0  0  0  0  0  0  0
   20.6370   18.1962   21.4860 C   0  0  0  0  0  0  0  0  0  0  0  0
   21.4346   18.9500   21.5043 H   0  0  0  0  0  0  0  0  0  0  0  0
   21.0219   17.3553   20.8941 H   0  0  0  0  0  0  0  0  0  0  0  0
   19.3932   18.7655   20.7680 C   0  0  0  0  0  0  0  0  0  0  0  0
   18.6305   17.9850   20.7074 H   0  0  0  0  0  0  0  0  0  0  0  0
   19.6607   19.0518   19.7478 H   0  0  0  0  0  0  0  0  0  0  0  0
   18.7535   19.9755   21.4324 N   0  3  0  0  0  0  0  0  0  0  0  0
   18.4874   19.7497   22.4021 H   0  0  0  0  0  0  0  0  0  0  0  0
   17.8645   20.1994   20.9585 H   0  0  0  0  0  0  0  0  0  0  0  0
   19.6811   21.1851   21.3926 C   0  0  0  0  0  0  0  0  0  0  0  0
   19.9303   21.4128   20.3540 H   0  0  0  0  0  0  0  0  0  0  0  0
   19.1739   22.0400   21.8453 H   0  0  0  0  0  0  0  0  0  0  0  0
   20.5918   20.9613   21.9517 H   0  0  0  0  0  0  0  0  0  0  0  0
  1  2  1  0  0  0  0
  1  3  1  0  0  0  0
  1  4  1  0  0  0  0
  1  5  1  0  0  0  0
  5  6  1  0  0  0  0
  5  7  1  0  0  0  0
  5  8  1  0  0  0  0
  8  9  1  0  0  0  0
  8 10  1  0  0  0  0
  8 11  1  0  0  0  0
 11 12  1  0  0  0  0
 11 13  1  0  0  0  0
 11 14  1  0  0  0  0
 14 15  1  0  0  0  0
 14 16  1  0  0  0  0
 14 17  1  0  0  0  0
 17 18  1  0  0  0  0
 17 19  1  0  0  0  0
 17 20  1  0  0  0  0
M  END
> <VConfSearch Rank>
237

> <Conf_Id>
49

> <Delta U+W>
0.268

> <U+W>
15.607

> <U>
70.298

> <W>
-54.692

> <W(PB)>
-56.576

> <W(SA)>
1.885

> <Valence>
1.245

> <Coulomb>
68.933

> <VdW>
0.120

> <VdW6>
-4.430

> <VdW12>
4.550

> <Bond>
0.148

> <Angle>
0.587

> <Pdih>
0.509

> <Idih>
0.000

> <Tether>
0.000

$$$$
VeraChem MOL file


 20 19  0  0  0  0  0  0  0  0999 V2000     
   17.8691   18.4541   23.6616 C   0  0  0  0  0  0  0  0  0  0  0  0
   17.5106   17.4539   23.3853 H   0  0  0  0  0  0  0  0  0  0  0  0
   18.1942   18.4230   24.7097 H   0  0  0  0  0  0  0  0  0  0  0  0
   17.0198   19.1462   23.5941 H   0  0  0  0  0  0  0  0  0  0  0  0
   19.0180   18.9083   22.7352 C   0  0  0  0  0  0  0  0  0  0  0  0
   19.3361   19.9217   23.0178 H   0  0  0  0  0  0  0  0  0  0  0  0
   18.6414   18.9642   21.7054 H   0  0  0  0  0  0  0  0  0  0  0  0
   20.2243   17.9430   22.8033 C   0  0  0  0  0  0  0  0  0  0  0  0
   20.5155   17.8071   23.8533 H   0  0  0  0  0  0  0  0  0  0  0  0
   19.9281   16.9518   22.4355 H   0  0  0  0  0  0  0  0  0  0  0  0
   21.4676   18.4291   22.0244 C   0  0  0  0  0  0  0  0  0  0  0  0
   22.2731   17.7099   22.1932 H   0  0  0  0  0  0  0  0  0  0  0  0
   21.8020   19.3964   22.4076 H   0  0  0  0  0  0  0  0  0  0  0  0
   21.2953   18.5468   20.5178 N   0  3  0  0  0  0  0  0  0  0  0  0
   20.6396   17.8296   20.1735 H   0  0  0  0  0  0  0  0  0  0  0  0
   22.1914   18.3288   20.0548 H   0  0  0  0  0  0  0  0  0  0  0  0
   20.8511   19.9494   20.1153 C   0  0  0  0  0  0  0  0  0  0  0  0
   20.7619   19.9972   19.0277 H   0  0  0  0  0  0  0  0  0  0  0  0
   19.8869   20.1769   20.5713 H   0  0  0  0  0  0  0  0  0  0  0  0
   21.5971   20.6717   20.4534 H   0  0  0  0  0  0  0  0  0  0  0  0
  1  2  1  0  0  0  0
  1  3  1  0  0  0  0
  1  4  1  0  0  0  0
  1  5  1  0  0  0  0
  5  6  1  0  0  0  0
  5  7  1  0  0  0  0
  5  8  1  0  0  0  0
  8  9  1  0  0  0  0
  8 10  1  0  0  0  0
  8 11  1  0  0  0  0
 11 12  1  0  0  0  0
 11 13  1  0  0  0  0
 11 14  1  0  0  0  0
 14 15  1  0  0  0  0
 14 16  1  0  0  0  0
 14 17  1  0  0  0  0
 17 18  1  0  0  0  0
 17 19  1  0  0  0  0
 17 20  1  0  0  0  0
M  END
> <VConfSearch Rank>
238

> <Conf_Id>
65

> <Delta U+W>
1.775

> <U+W>
17.114

> <U>
71.726

> <W>
-54.613

> <W(PB)>
-56.495

> <W(SA)>
1.883

> <Valence>
2.885

> <Coulomb>
68.822

> <VdW>
0.019

> <VdW6>
-4.600

> <VdW12>
4.619

> <Bond>
0.152

> <Angle>
0.862

> <Pdih>
1.871

> <Idih>
0.000

> <Tether>
0.000

$$$$
VeraChem MOL file


 20 19  0  0  0  0  0  0  0  0999 V2000     
   22.4637   18.6944   22.1133 C   0  0  0  0  0  0  0  0  0  0  0  0
   21.9863   18.2535   21.2291 H   0  0  0  0  0  0  0  0  0  0  0  0
   23.3453   19.2511   21.7700 H   0  0  0  0  0  0  0  0  0  0  0  0
   22.8142   17.8771   22.7568 H   0  0  0  0  0  0  0  0  0  0  0  0
   21.4967   19.6278   22.8774 C   0  0  0  0  0  0  0  0  0  0  0  0
   21.1614   20.4363   22.2136 H   0  0  0  0  0  0  0  0  0  0  0  0
   22.0440   20.1161   23.6959 H   0  0  0  0  0  0  0  0  0  0  0  0
   20.2747   18.8825   23.4700 C   0  0  0  0  0  0  0  0  0  0  0  0
   20.6232   18.1482   24.2083 H   0  0  0  0  0  0  0  0  0  0  0  0
   19.6453   19.5941   24.0208 H   0  0  0  0  0  0  0  0  0  0  0  0
   19.4138   18.1525   22.4179 C   0  0  0  0  0  0  0  0  0  0  0  0
   18.5955   17.6293   22.9192 H   0  0  0  0  0  0  0  0  0  0  0  0
   20.0217   17.4093   21.8965 H   0  0  0  0  0  0  0  0  0  0  0  0
   18.8029   19.0709   21.3768 N   0  3  0  0  0  0  0  0  0  0  0  0
   19.5457   19.5897   20.8852 H   0  0  0  0  0  0  0  0  0  0  0  0
   18.2209   19.7893   21.8340 H   0  0  0  0  0  0  0  0  0  0  0  0
   17.9748   18.2599   20.3894 C   0  0  0  0  0  0  0  0  0  0  0  0
   17.1763   17.7447   20.9276 H   0  0  0  0  0  0  0  0  0  0  0  0
   17.5425   18.9330   19.6456 H   0  0  0  0  0  0  0  0  0  0  0  0
   18.6183   17.5292   19.8948 H   0  0  0  0  0  0  0  0  0  0  0  0
  1  2  1  0  0  0  0
  1  3  1  0  0  0  0
  1  4  1  0  0  0  0
  1  5  1  0  0  0  0
  5  6  1  0  0  0  0
  5  7  1  0  0  0  0
  5  8  1  0  0  0  0
  8  9  1  0  0  0  0
  8 10  1  0  0  0  0
  8 11  1  0  0  0  0
 11 12  1  0  0  0  0
 11 13  1  0  0  0  0
 11 14  1  0  0  0  0
 14 15  1  0  0  0  0
 14 16  1  0  0  0  0
 14 17  1  0  0  0  0
 17 18  1  0  0  0  0
 17 19  1  0  0  0  0
 17 20  1  0  0  0  0
M  END
> <VConfSearch Rank>
239

> <Conf_Id>
23

> <Delta U+W>
0.896

> <U+W>
16.234

> <U>
70.374

> <W>
-54.140

> <W(PB)>
-56.046

> <W(SA)>
1.907

> <Valence>
1.257

> <Coulomb>
69.240

> <VdW>
-0.123

> <VdW6>
-4.336

> <VdW12>
4.213

> <Bond>
0.128

> <Angle>
0.603

> <Pdih>
0.526

> <Idih>
0.000

> <Tether>
0.000

$$$$
VeraChem MOL file


 20 19  0  0  0  0  0  0  0  0999 V2000     
   19.6466   17.5589   24.0141 C   0  0  0  0  0  0  0  0  0  0  0  0
   19.7387   16.4786   23.8422 H   0  0  0  0  0  0  0  0  0  0  0  0
   19.4204   17.7101   25.0775 H   0  0  0  0  0  0  0  0  0  0  0  0
   18.7875   17.9252   23.4381 H   0  0  0  0  0  0  0  0  0  0  0  0
   20.9490   18.2964   23.6266 C   0  0  0  0  0  0  0  0  0  0  0  0
   21.7587   17.9640   24.2913 H   0  0  0  0  0  0  0  0  0  0  0  0
   20.8320   19.3735   23.8081 H   0  0  0  0  0  0  0  0  0  0  0  0
   21.3750   18.0458   22.1584 C   0  0  0  0  0  0  0  0  0  0  0  0
   22.3170   18.5728   21.9569 H   0  0  0  0  0  0  0  0  0  0  0  0
   21.5876   16.9772   22.0218 H   0  0  0  0  0  0  0  0  0  0  0  0
   20.3206   18.4751   21.1168 C   0  0  0  0  0  0  0  0  0  0  0  0
   19.3936   17.9208   21.2815 H   0  0  0  0  0  0  0  0  0  0  0  0
   20.6840   18.2366   20.1140 H   0  0  0  0  0  0  0  0  0  0  0  0
   19.9920   19.9556   21.1467 N   0  3  0  0  0  0  0  0  0  0  0  0
   20.8468   20.5126   20.9953 H   0  0  0  0  0  0  0  0  0  0  0  0
   19.6515   20.2221   22.0824 H   0  0  0  0  0  0  0  0  0  0  0  0
   18.9479   20.2783   20.0864 C   0  0  0  0  0  0  0  0  0  0  0  0
   18.0419   19.7022   20.2864 H   0  0  0  0  0  0  0  0  0  0  0  0
   18.7203   21.3460   20.1202 H   0  0  0  0  0  0  0  0  0  0  0  0
   19.3423   20.0171   19.1021 H   0  0  0  0  0  0  0  0  0  0  0  0
  1  2  1  0  0  0  0
  1  3  1  0  0  0  0
  1  4  1  0  0  0  0
  1  5  1  0  0  0  0
  5  6  1  0  0  0  0
  5  7  1  0  0  0  0
  5  8  1  0  0  0  0
  8  9  1  0  0  0  0
  8 10  1  0  0  0  0
  8 11  1  0  0  0  0
 11 12  1  0  0  0  0
 11 13  1  0  0  0  0
 11 14  1  0  0  0  0
 14 15  1  0  0  0  0
 14 16  1  0  0  0  0
 14 17  1  0  0  0  0
 17 18  1  0  0  0  0
 17 19  1  0  0  0  0
 17 20  1  0  0  0  0
M  END
> <VConfSearch Rank>
240

> <Conf_Id>
24

> <Delta U+W>
0.792

> <U+W>
16.130

> <U>
70.374

> <W>
-54.243

> <W(PB)>
-56.130

> <W(SA)>
1.887

> <Valence>
1.257

> <Coulomb>
69.240

> <VdW>
-0.123

> <VdW6>
-4.336

> <VdW12>
4.213

> <Bond>
0.128

> <Angle>
0.603

> <Pdih>
0.526

> <Idih>
0.000

> <Tether>
0.000

$$$$
VeraChem MOL file


 20 19  0  0  0  0  0  0  0  0999 V2000     
   20.7121   17.2814   23.4457 C   0  0  0  0  0  0  0  0  0  0  0  0
   21.3321   16.7558   24.1836 H   0  0  0  0  0  0  0  0  0  0  0  0
   20.4416   18.2489   23.8848 H   0  0  0  0  0  0  0  0  0  0  0  0
   19.7992   16.6898   23.2977 H   0  0  0  0  0  0  0  0  0  0  0  0
   21.4896   17.4561   22.1211 C   0  0  0  0  0  0  0  0  0  0  0  0
   21.9190   16.4854   21.8361 H   0  0  0  0  0  0  0  0  0  0  0  0
   22.3431   18.1292   22.2844 H   0  0  0  0  0  0  0  0  0  0  0  0
   20.6340   17.9778   20.9384 C   0  0  0  0  0  0  0  0  0  0  0  0
   21.2698   17.9951   20.0433 H   0  0  0  0  0  0  0  0  0  0  0  0
   19.8203   17.2748   20.7161 H   0  0  0  0  0  0  0  0  0  0  0  0
   20.0648   19.3982   21.1399 C   0  0  0  0  0  0  0  0  0  0  0  0
   19.8129   19.8237   20.1652 H   0  0  0  0  0  0  0  0  0  0  0  0
   20.8211   20.0368   21.6032 H   0  0  0  0  0  0  0  0  0  0  0  0
   18.8061   19.4538   21.9846 N   0  3  0  0  0  0  0  0  0  0  0  0
   18.9765   19.0143   22.9003 H   0  0  0  0  0  0  0  0  0  0  0  0
   18.0597   18.8931   21.5459 H   0  0  0  0  0  0  0  0  0  0  0  0
   18.3579   20.8986   22.1577 C   0  0  0  0  0  0  0  0  0  0  0  0
   19.1501   21.4644   22.6529 H   0  0  0  0  0  0  0  0  0  0  0  0
   18.1530   21.3316   21.1762 H   0  0  0  0  0  0  0  0  0  0  0  0
   17.4519   20.9230   22.7671 H   0  0  0  0  0  0  0  0  0  0  0  0
  1  2  1  0  0  0  0
  1  3  1  0  0  0  0
  1  4  1  0  0  0  0
  1  5  1  0  0  0  0
  5  6  1  0  0  0  0
  5  7  1  0  0  0  0
  5  8  1  0  0  0  0
  8  9  1  0  0  0  0
  8 10  1  0  0  0  0
  8 11  1  0  0  0  0
 11 12  1  0  0  0  0
 11 13  1  0  0  0  0
 11 14  1  0  0  0  0
 14 15  1  0  0  0  0
 14 16  1  0  0  0  0
 14 17  1  0  0  0  0
 17 18  1  0  0  0  0
 17 19  1  0  0  0  0
 17 20  1  0  0  0  0
M  END
> <VConfSearch Rank>
241

> <Conf_Id>
26

> <Delta U+W>
2.888

> <U+W>
18.226

> <U>
72.042

> <W>
-53.816

> <W(PB)>
-55.689

> <W(SA)>
1.873

> <Valence>
2.428

> <Coulomb>
69.829

> <VdW>
-0.215

> <VdW6>
-4.563

> <VdW12>
4.348

> <Bond>
0.137

> <Angle>
0.936

> <Pdih>
1.356

> <Idih>
0.000

> <Tether>
0.000

$$$$
VeraChem MOL file


 20 19  0  0  0  0  0  0  0  0999 V2000     
   19.5792   18.9640   19.9287 C   0  0  0  0  0  0  0  0  0  0  0  0
   19.1109   18.7538   18.9583 H   0  0  0  0  0  0  0  0  0  0  0  0
   20.3729   19.7037   19.7609 H   0  0  0  0  0  0  0  0  0  0  0  0
   20.0329   18.0281   20.2754 H   0  0  0  0  0  0  0  0  0  0  0  0
   18.5241   19.4886   20.9292 C   0  0  0  0  0  0  0  0  0  0  0  0
   17.7989   18.6918   21.1469 H   0  0  0  0  0  0  0  0  0  0  0  0
   17.9535   20.2945   20.4465 H   0  0  0  0  0  0  0  0  0  0  0  0
   19.1123   20.0337   22.2557 C   0  0  0  0  0  0  0  0  0  0  0  0
   19.7821   20.8809   22.0572 H   0  0  0  0  0  0  0  0  0  0  0  0
   18.2836   20.4385   22.8518 H   0  0  0  0  0  0  0  0  0  0  0  0
   19.8381   18.9763   23.1145 C   0  0  0  0  0  0  0  0  0  0  0  0
   19.2762   18.0392   23.0992 H   0  0  0  0  0  0  0  0  0  0  0  0
   19.8846   19.3268   24.1487 H   0  0  0  0  0  0  0  0  0  0  0  0
   21.2632   18.6893   22.6810 N   0  3  0  0  0  0  0  0  0  0  0  0
   21.8284   19.5508   22.7283 H   0  0  0  0  0  0  0  0  0  0  0  0
   21.2799   18.4047   21.6914 H   0  0  0  0  0  0  0  0  0  0  0  0
   21.8674   17.6043   23.5620 C   0  0  0  0  0  0  0  0  0  0  0  0
   21.2720   16.6933   23.4705 H   0  0  0  0  0  0  0  0  0  0  0  0
   22.8921   17.4086   23.2386 H   0  0  0  0  0  0  0  0  0  0  0  0
   21.8675   17.9429   24.6003 H   0  0  0  0  0  0  0  0  0  0  0  0
  1  2  1  0  0  0  0
  1  3  1  0  0  0  0
  1  4  1  0  0  0  0
  1  5  1  0  0  0  0
  5  6  1  0  0  0  0
  5  7  1  0  0  0  0
  5  8  1  0  0  0  0
  8  9  1  0  0  0  0
  8 10  1  0  0  0  0
  8 11  1  0  0  0  0
 11 12  1  0  0  0  0
 11 13  1  0  0  0  0
 11 14  1  0  0  0  0
 14 15  1  0  0  0  0
 14 16  1  0  0  0  0
 14 17  1  0  0  0  0
 17 18  1  0  0  0  0
 17 19  1  0  0  0  0
 17 20  1  0  0  0  0
M  END
> <VConfSearch Rank>
242

> <Conf_Id>
5

> <Delta U+W>
2.950

> <U+W>
18.289

> <U>
72.042

> <W>
-53.753

> <W(PB)>
-55.644

> <W(SA)>
1.891

> <Valence>
2.428

> <Coulomb>
69.829

> <VdW>
-0.215

> <VdW6>
-4.563

> <VdW12>
4.348

> <Bond>
0.137

> <Angle>
0.936

> <Pdih>
1.356

> <Idih>
0.000

> <Tether>
0.000

$$$$
VeraChem MOL file


 20 19  0  0  0  0  0  0  0  0999 V2000     
   19.4868   16.7000   21.0151 C   0  0  0  0  0  0  0  0  0  0  0  0
   19.9989   15.8537   21.4910 H   0  0  0  0  0  0  0  0  0  0  0  0
   18.6492   16.9984   21.6579 H   0  0  0  0  0  0  0  0  0  0  0  0
   19.0652   16.3446   20.0659 H   0  0  0  0  0  0  0  0  0  0  0  0
   20.4633   17.8730   20.7692 C   0  0  0  0  0  0  0  0  0  0  0  0
   19.9302   18.7052   20.2897 H   0  0  0  0  0  0  0  0  0  0  0  0
   21.2324   17.5531   20.0522 H   0  0  0  0  0  0  0  0  0  0  0  0
   21.1606   18.3638   22.0623 C   0  0  0  0  0  0  0  0  0  0  0  0
   21.7660   17.5475   22.4779 H   0  0  0  0  0  0  0  0  0  0  0  0
   21.8671   19.1661   21.8132 H   0  0  0  0  0  0  0  0  0  0  0  0
   20.1845   18.8571   23.1547 C   0  0  0  0  0  0  0  0  0  0  0  0
   20.7511   19.1870   24.0291 H   0  0  0  0  0  0  0  0  0  0  0  0
   19.5476   18.0249   23.4645 H   0  0  0  0  0  0  0  0  0  0  0  0
   19.2703   19.9992   22.7385 N   0  3  0  0  0  0  0  0  0  0  0  0
   18.5667   20.1652   23.4750 H   0  0  0  0  0  0  0  0  0  0  0  0
   18.7269   19.7301   21.9052 H   0  0  0  0  0  0  0  0  0  0  0  0
   20.0624   21.2761   22.4799 C   0  0  0  0  0  0  0  0  0  0  0  0
   20.7609   21.1083   21.6578 H   0  0  0  0  0  0  0  0  0  0  0  0
   19.3708   22.0789   22.2153 H   0  0  0  0  0  0  0  0  0  0  0  0
   20.6122   21.5470   23.3838 H   0  0  0  0  0  0  0  0  0  0  0  0
  1  2  1  0  0  0  0
  1  3  1  0  0  0  0
  1  4  1  0  0  0  0
  1  5  1  0  0  0  0
  5  6  1  0  0  0  0
  5  7  1  0  0  0  0
  5  8  1  0  0  0  0
  8  9  1  0  0  0  0
  8 10  1  0  0  0  0
  8 11  1  0  0  0  0
 11 12  1  0  0  0  0
 11 13  1  0  0  0  0
 11 14  1  0  0  0  0
 14 15  1  0  0  0  0
 14 16  1  0  0  0  0
 14 17  1  0  0  0  0
 17 18  1  0  0  0  0
 17 19  1  0  0  0  0
 17 20  1  0  0  0  0
M  END
> <VConfSearch Rank>
243

> <Conf_Id>
52

> <Delta U+W>
0.784

> <U+W>
16.122

> <U>
70.777

> <W>
-54.655

> <W(PB)>
-56.491

> <W(SA)>
1.836

> <Valence>
1.529

> <Coulomb>
69.166

> <VdW>
0.082

> <VdW6>
-5.166

> <VdW12>
5.248

> <Bond>
0.171

> <Angle>
0.752

> <Pdih>
0.605

> <Idih>
0.000

> <Tether>
0.000

$$$$
VeraChem MOL file


 20 19  0  0  0  0  0  0  0  0999 V2000     
   20.5800   20.3284   23.4872 C   0  0  0  0  0  0  0  0  0  0  0  0
   20.7541   21.1821   24.1550 H   0  0  0  0  0  0  0  0  0  0  0  0
   19.8201   19.6987   23.9639 H   0  0  0  0  0  0  0  0  0  0  0  0
   21.5184   19.7626   23.4191 H   0  0  0  0  0  0  0  0  0  0  0  0
   20.1194   20.8219   22.0966 C   0  0  0  0  0  0  0  0  0  0  0  0
   20.7971   21.6226   21.7687 H   0  0  0  0  0  0  0  0  0  0  0  0
   19.1248   21.2820   22.1810 H   0  0  0  0  0  0  0  0  0  0  0  0
   20.0973   19.7252   21.0014 C   0  0  0  0  0  0  0  0  0  0  0  0
   19.8489   20.2081   20.0471 H   0  0  0  0  0  0  0  0  0  0  0  0
   21.1008   19.3022   20.8674 H   0  0  0  0  0  0  0  0  0  0  0  0
   19.0628   18.6003   21.2382 C   0  0  0  0  0  0  0  0  0  0  0  0
   18.8782   18.0775   20.2964 H   0  0  0  0  0  0  0  0  0  0  0  0
   18.1190   19.0463   21.5620 H   0  0  0  0  0  0  0  0  0  0  0  0
   19.4558   17.5457   22.2609 N   0  3  0  0  0  0  0  0  0  0  0  0
   18.6365   16.9594   22.4847 H   0  0  0  0  0  0  0  0  0  0  0  0
   19.7174   17.9954   23.1492 H   0  0  0  0  0  0  0  0  0  0  0  0
   20.5920   16.6703   21.7437 C   0  0  0  0  0  0  0  0  0  0  0  0
   20.2827   16.1945   20.8106 H   0  0  0  0  0  0  0  0  0  0  0  0
   21.4755   17.2872   21.5696 H   0  0  0  0  0  0  0  0  0  0  0  0
   20.8210   15.9048   22.4883 H   0  0  0  0  0  0  0  0  0  0  0  0
  1  2  1  0  0  0  0
  1  3  1  0  0  0  0
  1  4  1  0  0  0  0
  1  5  1  0  0  0  0
  5  6  1  0  0  0  0
  5  7  1  0  0  0  0
  5  8  1  0  0  0  0
  8  9  1  0  0  0  0
  8 10  1  0  0  0  0
  8 11  1  0  0  0  0
 11 12  1  0  0  0  0
 11 13  1  0  0  0  0
 11 14  1  0  0  0  0
 14 15  1  0  0  0  0
 14 16  1  0  0  0  0
 14 17  1  0  0  0  0
 17 18  1  0  0  0  0
 17 19  1  0  0  0  0
 17 20  1  0  0  0  0
M  END
> <VConfSearch Rank>
244

> <Conf_Id>
55

> <Delta U+W>
2.745

> <U+W>
18.083

> <U>
72.490

> <W>
-54.407

> <W(PB)>
-56.269

> <W(SA)>
1.861

> <Valence>
2.738

> <Coulomb>
69.795

> <VdW>
-0.043

> <VdW6>
-5.333

> <VdW12>
5.290

> <Bond>
0.182

> <Angle>
1.135

> <Pdih>
1.422

> <Idih>
0.000

> <Tether>
0.000

$$$$
VeraChem MOL file


 20 19  0  0  0  0  0  0  0  0999 V2000     
   20.3736   16.7689   22.1279 C   0  0  0  0  0  0  0  0  0  0  0  0
   20.4229   15.6789   22.2495 H   0  0  0  0  0  0  0  0  0  0  0  0
   20.9252   17.0270   21.2144 H   0  0  0  0  0  0  0  0  0  0  0  0
   20.8876   17.2106   22.9892 H   0  0  0  0  0  0  0  0  0  0  0  0
   18.9012   17.2321   22.0451 C   0  0  0  0  0  0  0  0  0  0  0  0
   18.4084   17.0647   23.0131 H   0  0  0  0  0  0  0  0  0  0  0  0
   18.3748   16.5930   21.3223 H   0  0  0  0  0  0  0  0  0  0  0  0
   18.7165   18.7091   21.6123 C   0  0  0  0  0  0  0  0  0  0  0  0
   19.1527   18.8710   20.6187 H   0  0  0  0  0  0  0  0  0  0  0  0
   17.6402   18.8936   21.4977 H   0  0  0  0  0  0  0  0  0  0  0  0
   19.2632   19.7476   22.6194 C   0  0  0  0  0  0  0  0  0  0  0  0
   18.9734   19.4506   23.6305 H   0  0  0  0  0  0  0  0  0  0  0  0
   18.8089   20.7204   22.4150 H   0  0  0  0  0  0  0  0  0  0  0  0
   20.7702   19.9508   22.6065 N   0  3  0  0  0  0  0  0  0  0  0  0
   21.2494   19.0463   22.7169 H   0  0  0  0  0  0  0  0  0  0  0  0
   21.0506   20.5084   23.4285 H   0  0  0  0  0  0  0  0  0  0  0  0
   21.2231   20.6493   21.3292 C   0  0  0  0  0  0  0  0  0  0  0  0
   20.9806   20.0242   20.4677 H   0  0  0  0  0  0  0  0  0  0  0  0
   20.7119   21.6107   21.2448 H   0  0  0  0  0  0  0  0  0  0  0  0
   22.3026   20.8096   21.3727 H   0  0  0  0  0  0  0  0  0  0  0  0
  1  2  1  0  0  0  0
  1  3  1  0  0  0  0
  1  4  1  0  0  0  0
  1  5  1  0  0  0  0
  5  6  1  0  0  0  0
  5  7  1  0  0  0  0
  5  8  1  0  0  0  0
  8  9  1  0  0  0  0
  8 10  1  0  0  0  0
  8 11  1  0  0  0  0
 11 12  1  0  0  0  0
 11 13  1  0  0  0  0
 11 14  1  0  0  0  0
 14 15  1  0  0  0  0
 14 16  1  0  0  0  0
 14 17  1  0  0  0  0
 17 18  1  0  0  0  0
 17 19  1  0  0  0  0
 17 20  1  0  0  0  0
M  END
> <VConfSearch Rank>
245

> <Conf_Id>
76

> <Delta U+W>
2.799

> <U+W>
18.137

> <U>
72.490

> <W>
-54.353

> <W(PB)>
-56.201

> <W(SA)>
1.848

> <Valence>
2.738

> <Coulomb>
69.795

> <VdW>
-0.043

> <VdW6>
-5.334

> <VdW12>
5.290

> <Bond>
0.182

> <Angle>
1.135

> <Pdih>
1.421

> <Idih>
0.000

> <Tether>
0.000

$$$$
VeraChem MOL file


 20 19  0  0  0  0  0  0  0  0999 V2000     
   19.6352   18.7672   24.0914 C   0  0  0  0  0  0  0  0  0  0  0  0
   19.3369   17.8482   23.5721 H   0  0  0  0  0  0  0  0  0  0  0  0
   20.4643   18.5226   24.7680 H   0  0  0  0  0  0  0  0  0  0  0  0
   18.7858   19.0909   24.7068 H   0  0  0  0  0  0  0  0  0  0  0  0
   20.0403   19.8800   23.0974 C   0  0  0  0  0  0  0  0  0  0  0  0
   20.2596   20.7967   23.6626 H   0  0  0  0  0  0  0  0  0  0  0  0
   19.1945   20.1288   22.4436 H   0  0  0  0  0  0  0  0  0  0  0  0
   21.2818   19.5132   22.2480 C   0  0  0  0  0  0  0  0  0  0  0  0
   21.5403   20.3594   21.5980 H   0  0  0  0  0  0  0  0  0  0  0  0
   22.1393   19.3780   22.9204 H   0  0  0  0  0  0  0  0  0  0  0  0
   21.1402   18.2377   21.3846 C   0  0  0  0  0  0  0  0  0  0  0  0
   20.8736   17.3802   22.0068 H   0  0  0  0  0  0  0  0  0  0  0  0
   22.1147   18.0287   20.9358 H   0  0  0  0  0  0  0  0  0  0  0  0
   20.1464   18.3280   20.2360 N   0  3  0  0  0  0  0  0  0  0  0  0
   20.4705   17.7308   19.4594 H   0  0  0  0  0  0  0  0  0  0  0  0
   20.1341   19.2822   19.8461 H   0  0  0  0  0  0  0  0  0  0  0  0
   18.7511   17.8826   20.6604 C   0  0  0  0  0  0  0  0  0  0  0  0
   18.0822   17.9356   19.7987 H   0  0  0  0  0  0  0  0  0  0  0  0
   18.7990   16.8540   21.0241 H   0  0  0  0  0  0  0  0  0  0  0  0
   18.3802   18.5352   21.4513 H   0  0  0  0  0  0  0  0  0  0  0  0
  1  2  1  0  0  0  0
  1  3  1  0  0  0  0
  1  4  1  0  0  0  0
  1  5  1  0  0  0  0
  5  6  1  0  0  0  0
  5  7  1  0  0  0  0
  5  8  1  0  0  0  0
  8  9  1  0  0  0  0
  8 10  1  0  0  0  0
  8 11  1  0  0  0  0
 11 12  1  0  0  0  0
 11 13  1  0  0  0  0
 11 14  1  0  0  0  0
 14 15  1  0  0  0  0
 14 16  1  0  0  0  0
 14 17  1  0  0  0  0
 17 18  1  0  0  0  0
 17 19  1  0  0  0  0
 17 20  1  0  0  0  0
M  END
> <VConfSearch Rank>
246

> <Conf_Id>
60

> <Delta U+W>
1.788

> <U+W>
17.127

> <U>
72.122

> <W>
-54.995

> <W(PB)>
-56.810

> <W(SA)>
1.815

> <Valence>
3.197

> <Coulomb>
69.115

> <VdW>
-0.190

> <VdW6>
-5.585

> <VdW12>
5.395

> <Bond>
0.177

> <Angle>
1.207

> <Pdih>
1.813

> <Idih>
0.000

> <Tether>
0.000

$$$$
VeraChem MOL file


 20 19  0  0  0  0  0  0  0  0999 V2000     
   20.9181   20.0460   23.5518 C   0  0  0  0  0  0  0  0  0  0  0  0
   21.9144   20.2776   23.9500 H   0  0  0  0  0  0  0  0  0  0  0  0
   20.2021   20.7318   24.0229 H   0  0  0  0  0  0  0  0  0  0  0  0
   20.6664   19.0246   23.8624 H   0  0  0  0  0  0  0  0  0  0  0  0
   20.9003   20.1968   22.0131 C   0  0  0  0  0  0  0  0  0  0  0  0
   21.6368   19.5215   21.5588 H   0  0  0  0  0  0  0  0  0  0  0  0
   21.2279   21.2131   21.7533 H   0  0  0  0  0  0  0  0  0  0  0  0
   19.5014   19.9545   21.3953 C   0  0  0  0  0  0  0  0  0  0  0  0
   18.8100   20.7137   21.7840 H   0  0  0  0  0  0  0  0  0  0  0  0
   19.5496   20.1191   20.3109 H   0  0  0  0  0  0  0  0  0  0  0  0
   18.8894   18.5602   21.6679 C   0  0  0  0  0  0  0  0  0  0  0  0
   17.8657   18.5645   21.2848 H   0  0  0  0  0  0  0  0  0  0  0  0
   18.8383   18.3665   22.7419 H   0  0  0  0  0  0  0  0  0  0  0  0
   19.5956   17.3900   20.9996 N   0  3  0  0  0  0  0  0  0  0  0  0
   19.9749   17.6748   20.0843 H   0  0  0  0  0  0  0  0  0  0  0  0
   18.9036   16.6565   20.7806 H   0  0  0  0  0  0  0  0  0  0  0  0
   20.6822   16.8014   21.8930 C   0  0  0  0  0  0  0  0  0  0  0  0
   20.2332   16.4711   22.8322 H   0  0  0  0  0  0  0  0  0  0  0  0
   21.1384   15.9487   21.3853 H   0  0  0  0  0  0  0  0  0  0  0  0
   21.4429   17.5561   22.0947 H   0  0  0  0  0  0  0  0  0  0  0  0
  1  2  1  0  0  0  0
  1  3  1  0  0  0  0
  1  4  1  0  0  0  0
  1  5  1  0  0  0  0
  5  6  1  0  0  0  0
  5  7  1  0  0  0  0
  5  8  1  0  0  0  0
  8  9  1  0  0  0  0
  8 10  1  0  0  0  0
  8 11  1  0  0  0  0
 11 12  1  0  0  0  0
 11 13  1  0  0  0  0
 11 14  1  0  0  0  0
 14 15  1  0  0  0  0
 14 16  1  0  0  0  0
 14 17  1  0  0  0  0
 17 18  1  0  0  0  0
 17 19  1  0  0  0  0
 17 20  1  0  0  0  0
M  END
> <VConfSearch Rank>
247

> <Conf_Id>
54

> <Delta U+W>
1.880

> <U+W>
17.218

> <U>
72.122

> <W>
-54.903

> <W(PB)>
-56.724

> <W(SA)>
1.821

> <Valence>
3.197

> <Coulomb>
69.115

> <VdW>
-0.190

> <VdW6>
-5.585

> <VdW12>
5.395

> <Bond>
0.177

> <Angle>
1.207

> <Pdih>
1.813

> <Idih>
0.000

> <Tether>
0.000

$$$$
VeraChem MOL file


 20 19  0  0  0  0  0  0  0  0999 V2000     
   18.1424   18.9162   24.5881 C   0  0  0  0  0  0  0  0  0  0  0  0
   18.3768   17.9132   24.9679 H   0  0  0  0  0  0  0  0  0  0  0  0
   18.0086   19.5800   25.4521 H   0  0  0  0  0  0  0  0  0  0  0  0
   17.1852   18.8638   24.0532 H   0  0  0  0  0  0  0  0  0  0  0  0
   19.2663   19.4390   23.6673 C   0  0  0  0  0  0  0  0  0  0  0  0
   20.2020   19.5134   24.2393 H   0  0  0  0  0  0  0  0  0  0  0  0
   19.0197   20.4564   23.3317 H   0  0  0  0  0  0  0  0  0  0  0  0
   19.4771   18.5234   22.4413 C   0  0  0  0  0  0  0  0  0  0  0  0
   19.7268   17.5082   22.7774 H   0  0  0  0  0  0  0  0  0  0  0  0
   18.5429   18.4524   21.8686 H   0  0  0  0  0  0  0  0  0  0  0  0
   20.5991   19.0515   21.5282 C   0  0  0  0  0  0  0  0  0  0  0  0
   21.5342   19.1088   22.0911 H   0  0  0  0  0  0  0  0  0  0  0  0
   20.3464   20.0559   21.1792 H   0  0  0  0  0  0  0  0  0  0  0  0
   20.8423   18.1831   20.3094 N   0  3  0  0  0  0  0  0  0  0  0  0
   19.9773   18.0978   19.7539 H   0  0  0  0  0  0  0  0  0  0  0  0
   21.0771   17.2209   20.5981 H   0  0  0  0  0  0  0  0  0  0  0  0
   21.9627   18.7750   19.4647 C   0  0  0  0  0  0  0  0  0  0  0  0
   22.8761   18.8238   20.0615 H   0  0  0  0  0  0  0  0  0  0  0  0
   22.1272   18.1403   18.5912 H   0  0  0  0  0  0  0  0  0  0  0  0
   21.6781   19.7788   19.1418 H   0  0  0  0  0  0  0  0  0  0  0  0
  1  2  1  0  0  0  0
  1  3  1  0  0  0  0
  1  4  1  0  0  0  0
  1  5  1  0  0  0  0
  5  6  1  0  0  0  0
  5  7  1  0  0  0  0
  5  8  1  0  0  0  0
  8  9  1  0  0  0  0
  8 10  1  0  0  0  0
  8 11  1  0  0  0  0
 11 12  1  0  0  0  0
 11 13  1  0  0  0  0
 11 14  1  0  0  0  0
 14 15  1  0  0  0  0
 14 16  1  0  0  0  0
 14 17  1  0  0  0  0
 17 18  1  0  0  0  0
 17 19  1  0  0  0  0
 17 20  1  0  0  0  0
M  END
> <VConfSearch Rank>
248

> <Conf_Id>
67

> <Delta U+W>
0.000

> <U+W>
15.338

> <U>
69.277

> <W>
-53.939

> <W(PB)>
-55.889

> <W(SA)>
1.950

> <Valence>
0.846

> <Coulomb>
68.557

> <VdW>
-0.127

> <VdW6>
-3.008

> <VdW12>
2.882

> <Bond>
0.088

> <Angle>
0.332

> <Pdih>
0.426

> <Idih>
0.000

> <Tether>
0.000

$$$$
VeraChem MOL file


 20 19  0  0  0  0  0  0  0  0999 V2000     
   18.8622   18.2275   24.6574 C   0  0  0  0  0  0  0  0  0  0  0  0
   19.1868   19.2000   25.0498 H   0  0  0  0  0  0  0  0  0  0  0  0
   17.9037   17.9772   25.1304 H   0  0  0  0  0  0  0  0  0  0  0  0
   19.5967   17.4723   24.9661 H   0  0  0  0  0  0  0  0  0  0  0  0
   18.7181   18.2677   23.1206 C   0  0  0  0  0  0  0  0  0  0  0  0
   17.9529   19.0071   22.8448 H   0  0  0  0  0  0  0  0  0  0  0  0
   18.3589   17.2927   22.7619 H   0  0  0  0  0  0  0  0  0  0  0  0
   20.0532   18.6177   22.4272 C   0  0  0  0  0  0  0  0  0  0  0  0
   20.4079   19.5917   22.7883 H   0  0  0  0  0  0  0  0  0  0  0  0
   20.8159   17.8764   22.6997 H   0  0  0  0  0  0  0  0  0  0  0  0
   19.8994   18.6540   20.8926 C   0  0  0  0  0  0  0  0  0  0  0  0
   19.1770   19.4238   20.6100 H   0  0  0  0  0  0  0  0  0  0  0  0
   19.5158   17.6890   20.5518 H   0  0  0  0  0  0  0  0  0  0  0  0
   21.1891   18.9208   20.1333 N   0  3  0  0  0  0  0  0  0  0  0  0
   21.0340   18.7661   19.1247 H   0  0  0  0  0  0  0  0  0  0  0  0
   21.9090   18.2314   20.3983 H   0  0  0  0  0  0  0  0  0  0  0  0
   21.6869   20.3430   20.3678 C   0  0  0  0  0  0  0  0  0  0  0  0
   21.9120   20.4785   21.4275 H   0  0  0  0  0  0  0  0  0  0  0  0
   22.5911   20.5073   19.7777 H   0  0  0  0  0  0  0  0  0  0  0  0
   20.9135   21.0500   20.0600 H   0  0  0  0  0  0  0  0  0  0  0  0
  1  2  1  0  0  0  0
  1  3  1  0  0  0  0
  1  4  1  0  0  0  0
  1  5  1  0  0  0  0
  5  6  1  0  0  0  0
  5  7  1  0  0  0  0
  5  8  1  0  0  0  0
  8  9  1  0  0  0  0
  8 10  1  0  0  0  0
  8 11  1  0  0  0  0
 11 12  1  0  0  0  0
 11 13  1  0  0  0  0
 11 14  1  0  0  0  0
 14 15  1  0  0  0  0
 14 16  1  0  0  0  0
 14 17  1  0  0  0  0
 17 18  1  0  0  0  0
 17 19  1  0  0  0  0
 17 20  1  0  0  0  0
M  END
> <VConfSearch Rank>
249

> <Conf_Id>
37

> <Delta U+W>
-0.021

> <U+W>
15.318

> <U>
69.657

> <W>
-54.340

> <W(PB)>
-56.238

> <W(SA)>
1.899

> <Valence>
1.137

> <Coulomb>
68.383

> <VdW>
0.138

> <VdW6>
-3.703

> <VdW12>
3.841

> <Bond>
0.125

> <Angle>
0.468

> <Pdih>
0.543

> <Idih>
0.000

> <Tether>
0.000

$$$$
VeraChem MOL file


 20 19  0  0  0  0  0  0  0  0999 V2000     
   19.0629   21.2281   23.4730 C   0  0  0  0  0  0  0  0  0  0  0  0
   19.3564   21.9099   24.2817 H   0  0  0  0  0  0  0  0  0  0  0  0
   19.0536   21.8013   22.5368 H   0  0  0  0  0  0  0  0  0  0  0  0
   18.0389   20.8879   23.6753 H   0  0  0  0  0  0  0  0  0  0  0  0
   20.0384   20.0344   23.3849 C   0  0  0  0  0  0  0  0  0  0  0  0
   20.0518   19.5021   24.3466 H   0  0  0  0  0  0  0  0  0  0  0  0
   21.0583   20.4080   23.2164 H   0  0  0  0  0  0  0  0  0  0  0  0
   19.6493   19.0566   22.2542 C   0  0  0  0  0  0  0  0  0  0  0  0
   18.6320   18.6806   22.4255 H   0  0  0  0  0  0  0  0  0  0  0  0
   19.6372   19.5923   21.2963 H   0  0  0  0  0  0  0  0  0  0  0  0
   20.6285   17.8671   22.1752 C   0  0  0  0  0  0  0  0  0  0  0  0
   20.6535   17.3634   23.1449 H   0  0  0  0  0  0  0  0  0  0  0  0
   21.6361   18.2297   21.9566 H   0  0  0  0  0  0  0  0  0  0  0  0
   20.2707   16.8209   21.1320 N   0  3  0  0  0  0  0  0  0  0  0  0
   19.3107   16.4765   21.2859 H   0  0  0  0  0  0  0  0  0  0  0  0
   20.8718   15.9911   21.2553 H   0  0  0  0  0  0  0  0  0  0  0  0
   20.4303   17.3698   19.7182 C   0  0  0  0  0  0  0  0  0  0  0  0
   21.4593   17.7076   19.5778 H   0  0  0  0  0  0  0  0  0  0  0  0
   20.2015   16.5796   18.9999 H   0  0  0  0  0  0  0  0  0  0  0  0
   19.7431   18.2057   19.5738 H   0  0  0  0  0  0  0  0  0  0  0  0
  1  2  1  0  0  0  0
  1  3  1  0  0  0  0
  1  4  1  0  0  0  0
  1  5  1  0  0  0  0
  5  6  1  0  0  0  0
  5  7  1  0  0  0  0
  5  8  1  0  0  0  0
  8  9  1  0  0  0  0
  8 10  1  0  0  0  0
  8 11  1  0  0  0  0
 11 12  1  0  0  0  0
 11 13  1  0  0  0  0
 11 14  1  0  0  0  0
 14 15  1  0  0  0  0
 14 16  1  0  0  0  0
 14 17  1  0  0  0  0
 17 18  1  0  0  0  0
 17 19  1  0  0  0  0
 17 20  1  0  0  0  0
M  END
> <VConfSearch Rank>
250

> <Conf_Id>
2

> <Delta U+W>
0.069

> <U+W>
15.407

> <U>
69.657

> <W>
-54.250

> <W(PB)>
-56.176

> <W(SA)>
1.926

> <Valence>
1.137

> <Coulomb>
68.383

> <VdW>
0.138

> <VdW6>
-3.703

> <VdW12>
3.841

> <Bond>
0.125

> <Angle>
0.468

> <Pdih>
0.543

> <Idih>
0.000

> <Tether>
0.000

$$$$
VeraChem MOL file


 20 19  0  0  0  0  0  0  0  0999 V2000     
   22.4054   18.2073   20.9573 C   0  0  0  0  0  0  0  0  0  0  0  0
   21.8164   17.2925   21.0998 H   0  0  0  0  0  0  0  0  0  0  0  0
   22.1813   18.6077   19.9601 H   0  0  0  0  0  0  0  0  0  0  0  0
   23.4657   17.9235   20.9732 H   0  0  0  0  0  0  0  0  0  0  0  0
   22.1076   19.2526   22.0568 C   0  0  0  0  0  0  0  0  0  0  0  0
   22.7838   20.1096   21.9293 H   0  0  0  0  0  0  0  0  0  0  0  0
   22.3341   18.8249   23.0437 H   0  0  0  0  0  0  0  0  0  0  0  0
   20.6460   19.7578   22.0308 C   0  0  0  0  0  0  0  0  0  0  0  0
   20.5280   20.5489   22.7832 H   0  0  0  0  0  0  0  0  0  0  0  0
   20.4323   20.2161   21.0561 H   0  0  0  0  0  0  0  0  0  0  0  0
   19.6254   18.6375   22.3110 C   0  0  0  0  0  0  0  0  0  0  0  0
   19.8367   18.1832   23.2822 H   0  0  0  0  0  0  0  0  0  0  0  0
   19.7080   17.8637   21.5442 H   0  0  0  0  0  0  0  0  0  0  0  0
   18.1889   19.1220   22.3262 N   0  3  0  0  0  0  0  0  0  0  0  0
   17.9533   19.5675   21.4261 H   0  0  0  0  0  0  0  0  0  0  0  0
   18.0691   19.8609   23.0360 H   0  0  0  0  0  0  0  0  0  0  0  0
   17.2503   17.9559   22.6062 C   0  0  0  0  0  0  0  0  0  0  0  0
   17.4955   17.5220   23.5780 H   0  0  0  0  0  0  0  0  0  0  0  0
   16.2201   18.3186   22.6145 H   0  0  0  0  0  0  0  0  0  0  0  0
   17.3690   17.2026   21.8245 H   0  0  0  0  0  0  0  0  0  0  0  0
  1  2  1  0  0  0  0
  1  3  1  0  0  0  0
  1  4  1  0  0  0  0
  1  5  1  0  0  0  0
  5  6  1  0  0  0  0
  5  7  1  0  0  0  0
  5  8  1  0  0  0  0
  8  9  1  0  0  0  0
  8 10  1  0  0  0  0
  8 11  1  0  0  0  0
 11 12  1  0  0  0  0
 11 13  1  0  0  0  0
 11 14  1  0  0  0  0
 14 15  1  0  0  0  0
 14 16  1  0  0  0  0
 14 17  1  0  0  0  0
 17 18  1  0  0  0  0
 17 19  1  0  0  0  0
 17 20  1  0  0  0  0
M  END
> <VConfSearch Rank>
251

> <Conf_Id>
34

> <Delta U+W>
0.276

> <U+W>
15.615

> <U>
69.798

> <W>
-54.184

> <W(PB)>
-56.116

> <W(SA)>
1.933

> <Valence>
1.134

> <Coulomb>
68.735

> <VdW>
-0.070

> <VdW6>
-3.565

> <VdW12>
3.494

> <Bond>
0.108

> <Angle>
0.456

> <Pdih>
0.569

> <Idih>
0.000

> <Tether>
0.000

$$$$
VeraChem MOL file


 20 19  0  0  0  0  0  0  0  0999 V2000     
   23.0625   18.6820   21.9451 C   0  0  0  0  0  0  0  0  0  0  0  0
   23.4297   19.3607   21.1642 H   0  0  0  0  0  0  0  0  0  0  0  0
   23.7145   18.7941   22.8211 H   0  0  0  0  0  0  0  0  0  0  0  0
   23.1658   17.6523   21.5787 H   0  0  0  0  0  0  0  0  0  0  0  0
   21.5963   18.9973   22.3121 C   0  0  0  0  0  0  0  0  0  0  0  0
   21.5314   20.0220   22.7045 H   0  0  0  0  0  0  0  0  0  0  0  0
   21.2773   18.3270   23.1218 H   0  0  0  0  0  0  0  0  0  0  0  0
   20.6558   18.8460   21.0932 C   0  0  0  0  0  0  0  0  0  0  0  0
   21.0102   19.4924   20.2793 H   0  0  0  0  0  0  0  0  0  0  0  0
   20.6942   17.8165   20.7130 H   0  0  0  0  0  0  0  0  0  0  0  0
   19.1955   19.2232   21.4138 C   0  0  0  0  0  0  0  0  0  0  0  0
   18.6023   19.1825   20.4967 H   0  0  0  0  0  0  0  0  0  0  0  0
   19.1562   20.2452   21.7990 H   0  0  0  0  0  0  0  0  0  0  0  0
   18.5300   18.3133   22.4293 N   0  3  0  0  0  0  0  0  0  0  0  0
   19.0579   18.3226   23.3146 H   0  0  0  0  0  0  0  0  0  0  0  0
   18.5581   17.3353   22.1025 H   0  0  0  0  0  0  0  0  0  0  0  0
   17.0922   18.7579   22.6616 C   0  0  0  0  0  0  0  0  0  0  0  0
   17.0888   19.7831   23.0381 H   0  0  0  0  0  0  0  0  0  0  0  0
   16.5436   18.7087   21.7186 H   0  0  0  0  0  0  0  0  0  0  0  0
   16.6256   18.0952   23.3939 H   0  0  0  0  0  0  0  0  0  0  0  0
  1  2  1  0  0  0  0
  1  3  1  0  0  0  0
  1  4  1  0  0  0  0
  1  5  1  0  0  0  0
  5  6  1  0  0  0  0
  5  7  1  0  0  0  0
  5  8  1  0  0  0  0
  8  9  1  0  0  0  0
  8 10  1  0  0  0  0
  8 11  1  0  0  0  0
 11 12  1  0  0  0  0
 11 13  1  0  0  0  0
 11 14  1  0  0  0  0
 14 15  1  0  0  0  0
 14 16  1  0  0  0  0
 14 17  1  0  0  0  0
 17 18  1  0  0  0  0
 17 19  1  0  0  0  0
 17 20  1  0  0  0  0
M  END
> <VConfSearch Rank>
252

> <Conf_Id>
50

> <Delta U+W>
0.319

> <U+W>
15.657

> <U>
69.962

> <W>
-54.305

> <W(PB)>
-56.223

> <W(SA)>
1.918

> <Valence>
0.982

> <Coulomb>
69.058

> <VdW>
-0.078

> <VdW6>
-3.548

> <VdW12>
3.471

> <Bond>
0.105

> <Angle>
0.408

> <Pdih>
0.469

> <Idih>
0.000

> <Tether>
0.000

$$$$
VeraChem MOL file


 20 19  0  0  0  0  0  0  0  0999 V2000     
   22.7472   19.1587   23.4038 C   0  0  0  0  0  0  0  0  0  0  0  0
   23.1136   18.5187   24.2169 H   0  0  0  0  0  0  0  0  0  0  0  0
   23.5389   19.2255   22.6462 H   0  0  0  0  0  0  0  0  0  0  0  0
   22.5824   20.1632   23.8149 H   0  0  0  0  0  0  0  0  0  0  0  0
   21.4469   18.5844   22.8009 C   0  0  0  0  0  0  0  0  0  0  0  0
   20.6928   18.4948   23.5945 H   0  0  0  0  0  0  0  0  0  0  0  0
   21.6366   17.5681   22.4274 H   0  0  0  0  0  0  0  0  0  0  0  0
   20.9090   19.4695   21.6518 C   0  0  0  0  0  0  0  0  0  0  0  0
   20.6905   20.4791   22.0243 H   0  0  0  0  0  0  0  0  0  0  0  0
   21.6875   19.5815   20.8855 H   0  0  0  0  0  0  0  0  0  0  0  0
   19.6493   18.8824   20.9839 C   0  0  0  0  0  0  0  0  0  0  0  0
   19.8630   17.8748   20.6187 H   0  0  0  0  0  0  0  0  0  0  0  0
   19.3722   19.5027   20.1276 H   0  0  0  0  0  0  0  0  0  0  0  0
   18.4429   18.8030   21.9004 N   0  3  0  0  0  0  0  0  0  0  0  0
   18.2177   19.7380   22.2735 H   0  0  0  0  0  0  0  0  0  0  0  0
   18.6601   18.2233   22.7245 H   0  0  0  0  0  0  0  0  0  0  0  0
   17.2525   18.2290   21.1439 C   0  0  0  0  0  0  0  0  0  0  0  0
   16.3920   18.1772   21.8146 H   0  0  0  0  0  0  0  0  0  0  0  0
   17.0194   18.8760   20.2955 H   0  0  0  0  0  0  0  0  0  0  0  0
   17.5019   17.2273   20.7871 H   0  0  0  0  0  0  0  0  0  0  0  0
  1  2  1  0  0  0  0
  1  3  1  0  0  0  0
  1  4  1  0  0  0  0
  1  5  1  0  0  0  0
  5  6  1  0  0  0  0
  5  7  1  0  0  0  0
  5  8  1  0  0  0  0
  8  9  1  0  0  0  0
  8 10  1  0  0  0  0
  8 11  1  0  0  0  0
 11 12  1  0  0  0  0
 11 13  1  0  0  0  0
 11 14  1  0  0  0  0
 14 15  1  0  0  0  0
 14 16  1  0  0  0  0
 14 17  1  0  0  0  0
 17 18  1  0  0  0  0
 17 19  1  0  0  0  0
 17 20  1  0  0  0  0
M  END
> <VConfSearch Rank>
253

> <Conf_Id>
35

> <Delta U+W>
0.360

> <U+W>
15.698

> <U>
69.962

> <W>
-54.264

> <W(PB)>
-56.166

> <W(SA)>
1.902

> <Valence>
0.982

> <Coulomb>
69.058

> <VdW>
-0.078

> <VdW6>
-3.548

> <VdW12>
3.471

> <Bond>
0.105

> <Angle>
0.408

> <Pdih>
0.469

> <Idih>
0.000

> <Tether>
0.000

$$$$
VeraChem MOL file


 20 19  0  0  0  0  0  0  0  0999 V2000     
   17.8579   18.3718   20.7057 C   0  0  0  0  0  0  0  0  0  0  0  0
   17.7897   19.4113   21.0505 H   0  0  0  0  0  0  0  0  0  0  0  0
   17.1509   18.2519   19.8746 H   0  0  0  0  0  0  0  0  0  0  0  0
   17.5278   17.7173   21.5229 H   0  0  0  0  0  0  0  0  0  0  0  0
   19.2926   18.0161   20.2527 C   0  0  0  0  0  0  0  0  0  0  0  0
   19.6001   18.6880   19.4390 H   0  0  0  0  0  0  0  0  0  0  0  0
   19.2944   17.0007   19.8319 H   0  0  0  0  0  0  0  0  0  0  0  0
   20.3235   18.0850   21.4035 C   0  0  0  0  0  0  0  0  0  0  0  0
   20.0312   17.3846   22.1964 H   0  0  0  0  0  0  0  0  0  0  0  0
   21.2994   17.7479   21.0300 H   0  0  0  0  0  0  0  0  0  0  0  0
   20.4690   19.5080   21.9842 C   0  0  0  0  0  0  0  0  0  0  0  0
   19.5206   19.8306   22.4204 H   0  0  0  0  0  0  0  0  0  0  0  0
   20.7210   20.1973   21.1743 H   0  0  0  0  0  0  0  0  0  0  0  0
   21.5438   19.6493   23.0498 N   0  3  0  0  0  0  0  0  0  0  0  0
   21.6887   20.6485   23.2638 H   0  0  0  0  0  0  0  0  0  0  0  0
   22.4522   19.3228   22.6867 H   0  0  0  0  0  0  0  0  0  0  0  0
   21.1652   18.8974   24.3212 C   0  0  0  0  0  0  0  0  0  0  0  0
   21.0781   17.8318   24.1001 H   0  0  0  0  0  0  0  0  0  0  0  0
   21.9417   19.0529   25.0734 H   0  0  0  0  0  0  0  0  0  0  0  0
   20.2114   19.2776   24.6932 H   0  0  0  0  0  0  0  0  0  0  0  0
  1  2  1  0  0  0  0
  1  3  1  0  0  0  0
  1  4  1  0  0  0  0
  1  5  1  0  0  0  0
  5  6  1  0  0  0  0
  5  7  1  0  0  0  0
  5  8  1  0  0  0  0
  8  9  1  0  0  0  0
  8 10  1  0  0  0  0
  8 11  1  0  0  0  0
 11 12  1  0  0  0  0
 11 13  1  0  0  0  0
 11 14  1  0  0  0  0
 14 15  1  0  0  0  0
 14 16  1  0  0  0  0
 14 17  1  0  0  0  0
 17 18  1  0  0  0  0
 17 19  1  0  0  0  0
 17 20  1  0  0  0  0
M  END
> <VConfSearch Rank>
254

> <Conf_Id>
33

> <Delta U+W>
0.372

> <U+W>
15.711

> <U>
70.163

> <W>
-54.452

> <W(PB)>
-56.363

> <W(SA)>
1.911

> <Valence>
1.420

> <Coulomb>
68.566

> <VdW>
0.177

> <VdW6>
-4.267

> <VdW12>
4.445

> <Bond>
0.146

> <Angle>
0.581

> <Pdih>
0.693

> <Idih>
0.000

> <Tether>
0.000

$$$$
VeraChem MOL file


 20 19  0  0  0  0  0  0  0  0999 V2000     
   21.1460   16.6548   21.0643 C   0  0  0  0  0  0  0  0  0  0  0  0
   21.2934   15.5929   20.8285 H   0  0  0  0  0  0  0  0  0  0  0  0
   20.6650   17.1225   20.1960 H   0  0  0  0  0  0  0  0  0  0  0  0
   22.1367   17.1096   21.1936 H   0  0  0  0  0  0  0  0  0  0  0  0
   20.2900   16.8128   22.3420 C   0  0  0  0  0  0  0  0  0  0  0  0
   20.7627   16.2537   23.1618 H   0  0  0  0  0  0  0  0  0  0  0  0
   19.3034   16.3545   22.1845 H   0  0  0  0  0  0  0  0  0  0  0  0
   20.1168   18.2877   22.7739 C   0  0  0  0  0  0  0  0  0  0  0  0
   19.5676   18.3199   23.7241 H   0  0  0  0  0  0  0  0  0  0  0  0
   21.1033   18.7289   22.9659 H   0  0  0  0  0  0  0  0  0  0  0  0
   19.3587   19.1276   21.7235 C   0  0  0  0  0  0  0  0  0  0  0  0
   18.3968   18.6519   21.5165 H   0  0  0  0  0  0  0  0  0  0  0  0
   19.9280   19.1597   20.7916 H   0  0  0  0  0  0  0  0  0  0  0  0
   19.0740   20.5600   22.1450 N   0  3  0  0  0  0  0  0  0  0  0  0
   18.5644   20.5743   23.0416 H   0  0  0  0  0  0  0  0  0  0  0  0
   18.4295   20.9976   21.4679 H   0  0  0  0  0  0  0  0  0  0  0  0
   20.3590   21.3757   22.2378 C   0  0  0  0  0  0  0  0  0  0  0  0
   20.1107   22.4050   22.5059 H   0  0  0  0  0  0  0  0  0  0  0  0
   21.0078   20.9447   23.0028 H   0  0  0  0  0  0  0  0  0  0  0  0
   20.8657   21.3596   21.2705 H   0  0  0  0  0  0  0  0  0  0  0  0
  1  2  1  0  0  0  0
  1  3  1  0  0  0  0
  1  4  1  0  0  0  0
  1  5  1  0  0  0  0
  5  6  1  0  0  0  0
  5  7  1  0  0  0  0
  5  8  1  0  0  0  0
  8  9  1  0  0  0  0
  8 10  1  0  0  0  0
  8 11  1  0  0  0  0
 11 12  1  0  0  0  0
 11 13  1  0  0  0  0
 11 14  1  0  0  0  0
 14 15  1  0  0  0  0
 14 16  1  0  0  0  0
 14 17  1  0  0  0  0
 17 18  1  0  0  0  0
 17 19  1  0  0  0  0
 17 20  1  0  0  0  0
M  END
> <VConfSearch Rank>
255

> <Conf_Id>
53

> <Delta U+W>
0.379

> <U+W>
15.717

> <U>
70.163

> <W>
-54.446

> <W(PB)>
-56.322

> <W(SA)>
1.876

> <Valence>
1.420

> <Coulomb>
68.566

> <VdW>
0.177

> <VdW6>
-4.267

> <VdW12>
4.445

> <Bond>
0.146

> <Angle>
0.581

> <Pdih>
0.693

> <Idih>
0.000

> <Tether>
0.000

$$$$
VeraChem MOL file


 20 19  0  0  0  0  0  0  0  0999 V2000     
   18.6114   18.1918   24.2477 C   0  0  0  0  0  0  0  0  0  0  0  0
   18.8038   17.3961   24.9790 H   0  0  0  0  0  0  0  0  0  0  0  0
   18.2972   19.0869   24.8002 H   0  0  0  0  0  0  0  0  0  0  0  0
   17.7748   17.8706   23.6137 H   0  0  0  0  0  0  0  0  0  0  0  0
   19.8729   18.4733   23.4031 C   0  0  0  0  0  0  0  0  0  0  0  0
   20.1791   17.5478   22.8968 H   0  0  0  0  0  0  0  0  0  0  0  0
   20.6998   18.7611   24.0675 H   0  0  0  0  0  0  0  0  0  0  0  0
   19.6273   19.5908   22.3621 C   0  0  0  0  0  0  0  0  0  0  0  0
   18.8204   19.2968   21.6787 H   0  0  0  0  0  0  0  0  0  0  0  0
   19.2798   20.4962   22.8770 H   0  0  0  0  0  0  0  0  0  0  0  0
   20.8948   19.9484   21.5545 C   0  0  0  0  0  0  0  0  0  0  0  0
   21.6692   20.2937   22.2443 H   0  0  0  0  0  0  0  0  0  0  0  0
   20.6697   20.7677   20.8671 H   0  0  0  0  0  0  0  0  0  0  0  0
   21.4890   18.8118   20.7362 N   0  3  0  0  0  0  0  0  0  0  0  0
   21.7143   18.0132   21.3475 H   0  0  0  0  0  0  0  0  0  0  0  0
   22.3955   19.1080   20.3417 H   0  0  0  0  0  0  0  0  0  0  0  0
   20.5492   18.3866   19.6133 C   0  0  0  0  0  0  0  0  0  0  0  0
   20.3439   19.2461   18.9717 H   0  0  0  0  0  0  0  0  0  0  0  0
   21.0248   17.5962   19.0286 H   0  0  0  0  0  0  0  0  0  0  0  0
   19.6172   18.0140   20.0430 H   0  0  0  0  0  0  0  0  0  0  0  0
  1  2  1  0  0  0  0
  1  3  1  0  0  0  0
  1  4  1  0  0  0  0
  1  5  1  0  0  0  0
  5  6  1  0  0  0  0
  5  7  1  0  0  0  0
  5  8  1  0  0  0  0
  8  9  1  0  0  0  0
  8 10  1  0  0  0  0
  8 11  1  0  0  0  0
 11 12  1  0  0  0  0
 11 13  1  0  0  0  0
 11 14  1  0  0  0  0
 14 15  1  0  0  0  0
 14 16  1  0  0  0  0
 14 17  1  0  0  0  0
 17 18  1  0  0  0  0
 17 19  1  0  0  0  0
 17 20  1  0  0  0  0
M  END
> <VConfSearch Rank>
256

> <Conf_Id>
49

> <Delta U+W>
0.268

> <U+W>
15.607

> <U>
70.298

> <W>
-54.692

> <W(PB)>
-56.576

> <W(SA)>
1.885

> <Valence>
1.245

> <Coulomb>
68.933

> <VdW>
0.120

> <VdW6>
-4.430

> <VdW12>
4.550

> <Bond>
0.148

> <Angle>
0.587

> <Pdih>
0.509

> <Idih>
0.000

> <Tether>
0.000

$$$$
VeraChem MOL file


 20 19  0  0  0  0  0  0  0  0999 V2000     
   21.6493   20.9092   21.2722 C   0  0  0  0  0  0  0  0  0  0  0  0
   21.4772   21.5928   22.1137 H   0  0  0  0  0  0  0  0  0  0  0  0
   22.7089   20.6221   21.2764 H   0  0  0  0  0  0  0  0  0  0  0  0
   21.4552   21.4626   20.3443 H   0  0  0  0  0  0  0  0  0  0  0  0
   20.7355   19.6681   21.3684 C   0  0  0  0  0  0  0  0  0  0  0  0
   20.9101   19.0177   20.4997 H   0  0  0  0  0  0  0  0  0  0  0  0
   19.6884   19.9950   21.3210 H   0  0  0  0  0  0  0  0  0  0  0  0
   20.9814   18.8757   22.6734 C   0  0  0  0  0  0  0  0  0  0  0  0
   22.0538   18.6570   22.7631 H   0  0  0  0  0  0  0  0  0  0  0  0
   20.7207   19.4973   23.5401 H   0  0  0  0  0  0  0  0  0  0  0  0
   20.2148   17.5360   22.7534 C   0  0  0  0  0  0  0  0  0  0  0  0
   20.5103   17.0337   23.6781 H   0  0  0  0  0  0  0  0  0  0  0  0
   20.4956   16.8871   21.9201 H   0  0  0  0  0  0  0  0  0  0  0  0
   18.6982   17.6467   22.7815 N   0  3  0  0  0  0  0  0  0  0  0  0
   18.4093   18.5095   23.2663 H   0  0  0  0  0  0  0  0  0  0  0  0
   18.3116   16.8803   23.3544 H   0  0  0  0  0  0  0  0  0  0  0  0
   18.1074   17.5702   21.3773 C   0  0  0  0  0  0  0  0  0  0  0  0
   17.0189   17.6301   21.4443 H   0  0  0  0  0  0  0  0  0  0  0  0
   18.4824   18.3970   20.7730 H   0  0  0  0  0  0  0  0  0  0  0  0
   18.3942   16.6210   20.9198 H   0  0  0  0  0  0  0  0  0  0  0  0
  1  2  1  0  0  0  0
  1  3  1  0  0  0  0
  1  4  1  0  0  0  0
  1  5  1  0  0  0  0
  5  6  1  0  0  0  0
  5  7  1  0  0  0  0
  5  8  1  0  0  0  0
  8  9  1  0  0  0  0
  8 10  1  0  0  0  0
  8 11  1  0  0  0  0
 11 12  1  0  0  0  0
 11 13  1  0  0  0  0
 11 14  1  0  0  0  0
 14 15  1  0  0  0  0
 14 16  1  0  0  0  0
 14 17  1  0  0  0  0
 17 18  1  0  0  0  0
 17 19  1  0  0  0  0
 17 20  1  0  0  0  0
M  END
> <VConfSearch Rank>
257

> <Conf_Id>
65

> <Delta U+W>
1.775

> <U+W>
17.114

> <U>
71.726

> <W>
-54.613

> <W(PB)>
-56.495

> <W(SA)>
1.883

> <Valence>
2.885

> <Coulomb>
68.822

> <VdW>
0.019

> <VdW6>
-4.600

> <VdW12>
4.619

> <Bond>
0.152

> <Angle>
0.862

> <Pdih>
1.871

> <Idih>
0.000

> <Tether>
0.000

$$$$
VeraChem MOL file


 20 19  0  0  0  0  0  0  0  0999 V2000     
   18.9752   17.2739   23.5225 C   0  0  0  0  0  0  0  0  0  0  0  0
   20.0225   17.5134   23.7455 H   0  0  0  0  0  0  0  0  0  0  0  0
   18.4266   17.2730   24.4733 H   0  0  0  0  0  0  0  0  0  0  0  0
   18.9362   16.2561   23.1131 H   0  0  0  0  0  0  0  0  0  0  0  0
   18.3543   18.2927   22.5392 C   0  0  0  0  0  0  0  0  0  0  0  0
   18.4044   19.3014   22.9712 H   0  0  0  0  0  0  0  0  0  0  0  0
   17.2851   18.0677   22.4199 H   0  0  0  0  0  0  0  0  0  0  0  0
   19.0258   18.2761   21.1432 C   0  0  0  0  0  0  0  0  0  0  0  0
   18.8763   17.2906   20.6826 H   0  0  0  0  0  0  0  0  0  0  0  0
   18.5224   18.9990   20.4877 H   0  0  0  0  0  0  0  0  0  0  0  0
   20.5378   18.5828   21.1702 C   0  0  0  0  0  0  0  0  0  0  0  0
   20.9382   18.5204   20.1551 H   0  0  0  0  0  0  0  0  0  0  0  0
   21.0531   17.8398   21.7835 H   0  0  0  0  0  0  0  0  0  0  0  0
   20.8783   19.9567   21.7152 N   0  3  0  0  0  0  0  0  0  0  0  0
   20.5094   20.0574   22.6724 H   0  0  0  0  0  0  0  0  0  0  0  0
   20.4065   20.6865   21.1596 H   0  0  0  0  0  0  0  0  0  0  0  0
   22.3867   20.1634   21.6996 C   0  0  0  0  0  0  0  0  0  0  0  0
   22.7501   20.0834   20.6728 H   0  0  0  0  0  0  0  0  0  0  0  0
   22.6172   21.1550   22.0954 H   0  0  0  0  0  0  0  0  0  0  0  0
   22.8611   19.4000   22.3200 H   0  0  0  0  0  0  0  0  0  0  0  0
  1  2  1  0  0  0  0
  1  3  1  0  0  0  0
  1  4  1  0  0  0  0
  1  5  1  0  0  0  0
  5  6  1  0  0  0  0
  5  7  1  0  0  0  0
  5  8  1  0  0  0  0
  8  9  1  0  0  0  0
  8 10  1  0  0  0  0
  8 11  1  0  0  0  0
 11 12  1  0  0  0  0
 11 13  1  0  0  0  0
 11 14  1  0  0  0  0
 14 15  1  0  0  0  0
 14 16  1  0  0  0  0
 14 17  1  0  0  0  0
 17 18  1  0  0  0  0
 17 19  1  0  0  0  0
 17 20  1  0  0  0  0
M  END
> <VConfSearch Rank>
258

> <Conf_Id>
23

> <Delta U+W>
0.896

> <U+W>
16.234

> <U>
70.374

> <W>
-54.140

> <W(PB)>
-56.046

> <W(SA)>
1.907

> <Valence>
1.257

> <Coulomb>
69.240

> <VdW>
-0.123

> <VdW6>
-4.336

> <VdW12>
4.213

> <Bond>
0.128

> <Angle>
0.603

> <Pdih>
0.526

> <Idih>
0.000

> <Tether>
0.000

$$$$
VeraChem MOL file


 20 19  0  0  0  0  0  0  0  0999 V2000     
   20.9135   20.2589   23.7098 C   0  0  0  0  0  0  0  0  0  0  0  0
   20.2429   20.2623   24.5789 H   0  0  0  0  0  0  0  0  0  0  0  0
   21.7668   20.9087   23.9434 H   0  0  0  0  0  0  0  0  0  0  0  0
   20.3788   20.7071   22.8630 H   0  0  0  0  0  0  0  0  0  0  0  0
   21.3958   18.8262   23.3856 C   0  0  0  0  0  0  0  0  0  0  0  0
   22.0032   18.4559   24.2233 H   0  0  0  0  0  0  0  0  0  0  0  0
   22.0646   18.8495   22.5145 H   0  0  0  0  0  0  0  0  0  0  0  0
   20.2313   17.8349   23.1380 C   0  0  0  0  0  0  0  0  0  0  0  0
   20.6393   16.8346   22.9415 H   0  0  0  0  0  0  0  0  0  0  0  0
   19.6324   17.7458   24.0540 H   0  0  0  0  0  0  0  0  0  0  0  0
   19.2985   18.2394   21.9772 C   0  0  0  0  0  0  0  0  0  0  0  0
   18.8518   19.2142   22.1868 H   0  0  0  0  0  0  0  0  0  0  0  0
   18.4908   17.5084   21.8901 H   0  0  0  0  0  0  0  0  0  0  0  0
   19.9911   18.3221   20.6304 N   0  3  0  0  0  0  0  0  0  0  0  0
   20.4275   17.4166   20.3987 H   0  0  0  0  0  0  0  0  0  0  0  0
   20.7674   18.9989   20.6742 H   0  0  0  0  0  0  0  0  0  0  0  0
   18.9912   18.7251   19.5550 C   0  0  0  0  0  0  0  0  0  0  0  0
   18.5676   19.7002   19.8048 H   0  0  0  0  0  0  0  0  0  0  0  0
   19.5033   18.7818   18.5920 H   0  0  0  0  0  0  0  0  0  0  0  0
   18.1958   17.9783   19.5055 H   0  0  0  0  0  0  0  0  0  0  0  0
  1  2  1  0  0  0  0
  1  3  1  0  0  0  0
  1  4  1  0  0  0  0
  1  5  1  0  0  0  0
  5  6  1  0  0  0  0
  5  7  1  0  0  0  0
  5  8  1  0  0  0  0
  8  9  1  0  0  0  0
  8 10  1  0  0  0  0
  8 11  1  0  0  0  0
 11 12  1  0  0  0  0
 11 13  1  0  0  0  0
 11 14  1  0  0  0  0
 14 15  1  0  0  0  0
 14 16  1  0  0  0  0
 14 17  1  0  0  0  0
 17 18  1  0  0  0  0
 17 19  1  0  0  0  0
 17 20  1  0  0  0  0
M  END
> <VConfSearch Rank>
259

> <Conf_Id>
24

> <Delta U+W>
0.792

> <U+W>
16.130

> <U>
70.374

> <W>
-54.243

> <W(PB)>
-56.130

> <W(SA)>
1.887

> <Valence>
1.257

> <Coulomb>
69.240

> <VdW>
-0.123

> <VdW6>
-4.336

> <VdW12>
4.213

> <Bond>
0.128

> <Angle>
0.603

> <Pdih>
0.526

> <Idih>
0.000

> <Tether>
0.000

$$$$
VeraChem MOL file


 20 19  0  0  0  0  0  0  0  0999 V2000     
   20.1716   17.1561   23.4874 C   0  0  0  0  0  0  0  0  0  0  0  0
   20.2451   16.5982   24.4300 H   0  0  0  0  0  0  0  0  0  0  0  0
   19.2126   17.6872   23.5029 H   0  0  0  0  0  0  0  0  0  0  0  0
   20.1603   16.4246   22.6688 H   0  0  0  0  0  0  0  0  0  0  0  0
   21.3606   18.1343   23.3508 C   0  0  0  0  0  0  0  0  0  0  0  0
   22.2911   17.5857   23.5541 H   0  0  0  0  0  0  0  0  0  0  0  0
   21.2886   18.9079   24.1283 H   0  0  0  0  0  0  0  0  0  0  0  0
   21.4836   18.8051   21.9588 C   0  0  0  0  0  0  0  0  0  0  0  0
   22.3947   19.4180   21.9583 H   0  0  0  0  0  0  0  0  0  0  0  0
   21.6316   18.0452   21.1801 H   0  0  0  0  0  0  0  0  0  0  0  0
   20.2990   19.7212   21.5847 C   0  0  0  0  0  0  0  0  0  0  0  0
   20.6190   20.4192   20.8069 H   0  0  0  0  0  0  0  0  0  0  0  0
   19.9926   20.3035   22.4572 H   0  0  0  0  0  0  0  0  0  0  0  0
   19.0857   18.9867   21.0468 N   0  3  0  0  0  0  0  0  0  0  0  0
   18.7752   18.2758   21.7243 H   0  0  0  0  0  0  0  0  0  0  0  0
   19.3375   18.4623   20.1950 H   0  0  0  0  0  0  0  0  0  0  0  0
   17.9652   19.9753   20.7545 C   0  0  0  0  0  0  0  0  0  0  0  0
   17.6936   20.4944   21.6762 H   0  0  0  0  0  0  0  0  0  0  0  0
   18.3082   20.6980   20.0109 H   0  0  0  0  0  0  0  0  0  0  0  0
   17.0994   19.4329   20.3684 H   0  0  0  0  0  0  0  0  0  0  0  0
  1  2  1  0  0  0  0
  1  3  1  0  0  0  0
  1  4  1  0  0  0  0
  1  5  1  0  0  0  0
  5  6  1  0  0  0  0
  5  7  1  0  0  0  0
  5  8  1  0  0  0  0
  8  9  1  0  0  0  0
  8 10  1  0  0  0  0
  8 11  1  0  0  0  0
 11 12  1  0  0  0  0
 11 13  1  0  0  0  0
 11 14  1  0  0  0  0
 14 15  1  0  0  0  0
 14 16  1  0  0  0  0
 14 17  1  0  0  0  0
 17 18  1  0  0  0  0
 17 19  1  0  0  0  0
 17 20  1  0  0  0  0
M  END
> <VConfSearch Rank>
260

> <Conf_Id>
26

> <Delta U+W>
2.888

> <U+W>
18.226

> <U>
72.042

> <W>
-53.816

> <W(PB)>
-55.689

> <W(SA)>
1.873

> <Valence>
2.428

> <Coulomb>
69.829

> <VdW>
-0.215

> <VdW6>
-4.563

> <VdW12>
4.348

> <Bond>
0.137

> <Angle>
0.936

> <Pdih>
1.356

> <Idih>
0.000

> <Tether>
0.000

$$$$
VeraChem MOL file


 20 19  0  0  0  0  0  0  0  0999 V2000     
   18.5180   17.9276   20.8884 C   0  0  0  0  0  0  0  0  0  0  0  0
   17.5414   17.5421   20.5676 H   0  0  0  0  0  0  0  0  0  0  0  0
   19.2639   17.5926   20.1558 H   0  0  0  0  0  0  0  0  0  0  0  0
   18.7411   17.4682   21.8586 H   0  0  0  0  0  0  0  0  0  0  0  0
   18.4785   19.4698   20.9857 C   0  0  0  0  0  0  0  0  0  0  0  0
   17.7931   19.7677   21.7917 H   0  0  0  0  0  0  0  0  0  0  0  0
   18.0463   19.8686   20.0571 H   0  0  0  0  0  0  0  0  0  0  0  0
   19.8613   20.1348   21.2057 C   0  0  0  0  0  0  0  0  0  0  0  0
   20.5331   19.9060   20.3678 H   0  0  0  0  0  0  0  0  0  0  0  0
   19.7192   21.2235   21.1888 H   0  0  0  0  0  0  0  0  0  0  0  0
   20.5403   19.7687   22.5426 C   0  0  0  0  0  0  0  0  0  0  0  0
   19.7964   19.7549   23.3430 H   0  0  0  0  0  0  0  0  0  0  0  0
   21.2852   20.5308   22.7853 H   0  0  0  0  0  0  0  0  0  0  0  0
   21.2609   18.4339   22.5333 N   0  3  0  0  0  0  0  0  0  0  0  0
   22.0003   18.4353   21.8140 H   0  0  0  0  0  0  0  0  0  0  0  0
   20.6110   17.6845   22.2567 H   0  0  0  0  0  0  0  0  0  0  0  0
   21.8525   18.1515   23.9076 C   0  0  0  0  0  0  0  0  0  0  0  0
   21.0488   18.1225   24.6464 H   0  0  0  0  0  0  0  0  0  0  0  0
   22.3676   17.1886   23.8857 H   0  0  0  0  0  0  0  0  0  0  0  0
   22.5612   18.9421   24.1634 H   0  0  0  0  0  0  0  0  0  0  0  0
  1  2  1  0  0  0  0
  1  3  1  0  0  0  0
  1  4  1  0  0  0  0
  1  5  1  0  0  0  0
  5  6  1  0  0  0  0
  5  7  1  0  0  0  0
  5  8  1  0  0  0  0
  8  9  1  0  0  0  0
  8 10  1  0  0  0  0
  8 11  1  0  0  0  0
 11 12  1  0  0  0  0
 11 13  1  0  0  0  0
 11 14  1  0  0  0  0
 14 15  1  0  0  0  0
 14 16  1  0  0  0  0
 14 17  1  0  0  0  0
 17 18  1  0  0  0  0
 17 19  1  0  0  0  0
 17 20  1  0  0  0  0
M  END
> <VConfSearch Rank>
261

> <Conf_Id>
5

> <Delta U+W>
2.950

> <U+W>
18.289

> <U>
72.042

> <W>
-53.753

> <W(PB)>
-55.644

> <W(SA)>
1.891

> <Valence>
2.428

> <Coulomb>
69.829

> <VdW>
-0.215

> <VdW6>
-4.563

> <VdW12>
4.348

> <Bond>
0.137

> <Angle>
0.936

> <Pdih>
1.356

> <Idih>
0.000

> <Tether>
0.000

$$$$
VeraChem MOL file


 20 19  0  0  0  0  0  0  0  0999 V2000     
   19.1789   20.8999   23.0036 C   0  0  0  0  0  0  0  0  0  0  0  0
   19.9610   21.5709   23.3819 H   0  0  0  0  0  0  0  0  0  0  0  0
   19.1240   21.0185   21.9142 H   0  0  0  0  0  0  0  0  0  0  0  0
   18.2206   21.2344   23.4216 H   0  0  0  0  0  0  0  0  0  0  0  0
   19.4631   19.4340   23.4043 C   0  0  0  0  0  0  0  0  0  0  0  0
   18.6667   18.7830   23.0186 H   0  0  0  0  0  0  0  0  0  0  0  0
   19.4203   19.3484   24.4991 H   0  0  0  0  0  0  0  0  0  0  0  0
   20.8443   18.9285   22.9183 C   0  0  0  0  0  0  0  0  0  0  0  0
   21.6341   19.5296   23.3877 H   0  0  0  0  0  0  0  0  0  0  0  0
   20.9998   17.9001   23.2689 H   0  0  0  0  0  0  0  0  0  0  0  0
   21.0302   18.9842   21.3847 C   0  0  0  0  0  0  0  0  0  0  0  0
   22.0234   18.6105   21.1232 H   0  0  0  0  0  0  0  0  0  0  0  0
   20.9682   20.0247   21.0566 H   0  0  0  0  0  0  0  0  0  0  0  0
   20.0116   18.1919   20.5797 N   0  3  0  0  0  0  0  0  0  0  0  0
   20.1274   18.3993   19.5754 H   0  0  0  0  0  0  0  0  0  0  0  0
   19.0579   18.5075   20.8097 H   0  0  0  0  0  0  0  0  0  0  0  0
   20.1598   16.6938   20.8209 C   0  0  0  0  0  0  0  0  0  0  0  0
   19.9746   16.4769   21.8748 H   0  0  0  0  0  0  0  0  0  0  0  0
   19.4351   16.1584   20.2036 H   0  0  0  0  0  0  0  0  0  0  0  0
   21.1720   16.3849   20.5514 H   0  0  0  0  0  0  0  0  0  0  0  0
  1  2  1  0  0  0  0
  1  3  1  0  0  0  0
  1  4  1  0  0  0  0
  1  5  1  0  0  0  0
  5  6  1  0  0  0  0
  5  7  1  0  0  0  0
  5  8  1  0  0  0  0
  8  9  1  0  0  0  0
  8 10  1  0  0  0  0
  8 11  1  0  0  0  0
 11 12  1  0  0  0  0
 11 13  1  0  0  0  0
 11 14  1  0  0  0  0
 14 15  1  0  0  0  0
 14 16  1  0  0  0  0
 14 17  1  0  0  0  0
 17 18  1  0  0  0  0
 17 19  1  0  0  0  0
 17 20  1  0  0  0  0
M  END
> <VConfSearch Rank>
262

> <Conf_Id>
52

> <Delta U+W>
0.784

> <U+W>
16.122

> <U>
70.777

> <W>
-54.655

> <W(PB)>
-56.491

> <W(SA)>
1.836

> <Valence>
1.529

> <Coulomb>
69.166

> <VdW>
0.082

> <VdW6>
-5.166

> <VdW12>
5.248

> <Bond>
0.171

> <Angle>
0.752

> <Pdih>
0.605

> <Idih>
0.000

> <Tether>
0.000

$$$$
VeraChem MOL file


 20 19  0  0  0  0  0  0  0  0999 V2000     
   19.8134   20.8391   21.2196 C   0  0  0  0  0  0  0  0  0  0  0  0
   19.7575   21.9038   20.9579 H   0  0  0  0  0  0  0  0  0  0  0  0
   20.7430   20.4516   20.7875 H   0  0  0  0  0  0  0  0  0  0  0  0
   18.9628   20.3343   20.7431 H   0  0  0  0  0  0  0  0  0  0  0  0
   19.7830   20.6631   22.7550 C   0  0  0  0  0  0  0  0  0  0  0  0
   18.9576   21.2662   23.1588 H   0  0  0  0  0  0  0  0  0  0  0  0
   20.7029   21.0778   23.1906 H   0  0  0  0  0  0  0  0  0  0  0  0
   19.5928   19.1998   23.2296 C   0  0  0  0  0  0  0  0  0  0  0  0
   19.4924   19.2114   24.3229 H   0  0  0  0  0  0  0  0  0  0  0  0
   18.6456   18.7973   22.8491 H   0  0  0  0  0  0  0  0  0  0  0  0
   20.7636   18.2524   22.8786 C   0  0  0  0  0  0  0  0  0  0  0  0
   20.7127   17.3663   23.5163 H   0  0  0  0  0  0  0  0  0  0  0  0
   21.7083   18.7601   23.0887 H   0  0  0  0  0  0  0  0  0  0  0  0
   20.8076   17.7611   21.4401 N   0  3  0  0  0  0  0  0  0  0  0  0
   21.7135   17.3006   21.2599 H   0  0  0  0  0  0  0  0  0  0  0  0
   20.7772   18.5609   20.7927 H   0  0  0  0  0  0  0  0  0  0  0  0
   19.6680   16.7899   21.1523 C   0  0  0  0  0  0  0  0  0  0  0  0
   19.7330   15.9454   21.8417 H   0  0  0  0  0  0  0  0  0  0  0  0
   18.7127   17.3018   21.2830 H   0  0  0  0  0  0  0  0  0  0  0  0
   19.7540   16.4323   20.1239 H   0  0  0  0  0  0  0  0  0  0  0  0
  1  2  1  0  0  0  0
  1  3  1  0  0  0  0
  1  4  1  0  0  0  0
  1  5  1  0  0  0  0
  5  6  1  0  0  0  0
  5  7  1  0  0  0  0
  5  8  1  0  0  0  0
  8  9  1  0  0  0  0
  8 10  1  0  0  0  0
  8 11  1  0  0  0  0
 11 12  1  0  0  0  0
 11 13  1  0  0  0  0
 11 14  1  0  0  0  0
 14 15  1  0  0  0  0
 14 16  1  0  0  0  0
 14 17  1  0  0  0  0
 17 18  1  0  0  0  0
 17 19  1  0  0  0  0
 17 20  1  0  0  0  0
M  END
> <VConfSearch Rank>
263

> <Conf_Id>
55

> <Delta U+W>
2.745

> <U+W>
18.083

> <U>
72.490

> <W>
-54.407

> <W(PB)>
-56.269

> <W(SA)>
1.861

> <Valence>
2.738

> <Coulomb>
69.795

> <VdW>
-0.043

> <VdW6>
-5.333

> <VdW12>
5.290

> <Bond>
0.182

> <Angle>
1.135

> <Pdih>
1.422

> <Idih>
0.000

> <Tether>
0.000

$$$$
VeraChem MOL file


 20 19  0  0  0  0  0  0  0  0999 V2000     
   20.0581   17.0012   20.9885 C   0  0  0  0  0  0  0  0  0  0  0  0
   19.9570   16.0063   20.5355 H   0  0  0  0  0  0  0  0  0  0  0  0
   20.4738   17.6730   20.2262 H   0  0  0  0  0  0  0  0  0  0  0  0
   20.7782   16.9076   21.8094 H   0  0  0  0  0  0  0  0  0  0  0  0
   18.6848   17.5025   21.4907 C   0  0  0  0  0  0  0  0  0  0  0  0
   18.3499   16.8770   22.3301 H   0  0  0  0  0  0  0  0  0  0  0  0
   17.9462   17.3562   20.6900 H   0  0  0  0  0  0  0  0  0  0  0  0
   18.6599   18.9952   21.9078 C   0  0  0  0  0  0  0  0  0  0  0  0
   18.9344   19.6317   21.0573 H   0  0  0  0  0  0  0  0  0  0  0  0
   17.6225   19.2584   22.1529 H   0  0  0  0  0  0  0  0  0  0  0  0
   19.5306   19.3332   23.1404 C   0  0  0  0  0  0  0  0  0  0  0  0
   19.3804   18.5661   23.9042 H   0  0  0  0  0  0  0  0  0  0  0  0
   19.2052   20.2887   23.5594 H   0  0  0  0  0  0  0  0  0  0  0  0
   21.0248   19.4485   22.8823 N   0  3  0  0  0  0  0  0  0  0  0  0
   21.3687   18.5992   22.4130 H   0  0  0  0  0  0  0  0  0  0  0  0
   21.5290   19.4843   23.7821 H   0  0  0  0  0  0  0  0  0  0  0  0
   21.3495   20.6897   22.0583 C   0  0  0  0  0  0  0  0  0  0  0  0
   20.8646   20.6154   21.0831 H   0  0  0  0  0  0  0  0  0  0  0  0
   20.9880   21.5753   22.5852 H   0  0  0  0  0  0  0  0  0  0  0  0
   22.4314   20.7574   21.9249 H   0  0  0  0  0  0  0  0  0  0  0  0
  1  2  1  0  0  0  0
  1  3  1  0  0  0  0
  1  4  1  0  0  0  0
  1  5  1  0  0  0  0
  5  6  1  0  0  0  0
  5  7  1  0  0  0  0
  5  8  1  0  0  0  0
  8  9  1  0  0  0  0
  8 10  1  0  0  0  0
  8 11  1  0  0  0  0
 11 12  1  0  0  0  0
 11 13  1  0  0  0  0
 11 14  1  0  0  0  0
 14 15  1  0  0  0  0
 14 16  1  0  0  0  0
 14 17  1  0  0  0  0
 17 18  1  0  0  0  0
 17 19  1  0  0  0  0
 17 20  1  0  0  0  0
M  END
> <VConfSearch Rank>
264

> <Conf_Id>
76

> <Delta U+W>
2.799

> <U+W>
18.137

> <U>
72.490

> <W>
-54.353

> <W(PB)>
-56.201

> <W(SA)>
1.848

> <Valence>
2.738

> <Coulomb>
69.795

> <VdW>
-0.043

> <VdW6>
-5.334

> <VdW12>
5.290

> <Bond>
0.182

> <Angle>
1.135

> <Pdih>
1.421

> <Idih>
0.000

> <Tether>
0.000

$$$$
VeraChem MOL file


 20 19  0  0  0  0  0  0  0  0999 V2000     
   18.6576   17.1630   22.3630 C   0  0  0  0  0  0  0  0  0  0  0  0
   18.5052   17.7201   21.4306 H   0  0  0  0  0  0  0  0  0  0  0  0
   18.9769   16.1452   22.1037 H   0  0  0  0  0  0  0  0  0  0  0  0
   17.6859   17.0900   22.8683 H   0  0  0  0  0  0  0  0  0  0  0  0
   19.6948   17.8532   23.2787 C   0  0  0  0  0  0  0  0  0  0  0  0
   19.7568   17.2975   24.2248 H   0  0  0  0  0  0  0  0  0  0  0  0
   19.3507   18.8603   23.5471 H   0  0  0  0  0  0  0  0  0  0  0  0
   21.1086   17.9217   22.6511 C   0  0  0  0  0  0  0  0  0  0  0  0
   21.8021   18.3817   23.3673 H   0  0  0  0  0  0  0  0  0  0  0  0
   21.4732   16.8977   22.4953 H   0  0  0  0  0  0  0  0  0  0  0  0
   21.1994   18.6762   21.3039 C   0  0  0  0  0  0  0  0  0  0  0  0
   20.5110   18.2437   20.5742 H   0  0  0  0  0  0  0  0  0  0  0  0
   22.2134   18.5472   20.9169 H   0  0  0  0  0  0  0  0  0  0  0  0
   20.9508   20.1757   21.3719 N   0  3  0  0  0  0  0  0  0  0  0  0
   21.5110   20.6457   20.6439 H   0  0  0  0  0  0  0  0  0  0  0  0
   21.3032   20.5581   22.2620 H   0  0  0  0  0  0  0  0  0  0  0  0
   19.4783   20.5138   21.1657 C   0  0  0  0  0  0  0  0  0  0  0  0
   19.3542   21.5986   21.1925 H   0  0  0  0  0  0  0  0  0  0  0  0
   19.1561   20.1322   20.1945 H   0  0  0  0  0  0  0  0  0  0  0  0
   18.8810   20.0584   21.9561 H   0  0  0  0  0  0  0  0  0  0  0  0
  1  2  1  0  0  0  0
  1  3  1  0  0  0  0
  1  4  1  0  0  0  0
  1  5  1  0  0  0  0
  5  6  1  0  0  0  0
  5  7  1  0  0  0  0
  5  8  1  0  0  0  0
  8  9  1  0  0  0  0
  8 10  1  0  0  0  0
  8 11  1  0  0  0  0
 11 12  1  0  0  0  0
 11 13  1  0  0  0  0
 11 14  1  0  0  0  0
 14 15  1  0  0  0  0
 14 16  1  0  0  0  0
 14 17  1  0  0  0  0
 17 18  1  0  0  0  0
 17 19  1  0  0  0  0
 17 20  1  0  0  0  0
M  END
> <VConfSearch Rank>
265

> <Conf_Id>
60

> <Delta U+W>
1.788

> <U+W>
17.127

> <U>
72.122

> <W>
-54.995

> <W(PB)>
-56.810

> <W(SA)>
1.815

> <Valence>
3.197

> <Coulomb>
69.115

> <VdW>
-0.190

> <VdW6>
-5.585

> <VdW12>
5.395

> <Bond>
0.177

> <Angle>
1.207

> <Pdih>
1.813

> <Idih>
0.000

> <Tether>
0.000

$$$$
VeraChem MOL file


 20 19  0  0  0  0  0  0  0  0999 V2000     
   19.9885   20.5655   20.8100 C   0  0  0  0  0  0  0  0  0  0  0  0
   19.7777   21.6246   21.0067 H   0  0  0  0  0  0  0  0  0  0  0  0
   20.2930   20.4746   19.7593 H   0  0  0  0  0  0  0  0  0  0  0  0
   19.0515   20.0110   20.9423 H   0  0  0  0  0  0  0  0  0  0  0  0
   21.0973   20.0484   21.7554 C   0  0  0  0  0  0  0  0  0  0  0  0
   20.7873   20.1669   22.8017 H   0  0  0  0  0  0  0  0  0  0  0  0
   21.9881   20.6808   21.6354 H   0  0  0  0  0  0  0  0  0  0  0  0
   21.4938   18.5774   21.4793 C   0  0  0  0  0  0  0  0  0  0  0  0
   21.9036   18.5094   20.4629 H   0  0  0  0  0  0  0  0  0  0  0  0
   22.3114   18.2888   22.1529 H   0  0  0  0  0  0  0  0  0  0  0  0
   20.3468   17.5473   21.6067 C   0  0  0  0  0  0  0  0  0  0  0  0
   20.7291   16.5794   21.2726 H   0  0  0  0  0  0  0  0  0  0  0  0
   19.5144   17.8163   20.9523 H   0  0  0  0  0  0  0  0  0  0  0  0
   19.8061   17.3358   23.0131 N   0  3  0  0  0  0  0  0  0  0  0  0
   20.5624   17.4325   23.7069 H   0  0  0  0  0  0  0  0  0  0  0  0
   19.4843   16.3601   23.1095 H   0  0  0  0  0  0  0  0  0  0  0  0
   18.6464   18.2773   23.3196 C   0  0  0  0  0  0  0  0  0  0  0  0
   17.8495   18.1123   22.5914 H   0  0  0  0  0  0  0  0  0  0  0  0
   18.2734   18.0683   24.3247 H   0  0  0  0  0  0  0  0  0  0  0  0
   18.9866   19.3118   23.2642 H   0  0  0  0  0  0  0  0  0  0  0  0
  1  2  1  0  0  0  0
  1  3  1  0  0  0  0
  1  4  1  0  0  0  0
  1  5  1  0  0  0  0
  5  6  1  0  0  0  0
  5  7  1  0  0  0  0
  5  8  1  0  0  0  0
  8  9  1  0  0  0  0
  8 10  1  0  0  0  0
  8 11  1  0  0  0  0
 11 12  1  0  0  0  0
 11 13  1  0  0  0  0
 11 14  1  0  0  0  0
 14 15  1  0  0  0  0
 14 16  1  0  0  0  0
 14 17  1  0  0  0  0
 17 18  1  0  0  0  0
 17 19  1  0  0  0  0
 17 20  1  0  0  0  0
M  END
> <VConfSearch Rank>
266

> <Conf_Id>
54

> <Delta U+W>
1.880

> <U+W>
17.218

> <U>
72.122

> <W>
-54.903

> <W(PB)>
-56.724

> <W(SA)>
1.821

> <Valence>
3.197

> <Coulomb>
69.115

> <VdW>
-0.190

> <VdW6>
-5.585

> <VdW12>
5.395

> <Bond>
0.177

> <Angle>
1.207

> <Pdih>
1.813

> <Idih>
0.000

> <Tether>
0.000

$$$$
VeraChem MOL file


 20 19  0  0  0  0  0  0  0  0999 V2000     
   17.9729   20.7394   20.4817 C   0  0  0  0  0  0  0  0  0  0  0  0
   18.3790   20.6042   19.4708 H   0  0  0  0  0  0  0  0  0  0  0  0
   16.8815   20.8209   20.3972 H   0  0  0  0  0  0  0  0  0  0  0  0
   18.3514   21.6909   20.8774 H   0  0  0  0  0  0  0  0  0  0  0  0
   18.3626   19.5608   21.3999 C   0  0  0  0  0  0  0  0  0  0  0  0
   17.9408   18.6291   20.9970 H   0  0  0  0  0  0  0  0  0  0  0  0
   17.9135   19.7072   22.3925 H   0  0  0  0  0  0  0  0  0  0  0  0
   19.8948   19.4217   21.5374 C   0  0  0  0  0  0  0  0  0  0  0  0
   20.3423   19.2719   20.5458 H   0  0  0  0  0  0  0  0  0  0  0  0
   20.3149   20.3517   21.9432 H   0  0  0  0  0  0  0  0  0  0  0  0
   20.2752   18.2445   22.4545 C   0  0  0  0  0  0  0  0  0  0  0  0
   19.8716   17.3149   22.0452 H   0  0  0  0  0  0  0  0  0  0  0  0
   19.8443   18.3982   23.4471 H   0  0  0  0  0  0  0  0  0  0  0  0
   21.7721   18.0690   22.6193 N   0  3  0  0  0  0  0  0  0  0  0  0
   22.1928   18.9316   22.9977 H   0  0  0  0  0  0  0  0  0  0  0  0
   22.2181   17.9285   21.6998 H   0  0  0  0  0  0  0  0  0  0  0  0
   22.0589   16.8883   23.5374 C   0  0  0  0  0  0  0  0  0  0  0  0
   21.6348   15.9815   23.1007 H   0  0  0  0  0  0  0  0  0  0  0  0
   23.1395   16.7734   23.6471 H   0  0  0  0  0  0  0  0  0  0  0  0
   21.6074   17.0740   24.5143 H   0  0  0  0  0  0  0  0  0  0  0  0
  1  2  1  0  0  0  0
  1  3  1  0  0  0  0
  1  4  1  0  0  0  0
  1  5  1  0  0  0  0
  5  6  1  0  0  0  0
  5  7  1  0  0  0  0
  5  8  1  0  0  0  0
  8  9  1  0  0  0  0
  8 10  1  0  0  0  0
  8 11  1  0  0  0  0
 11 12  1  0  0  0  0
 11 13  1  0  0  0  0
 11 14  1  0  0  0  0
 14 15  1  0  0  0  0
 14 16  1  0  0  0  0
 14 17  1  0  0  0  0
 17 18  1  0  0  0  0
 17 19  1  0  0  0  0
 17 20  1  0  0  0  0
M  END
> <VConfSearch Rank>
267

> <Conf_Id>
67

> <Delta U+W>
0.000

> <U+W>
15.338

> <U>
69.277

> <W>
-53.939

> <W(PB)>
-55.889

> <W(SA)>
1.950

> <Valence>
0.846

> <Coulomb>
68.557

> <VdW>
-0.127

> <VdW6>
-3.008

> <VdW12>
2.882

> <Bond>
0.088

> <Angle>
0.332

> <Pdih>
0.426

> <Idih>
0.000

> <Tether>
0.000

$$$$
VeraChem MOL file


 20 19  0  0  0  0  0  0  0  0999 V2000     
   22.4176   20.7726   22.0822 C   0  0  0  0  0  0  0  0  0  0  0  0
   22.0497   21.2788   21.1802 H   0  0  0  0  0  0  0  0  0  0  0  0
   22.8919   21.5283   22.7217 H   0  0  0  0  0  0  0  0  0  0  0  0
   23.1912   20.0549   21.7796 H   0  0  0  0  0  0  0  0  0  0  0  0
   21.2672   20.0670   22.8326 C   0  0  0  0  0  0  0  0  0  0  0  0
   20.5271   20.8143   23.1520 H   0  0  0  0  0  0  0  0  0  0  0  0
   21.6599   19.6006   23.7472 H   0  0  0  0  0  0  0  0  0  0  0  0
   20.5805   18.9967   21.9559 C   0  0  0  0  0  0  0  0  0  0  0  0
   20.1902   19.4669   21.0441 H   0  0  0  0  0  0  0  0  0  0  0  0
   21.3195   18.2482   21.6408 H   0  0  0  0  0  0  0  0  0  0  0  0
   19.4341   18.2966   22.7145 C   0  0  0  0  0  0  0  0  0  0  0  0
   18.6700   19.0280   22.9895 H   0  0  0  0  0  0  0  0  0  0  0  0
   19.8318   17.8612   23.6348 H   0  0  0  0  0  0  0  0  0  0  0  0
   18.7546   17.1774   21.9422 N   0  3  0  0  0  0  0  0  0  0  0  0
   18.1213   16.6592   22.5712 H   0  0  0  0  0  0  0  0  0  0  0  0
   19.4507   16.4806   21.6362 H   0  0  0  0  0  0  0  0  0  0  0  0
   17.9710   17.7207   20.7521 C   0  0  0  0  0  0  0  0  0  0  0  0
   18.6577   18.2098   20.0584 H   0  0  0  0  0  0  0  0  0  0  0  0
   17.4683   16.8930   20.2470 H   0  0  0  0  0  0  0  0  0  0  0  0
   17.2295   18.4393   21.1078 H   0  0  0  0  0  0  0  0  0  0  0  0
  1  2  1  0  0  0  0
  1  3  1  0  0  0  0
  1  4  1  0  0  0  0
  1  5  1  0  0  0  0
  5  6  1  0  0  0  0
  5  7  1  0  0  0  0
  5  8  1  0  0  0  0
  8  9  1  0  0  0  0
  8 10  1  0  0  0  0
  8 11  1  0  0  0  0
 11 12  1  0  0  0  0
 11 13  1  0  0  0  0
 11 14  1  0  0  0  0
 14 15  1  0  0  0  0
 14 16  1  0  0  0  0
 14 17  1  0  0  0  0
 17 18  1  0  0  0  0
 17 19  1  0  0  0  0
 17 20  1  0  0  0  0
M  END
> <VConfSearch Rank>
268

> <Conf_Id>
37

> <Delta U+W>
-0.021

> <U+W>
15.318

> <U>
69.657

> <W>
-54.340

> <W(PB)>
-56.238

> <W(SA)>
1.899

> <Valence>
1.137

> <Coulomb>
68.383

> <VdW>
0.138

> <VdW6>
-3.703

> <VdW12>
3.841

> <Bond>
0.125

> <Angle>
0.468

> <Pdih>
0.543

> <Idih>
0.000

> <Tether>
0.000

$$$$
VeraChem MOL file


 20 19  0  0  0  0  0  0  0  0999 V2000     
   19.8677   16.9214   24.3405 C   0  0  0  0  0  0  0  0  0  0  0  0
   19.3753   16.7887   25.3126 H   0  0  0  0  0  0  0  0  0  0  0  0
   19.5406   16.1046   23.6839 H   0  0  0  0  0  0  0  0  0  0  0  0
   20.9499   16.8222   24.4957 H   0  0  0  0  0  0  0  0  0  0  0  0
   19.5164   18.2973   23.7342 C   0  0  0  0  0  0  0  0  0  0  0  0
   19.8238   19.0917   24.4291 H   0  0  0  0  0  0  0  0  0  0  0  0
   18.4259   18.3797   23.6230 H   0  0  0  0  0  0  0  0  0  0  0  0
   20.1965   18.5121   22.3642 C   0  0  0  0  0  0  0  0  0  0  0  0
   21.2859   18.4340   22.4768 H   0  0  0  0  0  0  0  0  0  0  0  0
   19.8867   17.7169   21.6740 H   0  0  0  0  0  0  0  0  0  0  0  0
   19.8409   19.8896   21.7675 C   0  0  0  0  0  0  0  0  0  0  0  0
   20.1261   20.6686   22.4792 H   0  0  0  0  0  0  0  0  0  0  0  0
   18.7620   19.9572   21.6070 H   0  0  0  0  0  0  0  0  0  0  0  0
   20.5311   20.2063   20.4507 N   0  3  0  0  0  0  0  0  0  0  0  0
   21.5538   20.1212   20.5537 H   0  0  0  0  0  0  0  0  0  0  0  0
   20.3718   21.1966   20.2071 H   0  0  0  0  0  0  0  0  0  0  0  0
   20.0220   19.3091   19.3276 C   0  0  0  0  0  0  0  0  0  0  0  0
   18.9418   19.4351   19.2285 H   0  0  0  0  0  0  0  0  0  0  0  0
   20.5125   19.5921   18.3936 H   0  0  0  0  0  0  0  0  0  0  0  0
   20.2536   18.2682   19.5616 H   0  0  0  0  0  0  0  0  0  0  0  0
  1  2  1  0  0  0  0
  1  3  1  0  0  0  0
  1  4  1  0  0  0  0
  1  5  1  0  0  0  0
  5  6  1  0  0  0  0
  5  7  1  0  0  0  0
  5  8  1  0  0  0  0
  8  9  1  0  0  0  0
  8 10  1  0  0  0  0
  8 11  1  0  0  0  0
 11 12  1  0  0  0  0
 11 13  1  0  0  0  0
 11 14  1  0  0  0  0
 14 15  1  0  0  0  0
 14 16  1  0  0  0  0
 14 17  1  0  0  0  0
 17 18  1  0  0  0  0
 17 19  1  0  0  0  0
 17 20  1  0  0  0  0
M  END
> <VConfSearch Rank>
269

> <Conf_Id>
2

> <Delta U+W>
0.069

> <U+W>
15.407

> <U>
69.657

> <W>
-54.250

> <W(PB)>
-56.176

> <W(SA)>
1.926

> <Valence>
1.137

> <Coulomb>
68.383

> <VdW>
0.138

> <VdW6>
-3.703

> <VdW12>
3.841

> <Bond>
0.125

> <Angle>
0.468

> <Pdih>
0.543

> <Idih>
0.000

> <Tether>
0.000

$$$$
VeraChem MOL file


 20 19  0  0  0  0  0  0  0  0999 V2000     
   22.3538   17.8221   21.1212 C   0  0  0  0  0  0  0  0  0  0  0  0
   22.4043   18.8999   21.3207 H   0  0  0  0  0  0  0  0  0  0  0  0
   22.6304   17.2897   22.0405 H   0  0  0  0  0  0  0  0  0  0  0  0
   23.1107   17.5911   20.3604 H   0  0  0  0  0  0  0  0  0  0  0  0
   20.9489   17.3989   20.6341 C   0  0  0  0  0  0  0  0  0  0  0  0
   20.9704   16.3351   20.3584 H   0  0  0  0  0  0  0  0  0  0  0  0
   20.6944   17.9500   19.7178 H   0  0  0  0  0  0  0  0  0  0  0  0
   19.8481   17.6199   21.6979 C   0  0  0  0  0  0  0  0  0  0  0  0
   18.8967   17.2280   21.3143 H   0  0  0  0  0  0  0  0  0  0  0  0
   20.0863   17.0408   22.5999 H   0  0  0  0  0  0  0  0  0  0  0  0
   19.6700   19.1053   22.0684 C   0  0  0  0  0  0  0  0  0  0  0  0
   19.4305   19.6811   21.1709 H   0  0  0  0  0  0  0  0  0  0  0  0
   20.6007   19.4943   22.4882 H   0  0  0  0  0  0  0  0  0  0  0  0
   18.5693   19.3448   23.0830 N   0  3  0  0  0  0  0  0  0  0  0  0
   18.7553   18.8083   23.9442 H   0  0  0  0  0  0  0  0  0  0  0  0
   17.6708   18.9850   22.7260 H   0  0  0  0  0  0  0  0  0  0  0  0
   18.4633   20.8319   23.3931 C   0  0  0  0  0  0  0  0  0  0  0  0
   18.2323   21.3756   22.4745 H   0  0  0  0  0  0  0  0  0  0  0  0
   17.6674   20.9901   24.1243 H   0  0  0  0  0  0  0  0  0  0  0  0
   19.4134   21.1831   23.8015 H   0  0  0  0  0  0  0  0  0  0  0  0
  1  2  1  0  0  0  0
  1  3  1  0  0  0  0
  1  4  1  0  0  0  0
  1  5  1  0  0  0  0
  5  6  1  0  0  0  0
  5  7  1  0  0  0  0
  5  8  1  0  0  0  0
  8  9  1  0  0  0  0
  8 10  1  0  0  0  0
  8 11  1  0  0  0  0
 11 12  1  0  0  0  0
 11 13  1  0  0  0  0
 11 14  1  0  0  0  0
 14 15  1  0  0  0  0
 14 16  1  0  0  0  0
 14 17  1  0  0  0  0
 17 18  1  0  0  0  0
 17 19  1  0  0  0  0
 17 20  1  0  0  0  0
M  END
> <VConfSearch Rank>
270

> <Conf_Id>
34

> <Delta U+W>
0.276

> <U+W>
15.615

> <U>
69.798

> <W>
-54.184

> <W(PB)>
-56.116

> <W(SA)>
1.933

> <Valence>
1.134

> <Coulomb>
68.735

> <VdW>
-0.070

> <VdW6>
-3.565

> <VdW12>
3.494

> <Bond>
0.108

> <Angle>
0.456

> <Pdih>
0.569

> <Idih>
0.000

> <Tether>
0.000

$$$$
VeraChem MOL file


 20 19  0  0  0  0  0  0  0  0999 V2000     
   21.6400   16.3279   21.2824 C   0  0  0  0  0  0  0  0  0  0  0  0
   21.5655   16.1578   20.2004 H   0  0  0  0  0  0  0  0  0  0  0  0
   22.6807   16.1454   21.5801 H   0  0  0  0  0  0  0  0  0  0  0  0
   21.0102   15.5851   21.7890 H   0  0  0  0  0  0  0  0  0  0  0  0
   21.2110   17.7647   21.6509 C   0  0  0  0  0  0  0  0  0  0  0  0
   21.8789   18.4828   21.1544 H   0  0  0  0  0  0  0  0  0  0  0  0
   21.3367   17.9102   22.7323 H   0  0  0  0  0  0  0  0  0  0  0  0
   19.7461   18.0473   21.2417 C   0  0  0  0  0  0  0  0  0  0  0  0
   19.6274   17.8599   20.1662 H   0  0  0  0  0  0  0  0  0  0  0  0
   19.0701   17.3514   21.7561 H   0  0  0  0  0  0  0  0  0  0  0  0
   19.3127   19.4980   21.5339 C   0  0  0  0  0  0  0  0  0  0  0  0
   18.3049   19.6595   21.1428 H   0  0  0  0  0  0  0  0  0  0  0  0
   19.9887   20.1922   21.0285 H   0  0  0  0  0  0  0  0  0  0  0  0
   19.2929   19.8528   23.0089 N   0  3  0  0  0  0  0  0  0  0  0  0
   20.2283   19.7161   23.4199 H   0  0  0  0  0  0  0  0  0  0  0  0
   18.6707   19.2089   23.5211 H   0  0  0  0  0  0  0  0  0  0  0  0
   18.8365   21.2941   23.1905 C   0  0  0  0  0  0  0  0  0  0  0  0
   19.5277   21.9591   22.6681 H   0  0  0  0  0  0  0  0  0  0  0  0
   17.8316   21.4080   22.7783 H   0  0  0  0  0  0  0  0  0  0  0  0
   18.8270   21.5361   24.2556 H   0  0  0  0  0  0  0  0  0  0  0  0
  1  2  1  0  0  0  0
  1  3  1  0  0  0  0
  1  4  1  0  0  0  0
  1  5  1  0  0  0  0
  5  6  1  0  0  0  0
  5  7  1  0  0  0  0
  5  8  1  0  0  0  0
  8  9  1  0  0  0  0
  8 10  1  0  0  0  0
  8 11  1  0  0  0  0
 11 12  1  0  0  0  0
 11 13  1  0  0  0  0
 11 14  1  0  0  0  0
 14 15  1  0  0  0  0
 14 16  1  0  0  0  0
 14 17  1  0  0  0  0
 17 18  1  0  0  0  0
 17 19  1  0  0  0  0
 17 20  1  0  0  0  0
M  END
> <VConfSearch Rank>
271

> <Conf_Id>
50

> <Delta U+W>
0.319

> <U+W>
15.657

> <U>
69.962

> <W>
-54.305

> <W(PB)>
-56.223

> <W(SA)>
1.918

> <Valence>
0.982

> <Coulomb>
69.058

> <VdW>
-0.078

> <VdW6>
-3.548

> <VdW12>
3.471

> <Bond>
0.105

> <Angle>
0.408

> <Pdih>
0.469

> <Idih>
0.000

> <Tether>
0.000

$$$$
VeraChem MOL file


 20 19  0  0  0  0  0  0  0  0999 V2000     
   17.4795   17.2750   21.7701 C   0  0  0  0  0  0  0  0  0  0  0  0
   17.3999   16.1805   21.7962 H   0  0  0  0  0  0  0  0  0  0  0  0
   16.7512   17.6818   22.4837 H   0  0  0  0  0  0  0  0  0  0  0  0
   17.1946   17.6088   20.7638 H   0  0  0  0  0  0  0  0  0  0  0  0
   18.9139   17.7263   22.1203 C   0  0  0  0  0  0  0  0  0  0  0  0
   19.6170   17.2688   21.4111 H   0  0  0  0  0  0  0  0  0  0  0  0
   19.1804   17.3506   23.1183 H   0  0  0  0  0  0  0  0  0  0  0  0
   19.0528   19.2668   22.0897 C   0  0  0  0  0  0  0  0  0  0  0  0
   18.8153   19.6469   21.0873 H   0  0  0  0  0  0  0  0  0  0  0  0
   18.3176   19.7108   22.7740 H   0  0  0  0  0  0  0  0  0  0  0  0
   20.4573   19.7491   22.5047 C   0  0  0  0  0  0  0  0  0  0  0  0
   20.6983   19.3660   23.4994 H   0  0  0  0  0  0  0  0  0  0  0  0
   20.4655   20.8412   22.5499 H   0  0  0  0  0  0  0  0  0  0  0  0
   21.5631   19.3226   21.5574 N   0  3  0  0  0  0  0  0  0  0  0  0
   21.3631   19.6593   20.6030 H   0  0  0  0  0  0  0  0  0  0  0  0
   21.5929   18.2948   21.4856 H   0  0  0  0  0  0  0  0  0  0  0  0
   22.9013   19.8617   22.0445 C   0  0  0  0  0  0  0  0  0  0  0  0
   23.6875   19.5476   21.3543 H   0  0  0  0  0  0  0  0  0  0  0  0
   22.8580   20.9524   22.0810 H   0  0  0  0  0  0  0  0  0  0  0  0
   23.1072   19.4665   23.0415 H   0  0  0  0  0  0  0  0  0  0  0  0
  1  2  1  0  0  0  0
  1  3  1  0  0  0  0
  1  4  1  0  0  0  0
  1  5  1  0  0  0  0
  5  6  1  0  0  0  0
  5  7  1  0  0  0  0
  5  8  1  0  0  0  0
  8  9  1  0  0  0  0
  8 10  1  0  0  0  0
  8 11  1  0  0  0  0
 11 12  1  0  0  0  0
 11 13  1  0  0  0  0
 11 14  1  0  0  0  0
 14 15  1  0  0  0  0
 14 16  1  0  0  0  0
 14 17  1  0  0  0  0
 17 18  1  0  0  0  0
 17 19  1  0  0  0  0
 17 20  1  0  0  0  0
M  END
> <VConfSearch Rank>
272

> <Conf_Id>
35

> <Delta U+W>
0.360

> <U+W>
15.698

> <U>
69.962

> <W>
-54.264

> <W(PB)>
-56.166

> <W(SA)>
1.902

> <Valence>
0.982

> <Coulomb>
69.058

> <VdW>
-0.078

> <VdW6>
-3.548

> <VdW12>
3.471

> <Bond>
0.105

> <Angle>
0.408

> <Pdih>
0.469

> <Idih>
0.000

> <Tether>
0.000

$$$$
VeraChem MOL file


 20 19  0  0  0  0  0  0  0  0999 V2000     
   19.7227   20.3693   20.0354 C   0  0  0  0  0  0  0  0  0  0  0  0
   20.4555   19.6426   19.6627 H   0  0  0  0  0  0  0  0  0  0  0  0
   19.2807   20.8698   19.1641 H   0  0  0  0  0  0  0  0  0  0  0  0
   20.2591   21.1277   20.6204 H   0  0  0  0  0  0  0  0  0  0  0  0
   18.6250   19.6862   20.8831 C   0  0  0  0  0  0  0  0  0  0  0  0
   18.1077   18.9293   20.2766 H   0  0  0  0  0  0  0  0  0  0  0  0
   17.8667   20.4330   21.1572 H   0  0  0  0  0  0  0  0  0  0  0  0
   19.1766   19.0335   22.1721 C   0  0  0  0  0  0  0  0  0  0  0  0
   19.6590   19.8010   22.7909 H   0  0  0  0  0  0  0  0  0  0  0  0
   18.3377   18.6374   22.7594 H   0  0  0  0  0  0  0  0  0  0  0  0
   20.1718   17.8904   21.8784 C   0  0  0  0  0  0  0  0  0  0  0  0
   21.0449   18.2834   21.3520 H   0  0  0  0  0  0  0  0  0  0  0  0
   19.6872   17.1565   21.2294 H   0  0  0  0  0  0  0  0  0  0  0  0
   20.6653   17.1494   23.1104 N   0  3  0  0  0  0  0  0  0  0  0  0
   21.1883   16.3080   22.8210 H   0  0  0  0  0  0  0  0  0  0  0  0
   19.8667   16.7895   23.6548 H   0  0  0  0  0  0  0  0  0  0  0  0
   21.5534   18.0395   23.9731 C   0  0  0  0  0  0  0  0  0  0  0  0
   20.9742   18.8935   24.3294 H   0  0  0  0  0  0  0  0  0  0  0  0
   21.9172   17.4624   24.8262 H   0  0  0  0  0  0  0  0  0  0  0  0
   22.3997   18.3884   23.3774 H   0  0  0  0  0  0  0  0  0  0  0  0
  1  2  1  0  0  0  0
  1  3  1  0  0  0  0
  1  4  1  0  0  0  0
  1  5  1  0  0  0  0
  5  6  1  0  0  0  0
  5  7  1  0  0  0  0
  5  8  1  0  0  0  0
  8  9  1  0  0  0  0
  8 10  1  0  0  0  0
  8 11  1  0  0  0  0
 11 12  1  0  0  0  0
 11 13  1  0  0  0  0
 11 14  1  0  0  0  0
 14 15  1  0  0  0  0
 14 16  1  0  0  0  0
 14 17  1  0  0  0  0
 17 18  1  0  0  0  0
 17 19  1  0  0  0  0
 17 20  1  0  0  0  0
M  END
> <VConfSearch Rank>
273

> <Conf_Id>
33

> <Delta U+W>
0.372

> <U+W>
15.711

> <U>
70.163

> <W>
-54.452

> <W(PB)>
-56.363

> <W(SA)>
1.911

> <Valence>
1.420

> <Coulomb>
68.566

> <VdW>
0.177

> <VdW6>
-4.267

> <VdW12>
4.445

> <Bond>
0.146

> <Angle>
0.581

> <Pdih>
0.693

> <Idih>
0.000

> <Tether>
0.000

$$$$
VeraChem MOL file


 20 19  0  0  0  0  0  0  0  0999 V2000     
   21.6885   17.6379   20.3410 C   0  0  0  0  0  0  0  0  0  0  0  0
   22.2246   16.8455   19.8027 H   0  0  0  0  0  0  0  0  0  0  0  0
   20.8169   17.9173   19.7358 H   0  0  0  0  0  0  0  0  0  0  0  0
   22.3544   18.5083   20.4053 H   0  0  0  0  0  0  0  0  0  0  0  0
   21.2714   17.1512   21.7478 C   0  0  0  0  0  0  0  0  0  0  0  0
   22.1631   16.7971   22.2839 H   0  0  0  0  0  0  0  0  0  0  0  0
   20.6023   16.2840   21.6552 H   0  0  0  0  0  0  0  0  0  0  0  0
   20.5841   18.2526   22.5884 C   0  0  0  0  0  0  0  0  0  0  0  0
   20.3860   17.8625   23.5954 H   0  0  0  0  0  0  0  0  0  0  0  0
   21.2709   19.1002   22.7089 H   0  0  0  0  0  0  0  0  0  0  0  0
   19.2571   18.7338   21.9630 C   0  0  0  0  0  0  0  0  0  0  0  0
   18.6022   17.8715   21.8143 H   0  0  0  0  0  0  0  0  0  0  0  0
   19.4483   19.1860   20.9869 H   0  0  0  0  0  0  0  0  0  0  0  0
   18.4921   19.7440   22.8025 N   0  3  0  0  0  0  0  0  0  0  0  0
   18.3198   19.3667   23.7468 H   0  0  0  0  0  0  0  0  0  0  0  0
   17.5527   19.8869   22.3998 H   0  0  0  0  0  0  0  0  0  0  0  0
   19.2315   21.0756   22.8765 C   0  0  0  0  0  0  0  0  0  0  0  0
   18.6348   21.7843   23.4549 H   0  0  0  0  0  0  0  0  0  0  0  0
   20.1974   20.9276   23.3633 H   0  0  0  0  0  0  0  0  0  0  0  0
   19.3814   21.4602   21.8654 H   0  0  0  0  0  0  0  0  0  0  0  0
  1  2  1  0  0  0  0
  1  3  1  0  0  0  0
  1  4  1  0  0  0  0
  1  5  1  0  0  0  0
  5  6  1  0  0  0  0
  5  7  1  0  0  0  0
  5  8  1  0  0  0  0
  8  9  1  0  0  0  0
  8 10  1  0  0  0  0
  8 11  1  0  0  0  0
 11 12  1  0  0  0  0
 11 13  1  0  0  0  0
 11 14  1  0  0  0  0
 14 15  1  0  0  0  0
 14 16  1  0  0  0  0
 14 17  1  0  0  0  0
 17 18  1  0  0  0  0
 17 19  1  0  0  0  0
 17 20  1  0  0  0  0
M  END
> <VConfSearch Rank>
274

> <Conf_Id>
53

> <Delta U+W>
0.379

> <U+W>
15.717

> <U>
70.163

> <W>
-54.446

> <W(PB)>
-56.322

> <W(SA)>
1.876

> <Valence>
1.420

> <Coulomb>
68.566

> <VdW>
0.177

> <VdW6>
-4.267

> <VdW12>
4.445

> <Bond>
0.146

> <Angle>
0.581

> <Pdih>
0.693

> <Idih>
0.000

> <Tether>
0.000

$$$$
VeraChem MOL file


 20 19  0  0  0  0  0  0  0  0999 V2000     
   22.3660   20.3998   22.5678 C   0  0  0  0  0  0  0  0  0  0  0  0
   23.3874   20.2790   22.1843 H   0  0  0  0  0  0  0  0  0  0  0  0
   22.1314   21.4722   22.5666 H   0  0  0  0  0  0  0  0  0  0  0  0
   22.3536   20.0486   23.6078 H   0  0  0  0  0  0  0  0  0  0  0  0
   21.3611   19.6093   21.7022 C   0  0  0  0  0  0  0  0  0  0  0  0
   21.6496   18.5494   21.6959 H   0  0  0  0  0  0  0  0  0  0  0  0
   21.4197   19.9612   20.6625 H   0  0  0  0  0  0  0  0  0  0  0  0
   19.9127   19.7614   22.2233 C   0  0  0  0  0  0  0  0  0  0  0  0
   19.8424   19.3861   23.2524 H   0  0  0  0  0  0  0  0  0  0  0  0
   19.6527   20.8273   22.2662 H   0  0  0  0  0  0  0  0  0  0  0  0
   18.8749   19.0445   21.3312 C   0  0  0  0  0  0  0  0  0  0  0  0
   18.9182   19.4696   20.3252 H   0  0  0  0  0  0  0  0  0  0  0  0
   17.8712   19.2211   21.7260 H   0  0  0  0  0  0  0  0  0  0  0  0
   19.0584   17.5402   21.1974 N   0  3  0  0  0  0  0  0  0  0  0  0
   19.9972   17.3276   20.8295 H   0  0  0  0  0  0  0  0  0  0  0  0
   18.4057   17.1751   20.4861 H   0  0  0  0  0  0  0  0  0  0  0  0
   18.8244   16.8324   22.5275 C   0  0  0  0  0  0  0  0  0  0  0  0
   17.8171   17.0595   22.8831 H   0  0  0  0  0  0  0  0  0  0  0  0
   18.9293   15.7550   22.3829 H   0  0  0  0  0  0  0  0  0  0  0  0
   19.5609   17.1777   23.2557 H   0  0  0  0  0  0  0  0  0  0  0  0
  1  2  1  0  0  0  0
  1  3  1  0  0  0  0
  1  4  1  0  0  0  0
  1  5  1  0  0  0  0
  5  6  1  0  0  0  0
  5  7  1  0  0  0  0
  5  8  1  0  0  0  0
  8  9  1  0  0  0  0
  8 10  1  0  0  0  0
  8 11  1  0  0  0  0
 11 12  1  0  0  0  0
 11 13  1  0  0  0  0
 11 14  1  0  0  0  0
 14 15  1  0  0  0  0
 14 16  1  0  0  0  0
 14 17  1  0  0  0  0
 17 18  1  0  0  0  0
 17 19  1  0  0  0  0
 17 20  1  0  0  0  0
M  END
> <VConfSearch Rank>
275

> <Conf_Id>
49

> <Delta U+W>
0.268

> <U+W>
15.607

> <U>
70.298

> <W>
-54.692

> <W(PB)>
-56.576

> <W(SA)>
1.885

> <Valence>
1.245

> <Coulomb>
68.933

> <VdW>
0.120

> <VdW6>
-4.430

> <VdW12>
4.550

> <Bond>
0.148

> <Angle>
0.587

> <Pdih>
0.509

> <Idih>
0.000

> <Tether>
0.000

$$$$
VeraChem MOL file


 20 19  0  0  0  0  0  0  0  0999 V2000     
   20.4206   21.0566   20.4724 C   0  0  0  0  0  0  0  0  0  0  0  0
   21.5153   21.1016   20.4032 H   0  0  0  0  0  0  0  0  0  0  0  0
   20.0194   20.9262   19.4589 H   0  0  0  0  0  0  0  0  0  0  0  0
   20.0676   22.0246   20.8511 H   0  0  0  0  0  0  0  0  0  0  0  0
   19.9690   19.9096   21.4023 C   0  0  0  0  0  0  0  0  0  0  0  0
   18.8723   19.9074   21.4736 H   0  0  0  0  0  0  0  0  0  0  0  0
   20.3573   20.0985   22.4118 H   0  0  0  0  0  0  0  0  0  0  0  0
   20.4633   18.5342   20.8967 C   0  0  0  0  0  0  0  0  0  0  0  0
   20.1659   18.4104   19.8469 H   0  0  0  0  0  0  0  0  0  0  0  0
   21.5608   18.5058   20.9109 H   0  0  0  0  0  0  0  0  0  0  0  0
   19.9084   17.3313   21.6929 C   0  0  0  0  0  0  0  0  0  0  0  0
   20.2664   16.4164   21.2139 H   0  0  0  0  0  0  0  0  0  0  0  0
   18.8163   17.3202   21.6528 H   0  0  0  0  0  0  0  0  0  0  0  0
   20.3327   17.2560   23.1515 N   0  3  0  0  0  0  0  0  0  0  0  0
   21.2813   17.6418   23.2707 H   0  0  0  0  0  0  0  0  0  0  0  0
   20.4136   16.2660   23.4316 H   0  0  0  0  0  0  0  0  0  0  0  0
   19.3271   17.9540   24.0616 C   0  0  0  0  0  0  0  0  0  0  0  0
   19.6567   17.8568   25.0984 H   0  0  0  0  0  0  0  0  0  0  0  0
   19.2598   19.0098   23.7969 H   0  0  0  0  0  0  0  0  0  0  0  0
   18.3494   17.4823   23.9425 H   0  0  0  0  0  0  0  0  0  0  0  0
  1  2  1  0  0  0  0
  1  3  1  0  0  0  0
  1  4  1  0  0  0  0
  1  5  1  0  0  0  0
  5  6  1  0  0  0  0
  5  7  1  0  0  0  0
  5  8  1  0  0  0  0
  8  9  1  0  0  0  0
  8 10  1  0  0  0  0
  8 11  1  0  0  0  0
 11 12  1  0  0  0  0
 11 13  1  0  0  0  0
 11 14  1  0  0  0  0
 14 15  1  0  0  0  0
 14 16  1  0  0  0  0
 14 17  1  0  0  0  0
 17 18  1  0  0  0  0
 17 19  1  0  0  0  0
 17 20  1  0  0  0  0
M  END
> <VConfSearch Rank>
276

> <Conf_Id>
65

> <Delta U+W>
1.775

> <U+W>
17.114

> <U>
71.726

> <W>
-54.613

> <W(PB)>
-56.495

> <W(SA)>
1.883

> <Valence>
2.885

> <Coulomb>
68.822

> <VdW>
0.019

> <VdW6>
-4.600

> <VdW12>
4.619

> <Bond>
0.152

> <Angle>
0.862

> <Pdih>
1.871

> <Idih>
0.000

> <Tether>
0.000

$$$$
VeraChem MOL file


 20 19  0  0  0  0  0  0  0  0999 V2000     
   18.7473   16.8737   21.4479 C   0  0  0  0  0  0  0  0  0  0  0  0
   19.6522   17.0433   20.8509 H   0  0  0  0  0  0  0  0  0  0  0  0
   18.6655   15.7934   21.6245 H   0  0  0  0  0  0  0  0  0  0  0  0
   17.8797   17.1813   20.8498 H   0  0  0  0  0  0  0  0  0  0  0  0
   18.7975   17.6403   22.7895 C   0  0  0  0  0  0  0  0  0  0  0  0
   19.6722   17.3148   23.3688 H   0  0  0  0  0  0  0  0  0  0  0  0
   17.9184   17.3669   23.3899 H   0  0  0  0  0  0  0  0  0  0  0  0
   18.8191   19.1788   22.6094 C   0  0  0  0  0  0  0  0  0  0  0  0
   17.8892   19.4979   22.1203 H   0  0  0  0  0  0  0  0  0  0  0  0
   18.8265   19.6615   23.5956 H   0  0  0  0  0  0  0  0  0  0  0  0
   20.0138   19.6973   21.7818 C   0  0  0  0  0  0  0  0  0  0  0  0
   19.9373   20.7824   21.6759 H   0  0  0  0  0  0  0  0  0  0  0  0
   19.9877   19.2570   20.7822 H   0  0  0  0  0  0  0  0  0  0  0  0
   21.3671   19.3891   22.3935 N   0  3  0  0  0  0  0  0  0  0  0  0
   21.4747   18.3714   22.5166 H   0  0  0  0  0  0  0  0  0  0  0  0
   21.4281   19.7897   23.3420 H   0  0  0  0  0  0  0  0  0  0  0  0
   22.4761   19.9402   21.5075 C   0  0  0  0  0  0  0  0  0  0  0  0
   22.3600   21.0223   21.4171 H   0  0  0  0  0  0  0  0  0  0  0  0
   23.4437   19.7102   21.9589 H   0  0  0  0  0  0  0  0  0  0  0  0
   22.4112   19.4778   20.5202 H   0  0  0  0  0  0  0  0  0  0  0  0
  1  2  1  0  0  0  0
  1  3  1  0  0  0  0
  1  4  1  0  0  0  0
  1  5  1  0  0  0  0
  5  6  1  0  0  0  0
  5  7  1  0  0  0  0
  5  8  1  0  0  0  0
  8  9  1  0  0  0  0
  8 10  1  0  0  0  0
  8 11  1  0  0  0  0
 11 12  1  0  0  0  0
 11 13  1  0  0  0  0
 11 14  1  0  0  0  0
 14 15  1  0  0  0  0
 14 16  1  0  0  0  0
 14 17  1  0  0  0  0
 17 18  1  0  0  0  0
 17 19  1  0  0  0  0
 17 20  1  0  0  0  0
M  END
> <VConfSearch Rank>
277

> <Conf_Id>
23

> <Delta U+W>
0.896

> <U+W>
16.234

> <U>
70.374

> <W>
-54.140

> <W(PB)>
-56.046

> <W(SA)>
1.907

> <Valence>
1.257

> <Coulomb>
69.240

> <VdW>
-0.123

> <VdW6>
-4.336

> <VdW12>
4.213

> <Bond>
0.128

> <Angle>
0.603

> <Pdih>
0.526

> <Idih>
0.000

> <Tether>
0.000

$$$$
VeraChem MOL file


 20 19  0  0  0  0  0  0  0  0999 V2000     
   18.5883   18.4603   20.2361 C   0  0  0  0  0  0  0  0  0  0  0  0
   18.5016   19.3702   19.6281 H   0  0  0  0  0  0  0  0  0  0  0  0
   17.9711   17.6839   19.7657 H   0  0  0  0  0  0  0  0  0  0  0  0
   18.1612   18.6676   21.2254 H   0  0  0  0  0  0  0  0  0  0  0  0
   20.0598   17.9967   20.3362 C   0  0  0  0  0  0  0  0  0  0  0  0
   20.4133   17.7125   19.3351 H   0  0  0  0  0  0  0  0  0  0  0  0
   20.1198   17.0862   20.9476 H   0  0  0  0  0  0  0  0  0  0  0  0
   21.0021   19.0859   20.9068 C   0  0  0  0  0  0  0  0  0  0  0  0
   22.0315   18.7043   20.9256 H   0  0  0  0  0  0  0  0  0  0  0  0
   21.0088   19.9490   20.2280 H   0  0  0  0  0  0  0  0  0  0  0  0
   20.6158   19.5731   22.3191 C   0  0  0  0  0  0  0  0  0  0  0  0
   19.6091   19.9972   22.2995 H   0  0  0  0  0  0  0  0  0  0  0  0
   21.3081   20.3583   22.6333 H   0  0  0  0  0  0  0  0  0  0  0  0
   20.6446   18.4851   23.3755 N   0  3  0  0  0  0  0  0  0  0  0  0
   21.5829   18.0592   23.4220 H   0  0  0  0  0  0  0  0  0  0  0  0
   20.0072   17.7196   23.1104 H   0  0  0  0  0  0  0  0  0  0  0  0
   20.2515   19.0630   24.7283 C   0  0  0  0  0  0  0  0  0  0  0  0
   19.2434   19.4780   24.6633 H   0  0  0  0  0  0  0  0  0  0  0  0
   20.2753   18.2693   25.4783 H   0  0  0  0  0  0  0  0  0  0  0  0
   20.9580   19.8495   25.0024 H   0  0  0  0  0  0  0  0  0  0  0  0
  1  2  1  0  0  0  0
  1  3  1  0  0  0  0
  1  4  1  0  0  0  0
  1  5  1  0  0  0  0
  5  6  1  0  0  0  0
  5  7  1  0  0  0  0
  5  8  1  0  0  0  0
  8  9  1  0  0  0  0
  8 10  1  0  0  0  0
  8 11  1  0  0  0  0
 11 12  1  0  0  0  0
 11 13  1  0  0  0  0
 11 14  1  0  0  0  0
 14 15  1  0  0  0  0
 14 16  1  0  0  0  0
 14 17  1  0  0  0  0
 17 18  1  0  0  0  0
 17 19  1  0  0  0  0
 17 20  1  0  0  0  0
M  END
> <VConfSearch Rank>
278

> <Conf_Id>
24

> <Delta U+W>
0.792

> <U+W>
16.130

> <U>
70.374

> <W>
-54.243

> <W(PB)>
-56.130

> <W(SA)>
1.887

> <Valence>
1.257

> <Coulomb>
69.240

> <VdW>
-0.123

> <VdW6>
-4.336

> <VdW12>
4.213

> <Bond>
0.128

> <Angle>
0.603

> <Pdih>
0.526

> <Idih>
0.000

> <Tether>
0.000

$$$$
VeraChem MOL file


 20 19  0  0  0  0  0  0  0  0999 V2000     
   17.9296   19.3800   21.5687 C   0  0  0  0  0  0  0  0  0  0  0  0
   17.0226   19.9827   21.4288 H   0  0  0  0  0  0  0  0  0  0  0  0
   18.7118   19.8281   20.9446 H   0  0  0  0  0  0  0  0  0  0  0  0
   17.7159   18.3683   21.2001 H   0  0  0  0  0  0  0  0  0  0  0  0
   18.3342   19.3612   23.0604 C   0  0  0  0  0  0  0  0  0  0  0  0
   17.4490   19.1077   23.6606 H   0  0  0  0  0  0  0  0  0  0  0  0
   18.6320   20.3725   23.3712 H   0  0  0  0  0  0  0  0  0  0  0  0
   19.4629   18.3567   23.4068 C   0  0  0  0  0  0  0  0  0  0  0  0
   19.6153   18.3813   24.4940 H   0  0  0  0  0  0  0  0  0  0  0  0
   19.1483   17.3317   23.1702 H   0  0  0  0  0  0  0  0  0  0  0  0
   20.8180   18.6621   22.7339 C   0  0  0  0  0  0  0  0  0  0  0  0
   21.6150   18.1681   23.2954 H   0  0  0  0  0  0  0  0  0  0  0  0
   21.0061   19.7384   22.7542 H   0  0  0  0  0  0  0  0  0  0  0  0
   20.9261   18.1823   21.2989 N   0  3  0  0  0  0  0  0  0  0  0  0
   20.1608   18.5798   20.7359 H   0  0  0  0  0  0  0  0  0  0  0  0
   20.7958   17.1600   21.2562 H   0  0  0  0  0  0  0  0  0  0  0  0
   22.2785   18.5737   20.7190 C   0  0  0  0  0  0  0  0  0  0  0  0
   22.3801   19.6608   20.7447 H   0  0  0  0  0  0  0  0  0  0  0  0
   23.0712   18.1144   21.3135 H   0  0  0  0  0  0  0  0  0  0  0  0
   22.3419   18.2221   19.6869 H   0  0  0  0  0  0  0  0  0  0  0  0
  1  2  1  0  0  0  0
  1  3  1  0  0  0  0
  1  4  1  0  0  0  0
  1  5  1  0  0  0  0
  5  6  1  0  0  0  0
  5  7  1  0  0  0  0
  5  8  1  0  0  0  0
  8  9  1  0  0  0  0
  8 10  1  0  0  0  0
  8 11  1  0  0  0  0
 11 12  1  0  0  0  0
 11 13  1  0  0  0  0
 11 14  1  0  0  0  0
 14 15  1  0  0  0  0
 14 16  1  0  0  0  0
 14 17  1  0  0  0  0
 17 18  1  0  0  0  0
 17 19  1  0  0  0  0
 17 20  1  0  0  0  0
M  END
> <VConfSearch Rank>
279

> <Conf_Id>
26

> <Delta U+W>
2.888

> <U+W>
18.226

> <U>
72.042

> <W>
-53.816

> <W(PB)>
-55.689

> <W(SA)>
1.873

> <Valence>
2.428

> <Coulomb>
69.829

> <VdW>
-0.215

> <VdW6>
-4.563

> <VdW12>
4.348

> <Bond>
0.137

> <Angle>
0.936

> <Pdih>
1.356

> <Idih>
0.000

> <Tether>
0.000

$$$$
VeraChem MOL file


 20 19  0  0  0  0  0  0  0  0999 V2000     
   18.4688   19.5381   23.3551 C   0  0  0  0  0  0  0  0  0  0  0  0
   17.7119   19.5594   24.1500 H   0  0  0  0  0  0  0  0  0  0  0  0
   18.3409   20.4455   22.7507 H   0  0  0  0  0  0  0  0  0  0  0  0
   18.2545   18.6622   22.7315 H   0  0  0  0  0  0  0  0  0  0  0  0
   19.8861   19.4659   23.9681 C   0  0  0  0  0  0  0  0  0  0  0  0
   20.0118   18.5045   24.4858 H   0  0  0  0  0  0  0  0  0  0  0  0
   19.9730   20.2411   24.7424 H   0  0  0  0  0  0  0  0  0  0  0  0
   21.0372   19.6627   22.9488 C   0  0  0  0  0  0  0  0  0  0  0  0
   20.9659   20.6522   22.4781 H   0  0  0  0  0  0  0  0  0  0  0  0
   21.9844   19.6612   23.5043 H   0  0  0  0  0  0  0  0  0  0  0  0
   21.1246   18.5672   21.8650 C   0  0  0  0  0  0  0  0  0  0  0  0
   20.9411   17.5880   22.3142 H   0  0  0  0  0  0  0  0  0  0  0  0
   22.1324   18.5627   21.4422 H   0  0  0  0  0  0  0  0  0  0  0  0
   20.1612   18.7534   20.7082 N   0  3  0  0  0  0  0  0  0  0  0  0
   20.3420   19.6533   20.2376 H   0  0  0  0  0  0  0  0  0  0  0  0
   19.1956   18.8177   21.0606 H   0  0  0  0  0  0  0  0  0  0  0  0
   20.2981   17.5989   19.7250 C   0  0  0  0  0  0  0  0  0  0  0  0
   20.0705   16.6613   20.2368 H   0  0  0  0  0  0  0  0  0  0  0  0
   19.5994   17.7463   18.8985 H   0  0  0  0  0  0  0  0  0  0  0  0
   21.3206   17.5720   19.3421 H   0  0  0  0  0  0  0  0  0  0  0  0
  1  2  1  0  0  0  0
  1  3  1  0  0  0  0
  1  4  1  0  0  0  0
  1  5  1  0  0  0  0
  5  6  1  0  0  0  0
  5  7  1  0  0  0  0
  5  8  1  0  0  0  0
  8  9  1  0  0  0  0
  8 10  1  0  0  0  0
  8 11  1  0  0  0  0
 11 12  1  0  0  0  0
 11 13  1  0  0  0  0
 11 14  1  0  0  0  0
 14 15  1  0  0  0  0
 14 16  1  0  0  0  0
 14 17  1  0  0  0  0
 17 18  1  0  0  0  0
 17 19  1  0  0  0  0
 17 20  1  0  0  0  0
M  END
> <VConfSearch Rank>
280

> <Conf_Id>
5

> <Delta U+W>
2.950

> <U+W>
18.289

> <U>
72.042

> <W>
-53.753

> <W(PB)>
-55.644

> <W(SA)>
1.891

> <Valence>
2.428

> <Coulomb>
69.829

> <VdW>
-0.215

> <VdW6>
-4.563

> <VdW12>
4.348

> <Bond>
0.137

> <Angle>
0.936

> <Pdih>
1.356

> <Idih>
0.000

> <Tether>
0.000

$$$$
VeraChem MOL file


 20 19  0  0  0  0  0  0  0  0999 V2000     
   22.2354   18.3052   23.0097 C   0  0  0  0  0  0  0  0  0  0  0  0
   23.0536   18.9335   22.6345 H   0  0  0  0  0  0  0  0  0  0  0  0
   21.6728   18.8839   23.7529 H   0  0  0  0  0  0  0  0  0  0  0  0
   22.6833   17.4475   23.5281 H   0  0  0  0  0  0  0  0  0  0  0  0
   21.3278   17.8263   21.8533 C   0  0  0  0  0  0  0  0  0  0  0  0
   20.5200   17.1974   22.2519 H   0  0  0  0  0  0  0  0  0  0  0  0
   21.9129   17.1796   21.1845 H   0  0  0  0  0  0  0  0  0  0  0  0
   20.7335   18.9925   21.0250 C   0  0  0  0  0  0  0  0  0  0  0  0
   21.5512   19.5549   20.5555 H   0  0  0  0  0  0  0  0  0  0  0  0
   20.1352   18.5853   20.1998 H   0  0  0  0  0  0  0  0  0  0  0  0
   19.8718   19.9750   21.8507 C   0  0  0  0  0  0  0  0  0  0  0  0
   19.4891   20.7632   21.1974 H   0  0  0  0  0  0  0  0  0  0  0  0
   20.4999   20.4470   22.6102 H   0  0  0  0  0  0  0  0  0  0  0  0
   18.6840   19.3506   22.5665 N   0  3  0  0  0  0  0  0  0  0  0  0
   18.2555   20.0460   23.1973 H   0  0  0  0  0  0  0  0  0  0  0  0
   19.0044   18.5907   23.1845 H   0  0  0  0  0  0  0  0  0  0  0  0
   17.6452   18.8405   21.5739 C   0  0  0  0  0  0  0  0  0  0  0  0
   18.0909   18.0615   20.9522 H   0  0  0  0  0  0  0  0  0  0  0  0
   16.7959   18.4294   22.1240 H   0  0  0  0  0  0  0  0  0  0  0  0
   17.3107   19.6692   20.9462 H   0  0  0  0  0  0  0  0  0  0  0  0
  1  2  1  0  0  0  0
  1  3  1  0  0  0  0
  1  4  1  0  0  0  0
  1  5  1  0  0  0  0
  5  6  1  0  0  0  0
  5  7  1  0  0  0  0
  5  8  1  0  0  0  0
  8  9  1  0  0  0  0
  8 10  1  0  0  0  0
  8 11  1  0  0  0  0
 11 12  1  0  0  0  0
 11 13  1  0  0  0  0
 11 14  1  0  0  0  0
 14 15  1  0  0  0  0
 14 16  1  0  0  0  0
 14 17  1  0  0  0  0
 17 18  1  0  0  0  0
 17 19  1  0  0  0  0
 17 20  1  0  0  0  0
M  END
> <VConfSearch Rank>
281

> <Conf_Id>
52

> <Delta U+W>
0.784

> <U+W>
16.122

> <U>
70.777

> <W>
-54.655

> <W(PB)>
-56.491

> <W(SA)>
1.836

> <Valence>
1.529

> <Coulomb>
69.166

> <VdW>
0.082

> <VdW6>
-5.166

> <VdW12>
5.248

> <Bond>
0.171

> <Angle>
0.752

> <Pdih>
0.605

> <Idih>
0.000

> <Tether>
0.000

$$$$
VeraChem MOL file


 20 19  0  0  0  0  0  0  0  0999 V2000     
   22.1024   18.9600   22.4424 C   0  0  0  0  0  0  0  0  0  0  0  0
   23.1770   19.1451   22.5694 H   0  0  0  0  0  0  0  0  0  0  0  0
   21.6134   19.2588   23.3766 H   0  0  0  0  0  0  0  0  0  0  0  0
   21.9654   17.8801   22.2994 H   0  0  0  0  0  0  0  0  0  0  0  0
   21.5606   19.7597   21.2356 C   0  0  0  0  0  0  0  0  0  0  0  0
   22.2318   19.5978   20.3804 H   0  0  0  0  0  0  0  0  0  0  0  0
   21.6061   20.8353   21.4574 H   0  0  0  0  0  0  0  0  0  0  0  0
   20.1224   19.3748   20.8042 C   0  0  0  0  0  0  0  0  0  0  0  0
   19.8845   19.9348   19.8902 H   0  0  0  0  0  0  0  0  0  0  0  0
   20.0814   18.3153   20.5220 H   0  0  0  0  0  0  0  0  0  0  0  0
   19.0289   19.6997   21.8483 C   0  0  0  0  0  0  0  0  0  0  0  0
   18.0539   19.7158   21.3548 H   0  0  0  0  0  0  0  0  0  0  0  0
   19.2116   20.6966   22.2575 H   0  0  0  0  0  0  0  0  0  0  0  0
   18.9194   18.7296   23.0143 N   0  3  0  0  0  0  0  0  0  0  0  0
   18.3051   19.1302   23.7404 H   0  0  0  0  0  0  0  0  0  0  0  0
   19.8369   18.6175   23.4677 H   0  0  0  0  0  0  0  0  0  0  0  0
   18.3725   17.3803   22.5614 C   0  0  0  0  0  0  0  0  0  0  0  0
   17.3941   17.5263   22.0987 H   0  0  0  0  0  0  0  0  0  0  0  0
   19.0598   16.9330   21.8409 H   0  0  0  0  0  0  0  0  0  0  0  0
   18.2745   16.7246   23.4294 H   0  0  0  0  0  0  0  0  0  0  0  0
  1  2  1  0  0  0  0
  1  3  1  0  0  0  0
  1  4  1  0  0  0  0
  1  5  1  0  0  0  0
  5  6  1  0  0  0  0
  5  7  1  0  0  0  0
  5  8  1  0  0  0  0
  8  9  1  0  0  0  0
  8 10  1  0  0  0  0
  8 11  1  0  0  0  0
 11 12  1  0  0  0  0
 11 13  1  0  0  0  0
 11 14  1  0  0  0  0
 14 15  1  0  0  0  0
 14 16  1  0  0  0  0
 14 17  1  0  0  0  0
 17 18  1  0  0  0  0
 17 19  1  0  0  0  0
 17 20  1  0  0  0  0
M  END
> <VConfSearch Rank>
282

> <Conf_Id>
55

> <Delta U+W>
2.745

> <U+W>
18.083

> <U>
72.490

> <W>
-54.407

> <W(PB)>
-56.269

> <W(SA)>
1.861

> <Valence>
2.738

> <Coulomb>
69.795

> <VdW>
-0.043

> <VdW6>
-5.333

> <VdW12>
5.290

> <Bond>
0.182

> <Angle>
1.135

> <Pdih>
1.422

> <Idih>
0.000

> <Tether>
0.000

$$$$
VeraChem MOL file


 20 19  0  0  0  0  0  0  0  0999 V2000     
   21.2012   20.4627   21.5725 C   0  0  0  0  0  0  0  0  0  0  0  0
   21.8597   21.2429   21.1690 H   0  0  0  0  0  0  0  0  0  0  0  0
   20.5121   20.9422   22.2800 H   0  0  0  0  0  0  0  0  0  0  0  0
   21.8377   19.7581   22.1198 H   0  0  0  0  0  0  0  0  0  0  0  0
   20.4340   19.7646   20.4265 C   0  0  0  0  0  0  0  0  0  0  0  0
   21.1404   19.1992   19.8025 H   0  0  0  0  0  0  0  0  0  0  0  0
   20.0037   20.5370   19.7737 H   0  0  0  0  0  0  0  0  0  0  0  0
   19.2883   18.8320   20.8961 C   0  0  0  0  0  0  0  0  0  0  0  0
   18.5460   19.4016   21.4693 H   0  0  0  0  0  0  0  0  0  0  0  0
   18.7609   18.4716   20.0030 H   0  0  0  0  0  0  0  0  0  0  0  0
   19.7542   17.5924   21.6948 C   0  0  0  0  0  0  0  0  0  0  0  0
   20.6247   17.1555   21.1990 H   0  0  0  0  0  0  0  0  0  0  0  0
   18.9586   16.8432   21.6923 H   0  0  0  0  0  0  0  0  0  0  0  0
   20.1222   17.8432   23.1488 N   0  3  0  0  0  0  0  0  0  0  0  0
   20.8159   18.6013   23.2118 H   0  0  0  0  0  0  0  0  0  0  0  0
   20.5947   17.0105   23.5341 H   0  0  0  0  0  0  0  0  0  0  0  0
   18.8885   18.1697   23.9831 C   0  0  0  0  0  0  0  0  0  0  0  0
   18.4299   19.0873   23.6098 H   0  0  0  0  0  0  0  0  0  0  0  0
   18.1771   17.3443   23.9107 H   0  0  0  0  0  0  0  0  0  0  0  0
   19.1872   18.3073   25.0246 H   0  0  0  0  0  0  0  0  0  0  0  0
  1  2  1  0  0  0  0
  1  3  1  0  0  0  0
  1  4  1  0  0  0  0
  1  5  1  0  0  0  0
  5  6  1  0  0  0  0
  5  7  1  0  0  0  0
  5  8  1  0  0  0  0
  8  9  1  0  0  0  0
  8 10  1  0  0  0  0
  8 11  1  0  0  0  0
 11 12  1  0  0  0  0
 11 13  1  0  0  0  0
 11 14  1  0  0  0  0
 14 15  1  0  0  0  0
 14 16  1  0  0  0  0
 14 17  1  0  0  0  0
 17 18  1  0  0  0  0
 17 19  1  0  0  0  0
 17 20  1  0  0  0  0
M  END
> <VConfSearch Rank>
283

> <Conf_Id>
76

> <Delta U+W>
2.799

> <U+W>
18.137

> <U>
72.490

> <W>
-54.353

> <W(PB)>
-56.201

> <W(SA)>
1.848

> <Valence>
2.738

> <Coulomb>
69.795

> <VdW>
-0.043

> <VdW6>
-5.334

> <VdW12>
5.290

> <Bond>
0.182

> <Angle>
1.135

> <Pdih>
1.421

> <Idih>
0.000

> <Tether>
0.000

$$$$
VeraChem MOL file


 20 19  0  0  0  0  0  0  0  0999 V2000     
   18.5919   17.1825   21.9279 C   0  0  0  0  0  0  0  0  0  0  0  0
   18.8076   17.5765   22.9285 H   0  0  0  0  0  0  0  0  0  0  0  0
   17.5782   17.4978   21.6486 H   0  0  0  0  0  0  0  0  0  0  0  0
   18.5946   16.0869   21.9952 H   0  0  0  0  0  0  0  0  0  0  0  0
   19.6290   17.6647   20.8875 C   0  0  0  0  0  0  0  0  0  0  0  0
   19.4108   17.1866   19.9223 H   0  0  0  0  0  0  0  0  0  0  0  0
   20.6333   17.3225   21.1687 H   0  0  0  0  0  0  0  0  0  0  0  0
   19.6237   19.2006   20.6915 C   0  0  0  0  0  0  0  0  0  0  0  0
   20.3488   19.4700   19.9123 H   0  0  0  0  0  0  0  0  0  0  0  0
   18.6412   19.5014   20.3045 H   0  0  0  0  0  0  0  0  0  0  0  0
   19.9163   20.0316   21.9629 C   0  0  0  0  0  0  0  0  0  0  0  0
   19.2133   19.7759   22.7591 H   0  0  0  0  0  0  0  0  0  0  0  0
   19.7644   21.0852   21.7151 H   0  0  0  0  0  0  0  0  0  0  0  0
   21.3304   19.9168   22.5126 N   0  3  0  0  0  0  0  0  0  0  0  0
   21.5940   20.8089   22.9593 H   0  0  0  0  0  0  0  0  0  0  0  0
   22.0062   19.7987   21.7432 H   0  0  0  0  0  0  0  0  0  0  0  0
   21.4492   18.7916   23.5348 C   0  0  0  0  0  0  0  0  0  0  0  0
   22.4702   18.7676   23.9219 H   0  0  0  0  0  0  0  0  0  0  0  0
   20.7511   18.9769   24.3538 H   0  0  0  0  0  0  0  0  0  0  0  0
   21.2158   17.8372   23.0617 H   0  0  0  0  0  0  0  0  0  0  0  0
  1  2  1  0  0  0  0
  1  3  1  0  0  0  0
  1  4  1  0  0  0  0
  1  5  1  0  0  0  0
  5  6  1  0  0  0  0
  5  7  1  0  0  0  0
  5  8  1  0  0  0  0
  8  9  1  0  0  0  0
  8 10  1  0  0  0  0
  8 11  1  0  0  0  0
 11 12  1  0  0  0  0
 11 13  1  0  0  0  0
 11 14  1  0  0  0  0
 14 15  1  0  0  0  0
 14 16  1  0  0  0  0
 14 17  1  0  0  0  0
 17 18  1  0  0  0  0
 17 19  1  0  0  0  0
 17 20  1  0  0  0  0
M  END
> <VConfSearch Rank>
284

> <Conf_Id>
60

> <Delta U+W>
1.788

> <U+W>
17.127

> <U>
72.122

> <W>
-54.995

> <W(PB)>
-56.810

> <W(SA)>
1.815

> <Valence>
3.197

> <Coulomb>
69.115

> <VdW>
-0.190

> <VdW6>
-5.585

> <VdW12>
5.395

> <Bond>
0.177

> <Angle>
1.207

> <Pdih>
1.813

> <Idih>
0.000

> <Tether>
0.000

$$$$
VeraChem MOL file


 20 19  0  0  0  0  0  0  0  0999 V2000     
   20.8915   17.3647   20.5831 C   0  0  0  0  0  0  0  0  0  0  0  0
   20.7952   17.2101   19.5007 H   0  0  0  0  0  0  0  0  0  0  0  0
   21.6485   16.6622   20.9552 H   0  0  0  0  0  0  0  0  0  0  0  0
   19.9300   17.1037   21.0419 H   0  0  0  0  0  0  0  0  0  0  0  0
   21.2932   18.8261   20.8888 C   0  0  0  0  0  0  0  0  0  0  0  0
   20.5383   19.5165   20.4910 H   0  0  0  0  0  0  0  0  0  0  0  0
   22.2224   19.0579   20.3496 H   0  0  0  0  0  0  0  0  0  0  0  0
   21.5171   19.0915   22.3977 C   0  0  0  0  0  0  0  0  0  0  0  0
   22.3516   18.4672   22.7436 H   0  0  0  0  0  0  0  0  0  0  0  0
   21.8406   20.1310   22.5397 H   0  0  0  0  0  0  0  0  0  0  0  0
   20.2973   18.8133   23.3072 C   0  0  0  0  0  0  0  0  0  0  0  0
   20.6229   18.9230   24.3449 H   0  0  0  0  0  0  0  0  0  0  0  0
   19.9485   17.7860   23.1785 H   0  0  0  0  0  0  0  0  0  0  0  0
   19.1133   19.7513   23.1248 N   0  3  0  0  0  0  0  0  0  0  0  0
   19.4400   20.6996   22.8869 H   0  0  0  0  0  0  0  0  0  0  0  0
   18.6248   19.8602   24.0271 H   0  0  0  0  0  0  0  0  0  0  0  0
   18.1306   19.2243   22.0846 C   0  0  0  0  0  0  0  0  0  0  0  0
   17.7743   18.2399   22.3954 H   0  0  0  0  0  0  0  0  0  0  0  0
   17.2861   19.9130   22.0106 H   0  0  0  0  0  0  0  0  0  0  0  0
   18.6250   19.1473   21.1158 H   0  0  0  0  0  0  0  0  0  0  0  0
  1  2  1  0  0  0  0
  1  3  1  0  0  0  0
  1  4  1  0  0  0  0
  1  5  1  0  0  0  0
  5  6  1  0  0  0  0
  5  7  1  0  0  0  0
  5  8  1  0  0  0  0
  8  9  1  0  0  0  0
  8 10  1  0  0  0  0
  8 11  1  0  0  0  0
 11 12  1  0  0  0  0
 11 13  1  0  0  0  0
 11 14  1  0  0  0  0
 14 15  1  0  0  0  0
 14 16  1  0  0  0  0
 14 17  1  0  0  0  0
 17 18  1  0  0  0  0
 17 19  1  0  0  0  0
 17 20  1  0  0  0  0
M  END
> <VConfSearch Rank>
285

> <Conf_Id>
54

> <Delta U+W>
1.880

> <U+W>
17.218

> <U>
72.122

> <W>
-54.903

> <W(PB)>
-56.724

> <W(SA)>
1.821

> <Valence>
3.197

> <Coulomb>
69.115

> <VdW>
-0.190

> <VdW6>
-5.585

> <VdW12>
5.395

> <Bond>
0.177

> <Angle>
1.207

> <Pdih>
1.813

> <Idih>
0.000

> <Tether>
0.000

$$$$
VeraChem MOL file


 20 19  0  0  0  0  0  0  0  0999 V2000     
   18.3019   17.8111   19.5064 C   0  0  0  0  0  0  0  0  0  0  0  0
   19.1117   17.2967   18.9728 H   0  0  0  0  0  0  0  0  0  0  0  0
   17.3824   17.2288   19.3636 H   0  0  0  0  0  0  0  0  0  0  0  0
   18.1540   18.7929   19.0380 H   0  0  0  0  0  0  0  0  0  0  0  0
   18.6288   17.9549   21.0086 C   0  0  0  0  0  0  0  0  0  0  0  0
   18.7365   16.9567   21.4560 H   0  0  0  0  0  0  0  0  0  0  0  0
   17.7864   18.4412   21.5207 H   0  0  0  0  0  0  0  0  0  0  0  0
   19.9197   18.7710   21.2401 C   0  0  0  0  0  0  0  0  0  0  0  0
   20.7614   18.2827   20.7312 H   0  0  0  0  0  0  0  0  0  0  0  0
   19.8101   19.7692   20.7958 H   0  0  0  0  0  0  0  0  0  0  0  0
   20.2388   18.9100   22.7403 C   0  0  0  0  0  0  0  0  0  0  0  0
   20.3639   17.9184   23.1825 H   0  0  0  0  0  0  0  0  0  0  0  0
   19.4095   19.4098   23.2472 H   0  0  0  0  0  0  0  0  0  0  0  0
   21.4999   19.7049   23.0164 N   0  3  0  0  0  0  0  0  0  0  0  0
   21.4238   20.6484   22.6063 H   0  0  0  0  0  0  0  0  0  0  0  0
   22.3073   19.2675   22.5464 H   0  0  0  0  0  0  0  0  0  0  0  0
   21.7401   19.7935   24.5176 C   0  0  0  0  0  0  0  0  0  0  0  0
   21.8519   18.7860   24.9243 H   0  0  0  0  0  0  0  0  0  0  0  0
   22.6506   20.3679   24.7021 H   0  0  0  0  0  0  0  0  0  0  0  0
   20.8896   20.2902   24.9895 H   0  0  0  0  0  0  0  0  0  0  0  0
  1  2  1  0  0  0  0
  1  3  1  0  0  0  0
  1  4  1  0  0  0  0
  1  5  1  0  0  0  0
  5  6  1  0  0  0  0
  5  7  1  0  0  0  0
  5  8  1  0  0  0  0
  8  9  1  0  0  0  0
  8 10  1  0  0  0  0
  8 11  1  0  0  0  0
 11 12  1  0  0  0  0
 11 13  1  0  0  0  0
 11 14  1  0  0  0  0
 14 15  1  0  0  0  0
 14 16  1  0  0  0  0
 14 17  1  0  0  0  0
 17 18  1  0  0  0  0
 17 19  1  0  0  0  0
 17 20  1  0  0  0  0
M  END
> <VConfSearch Rank>
286

> <Conf_Id>
67

> <Delta U+W>
0.000

> <U+W>
15.338

> <U>
69.277

> <W>
-53.939

> <W(PB)>
-55.889

> <W(SA)>
1.950

> <Valence>
0.846

> <Coulomb>
68.557

> <VdW>
-0.127

> <VdW6>
-3.008

> <VdW12>
2.882

> <Bond>
0.088

> <Angle>
0.332

> <Pdih>
0.426

> <Idih>
0.000

> <Tether>
0.000

$$$$
VeraChem MOL file


 20 19  0  0  0  0  0  0  0  0999 V2000     
   18.8293   20.0321   24.4661 C   0  0  0  0  0  0  0  0  0  0  0  0
   19.5015   19.4315   25.0927 H   0  0  0  0  0  0  0  0  0  0  0  0
   18.6520   20.9851   24.9812 H   0  0  0  0  0  0  0  0  0  0  0  0
   17.8688   19.5055   24.3935 H   0  0  0  0  0  0  0  0  0  0  0  0
   19.4389   20.2727   23.0680 C   0  0  0  0  0  0  0  0  0  0  0  0
   20.3804   20.8307   23.1712 H   0  0  0  0  0  0  0  0  0  0  0  0
   18.7603   20.9048   22.4778 H   0  0  0  0  0  0  0  0  0  0  0  0
   19.6993   18.9474   22.3188 C   0  0  0  0  0  0  0  0  0  0  0  0
   20.3770   18.3197   22.9117 H   0  0  0  0  0  0  0  0  0  0  0  0
   18.7577   18.3926   22.2122 H   0  0  0  0  0  0  0  0  0  0  0  0
   20.3066   19.1981   20.9230 C   0  0  0  0  0  0  0  0  0  0  0  0
   21.2685   19.7074   21.0228 H   0  0  0  0  0  0  0  0  0  0  0  0
   19.6364   19.8498   20.3565 H   0  0  0  0  0  0  0  0  0  0  0  0
   20.5249   17.9435   20.0929 N   0  3  0  0  0  0  0  0  0  0  0  0
   20.7740   18.2080   19.1268 H   0  0  0  0  0  0  0  0  0  0  0  0
   19.6428   17.4166   20.0030 H   0  0  0  0  0  0  0  0  0  0  0  0
   21.6221   17.0679   20.6887 C   0  0  0  0  0  0  0  0  0  0  0  0
   21.3217   16.7375   21.6849 H   0  0  0  0  0  0  0  0  0  0  0  0
   21.7746   16.1985   20.0453 H   0  0  0  0  0  0  0  0  0  0  0  0
   22.5472   17.6447   20.7529 H   0  0  0  0  0  0  0  0  0  0  0  0
  1  2  1  0  0  0  0
  1  3  1  0  0  0  0
  1  4  1  0  0  0  0
  1  5  1  0  0  0  0
  5  6  1  0  0  0  0
  5  7  1  0  0  0  0
  5  8  1  0  0  0  0
  8  9  1  0  0  0  0
  8 10  1  0  0  0  0
  8 11  1  0  0  0  0
 11 12  1  0  0  0  0
 11 13  1  0  0  0  0
 11 14  1  0  0  0  0
 14 15  1  0  0  0  0
 14 16  1  0  0  0  0
 14 17  1  0  0  0  0
 17 18  1  0  0  0  0
 17 19  1  0  0  0  0
 17 20  1  0  0  0  0
M  END
> <VConfSearch Rank>
287

> <Conf_Id>
37

> <Delta U+W>
-0.021

> <U+W>
15.318

> <U>
69.657

> <W>
-54.340

> <W(PB)>
-56.238

> <W(SA)>
1.899

> <Valence>
1.137

> <Coulomb>
68.383

> <VdW>
0.138

> <VdW6>
-3.703

> <VdW12>
3.841

> <Bond>
0.125

> <Angle>
0.468

> <Pdih>
0.543

> <Idih>
0.000

> <Tether>
0.000

$$$$
VeraChem MOL file


 20 19  0  0  0  0  0  0  0  0999 V2000     
   19.8180   15.7863   21.8805 C   0  0  0  0  0  0  0  0  0  0  0  0
   19.0931   14.9619   21.8821 H   0  0  0  0  0  0  0  0  0  0  0  0
   20.3250   15.7861   20.9067 H   0  0  0  0  0  0  0  0  0  0  0  0
   20.5669   15.5768   22.6554 H   0  0  0  0  0  0  0  0  0  0  0  0
   19.1115   17.1346   22.1396 C   0  0  0  0  0  0  0  0  0  0  0  0
   18.5851   17.0915   23.1036 H   0  0  0  0  0  0  0  0  0  0  0  0
   18.3456   17.2997   21.3687 H   0  0  0  0  0  0  0  0  0  0  0  0
   20.1084   18.3144   22.1433 C   0  0  0  0  0  0  0  0  0  0  0  0
   20.8707   18.1509   22.9165 H   0  0  0  0  0  0  0  0  0  0  0  0
   20.6316   18.3534   21.1791 H   0  0  0  0  0  0  0  0  0  0  0  0
   19.3936   19.6563   22.4044 C   0  0  0  0  0  0  0  0  0  0  0  0
   18.8519   19.5910   23.3515 H   0  0  0  0  0  0  0  0  0  0  0  0
   18.6665   19.8499   21.6118 H   0  0  0  0  0  0  0  0  0  0  0  0
   20.3187   20.8591   22.4954 N   0  3  0  0  0  0  0  0  0  0  0  0
   21.0418   20.7004   23.2135 H   0  0  0  0  0  0  0  0  0  0  0  0
   19.7880   21.6779   22.8317 H   0  0  0  0  0  0  0  0  0  0  0  0
   20.9542   21.1736   21.1453 C   0  0  0  0  0  0  0  0  0  0  0  0
   20.1666   21.3566   20.4111 H   0  0  0  0  0  0  0  0  0  0  0  0
   21.5797   22.0636   21.2431 H   0  0  0  0  0  0  0  0  0  0  0  0
   21.5677   20.3284   20.8273 H   0  0  0  0  0  0  0  0  0  0  0  0
  1  2  1  0  0  0  0
  1  3  1  0  0  0  0
  1  4  1  0  0  0  0
  1  5  1  0  0  0  0
  5  6  1  0  0  0  0
  5  7  1  0  0  0  0
  5  8  1  0  0  0  0
  8  9  1  0  0  0  0
  8 10  1  0  0  0  0
  8 11  1  0  0  0  0
 11 12  1  0  0  0  0
 11 13  1  0  0  0  0
 11 14  1  0  0  0  0
 14 15  1  0  0  0  0
 14 16  1  0  0  0  0
 14 17  1  0  0  0  0
 17 18  1  0  0  0  0
 17 19  1  0  0  0  0
 17 20  1  0  0  0  0
M  END
> <VConfSearch Rank>
288

> <Conf_Id>
2

> <Delta U+W>
0.069

> <U+W>
15.407

> <U>
69.657

> <W>
-54.250

> <W(PB)>
-56.176

> <W(SA)>
1.926

> <Valence>
1.137

> <Coulomb>
68.383

> <VdW>
0.138

> <VdW6>
-3.703

> <VdW12>
3.841

> <Bond>
0.125

> <Angle>
0.468

> <Pdih>
0.543

> <Idih>
0.000

> <Tether>
0.000

$$$$
VeraChem MOL file


 20 19  0  0  0  0  0  0  0  0999 V2000     
   19.1557   18.8803   19.5026 C   0  0  0  0  0  0  0  0  0  0  0  0
   20.2473   18.9802   19.5541 H   0  0  0  0  0  0  0  0  0  0  0  0
   18.9130   17.8140   19.4070 H   0  0  0  0  0  0  0  0  0  0  0  0
   18.8208   19.3831   18.5861 H   0  0  0  0  0  0  0  0  0  0  0  0
   18.4689   19.4987   20.7420 C   0  0  0  0  0  0  0  0  0  0  0  0
   17.3791   19.4601   20.6044 H   0  0  0  0  0  0  0  0  0  0  0  0
   18.7328   20.5630   20.8177 H   0  0  0  0  0  0  0  0  0  0  0  0
   18.8347   18.7761   22.0596 C   0  0  0  0  0  0  0  0  0  0  0  0
   18.2545   19.2162   22.8815 H   0  0  0  0  0  0  0  0  0  0  0  0
   18.5384   17.7207   21.9951 H   0  0  0  0  0  0  0  0  0  0  0  0
   20.3364   18.8727   22.3927 C   0  0  0  0  0  0  0  0  0  0  0  0
   20.6306   19.9231   22.4593 H   0  0  0  0  0  0  0  0  0  0  0  0
   20.9208   18.4017   21.5988 H   0  0  0  0  0  0  0  0  0  0  0  0
   20.7072   18.2014   23.7005 N   0  3  0  0  0  0  0  0  0  0  0  0
   20.4355   17.2065   23.6801 H   0  0  0  0  0  0  0  0  0  0  0  0
   20.1706   18.6150   24.4784 H   0  0  0  0  0  0  0  0  0  0  0  0
   22.2029   18.3411   23.9502 C   0  0  0  0  0  0  0  0  0  0  0  0
   22.4617   19.4008   24.0021 H   0  0  0  0  0  0  0  0  0  0  0  0
   22.4560   17.8538   24.8944 H   0  0  0  0  0  0  0  0  0  0  0  0
   22.7502   17.8665   23.1329 H   0  0  0  0  0  0  0  0  0  0  0  0
  1  2  1  0  0  0  0
  1  3  1  0  0  0  0
  1  4  1  0  0  0  0
  1  5  1  0  0  0  0
  5  6  1  0  0  0  0
  5  7  1  0  0  0  0
  5  8  1  0  0  0  0
  8  9  1  0  0  0  0
  8 10  1  0  0  0  0
  8 11  1  0  0  0  0
 11 12  1  0  0  0  0
 11 13  1  0  0  0  0
 11 14  1  0  0  0  0
 14 15  1  0  0  0  0
 14 16  1  0  0  0  0
 14 17  1  0  0  0  0
 17 18  1  0  0  0  0
 17 19  1  0  0  0  0
 17 20  1  0  0  0  0
M  END
> <VConfSearch Rank>
289

> <Conf_Id>
34

> <Delta U+W>
0.276

> <U+W>
15.615

> <U>
69.798

> <W>
-54.184

> <W(PB)>
-56.116

> <W(SA)>
1.933

> <Valence>
1.134

> <Coulomb>
68.735

> <VdW>
-0.070

> <VdW6>
-3.565

> <VdW12>
3.494

> <Bond>
0.108

> <Angle>
0.456

> <Pdih>
0.569

> <Idih>
0.000

> <Tether>
0.000

$$$$
VeraChem MOL file


 20 19  0  0  0  0  0  0  0  0999 V2000     
   21.3967   16.7464   20.2334 C   0  0  0  0  0  0  0  0  0  0  0  0
   20.9521   16.7887   19.2305 H   0  0  0  0  0  0  0  0  0  0  0  0
   22.4829   16.6407   20.1149 H   0  0  0  0  0  0  0  0  0  0  0  0
   21.0237   15.8436   20.7344 H   0  0  0  0  0  0  0  0  0  0  0  0
   21.0573   18.0142   21.0467 C   0  0  0  0  0  0  0  0  0  0  0  0
   21.4706   18.8957   20.5364 H   0  0  0  0  0  0  0  0  0  0  0  0
   21.5507   17.9546   22.0262 H   0  0  0  0  0  0  0  0  0  0  0  0
   19.5306   18.1860   21.2284 C   0  0  0  0  0  0  0  0  0  0  0  0
   19.0478   18.2047   20.2423 H   0  0  0  0  0  0  0  0  0  0  0  0
   19.1150   17.3215   21.7629 H   0  0  0  0  0  0  0  0  0  0  0  0
   19.1594   19.4821   21.9768 C   0  0  0  0  0  0  0  0  0  0  0  0
   18.0719   19.5903   21.9941 H   0  0  0  0  0  0  0  0  0  0  0  0
   19.5783   20.3432   21.4501 H   0  0  0  0  0  0  0  0  0  0  0  0
   19.6463   19.5285   23.4130 N   0  3  0  0  0  0  0  0  0  0  0  0
   20.6720   19.4313   23.4439 H   0  0  0  0  0  0  0  0  0  0  0  0
   19.2776   18.7218   23.9396 H   0  0  0  0  0  0  0  0  0  0  0  0
   19.2149   20.8348   24.0659 C   0  0  0  0  0  0  0  0  0  0  0  0
   19.6434   21.6728   23.5118 H   0  0  0  0  0  0  0  0  0  0  0  0
   18.1249   20.9013   24.0518 H   0  0  0  0  0  0  0  0  0  0  0  0
   19.5716   20.8551   25.0981 H   0  0  0  0  0  0  0  0  0  0  0  0
  1  2  1  0  0  0  0
  1  3  1  0  0  0  0
  1  4  1  0  0  0  0
  1  5  1  0  0  0  0
  5  6  1  0  0  0  0
  5  7  1  0  0  0  0
  5  8  1  0  0  0  0
  8  9  1  0  0  0  0
  8 10  1  0  0  0  0
  8 11  1  0  0  0  0
 11 12  1  0  0  0  0
 11 13  1  0  0  0  0
 11 14  1  0  0  0  0
 14 15  1  0  0  0  0
 14 16  1  0  0  0  0
 14 17  1  0  0  0  0
 17 18  1  0  0  0  0
 17 19  1  0  0  0  0
 17 20  1  0  0  0  0
M  END
> <VConfSearch Rank>
290

> <Conf_Id>
50

> <Delta U+W>
0.319

> <U+W>
15.657

> <U>
69.962

> <W>
-54.305

> <W(PB)>
-56.223

> <W(SA)>
1.918

> <Valence>
0.982

> <Coulomb>
69.058

> <VdW>
-0.078

> <VdW6>
-3.548

> <VdW12>
3.471

> <Bond>
0.105

> <Angle>
0.408

> <Pdih>
0.469

> <Idih>
0.000

> <Tether>
0.000

$$$$
VeraChem MOL file


 20 19  0  0  0  0  0  0  0  0999 V2000     
   22.1393   16.6677   21.5332 C   0  0  0  0  0  0  0  0  0  0  0  0
   22.7189   16.5408   20.6096 H   0  0  0  0  0  0  0  0  0  0  0  0
   22.8431   16.6561   22.3756 H   0  0  0  0  0  0  0  0  0  0  0  0
   21.4726   15.8013   21.6334 H   0  0  0  0  0  0  0  0  0  0  0  0
   21.3363   17.9860   21.4967 C   0  0  0  0  0  0  0  0  0  0  0  0
   20.6739   17.9783   20.6206 H   0  0  0  0  0  0  0  0  0  0  0  0
   22.0279   18.8301   21.3641 H   0  0  0  0  0  0  0  0  0  0  0  0
   20.5094   18.1885   22.7884 C   0  0  0  0  0  0  0  0  0  0  0  0
   19.7962   17.3628   22.9126 H   0  0  0  0  0  0  0  0  0  0  0  0
   21.1800   18.1547   23.6573 H   0  0  0  0  0  0  0  0  0  0  0  0
   19.7523   19.5315   22.8097 C   0  0  0  0  0  0  0  0  0  0  0  0
   20.4598   20.3542   22.6791 H   0  0  0  0  0  0  0  0  0  0  0  0
   19.2627   19.6549   23.7791 H   0  0  0  0  0  0  0  0  0  0  0  0
   18.6846   19.6571   21.7391 N   0  3  0  0  0  0  0  0  0  0  0  0
   18.0024   18.8881   21.8255 H   0  0  0  0  0  0  0  0  0  0  0  0
   19.1043   19.5483   20.8040 H   0  0  0  0  0  0  0  0  0  0  0  0
   17.9870   21.0056   21.8565 C   0  0  0  0  0  0  0  0  0  0  0  0
   17.2219   21.0826   21.0808 H   0  0  0  0  0  0  0  0  0  0  0  0
   17.5218   21.0855   22.8414 H   0  0  0  0  0  0  0  0  0  0  0  0
   18.7220   21.8033   21.7292 H   0  0  0  0  0  0  0  0  0  0  0  0
  1  2  1  0  0  0  0
  1  3  1  0  0  0  0
  1  4  1  0  0  0  0
  1  5  1  0  0  0  0
  5  6  1  0  0  0  0
  5  7  1  0  0  0  0
  5  8  1  0  0  0  0
  8  9  1  0  0  0  0
  8 10  1  0  0  0  0
  8 11  1  0  0  0  0
 11 12  1  0  0  0  0
 11 13  1  0  0  0  0
 11 14  1  0  0  0  0
 14 15  1  0  0  0  0
 14 16  1  0  0  0  0
 14 17  1  0  0  0  0
 17 18  1  0  0  0  0
 17 19  1  0  0  0  0
 17 20  1  0  0  0  0
M  END
> <VConfSearch Rank>
291

> <Conf_Id>
35

> <Delta U+W>
0.360

> <U+W>
15.698

> <U>
69.962

> <W>
-54.264

> <W(PB)>
-56.166

> <W(SA)>
1.902

> <Valence>
0.982

> <Coulomb>
69.058

> <VdW>
-0.078

> <VdW6>
-3.548

> <VdW12>
3.471

> <Bond>
0.105

> <Angle>
0.408

> <Pdih>
0.469

> <Idih>
0.000

> <Tether>
0.000

$$$$
VeraChem MOL file


 20 19  0  0  0  0  0  0  0  0999 V2000     
   19.7279   16.4179   20.9529 C   0  0  0  0  0  0  0  0  0  0  0  0
   20.7976   16.4563   21.1945 H   0  0  0  0  0  0  0  0  0  0  0  0
   19.4539   15.3618   20.8319 H   0  0  0  0  0  0  0  0  0  0  0  0
   19.5768   16.9156   19.9862 H   0  0  0  0  0  0  0  0  0  0  0  0
   18.8714   17.0772   22.0582 C   0  0  0  0  0  0  0  0  0  0  0  0
   19.0448   16.5645   23.0149 H   0  0  0  0  0  0  0  0  0  0  0  0
   17.8078   16.9353   21.8203 H   0  0  0  0  0  0  0  0  0  0  0  0
   19.1530   18.5894   22.2187 C   0  0  0  0  0  0  0  0  0  0  0  0
   18.9422   19.1014   21.2710 H   0  0  0  0  0  0  0  0  0  0  0  0
   18.4600   19.0053   22.9618 H   0  0  0  0  0  0  0  0  0  0  0  0
   20.6031   18.8782   22.6629 C   0  0  0  0  0  0  0  0  0  0  0  0
   21.3025   18.5291   21.8996 H   0  0  0  0  0  0  0  0  0  0  0  0
   20.8071   18.3292   23.5857 H   0  0  0  0  0  0  0  0  0  0  0  0
   20.9017   20.3440   22.9328 N   0  3  0  0  0  0  0  0  0  0  0  0
   21.8288   20.4313   23.3779 H   0  0  0  0  0  0  0  0  0  0  0  0
   20.2391   20.7219   23.6269 H   0  0  0  0  0  0  0  0  0  0  0  0
   20.8661   21.1623   21.6465 C   0  0  0  0  0  0  0  0  0  0  0  0
   19.8636   21.1184   21.2164 H   0  0  0  0  0  0  0  0  0  0  0  0
   21.1213   22.1994   21.8752 H   0  0  0  0  0  0  0  0  0  0  0  0
   21.5907   20.7525   20.9396 H   0  0  0  0  0  0  0  0  0  0  0  0
  1  2  1  0  0  0  0
  1  3  1  0  0  0  0
  1  4  1  0  0  0  0
  1  5  1  0  0  0  0
  5  6  1  0  0  0  0
  5  7  1  0  0  0  0
  5  8  1  0  0  0  0
  8  9  1  0  0  0  0
  8 10  1  0  0  0  0
  8 11  1  0  0  0  0
 11 12  1  0  0  0  0
 11 13  1  0  0  0  0
 11 14  1  0  0  0  0
 14 15  1  0  0  0  0
 14 16  1  0  0  0  0
 14 17  1  0  0  0  0
 17 18  1  0  0  0  0
 17 19  1  0  0  0  0
 17 20  1  0  0  0  0
M  END
> <VConfSearch Rank>
292

> <Conf_Id>
33

> <Delta U+W>
0.372

> <U+W>
15.711

> <U>
70.163

> <W>
-54.452

> <W(PB)>
-56.363

> <W(SA)>
1.911

> <Valence>
1.420

> <Coulomb>
68.566

> <VdW>
0.177

> <VdW6>
-4.267

> <VdW12>
4.445

> <Bond>
0.146

> <Angle>
0.581

> <Pdih>
0.693

> <Idih>
0.000

> <Tether>
0.000

$$$$
VeraChem MOL file


 20 19  0  0  0  0  0  0  0  0999 V2000     
   21.1915   21.1123   22.4797 C   0  0  0  0  0  0  0  0  0  0  0  0
   21.3393   22.1990   22.5277 H   0  0  0  0  0  0  0  0  0  0  0  0
   20.8166   20.7861   23.4580 H   0  0  0  0  0  0  0  0  0  0  0  0
   22.1728   20.6481   22.3165 H   0  0  0  0  0  0  0  0  0  0  0  0
   20.2079   20.7485   21.3438 C   0  0  0  0  0  0  0  0  0  0  0  0
   20.5777   21.1727   20.3996 H   0  0  0  0  0  0  0  0  0  0  0  0
   19.2337   21.2208   21.5336 H   0  0  0  0  0  0  0  0  0  0  0  0
   20.0230   19.2228   21.1710 C   0  0  0  0  0  0  0  0  0  0  0  0
   19.3764   19.0370   20.3033 H   0  0  0  0  0  0  0  0  0  0  0  0
   20.9931   18.7620   20.9447 H   0  0  0  0  0  0  0  0  0  0  0  0
   19.4005   18.5566   22.4168 C   0  0  0  0  0  0  0  0  0  0  0  0
   18.4556   19.0541   22.6499 H   0  0  0  0  0  0  0  0  0  0  0  0
   20.0666   18.6762   23.2746 H   0  0  0  0  0  0  0  0  0  0  0  0
   19.1048   17.0739   22.2599 N   0  3  0  0  0  0  0  0  0  0  0  0
   18.5030   16.9145   21.4376 H   0  0  0  0  0  0  0  0  0  0  0  0
   18.5463   16.7461   23.0635 H   0  0  0  0  0  0  0  0  0  0  0  0
   20.3907   16.2607   22.1573 C   0  0  0  0  0  0  0  0  0  0  0  0
   20.1385   15.2006   22.0833 H   0  0  0  0  0  0  0  0  0  0  0  0
   20.9442   16.5681   21.2678 H   0  0  0  0  0  0  0  0  0  0  0  0
   20.9972   16.4332   23.0490 H   0  0  0  0  0  0  0  0  0  0  0  0
  1  2  1  0  0  0  0
  1  3  1  0  0  0  0
  1  4  1  0  0  0  0
  1  5  1  0  0  0  0
  5  6  1  0  0  0  0
  5  7  1  0  0  0  0
  5  8  1  0  0  0  0
  8  9  1  0  0  0  0
  8 10  1  0  0  0  0
  8 11  1  0  0  0  0
 11 12  1  0  0  0  0
 11 13  1  0  0  0  0
 11 14  1  0  0  0  0
 14 15  1  0  0  0  0
 14 16  1  0  0  0  0
 14 17  1  0  0  0  0
 17 18  1  0  0  0  0
 17 19  1  0  0  0  0
 17 20  1  0  0  0  0
M  END
> <VConfSearch Rank>
293

> <Conf_Id>
53

> <Delta U+W>
0.379

> <U+W>
15.717

> <U>
70.163

> <W>
-54.446

> <W(PB)>
-56.322

> <W(SA)>
1.876

> <Valence>
1.420

> <Coulomb>
68.566

> <VdW>
0.177

> <VdW6>
-4.267

> <VdW12>
4.445

> <Bond>
0.146

> <Angle>
0.581

> <Pdih>
0.693

> <Idih>
0.000

> <Tether>
0.000

$$$$
VeraChem MOL file


 20 19  0  0  0  0  0  0  0  0999 V2000     
   21.1451   18.2407   19.4547 C   0  0  0  0  0  0  0  0  0  0  0  0
   21.5329   18.9374   18.7003 H   0  0  0  0  0  0  0  0  0  0  0  0
   21.8143   17.3709   19.4841 H   0  0  0  0  0  0  0  0  0  0  0  0
   20.1564   17.8998   19.1208 H   0  0  0  0  0  0  0  0  0  0  0  0
   21.0599   18.9245   20.8364 C   0  0  0  0  0  0  0  0  0  0  0  0
   20.4145   19.8099   20.7590 H   0  0  0  0  0  0  0  0  0  0  0  0
   22.0574   19.2823   21.1282 H   0  0  0  0  0  0  0  0  0  0  0  0
   20.5137   17.9633   21.9183 C   0  0  0  0  0  0  0  0  0  0  0  0
   19.5062   17.6240   21.6453 H   0  0  0  0  0  0  0  0  0  0  0  0
   21.1420   17.0635   21.9547 H   0  0  0  0  0  0  0  0  0  0  0  0
   20.4905   18.5959   23.3275 C   0  0  0  0  0  0  0  0  0  0  0  0
   21.5093   18.8756   23.6075 H   0  0  0  0  0  0  0  0  0  0  0  0
   20.1348   17.8589   24.0519 H   0  0  0  0  0  0  0  0  0  0  0  0
   19.6227   19.8373   23.4708 N   0  3  0  0  0  0  0  0  0  0  0  0
   19.9229   20.5605   22.8007 H   0  0  0  0  0  0  0  0  0  0  0  0
   19.7739   20.2583   24.4009 H   0  0  0  0  0  0  0  0  0  0  0  0
   18.1460   19.5061   23.2854 C   0  0  0  0  0  0  0  0  0  0  0  0
   17.8516   18.7533   24.0198 H   0  0  0  0  0  0  0  0  0  0  0  0
   17.5548   20.4130   23.4309 H   0  0  0  0  0  0  0  0  0  0  0  0
   17.9851   19.1220   22.2762 H   0  0  0  0  0  0  0  0  0  0  0  0
  1  2  1  0  0  0  0
  1  3  1  0  0  0  0
  1  4  1  0  0  0  0
  1  5  1  0  0  0  0
  5  6  1  0  0  0  0
  5  7  1  0  0  0  0
  5  8  1  0  0  0  0
  8  9  1  0  0  0  0
  8 10  1  0  0  0  0
  8 11  1  0  0  0  0
 11 12  1  0  0  0  0
 11 13  1  0  0  0  0
 11 14  1  0  0  0  0
 14 15  1  0  0  0  0
 14 16  1  0  0  0  0
 14 17  1  0  0  0  0
 17 18  1  0  0  0  0
 17 19  1  0  0  0  0
 17 20  1  0  0  0  0
M  END
> <VConfSearch Rank>
294

> <Conf_Id>
49

> <Delta U+W>
0.268

> <U+W>
15.607

> <U>
70.298

> <W>
-54.692

> <W(PB)>
-56.576

> <W(SA)>
1.885

> <Valence>
1.245

> <Coulomb>
68.933

> <VdW>
0.120

> <VdW6>
-4.430

> <VdW12>
4.550

> <Bond>
0.148

> <Angle>
0.587

> <Pdih>
0.509

> <Idih>
0.000

> <Tether>
0.000

$$$$
VeraChem MOL file


 20 19  0  0  0  0  0  0  0  0999 V2000     
   17.5906   18.0972   20.8663 C   0  0  0  0  0  0  0  0  0  0  0  0
   17.8624   17.9083   19.8196 H   0  0  0  0  0  0  0  0  0  0  0  0
   17.2114   17.1604   21.2952 H   0  0  0  0  0  0  0  0  0  0  0  0
   16.7700   18.8262   20.8743 H   0  0  0  0  0  0  0  0  0  0  0  0
   18.7993   18.6276   21.6675 C   0  0  0  0  0  0  0  0  0  0  0  0
   18.4900   18.8334   22.7019 H   0  0  0  0  0  0  0  0  0  0  0  0
   19.1217   19.5823   21.2315 H   0  0  0  0  0  0  0  0  0  0  0  0
   19.9749   17.6228   21.6629 C   0  0  0  0  0  0  0  0  0  0  0  0
   19.6086   16.6413   21.9919 H   0  0  0  0  0  0  0  0  0  0  0  0
   20.3426   17.4860   20.6374 H   0  0  0  0  0  0  0  0  0  0  0  0
   21.1521   18.0229   22.5811 C   0  0  0  0  0  0  0  0  0  0  0  0
   21.8909   17.2179   22.5514 H   0  0  0  0  0  0  0  0  0  0  0  0
   20.8114   18.1213   23.6148 H   0  0  0  0  0  0  0  0  0  0  0  0
   21.8818   19.3005   22.1959 N   0  3  0  0  0  0  0  0  0  0  0  0
   21.8781   19.4223   21.1721 H   0  0  0  0  0  0  0  0  0  0  0  0
   22.8788   19.2119   22.4472 H   0  0  0  0  0  0  0  0  0  0  0  0
   21.2920   20.5152   22.9053 C   0  0  0  0  0  0  0  0  0  0  0  0
   21.8576   21.4048   22.6197 H   0  0  0  0  0  0  0  0  0  0  0  0
   20.2470   20.6390   22.6191 H   0  0  0  0  0  0  0  0  0  0  0  0
   21.3622   20.3678   23.9851 H   0  0  0  0  0  0  0  0  0  0  0  0
  1  2  1  0  0  0  0
  1  3  1  0  0  0  0
  1  4  1  0  0  0  0
  1  5  1  0  0  0  0
  5  6  1  0  0  0  0
  5  7  1  0  0  0  0
  5  8  1  0  0  0  0
  8  9  1  0  0  0  0
  8 10  1  0  0  0  0
  8 11  1  0  0  0  0
 11 12  1  0  0  0  0
 11 13  1  0  0  0  0
 11 14  1  0  0  0  0
 14 15  1  0  0  0  0
 14 16  1  0  0  0  0
 14 17  1  0  0  0  0
 17 18  1  0  0  0  0
 17 19  1  0  0  0  0
 17 20  1  0  0  0  0
M  END
> <VConfSearch Rank>
295

> <Conf_Id>
65

> <Delta U+W>
1.775

> <U+W>
17.114

> <U>
71.726

> <W>
-54.613

> <W(PB)>
-56.495

> <W(SA)>
1.883

> <Valence>
2.885

> <Coulomb>
68.822

> <VdW>
0.019

> <VdW6>
-4.600

> <VdW12>
4.619

> <Bond>
0.152

> <Angle>
0.862

> <Pdih>
1.871

> <Idih>
0.000

> <Tether>
0.000

$$$$
VeraChem MOL file


 20 19  0  0  0  0  0  0  0  0999 V2000     
   19.7323   21.0544   22.4888 C   0  0  0  0  0  0  0  0  0  0  0  0
   20.2820   20.4742   23.2406 H   0  0  0  0  0  0  0  0  0  0  0  0
   20.2255   22.0309   22.3991 H   0  0  0  0  0  0  0  0  0  0  0  0
   18.7156   21.2267   22.8652 H   0  0  0  0  0  0  0  0  0  0  0  0
   19.7040   20.3336   21.1213 C   0  0  0  0  0  0  0  0  0  0  0  0
   20.7311   20.1738   20.7662 H   0  0  0  0  0  0  0  0  0  0  0  0
   19.2271   20.9913   20.3810 H   0  0  0  0  0  0  0  0  0  0  0  0
   18.9372   18.9881   21.1598 C   0  0  0  0  0  0  0  0  0  0  0  0
   17.8866   19.1787   21.4162 H   0  0  0  0  0  0  0  0  0  0  0  0
   18.9306   18.5431   20.1559 H   0  0  0  0  0  0  0  0  0  0  0  0
   19.5115   17.9667   22.1637 C   0  0  0  0  0  0  0  0  0  0  0  0
   18.8979   17.0623   22.1514 H   0  0  0  0  0  0  0  0  0  0  0  0
   19.4788   18.3842   23.1728 H   0  0  0  0  0  0  0  0  0  0  0  0
   20.9424   17.5554   21.8737 N   0  3  0  0  0  0  0  0  0  0  0  0
   21.5536   18.3854   21.8694 H   0  0  0  0  0  0  0  0  0  0  0  0
   21.0124   17.1564   20.9252 H   0  0  0  0  0  0  0  0  0  0  0  0
   21.4155   16.5492   22.9140 C   0  0  0  0  0  0  0  0  0  0  0  0
   20.7732   15.6666   22.8788 H   0  0  0  0  0  0  0  0  0  0  0  0
   22.4464   16.2632   22.6939 H   0  0  0  0  0  0  0  0  0  0  0  0
   21.3634   17.0048   23.9052 H   0  0  0  0  0  0  0  0  0  0  0  0
  1  2  1  0  0  0  0
  1  3  1  0  0  0  0
  1  4  1  0  0  0  0
  1  5  1  0  0  0  0
  5  6  1  0  0  0  0
  5  7  1  0  0  0  0
  5  8  1  0  0  0  0
  8  9  1  0  0  0  0
  8 10  1  0  0  0  0
  8 11  1  0  0  0  0
 11 12  1  0  0  0  0
 11 13  1  0  0  0  0
 11 14  1  0  0  0  0
 14 15  1  0  0  0  0
 14 16  1  0  0  0  0
 14 17  1  0  0  0  0
 17 18  1  0  0  0  0
 17 19  1  0  0  0  0
 17 20  1  0  0  0  0
M  END
> <VConfSearch Rank>
296

> <Conf_Id>
23

> <Delta U+W>
0.896

> <U+W>
16.234

> <U>
70.374

> <W>
-54.140

> <W(PB)>
-56.046

> <W(SA)>
1.907

> <Valence>
1.257

> <Coulomb>
69.240

> <VdW>
-0.123

> <VdW6>
-4.336

> <VdW12>
4.213

> <Bond>
0.128

> <Angle>
0.603

> <Pdih>
0.526

> <Idih>
0.000

> <Tether>
0.000

$$$$
VeraChem MOL file


 20 19  0  0  0  0  0  0  0  0999 V2000     
   19.1066   17.0501   23.3100 C   0  0  0  0  0  0  0  0  0  0  0  0
   18.1859   16.6933   22.8304 H   0  0  0  0  0  0  0  0  0  0  0  0
   19.2776   16.4359   24.2036 H   0  0  0  0  0  0  0  0  0  0  0  0
   18.9405   18.0817   23.6450 H   0  0  0  0  0  0  0  0  0  0  0  0
   20.3105   16.9508   22.3452 C   0  0  0  0  0  0  0  0  0  0  0  0
   20.4950   15.8926   22.1123 H   0  0  0  0  0  0  0  0  0  0  0  0
   21.2179   17.3122   22.8477 H   0  0  0  0  0  0  0  0  0  0  0  0
   20.0915   17.7220   21.0196 C   0  0  0  0  0  0  0  0  0  0  0  0
   20.9675   17.5887   20.3710 H   0  0  0  0  0  0  0  0  0  0  0  0
   19.2428   17.2800   20.4810 H   0  0  0  0  0  0  0  0  0  0  0  0
   19.8240   19.2300   21.2073 C   0  0  0  0  0  0  0  0  0  0  0  0
   18.9263   19.3718   21.8137 H   0  0  0  0  0  0  0  0  0  0  0  0
   19.6501   19.6913   20.2319 H   0  0  0  0  0  0  0  0  0  0  0  0
   20.9619   19.9793   21.8740 N   0  3  0  0  0  0  0  0  0  0  0  0
   21.8298   19.8668   21.3281 H   0  0  0  0  0  0  0  0  0  0  0  0
   21.1618   19.5674   22.7975 H   0  0  0  0  0  0  0  0  0  0  0  0
   20.6040   21.4528   22.0125 C   0  0  0  0  0  0  0  0  0  0  0  0
   19.7020   21.5484   22.6208 H   0  0  0  0  0  0  0  0  0  0  0  0
   21.4307   21.9792   22.4945 H   0  0  0  0  0  0  0  0  0  0  0  0
   20.4273   21.8748   21.0208 H   0  0  0  0  0  0  0  0  0  0  0  0
  1  2  1  0  0  0  0
  1  3  1  0  0  0  0
  1  4  1  0  0  0  0
  1  5  1  0  0  0  0
  5  6  1  0  0  0  0
  5  7  1  0  0  0  0
  5  8  1  0  0  0  0
  8  9  1  0  0  0  0
  8 10  1  0  0  0  0
  8 11  1  0  0  0  0
 11 12  1  0  0  0  0
 11 13  1  0  0  0  0
 11 14  1  0  0  0  0
 14 15  1  0  0  0  0
 14 16  1  0  0  0  0
 14 17  1  0  0  0  0
 17 18  1  0  0  0  0
 17 19  1  0  0  0  0
 17 20  1  0  0  0  0
M  END
> <VConfSearch Rank>
297

> <Conf_Id>
24

> <Delta U+W>
0.792

> <U+W>
16.130

> <U>
70.374

> <W>
-54.243

> <W(PB)>
-56.130

> <W(SA)>
1.887

> <Valence>
1.257

> <Coulomb>
69.240

> <VdW>
-0.123

> <VdW6>
-4.336

> <VdW12>
4.213

> <Bond>
0.128

> <Angle>
0.603

> <Pdih>
0.526

> <Idih>
0.000

> <Tether>
0.000

$$$$
VeraChem MOL file


 20 19  0  0  0  0  0  0  0  0999 V2000     
   18.6370   20.4162   22.5785 C   0  0  0  0  0  0  0  0  0  0  0  0
   17.7717   21.0907   22.6178 H   0  0  0  0  0  0  0  0  0  0  0  0
   18.2716   19.4112   22.8203 H   0  0  0  0  0  0  0  0  0  0  0  0
   19.3423   20.7355   23.3568 H   0  0  0  0  0  0  0  0  0  0  0  0
   19.2875   20.4622   21.1770 C   0  0  0  0  0  0  0  0  0  0  0  0
   19.4401   21.5137   20.8957 H   0  0  0  0  0  0  0  0  0  0  0  0
   18.5891   20.0483   20.4361 H   0  0  0  0  0  0  0  0  0  0  0  0
   20.6488   19.7275   21.0766 C   0  0  0  0  0  0  0  0  0  0  0  0
   21.0443   19.8857   20.0645 H   0  0  0  0  0  0  0  0  0  0  0  0
   21.3792   20.1812   21.7595 H   0  0  0  0  0  0  0  0  0  0  0  0
   20.5722   18.2053   21.3202 C   0  0  0  0  0  0  0  0  0  0  0  0
   21.4503   17.7281   20.8776 H   0  0  0  0  0  0  0  0  0  0  0  0
   19.6831   17.7976   20.8327 H   0  0  0  0  0  0  0  0  0  0  0  0
   20.5434   17.8066   22.7835 N   0  3  0  0  0  0  0  0  0  0  0  0
   19.7603   18.2750   23.2610 H   0  0  0  0  0  0  0  0  0  0  0  0
   21.3950   18.1420   23.2591 H   0  0  0  0  0  0  0  0  0  0  0  0
   20.4213   16.2941   22.9092 C   0  0  0  0  0  0  0  0  0  0  0  0
   19.4975   15.9662   22.4276 H   0  0  0  0  0  0  0  0  0  0  0  0
   21.2785   15.8225   22.4237 H   0  0  0  0  0  0  0  0  0  0  0  0
   20.4018   16.0221   23.9668 H   0  0  0  0  0  0  0  0  0  0  0  0
  1  2  1  0  0  0  0
  1  3  1  0  0  0  0
  1  4  1  0  0  0  0
  1  5  1  0  0  0  0
  5  6  1  0  0  0  0
  5  7  1  0  0  0  0
  5  8  1  0  0  0  0
  8  9  1  0  0  0  0
  8 10  1  0  0  0  0
  8 11  1  0  0  0  0
 11 12  1  0  0  0  0
 11 13  1  0  0  0  0
 11 14  1  0  0  0  0
 14 15  1  0  0  0  0
 14 16  1  0  0  0  0
 14 17  1  0  0  0  0
 17 18  1  0  0  0  0
 17 19  1  0  0  0  0
 17 20  1  0  0  0  0
M  END
> <VConfSearch Rank>
298

> <Conf_Id>
26

> <Delta U+W>
2.888

> <U+W>
18.226

> <U>
72.042

> <W>
-53.816

> <W(PB)>
-55.689

> <W(SA)>
1.873

> <Valence>
2.428

> <Coulomb>
69.829

> <VdW>
-0.215

> <VdW6>
-4.563

> <VdW12>
4.348

> <Bond>
0.137

> <Angle>
0.936

> <Pdih>
1.356

> <Idih>
0.000

> <Tether>
0.000

$$$$
VeraChem MOL file


 20 19  0  0  0  0  0  0  0  0999 V2000     
   21.1380   17.5381   20.6998 C   0  0  0  0  0  0  0  0  0  0  0  0
   21.5920   16.6368   20.2678 H   0  0  0  0  0  0  0  0  0  0  0  0
   21.3718   18.3792   20.0342 H   0  0  0  0  0  0  0  0  0  0  0  0
   21.6207   17.7071   21.6696 H   0  0  0  0  0  0  0  0  0  0  0  0
   19.6113   17.3482   20.8507 C   0  0  0  0  0  0  0  0  0  0  0  0
   19.4123   16.5633   21.5940 H   0  0  0  0  0  0  0  0  0  0  0  0
   19.2090   16.9736   19.8989 H   0  0  0  0  0  0  0  0  0  0  0  0
   18.8389   18.6362   21.2341 C   0  0  0  0  0  0  0  0  0  0  0  0
   18.9687   19.4044   20.4603 H   0  0  0  0  0  0  0  0  0  0  0  0
   17.7671   18.3972   21.2440 H   0  0  0  0  0  0  0  0  0  0  0  0
   19.2061   19.2128   22.6179 C   0  0  0  0  0  0  0  0  0  0  0  0
   19.3222   18.3990   23.3381 H   0  0  0  0  0  0  0  0  0  0  0  0
   18.3939   19.8576   22.9632 H   0  0  0  0  0  0  0  0  0  0  0  0
   20.4708   20.0502   22.6312 N   0  3  0  0  0  0  0  0  0  0  0  0
   20.3713   20.8527   21.9907 H   0  0  0  0  0  0  0  0  0  0  0  0
   21.2605   19.5017   22.2623 H   0  0  0  0  0  0  0  0  0  0  0  0
   20.7642   20.5289   24.0465 C   0  0  0  0  0  0  0  0  0  0  0  0
   20.8978   19.6632   24.6988 H   0  0  0  0  0  0  0  0  0  0  0  0
   21.6762   21.1298   24.0405 H   0  0  0  0  0  0  0  0  0  0  0  0
   19.9273   21.1338   24.4022 H   0  0  0  0  0  0  0  0  0  0  0  0
  1  2  1  0  0  0  0
  1  3  1  0  0  0  0
  1  4  1  0  0  0  0
  1  5  1  0  0  0  0
  5  6  1  0  0  0  0
  5  7  1  0  0  0  0
  5  8  1  0  0  0  0
  8  9  1  0  0  0  0
  8 10  1  0  0  0  0
  8 11  1  0  0  0  0
 11 12  1  0  0  0  0
 11 13  1  0  0  0  0
 11 14  1  0  0  0  0
 14 15  1  0  0  0  0
 14 16  1  0  0  0  0
 14 17  1  0  0  0  0
 17 18  1  0  0  0  0
 17 19  1  0  0  0  0
 17 20  1  0  0  0  0
M  END
> <VConfSearch Rank>
299

> <Conf_Id>
5

> <Delta U+W>
2.950

> <U+W>
18.289

> <U>
72.042

> <W>
-53.753

> <W(PB)>
-55.644

> <W(SA)>
1.891

> <Valence>
2.428

> <Coulomb>
69.829

> <VdW>
-0.215

> <VdW6>
-4.563

> <VdW12>
4.348

> <Bond>
0.137

> <Angle>
0.936

> <Pdih>
1.356

> <Idih>
0.000

> <Tether>
0.000

$$$$
VeraChem MOL file


 20 19  0  0  0  0  0  0  0  0999 V2000     
   20.6299   20.2819   20.1059 C   0  0  0  0  0  0  0  0  0  0  0  0
   20.9362   21.2934   20.4030 H   0  0  0  0  0  0  0  0  0  0  0  0
   21.4804   19.6069   20.2634 H   0  0  0  0  0  0  0  0  0  0  0  0
   20.4167   20.3000   19.0293 H   0  0  0  0  0  0  0  0  0  0  0  0
   19.3837   19.8239   20.8979 C   0  0  0  0  0  0  0  0  0  0  0  0
   19.0941   18.8126   20.5814 H   0  0  0  0  0  0  0  0  0  0  0  0
   18.5372   20.4757   20.6399 H   0  0  0  0  0  0  0  0  0  0  0  0
   19.5919   19.8609   22.4323 C   0  0  0  0  0  0  0  0  0  0  0  0
   19.7865   20.8953   22.7451 H   0  0  0  0  0  0  0  0  0  0  0  0
   18.6614   19.5647   22.9334 H   0  0  0  0  0  0  0  0  0  0  0  0
   20.7525   18.9700   22.9311 C   0  0  0  0  0  0  0  0  0  0  0  0
   20.8324   19.0487   24.0182 H   0  0  0  0  0  0  0  0  0  0  0  0
   21.6892   19.3324   22.5006 H   0  0  0  0  0  0  0  0  0  0  0  0
   20.6322   17.4945   22.5822 N   0  3  0  0  0  0  0  0  0  0  0  0
   21.5083   17.0081   22.8290 H   0  0  0  0  0  0  0  0  0  0  0  0
   20.5409   17.3797   21.5621 H   0  0  0  0  0  0  0  0  0  0  0  0
   19.4573   16.8481   23.3077 C   0  0  0  0  0  0  0  0  0  0  0  0
   18.5290   17.3289   22.9930 H   0  0  0  0  0  0  0  0  0  0  0  0
   19.4230   15.7855   23.0576 H   0  0  0  0  0  0  0  0  0  0  0  0
   19.5901   16.9684   24.3850 H   0  0  0  0  0  0  0  0  0  0  0  0
  1  2  1  0  0  0  0
  1  3  1  0  0  0  0
  1  4  1  0  0  0  0
  1  5  1  0  0  0  0
  5  6  1  0  0  0  0
  5  7  1  0  0  0  0
  5  8  1  0  0  0  0
  8  9  1  0  0  0  0
  8 10  1  0  0  0  0
  8 11  1  0  0  0  0
 11 12  1  0  0  0  0
 11 13  1  0  0  0  0
 11 14  1  0  0  0  0
 14 15  1  0  0  0  0
 14 16  1  0  0  0  0
 14 17  1  0  0  0  0
 17 18  1  0  0  0  0
 17 19  1  0  0  0  0
 17 20  1  0  0  0  0
M  END
> <VConfSearch Rank>
300

> <Conf_Id>
52

> <Delta U+W>
0.784

> <U+W>
16.122

> <U>
70.777

> <W>
-54.655

> <W(PB)>
-56.491

> <W(SA)>
1.836

> <Valence>
1.529

> <Coulomb>
69.166

> <VdW>
0.082

> <VdW6>
-5.166

> <VdW12>
5.248

> <Bond>
0.171

> <Angle>
0.752

> <Pdih>
0.605

> <Idih>
0.000

> <Tether>
0.000

$$$$
VeraChem MOL file


 20 19  0  0  0  0  0  0  0  0999 V2000     
   21.0063   17.1346   21.4484 C   0  0  0  0  0  0  0  0  0  0  0  0
   21.6340   16.2514   21.2720 H   0  0  0  0  0  0  0  0  0  0  0  0
   20.1796   16.8161   22.0937 H   0  0  0  0  0  0  0  0  0  0  0  0
   20.5987   17.4521   20.4797 H   0  0  0  0  0  0  0  0  0  0  0  0
   21.8385   18.2603   22.1039 C   0  0  0  0  0  0  0  0  0  0  0  0
   22.7731   18.3780   21.5375 H   0  0  0  0  0  0  0  0  0  0  0  0
   22.1347   17.9556   23.1176 H   0  0  0  0  0  0  0  0  0  0  0  0
   21.1267   19.6362   22.1581 C   0  0  0  0  0  0  0  0  0  0  0  0
   21.8423   20.3694   22.5530 H   0  0  0  0  0  0  0  0  0  0  0  0
   20.8817   19.9771   21.1444 H   0  0  0  0  0  0  0  0  0  0  0  0
   19.8718   19.6761   23.0609 C   0  0  0  0  0  0  0  0  0  0  0  0
   19.6386   20.7151   23.3068 H   0  0  0  0  0  0  0  0  0  0  0  0
   20.0884   19.1532   23.9959 H   0  0  0  0  0  0  0  0  0  0  0  0
   18.6110   19.0675   22.4671 N   0  3  0  0  0  0  0  0  0  0  0  0
   17.8945   18.9702   23.2036 H   0  0  0  0  0  0  0  0  0  0  0  0
   18.7999   18.1082   22.1449 H   0  0  0  0  0  0  0  0  0  0  0  0
   18.0680   19.9227   21.3276 C   0  0  0  0  0  0  0  0  0  0  0  0
   17.8624   20.9286   21.6998 H   0  0  0  0  0  0  0  0  0  0  0  0
   18.8059   19.9687   20.5244 H   0  0  0  0  0  0  0  0  0  0  0  0
   17.1457   19.4741   20.9519 H   0  0  0  0  0  0  0  0  0  0  0  0
  1  2  1  0  0  0  0
  1  3  1  0  0  0  0
  1  4  1  0  0  0  0
  1  5  1  0  0  0  0
  5  6  1  0  0  0  0
  5  7  1  0  0  0  0
  5  8  1  0  0  0  0
  8  9  1  0  0  0  0
  8 10  1  0  0  0  0
  8 11  1  0  0  0  0
 11 12  1  0  0  0  0
 11 13  1  0  0  0  0
 11 14  1  0  0  0  0
 14 15  1  0  0  0  0
 14 16  1  0  0  0  0
 14 17  1  0  0  0  0
 17 18  1  0  0  0  0
 17 19  1  0  0  0  0
 17 20  1  0  0  0  0
M  END
> <VConfSearch Rank>
301

> <Conf_Id>
55

> <Delta U+W>
2.745

> <U+W>
18.083

> <U>
72.490

> <W>
-54.407

> <W(PB)>
-56.269

> <W(SA)>
1.861

> <Valence>
2.738

> <Coulomb>
69.795

> <VdW>
-0.043

> <VdW6>
-5.333

> <VdW12>
5.290

> <Bond>
0.182

> <Angle>
1.135

> <Pdih>
1.422

> <Idih>
0.000

> <Tether>
0.000

$$$$
VeraChem MOL file


 20 19  0  0  0  0  0  0  0  0999 V2000     
   20.0814   20.9015   21.6913 C   0  0  0  0  0  0  0  0  0  0  0  0
   20.2122   21.9376   21.3529 H   0  0  0  0  0  0  0  0  0  0  0  0
   19.1751   20.8654   22.3098 H   0  0  0  0  0  0  0  0  0  0  0  0
   20.9475   20.6572   22.3169 H   0  0  0  0  0  0  0  0  0  0  0  0
   19.9709   19.9518   20.4767 C   0  0  0  0  0  0  0  0  0  0  0  0
   20.9321   19.9228   19.9443 H   0  0  0  0  0  0  0  0  0  0  0  0
   19.2446   20.3746   19.7684 H   0  0  0  0  0  0  0  0  0  0  0  0
   19.5239   18.5097   20.8282 C   0  0  0  0  0  0  0  0  0  0  0  0
   18.5362   18.5243   21.3060 H   0  0  0  0  0  0  0  0  0  0  0  0
   19.3902   17.9605   19.8869 H   0  0  0  0  0  0  0  0  0  0  0  0
   20.5317   17.7164   21.6922 C   0  0  0  0  0  0  0  0  0  0  0  0
   21.5401   17.8796   21.3038 H   0  0  0  0  0  0  0  0  0  0  0  0
   20.3124   16.6488   21.6113 H   0  0  0  0  0  0  0  0  0  0  0  0
   20.5418   18.0556   23.1746 N   0  3  0  0  0  0  0  0  0  0  0  0
   20.6671   19.0692   23.3040 H   0  0  0  0  0  0  0  0  0  0  0  0
   21.3639   17.6214   23.6226 H   0  0  0  0  0  0  0  0  0  0  0  0
   19.2667   17.5773   23.8601 C   0  0  0  0  0  0  0  0  0  0  0  0
   18.4062   18.0885   23.4242 H   0  0  0  0  0  0  0  0  0  0  0  0
   19.1666   16.4988   23.7203 H   0  0  0  0  0  0  0  0  0  0  0  0
   19.3266   17.8057   24.9264 H   0  0  0  0  0  0  0  0  0  0  0  0
  1  2  1  0  0  0  0
  1  3  1  0  0  0  0
  1  4  1  0  0  0  0
  1  5  1  0  0  0  0
  5  6  1  0  0  0  0
  5  7  1  0  0  0  0
  5  8  1  0  0  0  0
  8  9  1  0  0  0  0
  8 10  1  0  0  0  0
  8 11  1  0  0  0  0
 11 12  1  0  0  0  0
 11 13  1  0  0  0  0
 11 14  1  0  0  0  0
 14 15  1  0  0  0  0
 14 16  1  0  0  0  0
 14 17  1  0  0  0  0
 17 18  1  0  0  0  0
 17 19  1  0  0  0  0
 17 20  1  0  0  0  0
M  END
> <VConfSearch Rank>
302

> <Conf_Id>
76

> <Delta U+W>
2.799

> <U+W>
18.137

> <U>
72.490

> <W>
-54.353

> <W(PB)>
-56.201

> <W(SA)>
1.848

> <Valence>
2.738

> <Coulomb>
69.795

> <VdW>
-0.043

> <VdW6>
-5.334

> <VdW12>
5.290

> <Bond>
0.182

> <Angle>
1.135

> <Pdih>
1.421

> <Idih>
0.000

> <Tether>
0.000

$$$$
VeraChem MOL file


 20 19  0  0  0  0  0  0  0  0999 V2000     
   20.4330   20.4773   20.8162 C   0  0  0  0  0  0  0  0  0  0  0  0
   20.8528   19.5499   20.4079 H   0  0  0  0  0  0  0  0  0  0  0  0
   19.6113   20.7965   20.1620 H   0  0  0  0  0  0  0  0  0  0  0  0
   21.2160   21.2451   20.7682 H   0  0  0  0  0  0  0  0  0  0  0  0
   19.9435   20.2918   22.2710 C   0  0  0  0  0  0  0  0  0  0  0  0
   19.6006   21.2625   22.6556 H   0  0  0  0  0  0  0  0  0  0  0  0
   20.7805   19.9950   22.9162 H   0  0  0  0  0  0  0  0  0  0  0  0
   18.7850   19.2723   22.3967 C   0  0  0  0  0  0  0  0  0  0  0  0
   18.4580   19.2210   23.4435 H   0  0  0  0  0  0  0  0  0  0  0  0
   17.9229   19.6494   21.8308 H   0  0  0  0  0  0  0  0  0  0  0  0
   19.1028   17.8436   21.8961 C   0  0  0  0  0  0  0  0  0  0  0  0
   19.4402   17.8667   20.8573 H   0  0  0  0  0  0  0  0  0  0  0  0
   18.1761   17.2648   21.9287 H   0  0  0  0  0  0  0  0  0  0  0  0
   20.1236   17.0707   22.7180 N   0  3  0  0  0  0  0  0  0  0  0  0
   19.8991   16.0643   22.6782 H   0  0  0  0  0  0  0  0  0  0  0  0
   20.0433   17.3184   23.7154 H   0  0  0  0  0  0  0  0  0  0  0  0
   21.5428   17.2870   22.2038 C   0  0  0  0  0  0  0  0  0  0  0  0
   22.2342   16.6909   22.8034 H   0  0  0  0  0  0  0  0  0  0  0  0
   21.5972   16.9711   21.1599 H   0  0  0  0  0  0  0  0  0  0  0  0
   21.8070   18.3419   22.2828 H   0  0  0  0  0  0  0  0  0  0  0  0
  1  2  1  0  0  0  0
  1  3  1  0  0  0  0
  1  4  1  0  0  0  0
  1  5  1  0  0  0  0
  5  6  1  0  0  0  0
  5  7  1  0  0  0  0
  5  8  1  0  0  0  0
  8  9  1  0  0  0  0
  8 10  1  0  0  0  0
  8 11  1  0  0  0  0
 11 12  1  0  0  0  0
 11 13  1  0  0  0  0
 11 14  1  0  0  0  0
 14 15  1  0  0  0  0
 14 16  1  0  0  0  0
 14 17  1  0  0  0  0
 17 18  1  0  0  0  0
 17 19  1  0  0  0  0
 17 20  1  0  0  0  0
M  END
> <VConfSearch Rank>
303

> <Conf_Id>
60

> <Delta U+W>
1.788

> <U+W>
17.127

> <U>
72.122

> <W>
-54.995

> <W(PB)>
-56.810

> <W(SA)>
1.815

> <Valence>
3.197

> <Coulomb>
69.115

> <VdW>
-0.190

> <VdW6>
-5.585

> <VdW12>
5.395

> <Bond>
0.177

> <Angle>
1.207

> <Pdih>
1.813

> <Idih>
0.000

> <Tether>
0.000

$$$$
VeraChem MOL file


 20 19  0  0  0  0  0  0  0  0999 V2000     
   21.4812   20.3020   22.7168 C   0  0  0  0  0  0  0  0  0  0  0  0
   22.0884   20.4475   23.6196 H   0  0  0  0  0  0  0  0  0  0  0  0
   21.7482   21.0924   22.0034 H   0  0  0  0  0  0  0  0  0  0  0  0
   20.4301   20.4386   22.9989 H   0  0  0  0  0  0  0  0  0  0  0  0
   21.7340   18.9013   22.1130 C   0  0  0  0  0  0  0  0  0  0  0  0
   21.4839   18.1233   22.8457 H   0  0  0  0  0  0  0  0  0  0  0  0
   22.8093   18.7898   21.9154 H   0  0  0  0  0  0  0  0  0  0  0  0
   20.9607   18.6602   20.7934 C   0  0  0  0  0  0  0  0  0  0  0  0
   21.3110   19.3828   20.0445 H   0  0  0  0  0  0  0  0  0  0  0  0
   21.2176   17.6689   20.3976 H   0  0  0  0  0  0  0  0  0  0  0  0
   19.4219   18.7799   20.8962 C   0  0  0  0  0  0  0  0  0  0  0  0
   19.0134   18.7078   19.8849 H   0  0  0  0  0  0  0  0  0  0  0  0
   19.1384   19.7559   21.2970 H   0  0  0  0  0  0  0  0  0  0  0  0
   18.7319   17.7016   21.7184 N   0  3  0  0  0  0  0  0  0  0  0  0
   19.2263   16.8026   21.6188 H   0  0  0  0  0  0  0  0  0  0  0  0
   17.7915   17.5288   21.3302 H   0  0  0  0  0  0  0  0  0  0  0  0
   18.6016   18.1053   23.1831 C   0  0  0  0  0  0  0  0  0  0  0  0
   18.0343   19.0361   23.2487 H   0  0  0  0  0  0  0  0  0  0  0  0
   18.0753   17.3165   23.7251 H   0  0  0  0  0  0  0  0  0  0  0  0
   19.5922   18.2474   23.6161 H   0  0  0  0  0  0  0  0  0  0  0  0
  1  2  1  0  0  0  0
  1  3  1  0  0  0  0
  1  4  1  0  0  0  0
  1  5  1  0  0  0  0
  5  6  1  0  0  0  0
  5  7  1  0  0  0  0
  5  8  1  0  0  0  0
  8  9  1  0  0  0  0
  8 10  1  0  0  0  0
  8 11  1  0  0  0  0
 11 12  1  0  0  0  0
 11 13  1  0  0  0  0
 11 14  1  0  0  0  0
 14 15  1  0  0  0  0
 14 16  1  0  0  0  0
 14 17  1  0  0  0  0
 17 18  1  0  0  0  0
 17 19  1  0  0  0  0
 17 20  1  0  0  0  0
M  END
> <VConfSearch Rank>
304

> <Conf_Id>
54

> <Delta U+W>
1.880

> <U+W>
17.218

> <U>
72.122

> <W>
-54.903

> <W(PB)>
-56.724

> <W(SA)>
1.821

> <Valence>
3.197

> <Coulomb>
69.115

> <VdW>
-0.190

> <VdW6>
-5.585

> <VdW12>
5.395

> <Bond>
0.177

> <Angle>
1.207

> <Pdih>
1.813

> <Idih>
0.000

> <Tether>
0.000

$$$$
VeraChem MOL file


 20 19  0  0  0  0  0  0  0  0999 V2000     
   22.0766   18.3194   24.4443 C   0  0  0  0  0  0  0  0  0  0  0  0
   21.9008   19.2697   24.9651 H   0  0  0  0  0  0  0  0  0  0  0  0
   22.2277   17.5423   25.2048 H   0  0  0  0  0  0  0  0  0  0  0  0
   23.0071   18.4122   23.8692 H   0  0  0  0  0  0  0  0  0  0  0  0
   20.8884   17.9603   23.5259 C   0  0  0  0  0  0  0  0  0  0  0  0
   19.9804   17.8401   24.1337 H   0  0  0  0  0  0  0  0  0  0  0  0
   21.0780   16.9895   23.0463 H   0  0  0  0  0  0  0  0  0  0  0  0
   20.6520   19.0375   22.4445 C   0  0  0  0  0  0  0  0  0  0  0  0
   20.4591   20.0063   22.9245 H   0  0  0  0  0  0  0  0  0  0  0  0
   21.5584   19.1546   21.8356 H   0  0  0  0  0  0  0  0  0  0  0  0
   19.4658   18.6721   21.5329 C   0  0  0  0  0  0  0  0  0  0  0  0
   18.5587   18.5701   22.1338 H   0  0  0  0  0  0  0  0  0  0  0  0
   19.6615   17.7157   21.0414 H   0  0  0  0  0  0  0  0  0  0  0  0
   19.1957   19.7028   20.4542 N   0  3  0  0  0  0  0  0  0  0  0  0
   20.0344   19.8338   19.8680 H   0  0  0  0  0  0  0  0  0  0  0  0
   19.0133   20.6247   20.8795 H   0  0  0  0  0  0  0  0  0  0  0  0
   18.0121   19.2648   19.6018 C   0  0  0  0  0  0  0  0  0  0  0  0
   17.1287   19.1660   20.2362 H   0  0  0  0  0  0  0  0  0  0  0  0
   17.8288   20.0154   18.8298 H   0  0  0  0  0  0  0  0  0  0  0  0
   18.2409   18.3046   19.1345 H   0  0  0  0  0  0  0  0  0  0  0  0
  1  2  1  0  0  0  0
  1  3  1  0  0  0  0
  1  4  1  0  0  0  0
  1  5  1  0  0  0  0
  5  6  1  0  0  0  0
  5  7  1  0  0  0  0
  5  8  1  0  0  0  0
  8  9  1  0  0  0  0
  8 10  1  0  0  0  0
  8 11  1  0  0  0  0
 11 12  1  0  0  0  0
 11 13  1  0  0  0  0
 11 14  1  0  0  0  0
 14 15  1  0  0  0  0
 14 16  1  0  0  0  0
 14 17  1  0  0  0  0
 17 18  1  0  0  0  0
 17 19  1  0  0  0  0
 17 20  1  0  0  0  0
M  END
> <VConfSearch Rank>
305

> <Conf_Id>
67

> <Delta U+W>
0.000

> <U+W>
15.338

> <U>
69.277

> <W>
-53.939

> <W(PB)>
-55.889

> <W(SA)>
1.950

> <Valence>
0.846

> <Coulomb>
68.557

> <VdW>
-0.127

> <VdW6>
-3.008

> <VdW12>
2.882

> <Bond>
0.088

> <Angle>
0.332

> <Pdih>
0.426

> <Idih>
0.000

> <Tether>
0.000

$$$$
VeraChem MOL file


 20 19  0  0  0  0  0  0  0  0999 V2000     
   18.6832   16.8196   23.6716 C   0  0  0  0  0  0  0  0  0  0  0  0
   18.6278   17.5308   24.5060 H   0  0  0  0  0  0  0  0  0  0  0  0
   17.7794   16.1971   23.7001 H   0  0  0  0  0  0  0  0  0  0  0  0
   19.5480   16.1643   23.8383 H   0  0  0  0  0  0  0  0  0  0  0  0
   18.7958   17.5563   22.3192 C   0  0  0  0  0  0  0  0  0  0  0  0
   17.9014   18.1765   22.1656 H   0  0  0  0  0  0  0  0  0  0  0  0
   18.8138   16.8203   21.5030 H   0  0  0  0  0  0  0  0  0  0  0  0
   20.0601   18.4409   22.2504 C   0  0  0  0  0  0  0  0  0  0  0  0
   20.0379   19.1740   23.0670 H   0  0  0  0  0  0  0  0  0  0  0  0
   20.9534   17.8201   22.3996 H   0  0  0  0  0  0  0  0  0  0  0  0
   20.1646   19.1713   20.8955 C   0  0  0  0  0  0  0  0  0  0  0  0
   19.3022   19.8290   20.7609 H   0  0  0  0  0  0  0  0  0  0  0  0
   20.1535   18.4307   20.0917 H   0  0  0  0  0  0  0  0  0  0  0  0
   21.4224   20.0070   20.7222 N   0  3  0  0  0  0  0  0  0  0  0  0
   21.4943   20.3233   19.7424 H   0  0  0  0  0  0  0  0  0  0  0  0
   22.2612   19.4263   20.8741 H   0  0  0  0  0  0  0  0  0  0  0  0
   21.4206   21.2127   21.6560 C   0  0  0  0  0  0  0  0  0  0  0  0
   21.4116   20.8690   22.6922 H   0  0  0  0  0  0  0  0  0  0  0  0
   22.3193   21.8065   21.4751 H   0  0  0  0  0  0  0  0  0  0  0  0
   20.5336   21.8186   21.4590 H   0  0  0  0  0  0  0  0  0  0  0  0
  1  2  1  0  0  0  0
  1  3  1  0  0  0  0
  1  4  1  0  0  0  0
  1  5  1  0  0  0  0
  5  6  1  0  0  0  0
  5  7  1  0  0  0  0
  5  8  1  0  0  0  0
  8  9  1  0  0  0  0
  8 10  1  0  0  0  0
  8 11  1  0  0  0  0
 11 12  1  0  0  0  0
 11 13  1  0  0  0  0
 11 14  1  0  0  0  0
 14 15  1  0  0  0  0
 14 16  1  0  0  0  0
 14 17  1  0  0  0  0
 17 18  1  0  0  0  0
 17 19  1  0  0  0  0
 17 20  1  0  0  0  0
M  END
> <VConfSearch Rank>
306

> <Conf_Id>
37

> <Delta U+W>
-0.021

> <U+W>
15.318

> <U>
69.657

> <W>
-54.340

> <W(PB)>
-56.238

> <W(SA)>
1.899

> <Valence>
1.137

> <Coulomb>
68.383

> <VdW>
0.138

> <VdW6>
-3.703

> <VdW12>
3.841

> <Bond>
0.125

> <Angle>
0.468

> <Pdih>
0.543

> <Idih>
0.000

> <Tether>
0.000

$$$$
VeraChem MOL file


 20 19  0  0  0  0  0  0  0  0999 V2000     
   20.3552   21.1580   23.7950 C   0  0  0  0  0  0  0  0  0  0  0  0
   20.7612   22.1778   23.8108 H   0  0  0  0  0  0  0  0  0  0  0  0
   19.2684   21.2268   23.9335 H   0  0  0  0  0  0  0  0  0  0  0  0
   20.7751   20.6158   24.6523 H   0  0  0  0  0  0  0  0  0  0  0  0
   20.7032   20.4527   22.4662 C   0  0  0  0  0  0  0  0  0  0  0  0
   21.7949   20.4306   22.3396 H   0  0  0  0  0  0  0  0  0  0  0  0
   20.2997   21.0362   21.6265 H   0  0  0  0  0  0  0  0  0  0  0  0
   20.1441   19.0138   22.4158 C   0  0  0  0  0  0  0  0  0  0  0  0
   20.5510   18.4304   23.2523 H   0  0  0  0  0  0  0  0  0  0  0  0
   19.0542   19.0408   22.5426 H   0  0  0  0  0  0  0  0  0  0  0  0
   20.4981   18.3172   21.0856 C   0  0  0  0  0  0  0  0  0  0  0  0
   21.5837   18.3263   20.9585 H   0  0  0  0  0  0  0  0  0  0  0  0
   20.0555   18.8654   20.2502 H   0  0  0  0  0  0  0  0  0  0  0  0
   20.0443   16.8696   20.9888 N   0  3  0  0  0  0  0  0  0  0  0  0
   20.4169   16.3245   21.7811 H   0  0  0  0  0  0  0  0  0  0  0  0
   20.4589   16.4334   20.1502 H   0  0  0  0  0  0  0  0  0  0  0  0
   18.5240   16.7677   20.9268 C   0  0  0  0  0  0  0  0  0  0  0  0
   18.1603   17.3365   20.0684 H   0  0  0  0  0  0  0  0  0  0  0  0
   18.2400   15.7185   20.8198 H   0  0  0  0  0  0  0  0  0  0  0  0
   18.0956   17.1707   21.8466 H   0  0  0  0  0  0  0  0  0  0  0  0
  1  2  1  0  0  0  0
  1  3  1  0  0  0  0
  1  4  1  0  0  0  0
  1  5  1  0  0  0  0
  5  6  1  0  0  0  0
  5  7  1  0  0  0  0
  5  8  1  0  0  0  0
  8  9  1  0  0  0  0
  8 10  1  0  0  0  0
  8 11  1  0  0  0  0
 11 12  1  0  0  0  0
 11 13  1  0  0  0  0
 11 14  1  0  0  0  0
 14 15  1  0  0  0  0
 14 16  1  0  0  0  0
 14 17  1  0  0  0  0
 17 18  1  0  0  0  0
 17 19  1  0  0  0  0
 17 20  1  0  0  0  0
M  END
> <VConfSearch Rank>
307

> <Conf_Id>
2

> <Delta U+W>
0.069

> <U+W>
15.407

> <U>
69.657

> <W>
-54.250

> <W(PB)>
-56.176

> <W(SA)>
1.926

> <Valence>
1.137

> <Coulomb>
68.383

> <VdW>
0.138

> <VdW6>
-3.703

> <VdW12>
3.841

> <Bond>
0.125

> <Angle>
0.468

> <Pdih>
0.543

> <Idih>
0.000

> <Tether>
0.000

$$$$
VeraChem MOL file


 20 19  0  0  0  0  0  0  0  0999 V2000     
   18.6535   17.2842   23.7822 C   0  0  0  0  0  0  0  0  0  0  0  0
   18.0669   18.1467   23.4414 H   0  0  0  0  0  0  0  0  0  0  0  0
   18.4536   16.4442   23.1044 H   0  0  0  0  0  0  0  0  0  0  0  0
   18.2841   17.0059   24.7777 H   0  0  0  0  0  0  0  0  0  0  0  0
   20.1641   17.6091   23.8358 C   0  0  0  0  0  0  0  0  0  0  0  0
   20.6997   16.7527   24.2691 H   0  0  0  0  0  0  0  0  0  0  0  0
   20.3356   18.4560   24.5152 H   0  0  0  0  0  0  0  0  0  0  0  0
   20.7641   17.9261   22.4460 C   0  0  0  0  0  0  0  0  0  0  0  0
   21.8479   18.0697   22.5491 H   0  0  0  0  0  0  0  0  0  0  0  0
   20.6227   17.0652   21.7791 H   0  0  0  0  0  0  0  0  0  0  0  0
   20.1463   19.1843   21.8054 C   0  0  0  0  0  0  0  0  0  0  0  0
   20.2893   20.0414   22.4682 H   0  0  0  0  0  0  0  0  0  0  0  0
   19.0734   19.0357   21.6622 H   0  0  0  0  0  0  0  0  0  0  0  0
   20.7490   19.5316   20.4583 N   0  3  0  0  0  0  0  0  0  0  0  0
   20.6420   18.7404   19.8052 H   0  0  0  0  0  0  0  0  0  0  0  0
   21.7666   19.6748   20.5491 H   0  0  0  0  0  0  0  0  0  0  0  0
   20.0823   20.7806   19.8975 C   0  0  0  0  0  0  0  0  0  0  0  0
   20.2376   21.6124   20.5880 H   0  0  0  0  0  0  0  0  0  0  0  0
   20.5255   21.0193   18.9281 H   0  0  0  0  0  0  0  0  0  0  0  0
   19.0128   20.5947   19.7774 H   0  0  0  0  0  0  0  0  0  0  0  0
  1  2  1  0  0  0  0
  1  3  1  0  0  0  0
  1  4  1  0  0  0  0
  1  5  1  0  0  0  0
  5  6  1  0  0  0  0
  5  7  1  0  0  0  0
  5  8  1  0  0  0  0
  8  9  1  0  0  0  0
  8 10  1  0  0  0  0
  8 11  1  0  0  0  0
 11 12  1  0  0  0  0
 11 13  1  0  0  0  0
 11 14  1  0  0  0  0
 14 15  1  0  0  0  0
 14 16  1  0  0  0  0
 14 17  1  0  0  0  0
 17 18  1  0  0  0  0
 17 19  1  0  0  0  0
 17 20  1  0  0  0  0
M  END
> <VConfSearch Rank>
308

> <Conf_Id>
34

> <Delta U+W>
0.276

> <U+W>
15.615

> <U>
69.798

> <W>
-54.184

> <W(PB)>
-56.116

> <W(SA)>
1.933

> <Valence>
1.134

> <Coulomb>
68.735

> <VdW>
-0.070

> <VdW6>
-3.565

> <VdW12>
3.494

> <Bond>
0.108

> <Angle>
0.456

> <Pdih>
0.569

> <Idih>
0.000

> <Tether>
0.000

$$$$
VeraChem MOL file


 20 19  0  0  0  0  0  0  0  0999 V2000     
   18.6654   16.2095   21.1948 C   0  0  0  0  0  0  0  0  0  0  0  0
   17.6335   16.4300   20.8919 H   0  0  0  0  0  0  0  0  0  0  0  0
   19.0740   15.4772   20.4864 H   0  0  0  0  0  0  0  0  0  0  0  0
   18.6370   15.7386   22.1861 H   0  0  0  0  0  0  0  0  0  0  0  0
   19.5264   17.4910   21.2124 C   0  0  0  0  0  0  0  0  0  0  0  0
   19.5610   17.9203   20.2011 H   0  0  0  0  0  0  0  0  0  0  0  0
   20.5583   17.2261   21.4799 H   0  0  0  0  0  0  0  0  0  0  0  0
   18.9711   18.5401   22.2046 C   0  0  0  0  0  0  0  0  0  0  0  0
   17.9274   18.7652   21.9479 H   0  0  0  0  0  0  0  0  0  0  0  0
   18.9600   18.1275   23.2222 H   0  0  0  0  0  0  0  0  0  0  0  0
   19.7710   19.8582   22.1913 C   0  0  0  0  0  0  0  0  0  0  0  0
   19.2792   20.5857   22.8421 H   0  0  0  0  0  0  0  0  0  0  0  0
   19.7891   20.2667   21.1777 H   0  0  0  0  0  0  0  0  0  0  0  0
   21.2052   19.7166   22.6655 N   0  3  0  0  0  0  0  0  0  0  0  0
   21.7092   19.0380   22.0758 H   0  0  0  0  0  0  0  0  0  0  0  0
   21.2272   19.3225   23.6185 H   0  0  0  0  0  0  0  0  0  0  0  0
   21.8999   21.0713   22.6315 C   0  0  0  0  0  0  0  0  0  0  0  0
   21.8936   21.4534   21.6084 H   0  0  0  0  0  0  0  0  0  0  0  0
   21.3692   21.7643   23.2880 H   0  0  0  0  0  0  0  0  0  0  0  0
   22.9302   20.9550   22.9749 H   0  0  0  0  0  0  0  0  0  0  0  0
  1  2  1  0  0  0  0
  1  3  1  0  0  0  0
  1  4  1  0  0  0  0
  1  5  1  0  0  0  0
  5  6  1  0  0  0  0
  5  7  1  0  0  0  0
  5  8  1  0  0  0  0
  8  9  1  0  0  0  0
  8 10  1  0  0  0  0
  8 11  1  0  0  0  0
 11 12  1  0  0  0  0
 11 13  1  0  0  0  0
 11 14  1  0  0  0  0
 14 15  1  0  0  0  0
 14 16  1  0  0  0  0
 14 17  1  0  0  0  0
 17 18  1  0  0  0  0
 17 19  1  0  0  0  0
 17 20  1  0  0  0  0
M  END
> <VConfSearch Rank>
309

> <Conf_Id>
50

> <Delta U+W>
0.319

> <U+W>
15.657

> <U>
69.962

> <W>
-54.305

> <W(PB)>
-56.223

> <W(SA)>
1.918

> <Valence>
0.982

> <Coulomb>
69.058

> <VdW>
-0.078

> <VdW6>
-3.548

> <VdW12>
3.471

> <Bond>
0.105

> <Angle>
0.408

> <Pdih>
0.469

> <Idih>
0.000

> <Tether>
0.000

$$$$
VeraChem MOL file


 20 19  0  0  0  0  0  0  0  0999 V2000     
   18.9431   16.0477   21.6138 C   0  0  0  0  0  0  0  0  0  0  0  0
   18.7181   15.5906   20.6415 H   0  0  0  0  0  0  0  0  0  0  0  0
   19.5487   15.3345   22.1881 H   0  0  0  0  0  0  0  0  0  0  0  0
   17.9932   16.1940   22.1443 H   0  0  0  0  0  0  0  0  0  0  0  0
   19.6881   17.3873   21.4277 C   0  0  0  0  0  0  0  0  0  0  0  0
   19.0705   18.0591   20.8163 H   0  0  0  0  0  0  0  0  0  0  0  0
   20.6172   17.2124   20.8669 H   0  0  0  0  0  0  0  0  0  0  0  0
   20.0166   18.0529   22.7850 C   0  0  0  0  0  0  0  0  0  0  0  0
   19.0906   18.2564   23.3389 H   0  0  0  0  0  0  0  0  0  0  0  0
   20.6005   17.3547   23.3994 H   0  0  0  0  0  0  0  0  0  0  0  0
   20.8232   19.3580   22.6315 C   0  0  0  0  0  0  0  0  0  0  0  0
   21.7420   19.1587   22.0743 H   0  0  0  0  0  0  0  0  0  0  0  0
   21.0998   19.7301   23.6213 H   0  0  0  0  0  0  0  0  0  0  0  0
   20.0740   20.4683   21.9188 N   0  3  0  0  0  0  0  0  0  0  0  0
   19.1929   20.6768   22.4129 H   0  0  0  0  0  0  0  0  0  0  0  0
   19.7940   20.1599   20.9760 H   0  0  0  0  0  0  0  0  0  0  0  0
   20.9468   21.7134   21.8348 C   0  0  0  0  0  0  0  0  0  0  0  0
   20.3960   22.5037   21.3200 H   0  0  0  0  0  0  0  0  0  0  0  0
   21.2036   22.0414   22.8443 H   0  0  0  0  0  0  0  0  0  0  0  0
   21.8575   21.4777   21.2799 H   0  0  0  0  0  0  0  0  0  0  0  0
  1  2  1  0  0  0  0
  1  3  1  0  0  0  0
  1  4  1  0  0  0  0
  1  5  1  0  0  0  0
  5  6  1  0  0  0  0
  5  7  1  0  0  0  0
  5  8  1  0  0  0  0
  8  9  1  0  0  0  0
  8 10  1  0  0  0  0
  8 11  1  0  0  0  0
 11 12  1  0  0  0  0
 11 13  1  0  0  0  0
 11 14  1  0  0  0  0
 14 15  1  0  0  0  0
 14 16  1  0  0  0  0
 14 17  1  0  0  0  0
 17 18  1  0  0  0  0
 17 19  1  0  0  0  0
 17 20  1  0  0  0  0
M  END
> <VConfSearch Rank>
310

> <Conf_Id>
35

> <Delta U+W>
0.360

> <U+W>
15.698

> <U>
69.962

> <W>
-54.264

> <W(PB)>
-56.166

> <W(SA)>
1.902

> <Valence>
0.982

> <Coulomb>
69.058

> <VdW>
-0.078

> <VdW6>
-3.548

> <VdW12>
3.471

> <Bond>
0.105

> <Angle>
0.408

> <Pdih>
0.469

> <Idih>
0.000

> <Tether>
0.000

$$$$
VeraChem MOL file


 20 19  0  0  0  0  0  0  0  0999 V2000     
   18.5587   16.6464   22.0113 C   0  0  0  0  0  0  0  0  0  0  0  0
   18.0404   17.3386   21.3358 H   0  0  0  0  0  0  0  0  0  0  0  0
   18.1875   15.6357   21.7977 H   0  0  0  0  0  0  0  0  0  0  0  0
   18.2750   16.8962   23.0419 H   0  0  0  0  0  0  0  0  0  0  0  0
   20.0921   16.7115   21.8249 C   0  0  0  0  0  0  0  0  0  0  0  0
   20.3486   16.4626   20.7854 H   0  0  0  0  0  0  0  0  0  0  0  0
   20.5626   15.9410   22.4517 H   0  0  0  0  0  0  0  0  0  0  0  0
   20.6869   18.0909   22.1928 C   0  0  0  0  0  0  0  0  0  0  0  0
   20.4596   18.3169   23.2425 H   0  0  0  0  0  0  0  0  0  0  0  0
   21.7807   18.0419   22.1112 H   0  0  0  0  0  0  0  0  0  0  0  0
   20.1627   19.2236   21.2840 C   0  0  0  0  0  0  0  0  0  0  0  0
   19.0820   19.3283   21.4059 H   0  0  0  0  0  0  0  0  0  0  0  0
   20.3622   18.9626   20.2416 H   0  0  0  0  0  0  0  0  0  0  0  0
   20.7941   20.5825   21.5393 N   0  3  0  0  0  0  0  0  0  0  0  0
   20.5160   21.2383   20.7925 H   0  0  0  0  0  0  0  0  0  0  0  0
   21.8209   20.5190   21.4660 H   0  0  0  0  0  0  0  0  0  0  0  0
   20.3801   21.1390   22.8974 C   0  0  0  0  0  0  0  0  0  0  0  0
   20.7354   20.4727   23.6859 H   0  0  0  0  0  0  0  0  0  0  0  0
   20.8222   22.1291   23.0280 H   0  0  0  0  0  0  0  0  0  0  0  0
   19.2914   21.2140   22.9384 H   0  0  0  0  0  0  0  0  0  0  0  0
  1  2  1  0  0  0  0
  1  3  1  0  0  0  0
  1  4  1  0  0  0  0
  1  5  1  0  0  0  0
  5  6  1  0  0  0  0
  5  7  1  0  0  0  0
  5  8  1  0  0  0  0
  8  9  1  0  0  0  0
  8 10  1  0  0  0  0
  8 11  1  0  0  0  0
 11 12  1  0  0  0  0
 11 13  1  0  0  0  0
 11 14  1  0  0  0  0
 14 15  1  0  0  0  0
 14 16  1  0  0  0  0
 14 17  1  0  0  0  0
 17 18  1  0  0  0  0
 17 19  1  0  0  0  0
 17 20  1  0  0  0  0
M  END
> <VConfSearch Rank>
311

> <Conf_Id>
33

> <Delta U+W>
0.372

> <U+W>
15.711

> <U>
70.163

> <W>
-54.452

> <W(PB)>
-56.363

> <W(SA)>
1.911

> <Valence>
1.420

> <Coulomb>
68.566

> <VdW>
0.177

> <VdW6>
-4.267

> <VdW12>
4.445

> <Bond>
0.146

> <Angle>
0.581

> <Pdih>
0.693

> <Idih>
0.000

> <Tether>
0.000

$$$$
VeraChem MOL file


 20 19  0  0  0  0  0  0  0  0999 V2000     
   21.3704   17.8426   19.9792 C   0  0  0  0  0  0  0  0  0  0  0  0
   21.5628   17.3533   19.0156 H   0  0  0  0  0  0  0  0  0  0  0  0
   21.3953   18.9266   19.8104 H   0  0  0  0  0  0  0  0  0  0  0  0
   22.1937   17.5823   20.6570 H   0  0  0  0  0  0  0  0  0  0  0  0
   20.0098   17.3882   20.5560 C   0  0  0  0  0  0  0  0  0  0  0  0
   19.9969   16.2912   20.6225 H   0  0  0  0  0  0  0  0  0  0  0  0
   19.2037   17.6648   19.8619 H   0  0  0  0  0  0  0  0  0  0  0  0
   19.7193   17.9800   21.9549 C   0  0  0  0  0  0  0  0  0  0  0  0
   18.7797   17.5571   22.3340 H   0  0  0  0  0  0  0  0  0  0  0  0
   20.5079   17.6695   22.6524 H   0  0  0  0  0  0  0  0  0  0  0  0
   19.6088   19.5198   21.9356 C   0  0  0  0  0  0  0  0  0  0  0  0
   18.8473   19.8113   21.2077 H   0  0  0  0  0  0  0  0  0  0  0  0
   20.5602   19.9572   21.6238 H   0  0  0  0  0  0  0  0  0  0  0  0
   19.2240   20.1429   23.2675 N   0  3  0  0  0  0  0  0  0  0  0  0
   18.3441   19.7312   23.6140 H   0  0  0  0  0  0  0  0  0  0  0  0
   19.0118   21.1439   23.1321 H   0  0  0  0  0  0  0  0  0  0  0  0
   20.3391   19.9849   24.2955 C   0  0  0  0  0  0  0  0  0  0  0  0
   20.0414   20.4760   25.2246 H   0  0  0  0  0  0  0  0  0  0  0  0
   20.5126   18.9233   24.4821 H   0  0  0  0  0  0  0  0  0  0  0  0
   21.2508   20.4472   23.9109 H   0  0  0  0  0  0  0  0  0  0  0  0
  1  2  1  0  0  0  0
  1  3  1  0  0  0  0
  1  4  1  0  0  0  0
  1  5  1  0  0  0  0
  5  6  1  0  0  0  0
  5  7  1  0  0  0  0
  5  8  1  0  0  0  0
  8  9  1  0  0  0  0
  8 10  1  0  0  0  0
  8 11  1  0  0  0  0
 11 12  1  0  0  0  0
 11 13  1  0  0  0  0
 11 14  1  0  0  0  0
 14 15  1  0  0  0  0
 14 16  1  0  0  0  0
 14 17  1  0  0  0  0
 17 18  1  0  0  0  0
 17 19  1  0  0  0  0
 17 20  1  0  0  0  0
M  END
> <VConfSearch Rank>
312

> <Conf_Id>
53

> <Delta U+W>
0.379

> <U+W>
15.717

> <U>
70.163

> <W>
-54.446

> <W(PB)>
-56.322

> <W(SA)>
1.876

> <Valence>
1.420

> <Coulomb>
68.566

> <VdW>
0.177

> <VdW6>
-4.267

> <VdW12>
4.445

> <Bond>
0.146

> <Angle>
0.581

> <Pdih>
0.693

> <Idih>
0.000

> <Tether>
0.000

$$$$
VeraChem MOL file


 20 19  0  0  0  0  0  0  0  0999 V2000     
   20.5451   21.6055   21.8680 C   0  0  0  0  0  0  0  0  0  0  0  0
   21.4942   22.1459   21.9779 H   0  0  0  0  0  0  0  0  0  0  0  0
   19.9874   22.0702   21.0444 H   0  0  0  0  0  0  0  0  0  0  0  0
   19.9695   21.7458   22.7922 H   0  0  0  0  0  0  0  0  0  0  0  0
   20.7987   20.1075   21.5930 C   0  0  0  0  0  0  0  0  0  0  0  0
   21.3906   19.6870   22.4173 H   0  0  0  0  0  0  0  0  0  0  0  0
   21.4029   20.0015   20.6809 H   0  0  0  0  0  0  0  0  0  0  0  0
   19.4754   19.3221   21.4359 C   0  0  0  0  0  0  0  0  0  0  0  0
   18.8799   19.4021   22.3544 H   0  0  0  0  0  0  0  0  0  0  0  0
   18.8745   19.7796   20.6389 H   0  0  0  0  0  0  0  0  0  0  0  0
   19.6980   17.8348   21.0826 C   0  0  0  0  0  0  0  0  0  0  0  0
   20.2419   17.7725   20.1366 H   0  0  0  0  0  0  0  0  0  0  0  0
   18.7310   17.3443   20.9454 H   0  0  0  0  0  0  0  0  0  0  0  0
   20.4799   17.0303   22.1103 N   0  3  0  0  0  0  0  0  0  0  0  0
   21.4016   17.4615   22.2732 H   0  0  0  0  0  0  0  0  0  0  0  0
   20.6884   16.0941   21.7293 H   0  0  0  0  0  0  0  0  0  0  0  0
   19.7051   16.8974   23.4168 C   0  0  0  0  0  0  0  0  0  0  0  0
   18.7430   16.4208   23.2172 H   0  0  0  0  0  0  0  0  0  0  0  0
   20.2814   16.2853   24.1140 H   0  0  0  0  0  0  0  0  0  0  0  0
   19.5455   17.8888   23.8454 H   0  0  0  0  0  0  0  0  0  0  0  0
  1  2  1  0  0  0  0
  1  3  1  0  0  0  0
  1  4  1  0  0  0  0
  1  5  1  0  0  0  0
  5  6  1  0  0  0  0
  5  7  1  0  0  0  0
  5  8  1  0  0  0  0
  8  9  1  0  0  0  0
  8 10  1  0  0  0  0
  8 11  1  0  0  0  0
 11 12  1  0  0  0  0
 11 13  1  0  0  0  0
 11 14  1  0  0  0  0
 14 15  1  0  0  0  0
 14 16  1  0  0  0  0
 14 17  1  0  0  0  0
 17 18  1  0  0  0  0
 17 19  1  0  0  0  0
 17 20  1  0  0  0  0
M  END
> <VConfSearch Rank>
313

> <Conf_Id>
49

> <Delta U+W>
0.268

> <U+W>
15.607

> <U>
70.298

> <W>
-54.692

> <W(PB)>
-56.576

> <W(SA)>
1.885

> <Valence>
1.245

> <Coulomb>
68.933

> <VdW>
0.120

> <VdW6>
-4.430

> <VdW12>
4.550

> <Bond>
0.148

> <Angle>
0.587

> <Pdih>
0.509

> <Idih>
0.000

> <Tether>
0.000

$$$$
VeraChem MOL file


 20 19  0  0  0  0  0  0  0  0999 V2000     
   17.3259   18.6142   22.4802 C   0  0  0  0  0  0  0  0  0  0  0  0
   17.1119   19.6388   22.8113 H   0  0  0  0  0  0  0  0  0  0  0  0
   16.7690   18.4320   21.5518 H   0  0  0  0  0  0  0  0  0  0  0  0
   16.9397   17.9266   23.2437 H   0  0  0  0  0  0  0  0  0  0  0  0
   18.8412   18.4025   22.2715 C   0  0  0  0  0  0  0  0  0  0  0  0
   19.0263   17.3625   21.9682 H   0  0  0  0  0  0  0  0  0  0  0  0
   19.3552   18.5552   23.2297 H   0  0  0  0  0  0  0  0  0  0  0  0
   19.4131   19.3678   21.2073 C   0  0  0  0  0  0  0  0  0  0  0  0
   18.8137   19.2865   20.2908 H   0  0  0  0  0  0  0  0  0  0  0  0
   19.3087   20.4050   21.5522 H   0  0  0  0  0  0  0  0  0  0  0  0
   20.8887   19.0966   20.8358 C   0  0  0  0  0  0  0  0  0  0  0  0
   21.1671   19.7879   20.0362 H   0  0  0  0  0  0  0  0  0  0  0  0
   21.0028   18.0807   20.4494 H   0  0  0  0  0  0  0  0  0  0  0  0
   21.8966   19.2963   21.9571 N   0  3  0  0  0  0  0  0  0  0  0  0
   21.5873   20.0499   22.5890 H   0  0  0  0  0  0  0  0  0  0  0  0
   22.7863   19.6350   21.5586 H   0  0  0  0  0  0  0  0  0  0  0  0
   22.1497   17.9983   22.7172 C   0  0  0  0  0  0  0  0  0  0  0  0
   22.8939   18.1799   23.4958 H   0  0  0  0  0  0  0  0  0  0  0  0
   21.2220   17.6497   23.1724 H   0  0  0  0  0  0  0  0  0  0  0  0
   22.5240   17.2438   22.0219 H   0  0  0  0  0  0  0  0  0  0  0  0
  1  2  1  0  0  0  0
  1  3  1  0  0  0  0
  1  4  1  0  0  0  0
  1  5  1  0  0  0  0
  5  6  1  0  0  0  0
  5  7  1  0  0  0  0
  5  8  1  0  0  0  0
  8  9  1  0  0  0  0
  8 10  1  0  0  0  0
  8 11  1  0  0  0  0
 11 12  1  0  0  0  0
 11 13  1  0  0  0  0
 11 14  1  0  0  0  0
 14 15  1  0  0  0  0
 14 16  1  0  0  0  0
 14 17  1  0  0  0  0
 17 18  1  0  0  0  0
 17 19  1  0  0  0  0
 17 20  1  0  0  0  0
M  END
> <VConfSearch Rank>
314

> <Conf_Id>
65

> <Delta U+W>
1.775

> <U+W>
17.114

> <U>
71.726

> <W>
-54.613

> <W(PB)>
-56.495

> <W(SA)>
1.883

> <Valence>
2.885

> <Coulomb>
68.822

> <VdW>
0.019

> <VdW6>
-4.600

> <VdW12>
4.619

> <Bond>
0.152

> <Angle>
0.862

> <Pdih>
1.871

> <Idih>
0.000

> <Tether>
0.000

$$$$
VeraChem MOL file


 20 19  0  0  0  0  0  0  0  0999 V2000     
   21.8510   20.0120   21.0516 C   0  0  0  0  0  0  0  0  0  0  0  0
   21.6424   19.0270   20.6155 H   0  0  0  0  0  0  0  0  0  0  0  0
   22.0505   20.7046   20.2237 H   0  0  0  0  0  0  0  0  0  0  0  0
   22.7675   19.9343   21.6507 H   0  0  0  0  0  0  0  0  0  0  0  0
   20.6679   20.5180   21.9087 C   0  0  0  0  0  0  0  0  0  0  0  0
   19.7646   20.5879   21.2876 H   0  0  0  0  0  0  0  0  0  0  0  0
   20.8833   21.5419   22.2453 H   0  0  0  0  0  0  0  0  0  0  0  0
   20.3948   19.6324   23.1500 C   0  0  0  0  0  0  0  0  0  0  0  0
   21.2715   19.6571   23.8108 H   0  0  0  0  0  0  0  0  0  0  0  0
   19.5648   20.0601   23.7278 H   0  0  0  0  0  0  0  0  0  0  0  0
   20.0734   18.1613   22.8132 C   0  0  0  0  0  0  0  0  0  0  0  0
   19.9256   17.6014   23.7401 H   0  0  0  0  0  0  0  0  0  0  0  0
   20.9145   17.7141   22.2781 H   0  0  0  0  0  0  0  0  0  0  0  0
   18.8297   17.9811   21.9639 N   0  3  0  0  0  0  0  0  0  0  0  0
   18.9278   18.5026   21.0802 H   0  0  0  0  0  0  0  0  0  0  0  0
   18.0122   18.3940   22.4385 H   0  0  0  0  0  0  0  0  0  0  0  0
   18.5978   16.5017   21.6881 C   0  0  0  0  0  0  0  0  0  0  0  0
   18.4656   15.9755   22.6360 H   0  0  0  0  0  0  0  0  0  0  0  0
   17.7009   16.3871   21.0754 H   0  0  0  0  0  0  0  0  0  0  0  0
   19.4610   16.0950   21.1570 H   0  0  0  0  0  0  0  0  0  0  0  0
  1  2  1  0  0  0  0
  1  3  1  0  0  0  0
  1  4  1  0  0  0  0
  1  5  1  0  0  0  0
  5  6  1  0  0  0  0
  5  7  1  0  0  0  0
  5  8  1  0  0  0  0
  8  9  1  0  0  0  0
  8 10  1  0  0  0  0
  8 11  1  0  0  0  0
 11 12  1  0  0  0  0
 11 13  1  0  0  0  0
 11 14  1  0  0  0  0
 14 15  1  0  0  0  0
 14 16  1  0  0  0  0
 14 17  1  0  0  0  0
 17 18  1  0  0  0  0
 17 19  1  0  0  0  0
 17 20  1  0  0  0  0
M  END
> <VConfSearch Rank>
315

> <Conf_Id>
23

> <Delta U+W>
0.896

> <U+W>
16.234

> <U>
70.374

> <W>
-54.140

> <W(PB)>
-56.046

> <W(SA)>
1.907

> <Valence>
1.257

> <Coulomb>
69.240

> <VdW>
-0.123

> <VdW6>
-4.336

> <VdW12>
4.213

> <Bond>
0.128

> <Angle>
0.603

> <Pdih>
0.526

> <Idih>
0.000

> <Tether>
0.000

$$$$
VeraChem MOL file


 20 19  0  0  0  0  0  0  0  0999 V2000     
   20.5835   21.1098   22.0115 C   0  0  0  0  0  0  0  0  0  0  0  0
   19.7348   21.6766   21.6071 H   0  0  0  0  0  0  0  0  0  0  0  0
   21.3473   21.8319   22.3281 H   0  0  0  0  0  0  0  0  0  0  0  0
   21.0125   20.5096   21.1994 H   0  0  0  0  0  0  0  0  0  0  0  0
   20.1453   20.2269   23.2027 C   0  0  0  0  0  0  0  0  0  0  0  0
   19.8109   20.8761   24.0242 H   0  0  0  0  0  0  0  0  0  0  0  0
   21.0105   19.6716   23.5893 H   0  0  0  0  0  0  0  0  0  0  0  0
   18.9998   19.2477   22.8436 C   0  0  0  0  0  0  0  0  0  0  0  0
   18.7184   18.6726   23.7358 H   0  0  0  0  0  0  0  0  0  0  0  0
   18.1093   19.8232   22.5579 H   0  0  0  0  0  0  0  0  0  0  0  0
   19.3437   18.2719   21.6988 C   0  0  0  0  0  0  0  0  0  0  0  0
   19.5802   18.8358   20.7933 H   0  0  0  0  0  0  0  0  0  0  0  0
   18.4767   17.6408   21.4879 H   0  0  0  0  0  0  0  0  0  0  0  0
   20.5158   17.3574   21.9998 N   0  3  0  0  0  0  0  0  0  0  0  0
   20.3282   16.8079   22.8523 H   0  0  0  0  0  0  0  0  0  0  0  0
   21.3545   17.9177   22.2120 H   0  0  0  0  0  0  0  0  0  0  0  0
   20.7744   16.4362   20.8153 C   0  0  0  0  0  0  0  0  0  0  0  0
   21.0026   17.0390   19.9336 H   0  0  0  0  0  0  0  0  0  0  0  0
   21.6206   15.7850   21.0452 H   0  0  0  0  0  0  0  0  0  0  0  0
   19.8844   15.8312   20.6291 H   0  0  0  0  0  0  0  0  0  0  0  0
  1  2  1  0  0  0  0
  1  3  1  0  0  0  0
  1  4  1  0  0  0  0
  1  5  1  0  0  0  0
  5  6  1  0  0  0  0
  5  7  1  0  0  0  0
  5  8  1  0  0  0  0
  8  9  1  0  0  0  0
  8 10  1  0  0  0  0
  8 11  1  0  0  0  0
 11 12  1  0  0  0  0
 11 13  1  0  0  0  0
 11 14  1  0  0  0  0
 14 15  1  0  0  0  0
 14 16  1  0  0  0  0
 14 17  1  0  0  0  0
 17 18  1  0  0  0  0
 17 19  1  0  0  0  0
 17 20  1  0  0  0  0
M  END
> <VConfSearch Rank>
316

> <Conf_Id>
24

> <Delta U+W>
0.792

> <U+W>
16.130

> <U>
70.374

> <W>
-54.243

> <W(PB)>
-56.130

> <W(SA)>
1.887

> <Valence>
1.257

> <Coulomb>
69.240

> <VdW>
-0.123

> <VdW6>
-4.336

> <VdW12>
4.213

> <Bond>
0.128

> <Angle>
0.603

> <Pdih>
0.526

> <Idih>
0.000

> <Tether>
0.000

$$$$
VeraChem MOL file


 20 19  0  0  0  0  0  0  0  0999 V2000     
   19.9294   17.4494   20.3126 C   0  0  0  0  0  0  0  0  0  0  0  0
   20.1988   16.9402   19.3780 H   0  0  0  0  0  0  0  0  0  0  0  0
   20.7515   17.2810   21.0181 H   0  0  0  0  0  0  0  0  0  0  0  0
   19.0219   16.9699   20.7021 H   0  0  0  0  0  0  0  0  0  0  0  0
   19.7023   18.9564   20.0542 C   0  0  0  0  0  0  0  0  0  0  0  0
   19.0273   19.0667   19.1938 H   0  0  0  0  0  0  0  0  0  0  0  0
   20.6518   19.4234   19.7567 H   0  0  0  0  0  0  0  0  0  0  0  0
   19.0952   19.7290   21.2531 C   0  0  0  0  0  0  0  0  0  0  0  0
   18.9157   20.7637   20.9323 H   0  0  0  0  0  0  0  0  0  0  0  0
   18.1102   19.3192   21.5127 H   0  0  0  0  0  0  0  0  0  0  0  0
   19.9958   19.7735   22.5058 C   0  0  0  0  0  0  0  0  0  0  0  0
   19.6888   20.6115   23.1368 H   0  0  0  0  0  0  0  0  0  0  0  0
   21.0347   19.9361   22.2082 H   0  0  0  0  0  0  0  0  0  0  0  0
   19.9322   18.5261   23.3666 N   0  3  0  0  0  0  0  0  0  0  0  0
   20.1625   17.6962   22.8020 H   0  0  0  0  0  0  0  0  0  0  0  0
   18.9675   18.3731   23.6983 H   0  0  0  0  0  0  0  0  0  0  0  0
   20.8883   18.6564   24.5445 C   0  0  0  0  0  0  0  0  0  0  0  0
   21.9060   18.7845   24.1695 H   0  0  0  0  0  0  0  0  0  0  0  0
   20.6037   19.5234   25.1444 H   0  0  0  0  0  0  0  0  0  0  0  0
   20.8317   17.7521   25.1545 H   0  0  0  0  0  0  0  0  0  0  0  0
  1  2  1  0  0  0  0
  1  3  1  0  0  0  0
  1  4  1  0  0  0  0
  1  5  1  0  0  0  0
  5  6  1  0  0  0  0
  5  7  1  0  0  0  0
  5  8  1  0  0  0  0
  8  9  1  0  0  0  0
  8 10  1  0  0  0  0
  8 11  1  0  0  0  0
 11 12  1  0  0  0  0
 11 13  1  0  0  0  0
 11 14  1  0  0  0  0
 14 15  1  0  0  0  0
 14 16  1  0  0  0  0
 14 17  1  0  0  0  0
 17 18  1  0  0  0  0
 17 19  1  0  0  0  0
 17 20  1  0  0  0  0
M  END
> <VConfSearch Rank>
317

> <Conf_Id>
26

> <Delta U+W>
2.888

> <U+W>
18.226

> <U>
72.042

> <W>
-53.816

> <W(PB)>
-55.689

> <W(SA)>
1.873

> <Valence>
2.428

> <Coulomb>
69.829

> <VdW>
-0.215

> <VdW6>
-4.563

> <VdW12>
4.348

> <Bond>
0.137

> <Angle>
0.936

> <Pdih>
1.356

> <Idih>
0.000

> <Tether>
0.000

$$$$
VeraChem MOL file


 20 19  0  0  0  0  0  0  0  0999 V2000     
   20.4233   20.7719   20.9870 C   0  0  0  0  0  0  0  0  0  0  0  0
   20.8894   21.5716   20.3968 H   0  0  0  0  0  0  0  0  0  0  0  0
   19.4460   21.1377   21.3281 H   0  0  0  0  0  0  0  0  0  0  0  0
   21.0642   20.6025   21.8602 H   0  0  0  0  0  0  0  0  0  0  0  0
   20.2776   19.4920   20.1325 C   0  0  0  0  0  0  0  0  0  0  0  0
   21.2750   19.1003   19.8880 H   0  0  0  0  0  0  0  0  0  0  0  0
   19.8142   19.7620   19.1731 H   0  0  0  0  0  0  0  0  0  0  0  0
   19.4262   18.3753   20.7888 C   0  0  0  0  0  0  0  0  0  0  0  0
   18.4032   18.7310   20.9698 H   0  0  0  0  0  0  0  0  0  0  0  0
   19.3353   17.5519   20.0681 H   0  0  0  0  0  0  0  0  0  0  0  0
   20.0231   17.7989   22.0903 C   0  0  0  0  0  0  0  0  0  0  0  0
   21.1041   17.6819   21.9806 H   0  0  0  0  0  0  0  0  0  0  0  0
   19.5922   16.8114   22.2741 H   0  0  0  0  0  0  0  0  0  0  0  0
   19.7533   18.6356   23.3265 N   0  3  0  0  0  0  0  0  0  0  0  0
   18.7370   18.7254   23.4789 H   0  0  0  0  0  0  0  0  0  0  0  0
   20.0947   19.5965   23.1831 H   0  0  0  0  0  0  0  0  0  0  0  0
   20.4220   18.0036   24.5397 C   0  0  0  0  0  0  0  0  0  0  0  0
   21.4994   17.9489   24.3690 H   0  0  0  0  0  0  0  0  0  0  0  0
   20.2193   18.6161   25.4210 H   0  0  0  0  0  0  0  0  0  0  0  0
   20.0202   16.9992   24.6892 H   0  0  0  0  0  0  0  0  0  0  0  0
  1  2  1  0  0  0  0
  1  3  1  0  0  0  0
  1  4  1  0  0  0  0
  1  5  1  0  0  0  0
  5  6  1  0  0  0  0
  5  7  1  0  0  0  0
  5  8  1  0  0  0  0
  8  9  1  0  0  0  0
  8 10  1  0  0  0  0
  8 11  1  0  0  0  0
 11 12  1  0  0  0  0
 11 13  1  0  0  0  0
 11 14  1  0  0  0  0
 14 15  1  0  0  0  0
 14 16  1  0  0  0  0
 14 17  1  0  0  0  0
 17 18  1  0  0  0  0
 17 19  1  0  0  0  0
 17 20  1  0  0  0  0
M  END
> <VConfSearch Rank>
318

> <Conf_Id>
5

> <Delta U+W>
2.950

> <U+W>
18.289

> <U>
72.042

> <W>
-53.753

> <W(PB)>
-55.644

> <W(SA)>
1.891

> <Valence>
2.428

> <Coulomb>
69.829

> <VdW>
-0.215

> <VdW6>
-4.563

> <VdW12>
4.348

> <Bond>
0.137

> <Angle>
0.936

> <Pdih>
1.356

> <Idih>
0.000

> <Tether>
0.000

$$$$
VeraChem MOL file


 20 19  0  0  0  0  0  0  0  0999 V2000     
   22.0838   18.0094   20.9055 C   0  0  0  0  0  0  0  0  0  0  0  0
   21.8659   17.2670   20.1268 H   0  0  0  0  0  0  0  0  0  0  0  0
   21.8829   19.0063   20.4935 H   0  0  0  0  0  0  0  0  0  0  0  0
   23.1570   17.9540   21.1292 H   0  0  0  0  0  0  0  0  0  0  0  0
   21.2498   17.7397   22.1790 C   0  0  0  0  0  0  0  0  0  0  0  0
   21.4872   18.4916   22.9440 H   0  0  0  0  0  0  0  0  0  0  0  0
   21.5492   16.7712   22.6034 H   0  0  0  0  0  0  0  0  0  0  0  0
   19.7242   17.7169   21.9122 C   0  0  0  0  0  0  0  0  0  0  0  0
   19.4914   16.8983   21.2185 H   0  0  0  0  0  0  0  0  0  0  0  0
   19.1948   17.4815   22.8444 H   0  0  0  0  0  0  0  0  0  0  0  0
   19.1692   19.0337   21.3225 C   0  0  0  0  0  0  0  0  0  0  0  0
   18.0917   18.9385   21.1662 H   0  0  0  0  0  0  0  0  0  0  0  0
   19.6331   19.2107   20.3490 H   0  0  0  0  0  0  0  0  0  0  0  0
   19.4054   20.2736   22.1712 N   0  3  0  0  0  0  0  0  0  0  0  0
   19.1298   21.1142   21.6398 H   0  0  0  0  0  0  0  0  0  0  0  0
   20.4133   20.3902   22.3522 H   0  0  0  0  0  0  0  0  0  0  0  0
   18.6241   20.2064   23.4787 C   0  0  0  0  0  0  0  0  0  0  0  0
   18.9666   19.3489   24.0612 H   0  0  0  0  0  0  0  0  0  0  0  0
   18.7935   21.1252   24.0445 H   0  0  0  0  0  0  0  0  0  0  0  0
   17.5600   20.1021   23.2564 H   0  0  0  0  0  0  0  0  0  0  0  0
  1  2  1  0  0  0  0
  1  3  1  0  0  0  0
  1  4  1  0  0  0  0
  1  5  1  0  0  0  0
  5  6  1  0  0  0  0
  5  7  1  0  0  0  0
  5  8  1  0  0  0  0
  8  9  1  0  0  0  0
  8 10  1  0  0  0  0
  8 11  1  0  0  0  0
 11 12  1  0  0  0  0
 11 13  1  0  0  0  0
 11 14  1  0  0  0  0
 14 15  1  0  0  0  0
 14 16  1  0  0  0  0
 14 17  1  0  0  0  0
 17 18  1  0  0  0  0
 17 19  1  0  0  0  0
 17 20  1  0  0  0  0
M  END
> <VConfSearch Rank>
319

> <Conf_Id>
52

> <Delta U+W>
0.784

> <U+W>
16.122

> <U>
70.777

> <W>
-54.655

> <W(PB)>
-56.491

> <W(SA)>
1.836

> <Valence>
1.529

> <Coulomb>
69.166

> <VdW>
0.082

> <VdW6>
-5.166

> <VdW12>
5.248

> <Bond>
0.171

> <Angle>
0.752

> <Pdih>
0.605

> <Idih>
0.000

> <Tether>
0.000

$$$$
VeraChem MOL file


 20 19  0  0  0  0  0  0  0  0999 V2000     
   20.6405   18.5107   24.0057 C   0  0  0  0  0  0  0  0  0  0  0  0
   21.1235   18.3183   24.9726 H   0  0  0  0  0  0  0  0  0  0  0  0
   20.3367   19.5638   24.0035 H   0  0  0  0  0  0  0  0  0  0  0  0
   19.7422   17.8819   23.9517 H   0  0  0  0  0  0  0  0  0  0  0  0
   21.6161   18.1976   22.8484 C   0  0  0  0  0  0  0  0  0  0  0  0
   22.0670   17.2117   23.0296 H   0  0  0  0  0  0  0  0  0  0  0  0
   22.4462   18.9178   22.8626 H   0  0  0  0  0  0  0  0  0  0  0  0
   20.9612   18.1815   21.4436 C   0  0  0  0  0  0  0  0  0  0  0  0
   21.7225   17.8581   20.7215 H   0  0  0  0  0  0  0  0  0  0  0  0
   20.1709   17.4216   21.4017 H   0  0  0  0  0  0  0  0  0  0  0  0
   20.4211   19.5511   20.9700 C   0  0  0  0  0  0  0  0  0  0  0  0
   20.2925   19.5312   19.8849 H   0  0  0  0  0  0  0  0  0  0  0  0
   21.1567   20.3247   21.2041 H   0  0  0  0  0  0  0  0  0  0  0  0
   19.0889   19.9780   21.5663 N   0  3  0  0  0  0  0  0  0  0  0  0
   18.9118   20.9696   21.3415 H   0  0  0  0  0  0  0  0  0  0  0  0
   19.1328   19.9373   22.5941 H   0  0  0  0  0  0  0  0  0  0  0  0
   17.9461   19.1167   21.0402 C   0  0  0  0  0  0  0  0  0  0  0  0
   17.9130   19.1900   19.9511 H   0  0  0  0  0  0  0  0  0  0  0  0
   18.1075   18.0785   21.3365 H   0  0  0  0  0  0  0  0  0  0  0  0
   17.0045   19.4755   21.4616 H   0  0  0  0  0  0  0  0  0  0  0  0
  1  2  1  0  0  0  0
  1  3  1  0  0  0  0
  1  4  1  0  0  0  0
  1  5  1  0  0  0  0
  5  6  1  0  0  0  0
  5  7  1  0  0  0  0
  5  8  1  0  0  0  0
  8  9  1  0  0  0  0
  8 10  1  0  0  0  0
  8 11  1  0  0  0  0
 11 12  1  0  0  0  0
 11 13  1  0  0  0  0
 11 14  1  0  0  0  0
 14 15  1  0  0  0  0
 14 16  1  0  0  0  0
 14 17  1  0  0  0  0
 17 18  1  0  0  0  0
 17 19  1  0  0  0  0
 17 20  1  0  0  0  0
M  END
> <VConfSearch Rank>
320

> <Conf_Id>
55

> <Delta U+W>
2.745

> <U+W>
18.083

> <U>
72.490

> <W>
-54.407

> <W(PB)>
-56.269

> <W(SA)>
1.861

> <Valence>
2.738

> <Coulomb>
69.795

> <VdW>
-0.043

> <VdW6>
-5.333

> <VdW12>
5.290

> <Bond>
0.182

> <Angle>
1.135

> <Pdih>
1.422

> <Idih>
0.000

> <Tether>
0.000

$$$$
VeraChem MOL file


 20 19  0  0  0  0  0  0  0  0999 V2000     
   21.2313   20.3567   21.3441 C   0  0  0  0  0  0  0  0  0  0  0  0
   21.8725   21.0800   20.8235 H   0  0  0  0  0  0  0  0  0  0  0  0
   20.7064   20.8936   22.1450 H   0  0  0  0  0  0  0  0  0  0  0  0
   21.8932   19.6078   21.7939 H   0  0  0  0  0  0  0  0  0  0  0  0
   20.2354   19.7135   20.3523 C   0  0  0  0  0  0  0  0  0  0  0  0
   20.7844   19.0902   19.6325 H   0  0  0  0  0  0  0  0  0  0  0  0
   19.7642   20.5131   19.7634 H   0  0  0  0  0  0  0  0  0  0  0  0
   19.1142   18.8772   21.0204 C   0  0  0  0  0  0  0  0  0  0  0  0
   18.5218   19.5071   21.6957 H   0  0  0  0  0  0  0  0  0  0  0  0
   18.4215   18.5535   20.2324 H   0  0  0  0  0  0  0  0  0  0  0  0
   19.6086   17.6101   21.7563 C   0  0  0  0  0  0  0  0  0  0  0  0
   20.3500   17.1027   21.1338 H   0  0  0  0  0  0  0  0  0  0  0  0
   18.7684   16.9257   21.8981 H   0  0  0  0  0  0  0  0  0  0  0  0
   20.2283   17.8407   23.1257 N   0  3  0  0  0  0  0  0  0  0  0  0
   20.9789   18.5422   23.0601 H   0  0  0  0  0  0  0  0  0  0  0  0
   20.6924   16.9759   23.4449 H   0  0  0  0  0  0  0  0  0  0  0  0
   19.1768   18.2688   24.1435 C   0  0  0  0  0  0  0  0  0  0  0  0
   18.7348   19.2171   23.8322 H   0  0  0  0  0  0  0  0  0  0  0  0
   18.4021   17.5014   24.2041 H   0  0  0  0  0  0  0  0  0  0  0  0
   19.6519   18.3893   25.1195 H   0  0  0  0  0  0  0  0  0  0  0  0
  1  2  1  0  0  0  0
  1  3  1  0  0  0  0
  1  4  1  0  0  0  0
  1  5  1  0  0  0  0
  5  6  1  0  0  0  0
  5  7  1  0  0  0  0
  5  8  1  0  0  0  0
  8  9  1  0  0  0  0
  8 10  1  0  0  0  0
  8 11  1  0  0  0  0
 11 12  1  0  0  0  0
 11 13  1  0  0  0  0
 11 14  1  0  0  0  0
 14 15  1  0  0  0  0
 14 16  1  0  0  0  0
 14 17  1  0  0  0  0
 17 18  1  0  0  0  0
 17 19  1  0  0  0  0
 17 20  1  0  0  0  0
M  END
> <VConfSearch Rank>
321

> <Conf_Id>
76

> <Delta U+W>
2.799

> <U+W>
18.137

> <U>
72.490

> <W>
-54.353

> <W(PB)>
-56.201

> <W(SA)>
1.848

> <Valence>
2.738

> <Coulomb>
69.795

> <VdW>
-0.043

> <VdW6>
-5.334

> <VdW12>
5.290

> <Bond>
0.182

> <Angle>
1.135

> <Pdih>
1.421

> <Idih>
0.000

> <Tether>
0.000

$$$$
VeraChem MOL file


 20 19  0  0  0  0  0  0  0  0999 V2000     
   19.8434   20.1593   20.4222 C   0  0  0  0  0  0  0  0  0  0  0  0
   19.2161   20.3311   21.3054 H   0  0  0  0  0  0  0  0  0  0  0  0
   20.5952   20.9579   20.3775 H   0  0  0  0  0  0  0  0  0  0  0  0
   19.2019   20.2540   19.5365 H   0  0  0  0  0  0  0  0  0  0  0  0
   20.5148   18.7670   20.4594 C   0  0  0  0  0  0  0  0  0  0  0  0
   21.0707   18.6170   19.5233 H   0  0  0  0  0  0  0  0  0  0  0  0
   19.7505   17.9795   20.4810 H   0  0  0  0  0  0  0  0  0  0  0  0
   21.4918   18.5955   21.6483 C   0  0  0  0  0  0  0  0  0  0  0  0
   21.9642   17.6061   21.5906 H   0  0  0  0  0  0  0  0  0  0  0  0
   22.3063   19.3240   21.5408 H   0  0  0  0  0  0  0  0  0  0  0  0
   20.8658   18.7755   23.0513 C   0  0  0  0  0  0  0  0  0  0  0  0
   20.3798   19.7505   23.1329 H   0  0  0  0  0  0  0  0  0  0  0  0
   21.6763   18.7490   23.7842 H   0  0  0  0  0  0  0  0  0  0  0  0
   19.8703   17.7036   23.4697 N   0  3  0  0  0  0  0  0  0  0  0  0
   19.9145   17.5808   24.4933 H   0  0  0  0  0  0  0  0  0  0  0  0
   20.1448   16.7882   23.0833 H   0  0  0  0  0  0  0  0  0  0  0  0
   18.4449   18.0706   23.0712 C   0  0  0  0  0  0  0  0  0  0  0  0
   17.7652   17.2891   23.4178 H   0  0  0  0  0  0  0  0  0  0  0  0
   18.1770   19.0217   23.5361 H   0  0  0  0  0  0  0  0  0  0  0  0
   18.3763   18.1594   21.9866 H   0  0  0  0  0  0  0  0  0  0  0  0
  1  2  1  0  0  0  0
  1  3  1  0  0  0  0
  1  4  1  0  0  0  0
  1  5  1  0  0  0  0
  5  6  1  0  0  0  0
  5  7  1  0  0  0  0
  5  8  1  0  0  0  0
  8  9  1  0  0  0  0
  8 10  1  0  0  0  0
  8 11  1  0  0  0  0
 11 12  1  0  0  0  0
 11 13  1  0  0  0  0
 11 14  1  0  0  0  0
 14 15  1  0  0  0  0
 14 16  1  0  0  0  0
 14 17  1  0  0  0  0
 17 18  1  0  0  0  0
 17 19  1  0  0  0  0
 17 20  1  0  0  0  0
M  END
> <VConfSearch Rank>
322

> <Conf_Id>
60

> <Delta U+W>
1.788

> <U+W>
17.127

> <U>
72.122

> <W>
-54.995

> <W(PB)>
-56.810

> <W(SA)>
1.815

> <Valence>
3.197

> <Coulomb>
69.115

> <VdW>
-0.190

> <VdW6>
-5.585

> <VdW12>
5.395

> <Bond>
0.177

> <Angle>
1.207

> <Pdih>
1.813

> <Idih>
0.000

> <Tether>
0.000

$$$$
VeraChem MOL file


 20 19  0  0  0  0  0  0  0  0999 V2000     
   20.6170   20.8742   22.1444 C   0  0  0  0  0  0  0  0  0  0  0  0
   20.0518   21.8128   22.0794 H   0  0  0  0  0  0  0  0  0  0  0  0
   21.6350   21.1191   22.4740 H   0  0  0  0  0  0  0  0  0  0  0  0
   20.6783   20.4535   21.1333 H   0  0  0  0  0  0  0  0  0  0  0  0
   19.9350   19.8974   23.1299 C   0  0  0  0  0  0  0  0  0  0  0  0
   18.9112   19.6803   22.7990 H   0  0  0  0  0  0  0  0  0  0  0  0
   19.8339   20.3924   24.1059 H   0  0  0  0  0  0  0  0  0  0  0  0
   20.7245   18.5794   23.3228 C   0  0  0  0  0  0  0  0  0  0  0  0
   21.7038   18.8177   23.7585 H   0  0  0  0  0  0  0  0  0  0  0  0
   20.2104   17.9530   24.0637 H   0  0  0  0  0  0  0  0  0  0  0  0
   20.9572   17.7525   22.0365 C   0  0  0  0  0  0  0  0  0  0  0  0
   21.6208   16.9216   22.2895 H   0  0  0  0  0  0  0  0  0  0  0  0
   21.4601   18.3562   21.2775 H   0  0  0  0  0  0  0  0  0  0  0  0
   19.7118   17.1368   21.4161 N   0  3  0  0  0  0  0  0  0  0  0  0
   19.0402   16.8680   22.1505 H   0  0  0  0  0  0  0  0  0  0  0  0
   19.9660   16.2495   20.9547 H   0  0  0  0  0  0  0  0  0  0  0  0
   19.0723   18.0677   20.3915 C   0  0  0  0  0  0  0  0  0  0  0  0
   19.7998   18.2919   19.6085 H   0  0  0  0  0  0  0  0  0  0  0  0
   18.2031   17.5725   19.9531 H   0  0  0  0  0  0  0  0  0  0  0  0
   18.7591   18.9921   20.8778 H   0  0  0  0  0  0  0  0  0  0  0  0
  1  2  1  0  0  0  0
  1  3  1  0  0  0  0
  1  4  1  0  0  0  0
  1  5  1  0  0  0  0
  5  6  1  0  0  0  0
  5  7  1  0  0  0  0
  5  8  1  0  0  0  0
  8  9  1  0  0  0  0
  8 10  1  0  0  0  0
  8 11  1  0  0  0  0
 11 12  1  0  0  0  0
 11 13  1  0  0  0  0
 11 14  1  0  0  0  0
 14 15  1  0  0  0  0
 14 16  1  0  0  0  0
 14 17  1  0  0  0  0
 17 18  1  0  0  0  0
 17 19  1  0  0  0  0
 17 20  1  0  0  0  0
M  END
> <VConfSearch Rank>
323

> <Conf_Id>
54

> <Delta U+W>
1.880

> <U+W>
17.218

> <U>
72.122

> <W>
-54.903

> <W(PB)>
-56.724

> <W(SA)>
1.821

> <Valence>
3.197

> <Coulomb>
69.115

> <VdW>
-0.190

> <VdW6>
-5.585

> <VdW12>
5.395

> <Bond>
0.177

> <Angle>
1.207

> <Pdih>
1.813

> <Idih>
0.000

> <Tether>
0.000

$$$$
VeraChem MOL file


 20 19  0  0  0  0  0  0  0  0999 V2000     
   17.6213   18.9859   19.9091 C   0  0  0  0  0  0  0  0  0  0  0  0
   17.0874   18.0882   20.2473 H   0  0  0  0  0  0  0  0  0  0  0  0
   16.8716   19.7336   19.6196 H   0  0  0  0  0  0  0  0  0  0  0  0
   18.1973   18.7229   19.0123 H   0  0  0  0  0  0  0  0  0  0  0  0
   18.5415   19.5374   21.0196 C   0  0  0  0  0  0  0  0  0  0  0  0
   17.9331   19.8237   21.8892 H   0  0  0  0  0  0  0  0  0  0  0  0
   19.0344   20.4533   20.6639 H   0  0  0  0  0  0  0  0  0  0  0  0
   19.6078   18.5051   21.4475 C   0  0  0  0  0  0  0  0  0  0  0  0
   19.1145   17.5918   21.8060 H   0  0  0  0  0  0  0  0  0  0  0  0
   20.2173   18.2222   20.5789 H   0  0  0  0  0  0  0  0  0  0  0  0
   20.5214   19.0626   22.5549 C   0  0  0  0  0  0  0  0  0  0  0  0
   19.9196   19.3308   23.4269 H   0  0  0  0  0  0  0  0  0  0  0  0
   21.0260   19.9631   22.1958 H   0  0  0  0  0  0  0  0  0  0  0  0
   21.5855   18.0822   23.0078 N   0  3  0  0  0  0  0  0  0  0  0  0
   22.1719   17.7977   22.2081 H   0  0  0  0  0  0  0  0  0  0  0  0
   21.1475   17.2124   23.3480 H   0  0  0  0  0  0  0  0  0  0  0  0
   22.4408   18.7113   24.0995 C   0  0  0  0  0  0  0  0  0  0  0  0
   21.8056   18.9726   24.9486 H   0  0  0  0  0  0  0  0  0  0  0  0
   23.2023   17.9951   24.4161 H   0  0  0  0  0  0  0  0  0  0  0  0
   22.9214   19.6101   23.7071 H   0  0  0  0  0  0  0  0  0  0  0  0
  1  2  1  0  0  0  0
  1  3  1  0  0  0  0
  1  4  1  0  0  0  0
  1  5  1  0  0  0  0
  5  6  1  0  0  0  0
  5  7  1  0  0  0  0
  5  8  1  0  0  0  0
  8  9  1  0  0  0  0
  8 10  1  0  0  0  0
  8 11  1  0  0  0  0
 11 12  1  0  0  0  0
 11 13  1  0  0  0  0
 11 14  1  0  0  0  0
 14 15  1  0  0  0  0
 14 16  1  0  0  0  0
 14 17  1  0  0  0  0
 17 18  1  0  0  0  0
 17 19  1  0  0  0  0
 17 20  1  0  0  0  0
M  END
> <VConfSearch Rank>
324

> <Conf_Id>
67

> <Delta U+W>
0.000

> <U+W>
15.338

> <U>
69.277

> <W>
-53.939

> <W(PB)>
-55.889

> <W(SA)>
1.950

> <Valence>
0.846

> <Coulomb>
68.557

> <VdW>
-0.127

> <VdW6>
-3.008

> <VdW12>
2.882

> <Bond>
0.088

> <Angle>
0.332

> <Pdih>
0.426

> <Idih>
0.000

> <Tether>
0.000

$$$$
VeraChem MOL file


 20 19  0  0  0  0  0  0  0  0999 V2000     
   22.9792   19.3565   21.3350 C   0  0  0  0  0  0  0  0  0  0  0  0
   23.0345   20.1260   22.1160 H   0  0  0  0  0  0  0  0  0  0  0  0
   23.9509   18.8474   21.2954 H   0  0  0  0  0  0  0  0  0  0  0  0
   22.8232   19.8585   20.3713 H   0  0  0  0  0  0  0  0  0  0  0  0
   21.8466   18.3483   21.6267 C   0  0  0  0  0  0  0  0  0  0  0  0
   22.0482   17.8381   22.5793 H   0  0  0  0  0  0  0  0  0  0  0  0
   21.8392   17.5722   20.8482 H   0  0  0  0  0  0  0  0  0  0  0  0
   20.4656   19.0373   21.6880 C   0  0  0  0  0  0  0  0  0  0  0  0
   20.4777   19.8111   22.4664 H   0  0  0  0  0  0  0  0  0  0  0  0
   20.2629   19.5430   20.7347 H   0  0  0  0  0  0  0  0  0  0  0  0
   19.3409   18.0220   21.9783 C   0  0  0  0  0  0  0  0  0  0  0  0
   19.5094   17.5489   22.9489 H   0  0  0  0  0  0  0  0  0  0  0  0
   19.3619   17.2414   21.2136 H   0  0  0  0  0  0  0  0  0  0  0  0
   17.9403   18.6128   21.9821 N   0  3  0  0  0  0  0  0  0  0  0  0
   17.2446   17.8512   22.0180 H   0  0  0  0  0  0  0  0  0  0  0  0
   17.7546   19.0980   21.0911 H   0  0  0  0  0  0  0  0  0  0  0  0
   17.7382   19.5538   23.1650 C   0  0  0  0  0  0  0  0  0  0  0  0
   18.4330   20.3921   23.0845 H   0  0  0  0  0  0  0  0  0  0  0  0
   16.7117   19.9268   23.1540 H   0  0  0  0  0  0  0  0  0  0  0  0
   17.9215   19.0087   24.0934 H   0  0  0  0  0  0  0  0  0  0  0  0
  1  2  1  0  0  0  0
  1  3  1  0  0  0  0
  1  4  1  0  0  0  0
  1  5  1  0  0  0  0
  5  6  1  0  0  0  0
  5  7  1  0  0  0  0
  5  8  1  0  0  0  0
  8  9  1  0  0  0  0
  8 10  1  0  0  0  0
  8 11  1  0  0  0  0
 11 12  1  0  0  0  0
 11 13  1  0  0  0  0
 11 14  1  0  0  0  0
 14 15  1  0  0  0  0
 14 16  1  0  0  0  0
 14 17  1  0  0  0  0
 17 18  1  0  0  0  0
 17 19  1  0  0  0  0
 17 20  1  0  0  0  0
M  END
> <VConfSearch Rank>
325

> <Conf_Id>
37

> <Delta U+W>
-0.021

> <U+W>
15.318

> <U>
69.657

> <W>
-54.340

> <W(PB)>
-56.238

> <W(SA)>
1.899

> <Valence>
1.137

> <Coulomb>
68.383

> <VdW>
0.138

> <VdW6>
-3.703

> <VdW12>
3.841

> <Bond>
0.125

> <Angle>
0.468

> <Pdih>
0.543

> <Idih>
0.000

> <Tether>
0.000

$$$$
VeraChem MOL file


 20 19  0  0  0  0  0  0  0  0999 V2000     
   21.0741   19.7616   24.6136 C   0  0  0  0  0  0  0  0  0  0  0  0
   21.3473   20.6811   25.1473 H   0  0  0  0  0  0  0  0  0  0  0  0
   20.2237   19.3080   25.1392 H   0  0  0  0  0  0  0  0  0  0  0  0
   21.9242   19.0700   24.6788 H   0  0  0  0  0  0  0  0  0  0  0  0
   20.7190   20.0695   23.1427 C   0  0  0  0  0  0  0  0  0  0  0  0
   21.5762   20.5539   22.6540 H   0  0  0  0  0  0  0  0  0  0  0  0
   19.8889   20.7893   23.1105 H   0  0  0  0  0  0  0  0  0  0  0  0
   20.3303   18.7922   22.3660 C   0  0  0  0  0  0  0  0  0  0  0  0
   21.1616   18.0754   22.3950 H   0  0  0  0  0  0  0  0  0  0  0  0
   19.4744   18.3121   22.8576 H   0  0  0  0  0  0  0  0  0  0  0  0
   19.9789   19.1097   20.8978 C   0  0  0  0  0  0  0  0  0  0  0  0
   20.8283   19.6154   20.4313 H   0  0  0  0  0  0  0  0  0  0  0  0
   19.1207   19.7853   20.8593 H   0  0  0  0  0  0  0  0  0  0  0  0
   19.6553   17.8924   20.0469 N   0  3  0  0  0  0  0  0  0  0  0  0
   20.4312   17.2139   20.0839 H   0  0  0  0  0  0  0  0  0  0  0  0
   19.5952   18.1709   19.0549 H   0  0  0  0  0  0  0  0  0  0  0  0
   18.3456   17.2435   20.4821 C   0  0  0  0  0  0  0  0  0  0  0  0
   17.5404   17.9781   20.4135 H   0  0  0  0  0  0  0  0  0  0  0  0
   18.1295   16.3984   19.8248 H   0  0  0  0  0  0  0  0  0  0  0  0
   18.4395   16.8918   21.5113 H   0  0  0  0  0  0  0  0  0  0  0  0
  1  2  1  0  0  0  0
  1  3  1  0  0  0  0
  1  4  1  0  0  0  0
  1  5  1  0  0  0  0
  5  6  1  0  0  0  0
  5  7  1  0  0  0  0
  5  8  1  0  0  0  0
  8  9  1  0  0  0  0
  8 10  1  0  0  0  0
  8 11  1  0  0  0  0
 11 12  1  0  0  0  0
 11 13  1  0  0  0  0
 11 14  1  0  0  0  0
 14 15  1  0  0  0  0
 14 16  1  0  0  0  0
 14 17  1  0  0  0  0
 17 18  1  0  0  0  0
 17 19  1  0  0  0  0
 17 20  1  0  0  0  0
M  END
> <VConfSearch Rank>
326

> <Conf_Id>
2

> <Delta U+W>
0.069

> <U+W>
15.407

> <U>
69.657

> <W>
-54.250

> <W(PB)>
-56.176

> <W(SA)>
1.926

> <Valence>
1.137

> <Coulomb>
68.383

> <VdW>
0.138

> <VdW6>
-3.703

> <VdW12>
3.841

> <Bond>
0.125

> <Angle>
0.468

> <Pdih>
0.543

> <Idih>
0.000

> <Tether>
0.000

$$$$
VeraChem MOL file


 20 19  0  0  0  0  0  0  0  0999 V2000     
   19.9609   20.5319   20.0396 C   0  0  0  0  0  0  0  0  0  0  0  0
   20.2246   21.0061   20.9934 H   0  0  0  0  0  0  0  0  0  0  0  0
   20.8876   20.1981   19.5548 H   0  0  0  0  0  0  0  0  0  0  0  0
   19.5083   21.3020   19.4016 H   0  0  0  0  0  0  0  0  0  0  0  0
   18.9825   19.3521   20.2423 C   0  0  0  0  0  0  0  0  0  0  0  0
   18.6742   18.9692   19.2593 H   0  0  0  0  0  0  0  0  0  0  0  0
   18.0676   19.7117   20.7341 H   0  0  0  0  0  0  0  0  0  0  0  0
   19.5946   18.1931   21.0635 C   0  0  0  0  0  0  0  0  0  0  0  0
   18.8761   17.3635   21.1011 H   0  0  0  0  0  0  0  0  0  0  0  0
   20.4888   17.8122   20.5525 H   0  0  0  0  0  0  0  0  0  0  0  0
   19.9588   18.6118   22.5013 C   0  0  0  0  0  0  0  0  0  0  0  0
   19.0682   18.9887   23.0104 H   0  0  0  0  0  0  0  0  0  0  0  0
   20.7036   19.4108   22.4748 H   0  0  0  0  0  0  0  0  0  0  0  0
   20.5260   17.4781   23.3328 N   0  3  0  0  0  0  0  0  0  0  0  0
   21.3659   17.0882   22.8783 H   0  0  0  0  0  0  0  0  0  0  0  0
   19.8530   16.6977   23.3782 H   0  0  0  0  0  0  0  0  0  0  0  0
   20.8598   17.9770   24.7324 C   0  0  0  0  0  0  0  0  0  0  0  0
   19.9507   18.3532   25.2067 H   0  0  0  0  0  0  0  0  0  0  0  0
   21.2669   17.1513   25.3201 H   0  0  0  0  0  0  0  0  0  0  0  0
   21.5987   18.7782   24.6623 H   0  0  0  0  0  0  0  0  0  0  0  0
  1  2  1  0  0  0  0
  1  3  1  0  0  0  0
  1  4  1  0  0  0  0
  1  5  1  0  0  0  0
  5  6  1  0  0  0  0
  5  7  1  0  0  0  0
  5  8  1  0  0  0  0
  8  9  1  0  0  0  0
  8 10  1  0  0  0  0
  8 11  1  0  0  0  0
 11 12  1  0  0  0  0
 11 13  1  0  0  0  0
 11 14  1  0  0  0  0
 14 15  1  0  0  0  0
 14 16  1  0  0  0  0
 14 17  1  0  0  0  0
 17 18  1  0  0  0  0
 17 19  1  0  0  0  0
 17 20  1  0  0  0  0
M  END
> <VConfSearch Rank>
327

> <Conf_Id>
34

> <Delta U+W>
0.276

> <U+W>
15.615

> <U>
69.798

> <W>
-54.184

> <W(PB)>
-56.116

> <W(SA)>
1.933

> <Valence>
1.134

> <Coulomb>
68.735

> <VdW>
-0.070

> <VdW6>
-3.565

> <VdW12>
3.494

> <Bond>
0.108

> <Angle>
0.456

> <Pdih>
0.569

> <Idih>
0.000

> <Tether>
0.000

$$$$
VeraChem MOL file


 20 19  0  0  0  0  0  0  0  0999 V2000     
   19.1127   17.7258   19.3167 C   0  0  0  0  0  0  0  0  0  0  0  0
   19.2591   18.5023   18.5546 H   0  0  0  0  0  0  0  0  0  0  0  0
   19.4226   16.7665   18.8824 H   0  0  0  0  0  0  0  0  0  0  0  0
   18.0394   17.6632   19.5386 H   0  0  0  0  0  0  0  0  0  0  0  0
   19.9269   18.0362   20.5914 C   0  0  0  0  0  0  0  0  0  0  0  0
   20.9973   18.0608   20.3427 H   0  0  0  0  0  0  0  0  0  0  0  0
   19.7878   17.2202   21.3133 H   0  0  0  0  0  0  0  0  0  0  0  0
   19.5083   19.3846   21.2237 C   0  0  0  0  0  0  0  0  0  0  0  0
   19.6158   20.1837   20.4783 H   0  0  0  0  0  0  0  0  0  0  0  0
   18.4460   19.3573   21.5007 H   0  0  0  0  0  0  0  0  0  0  0  0
   20.3539   19.7541   22.4590 C   0  0  0  0  0  0  0  0  0  0  0  0
   20.0721   20.7522   22.8042 H   0  0  0  0  0  0  0  0  0  0  0  0
   21.4122   19.7748   22.1869 H   0  0  0  0  0  0  0  0  0  0  0  0
   20.1891   18.8024   23.6290 N   0  3  0  0  0  0  0  0  0  0  0  0
   20.4470   17.8450   23.3475 H   0  0  0  0  0  0  0  0  0  0  0  0
   19.1972   18.7495   23.9073 H   0  0  0  0  0  0  0  0  0  0  0  0
   21.0482   19.2634   24.7988 C   0  0  0  0  0  0  0  0  0  0  0  0
   22.0960   19.2799   24.4913 H   0  0  0  0  0  0  0  0  0  0  0  0
   20.7361   20.2652   25.1016 H   0  0  0  0  0  0  0  0  0  0  0  0
   20.9202   18.5702   25.6331 H   0  0  0  0  0  0  0  0  0  0  0  0
  1  2  1  0  0  0  0
  1  3  1  0  0  0  0
  1  4  1  0  0  0  0
  1  5  1  0  0  0  0
  5  6  1  0  0  0  0
  5  7  1  0  0  0  0
  5  8  1  0  0  0  0
  8  9  1  0  0  0  0
  8 10  1  0  0  0  0
  8 11  1  0  0  0  0
 11 12  1  0  0  0  0
 11 13  1  0  0  0  0
 11 14  1  0  0  0  0
 14 15  1  0  0  0  0
 14 16  1  0  0  0  0
 14 17  1  0  0  0  0
 17 18  1  0  0  0  0
 17 19  1  0  0  0  0
 17 20  1  0  0  0  0
M  END
> <VConfSearch Rank>
328

> <Conf_Id>
50

> <Delta U+W>
0.319

> <U+W>
15.657

> <U>
69.962

> <W>
-54.305

> <W(PB)>
-56.223

> <W(SA)>
1.918

> <Valence>
0.982

> <Coulomb>
69.058

> <VdW>
-0.078

> <VdW6>
-3.548

> <VdW12>
3.471

> <Bond>
0.105

> <Angle>
0.408

> <Pdih>
0.469

> <Idih>
0.000

> <Tether>
0.000

$$$$
VeraChem MOL file


 20 19  0  0  0  0  0  0  0  0999 V2000     
   21.9650   21.1941   21.7210 C   0  0  0  0  0  0  0  0  0  0  0  0
   22.6551   21.5452   22.4991 H   0  0  0  0  0  0  0  0  0  0  0  0
   22.5372   21.0806   20.7910 H   0  0  0  0  0  0  0  0  0  0  0  0
   21.2098   21.9754   21.5641 H   0  0  0  0  0  0  0  0  0  0  0  0
   21.3072   19.8604   22.1364 C   0  0  0  0  0  0  0  0  0  0  0  0
   20.7788   20.0025   23.0888 H   0  0  0  0  0  0  0  0  0  0  0  0
   22.0893   19.1093   22.3165 H   0  0  0  0  0  0  0  0  0  0  0  0
   20.3283   19.3439   21.0555 C   0  0  0  0  0  0  0  0  0  0  0  0
   19.5279   20.0774   20.8905 H   0  0  0  0  0  0  0  0  0  0  0  0
   20.8618   19.2443   20.1009 H   0  0  0  0  0  0  0  0  0  0  0  0
   19.7099   17.9773   21.4124 C   0  0  0  0  0  0  0  0  0  0  0  0
   20.5053   17.2477   21.5839 H   0  0  0  0  0  0  0  0  0  0  0  0
   19.1015   17.6264   20.5749 H   0  0  0  0  0  0  0  0  0  0  0  0
   18.8229   18.0018   22.6431 N   0  3  0  0  0  0  0  0  0  0  0  0
   18.0640   18.6897   22.5206 H   0  0  0  0  0  0  0  0  0  0  0  0
   19.3590   18.3268   23.4612 H   0  0  0  0  0  0  0  0  0  0  0  0
   18.2500   16.6142   22.8984 C   0  0  0  0  0  0  0  0  0  0  0  0
   17.6144   16.6462   23.7861 H   0  0  0  0  0  0  0  0  0  0  0  0
   17.6592   16.3042   22.0338 H   0  0  0  0  0  0  0  0  0  0  0  0
   19.0696   15.9102   23.0577 H   0  0  0  0  0  0  0  0  0  0  0  0
  1  2  1  0  0  0  0
  1  3  1  0  0  0  0
  1  4  1  0  0  0  0
  1  5  1  0  0  0  0
  5  6  1  0  0  0  0
  5  7  1  0  0  0  0
  5  8  1  0  0  0  0
  8  9  1  0  0  0  0
  8 10  1  0  0  0  0
  8 11  1  0  0  0  0
 11 12  1  0  0  0  0
 11 13  1  0  0  0  0
 11 14  1  0  0  0  0
 14 15  1  0  0  0  0
 14 16  1  0  0  0  0
 14 17  1  0  0  0  0
 17 18  1  0  0  0  0
 17 19  1  0  0  0  0
 17 20  1  0  0  0  0
M  END
> <VConfSearch Rank>
329

> <Conf_Id>
35

> <Delta U+W>
0.360

> <U+W>
15.698

> <U>
69.962

> <W>
-54.264

> <W(PB)>
-56.166

> <W(SA)>
1.902

> <Valence>
0.982

> <Coulomb>
69.058

> <VdW>
-0.078

> <VdW6>
-3.548

> <VdW12>
3.471

> <Bond>
0.105

> <Angle>
0.408

> <Pdih>
0.469

> <Idih>
0.000

> <Tether>
0.000

$$$$
VeraChem MOL file


 20 19  0  0  0  0  0  0  0  0999 V2000     
   22.3683   17.6470   21.8265 C   0  0  0  0  0  0  0  0  0  0  0  0
   21.9602   17.5730   20.8106 H   0  0  0  0  0  0  0  0  0  0  0  0
   23.4570   17.5256   21.7553 H   0  0  0  0  0  0  0  0  0  0  0  0
   21.9759   16.8078   22.4155 H   0  0  0  0  0  0  0  0  0  0  0  0
   22.0155   19.0012   22.4836 C   0  0  0  0  0  0  0  0  0  0  0  0
   22.4146   19.8232   21.8726 H   0  0  0  0  0  0  0  0  0  0  0  0
   22.5187   19.0688   23.4584 H   0  0  0  0  0  0  0  0  0  0  0  0
   20.4948   19.1947   22.6885 C   0  0  0  0  0  0  0  0  0  0  0  0
   20.1090   18.3920   23.3300 H   0  0  0  0  0  0  0  0  0  0  0  0
   20.3234   20.1367   23.2259 H   0  0  0  0  0  0  0  0  0  0  0  0
   19.7164   19.2247   21.3555 C   0  0  0  0  0  0  0  0  0  0  0  0
   19.8234   18.2670   20.8406 H   0  0  0  0  0  0  0  0  0  0  0  0
   20.1400   20.0026   20.7152 H   0  0  0  0  0  0  0  0  0  0  0  0
   18.2309   19.5140   21.4971 N   0  3  0  0  0  0  0  0  0  0  0  0
   17.8208   19.6791   20.5645 H   0  0  0  0  0  0  0  0  0  0  0  0
   18.0860   20.3974   22.0093 H   0  0  0  0  0  0  0  0  0  0  0  0
   17.5056   18.3624   22.1849 C   0  0  0  0  0  0  0  0  0  0  0  0
   17.9004   18.2368   23.1950 H   0  0  0  0  0  0  0  0  0  0  0  0
   16.4387   18.5905   22.2346 H   0  0  0  0  0  0  0  0  0  0  0  0
   17.6595   17.4464   21.6105 H   0  0  0  0  0  0  0  0  0  0  0  0
  1  2  1  0  0  0  0
  1  3  1  0  0  0  0
  1  4  1  0  0  0  0
  1  5  1  0  0  0  0
  5  6  1  0  0  0  0
  5  7  1  0  0  0  0
  5  8  1  0  0  0  0
  8  9  1  0  0  0  0
  8 10  1  0  0  0  0
  8 11  1  0  0  0  0
 11 12  1  0  0  0  0
 11 13  1  0  0  0  0
 11 14  1  0  0  0  0
 14 15  1  0  0  0  0
 14 16  1  0  0  0  0
 14 17  1  0  0  0  0
 17 18  1  0  0  0  0
 17 19  1  0  0  0  0
 17 20  1  0  0  0  0
M  END
> <VConfSearch Rank>
330

> <Conf_Id>
33

> <Delta U+W>
0.372

> <U+W>
15.711

> <U>
70.163

> <W>
-54.452

> <W(PB)>
-56.363

> <W(SA)>
1.911

> <Valence>
1.420

> <Coulomb>
68.566

> <VdW>
0.177

> <VdW6>
-4.267

> <VdW12>
4.445

> <Bond>
0.146

> <Angle>
0.581

> <Pdih>
0.693

> <Idih>
0.000

> <Tether>
0.000

$$$$
VeraChem MOL file


 20 19  0  0  0  0  0  0  0  0999 V2000     
   22.1393   18.4597   23.5652 C   0  0  0  0  0  0  0  0  0  0  0  0
   23.1604   18.2540   23.9117 H   0  0  0  0  0  0  0  0  0  0  0  0
   22.0111   19.5493   23.5427 H   0  0  0  0  0  0  0  0  0  0  0  0
   21.4444   18.0480   24.3086 H   0  0  0  0  0  0  0  0  0  0  0  0
   21.9020   17.8305   22.1731 C   0  0  0  0  0  0  0  0  0  0  0  0
   22.1295   16.7563   22.2215 H   0  0  0  0  0  0  0  0  0  0  0  0
   22.6057   18.2627   21.4477 H   0  0  0  0  0  0  0  0  0  0  0  0
   20.4524   18.0148   21.6666 C   0  0  0  0  0  0  0  0  0  0  0  0
   20.3356   17.4805   20.7146 H   0  0  0  0  0  0  0  0  0  0  0  0
   19.7569   17.5485   22.3763 H   0  0  0  0  0  0  0  0  0  0  0  0
   20.0805   19.4991   21.4618 C   0  0  0  0  0  0  0  0  0  0  0  0
   20.8062   19.9560   20.7841 H   0  0  0  0  0  0  0  0  0  0  0  0
   20.1277   20.0296   22.4158 H   0  0  0  0  0  0  0  0  0  0  0  0
   18.7000   19.7292   20.8687 N   0  3  0  0  0  0  0  0  0  0  0  0
   18.6029   19.2160   19.9794 H   0  0  0  0  0  0  0  0  0  0  0  0
   18.5954   20.7235   20.6126 H   0  0  0  0  0  0  0  0  0  0  0  0
   17.6026   19.3291   21.8490 C   0  0  0  0  0  0  0  0  0  0  0  0
   16.6289   19.5431   21.4027 H   0  0  0  0  0  0  0  0  0  0  0  0
   17.6798   18.2615   22.0640 H   0  0  0  0  0  0  0  0  0  0  0  0
   17.7182   19.9021   22.7715 H   0  0  0  0  0  0  0  0  0  0  0  0
  1  2  1  0  0  0  0
  1  3  1  0  0  0  0
  1  4  1  0  0  0  0
  1  5  1  0  0  0  0
  5  6  1  0  0  0  0
  5  7  1  0  0  0  0
  5  8  1  0  0  0  0
  8  9  1  0  0  0  0
  8 10  1  0  0  0  0
  8 11  1  0  0  0  0
 11 12  1  0  0  0  0
 11 13  1  0  0  0  0
 11 14  1  0  0  0  0
 14 15  1  0  0  0  0
 14 16  1  0  0  0  0
 14 17  1  0  0  0  0
 17 18  1  0  0  0  0
 17 19  1  0  0  0  0
 17 20  1  0  0  0  0
M  END
> <VConfSearch Rank>
331

> <Conf_Id>
53

> <Delta U+W>
0.379

> <U+W>
15.717

> <U>
70.163

> <W>
-54.446

> <W(PB)>
-56.322

> <W(SA)>
1.876

> <Valence>
1.420

> <Coulomb>
68.566

> <VdW>
0.177

> <VdW6>
-4.267

> <VdW12>
4.445

> <Bond>
0.146

> <Angle>
0.581

> <Pdih>
0.693

> <Idih>
0.000

> <Tether>
0.000

$$$$
VeraChem MOL file


 20 19  0  0  0  0  0  0  0  0999 V2000     
   17.6037   19.6126   22.9396 C   0  0  0  0  0  0  0  0  0  0  0  0
   16.6186   19.3537   22.5305 H   0  0  0  0  0  0  0  0  0  0  0  0
   17.5435   19.5378   24.0332 H   0  0  0  0  0  0  0  0  0  0  0  0
   17.8112   20.6589   22.6798 H   0  0  0  0  0  0  0  0  0  0  0  0
   18.6924   18.6737   22.3765 C   0  0  0  0  0  0  0  0  0  0  0  0
   18.6969   18.7467   21.2805 H   0  0  0  0  0  0  0  0  0  0  0  0
   18.4405   17.6330   22.6251 H   0  0  0  0  0  0  0  0  0  0  0  0
   20.0923   19.0193   22.9366 C   0  0  0  0  0  0  0  0  0  0  0  0
   20.3606   20.0491   22.6678 H   0  0  0  0  0  0  0  0  0  0  0  0
   20.0625   18.9856   24.0337 H   0  0  0  0  0  0  0  0  0  0  0  0
   21.1903   18.0471   22.4511 C   0  0  0  0  0  0  0  0  0  0  0  0
   20.9369   17.0349   22.7765 H   0  0  0  0  0  0  0  0  0  0  0  0
   22.1448   18.3169   22.9101 H   0  0  0  0  0  0  0  0  0  0  0  0
   21.4011   18.0011   20.9451 N   0  3  0  0  0  0  0  0  0  0  0  0
   20.5211   17.7522   20.4701 H   0  0  0  0  0  0  0  0  0  0  0  0
   22.0542   17.2368   20.7114 H   0  0  0  0  0  0  0  0  0  0  0  0
   21.9444   19.3256   20.4204 C   0  0  0  0  0  0  0  0  0  0  0  0
   22.8851   19.5539   20.9261 H   0  0  0  0  0  0  0  0  0  0  0  0
   22.1160   19.2413   19.3450 H   0  0  0  0  0  0  0  0  0  0  0  0
   21.2179   20.1171   20.6144 H   0  0  0  0  0  0  0  0  0  0  0  0
  1  2  1  0  0  0  0
  1  3  1  0  0  0  0
  1  4  1  0  0  0  0
  1  5  1  0  0  0  0
  5  6  1  0  0  0  0
  5  7  1  0  0  0  0
  5  8  1  0  0  0  0
  8  9  1  0  0  0  0
  8 10  1  0  0  0  0
  8 11  1  0  0  0  0
 11 12  1  0  0  0  0
 11 13  1  0  0  0  0
 11 14  1  0  0  0  0
 14 15  1  0  0  0  0
 14 16  1  0  0  0  0
 14 17  1  0  0  0  0
 17 18  1  0  0  0  0
 17 19  1  0  0  0  0
 17 20  1  0  0  0  0
M  END
> <VConfSearch Rank>
332

> <Conf_Id>
49

> <Delta U+W>
0.268

> <U+W>
15.607

> <U>
70.298

> <W>
-54.692

> <W(PB)>
-56.576

> <W(SA)>
1.885

> <Valence>
1.245

> <Coulomb>
68.933

> <VdW>
0.120

> <VdW6>
-4.430

> <VdW12>
4.550

> <Bond>
0.148

> <Angle>
0.587

> <Pdih>
0.509

> <Idih>
0.000

> <Tether>
0.000

$$$$
VeraChem MOL file


 20 19  0  0  0  0  0  0  0  0999 V2000     
   21.4490   20.6426   20.4991 C   0  0  0  0  0  0  0  0  0  0  0  0
   21.3285   21.5392   21.1210 H   0  0  0  0  0  0  0  0  0  0  0  0
   22.5173   20.3921   20.4642 H   0  0  0  0  0  0  0  0  0  0  0  0
   21.1301   20.8953   19.4796 H   0  0  0  0  0  0  0  0  0  0  0  0
   20.6186   19.4651   21.0543 C   0  0  0  0  0  0  0  0  0  0  0  0
   20.7370   18.5925   20.3968 H   0  0  0  0  0  0  0  0  0  0  0  0
   19.5561   19.7412   21.0353 H   0  0  0  0  0  0  0  0  0  0  0  0
   21.0410   19.0957   22.4954 C   0  0  0  0  0  0  0  0  0  0  0  0
   22.1271   18.9360   22.5206 H   0  0  0  0  0  0  0  0  0  0  0  0
   20.8384   19.9385   23.1694 H   0  0  0  0  0  0  0  0  0  0  0  0
   20.3604   17.8224   23.0469 C   0  0  0  0  0  0  0  0  0  0  0  0
   20.7769   17.6198   24.0369 H   0  0  0  0  0  0  0  0  0  0  0  0
   20.5879   16.9637   22.4102 H   0  0  0  0  0  0  0  0  0  0  0  0
   18.8511   17.9040   23.2160 N   0  3  0  0  0  0  0  0  0  0  0  0
   18.5679   18.8647   23.4605 H   0  0  0  0  0  0  0  0  0  0  0  0
   18.5680   17.3313   24.0264 H   0  0  0  0  0  0  0  0  0  0  0  0
   18.1228   17.4064   21.9715 C   0  0  0  0  0  0  0  0  0  0  0  0
   17.0455   17.4601   22.1431 H   0  0  0  0  0  0  0  0  0  0  0  0
   18.3879   18.0274   21.1151 H   0  0  0  0  0  0  0  0  0  0  0  0
   18.4115   16.3711   21.7781 H   0  0  0  0  0  0  0  0  0  0  0  0
  1  2  1  0  0  0  0
  1  3  1  0  0  0  0
  1  4  1  0  0  0  0
  1  5  1  0  0  0  0
  5  6  1  0  0  0  0
  5  7  1  0  0  0  0
  5  8  1  0  0  0  0
  8  9  1  0  0  0  0
  8 10  1  0  0  0  0
  8 11  1  0  0  0  0
 11 12  1  0  0  0  0
 11 13  1  0  0  0  0
 11 14  1  0  0  0  0
 14 15  1  0  0  0  0
 14 16  1  0  0  0  0
 14 17  1  0  0  0  0
 17 18  1  0  0  0  0
 17 19  1  0  0  0  0
 17 20  1  0  0  0  0
M  END
> <VConfSearch Rank>
333

> <Conf_Id>
65

> <Delta U+W>
1.775

> <U+W>
17.114

> <U>
71.726

> <W>
-54.613

> <W(PB)>
-56.495

> <W(SA)>
1.883

> <Valence>
2.885

> <Coulomb>
68.822

> <VdW>
0.019

> <VdW6>
-4.600

> <VdW12>
4.619

> <Bond>
0.152

> <Angle>
0.862

> <Pdih>
1.871

> <Idih>
0.000

> <Tether>
0.000

$$$$
VeraChem MOL file


 20 19  0  0  0  0  0  0  0  0999 V2000     
   17.9688   18.9514   20.9691 C   0  0  0  0  0  0  0  0  0  0  0  0
   18.4916   19.8828   21.2205 H   0  0  0  0  0  0  0  0  0  0  0  0
   17.5168   19.0832   19.9775 H   0  0  0  0  0  0  0  0  0  0  0  0
   17.1545   18.8099   21.6916 H   0  0  0  0  0  0  0  0  0  0  0  0
   18.9297   17.7402   20.9703 C   0  0  0  0  0  0  0  0  0  0  0  0
   19.7336   17.9053   20.2402 H   0  0  0  0  0  0  0  0  0  0  0  0
   18.3841   16.8514   20.6235 H   0  0  0  0  0  0  0  0  0  0  0  0
   19.5302   17.4428   22.3671 C   0  0  0  0  0  0  0  0  0  0  0  0
   18.7198   17.1790   23.0595 H   0  0  0  0  0  0  0  0  0  0  0  0
   20.1785   16.5588   22.3047 H   0  0  0  0  0  0  0  0  0  0  0  0
   20.3299   18.6169   22.9696 C   0  0  0  0  0  0  0  0  0  0  0  0
   20.6905   18.3377   23.9628 H   0  0  0  0  0  0  0  0  0  0  0  0
   19.6793   19.4879   23.0782 H   0  0  0  0  0  0  0  0  0  0  0  0
   21.5325   19.0315   22.1435 N   0  3  0  0  0  0  0  0  0  0  0  0
   21.2330   19.2963   21.1934 H   0  0  0  0  0  0  0  0  0  0  0  0
   22.1710   18.2311   22.0184 H   0  0  0  0  0  0  0  0  0  0  0  0
   22.2530   20.1905   22.8188 C   0  0  0  0  0  0  0  0  0  0  0  0
   22.5880   19.8773   23.8100 H   0  0  0  0  0  0  0  0  0  0  0  0
   23.1149   20.4791   22.2132 H   0  0  0  0  0  0  0  0  0  0  0  0
   21.5677   21.0360   22.9104 H   0  0  0  0  0  0  0  0  0  0  0  0
  1  2  1  0  0  0  0
  1  3  1  0  0  0  0
  1  4  1  0  0  0  0
  1  5  1  0  0  0  0
  5  6  1  0  0  0  0
  5  7  1  0  0  0  0
  5  8  1  0  0  0  0
  8  9  1  0  0  0  0
  8 10  1  0  0  0  0
  8 11  1  0  0  0  0
 11 12  1  0  0  0  0
 11 13  1  0  0  0  0
 11 14  1  0  0  0  0
 14 15  1  0  0  0  0
 14 16  1  0  0  0  0
 14 17  1  0  0  0  0
 17 18  1  0  0  0  0
 17 19  1  0  0  0  0
 17 20  1  0  0  0  0
M  END
> <VConfSearch Rank>
334

> <Conf_Id>
23

> <Delta U+W>
0.896

> <U+W>
16.234

> <U>
70.374

> <W>
-54.140

> <W(PB)>
-56.046

> <W(SA)>
1.907

> <Valence>
1.257

> <Coulomb>
69.240

> <VdW>
-0.123

> <VdW6>
-4.336

> <VdW12>
4.213

> <Bond>
0.128

> <Angle>
0.603

> <Pdih>
0.526

> <Idih>
0.000

> <Tether>
0.000

$$$$
VeraChem MOL file


 20 19  0  0  0  0  0  0  0  0999 V2000     
   18.2056   20.1886   22.1177 C   0  0  0  0  0  0  0  0  0  0  0  0
   17.5090   19.9571   21.3015 H   0  0  0  0  0  0  0  0  0  0  0  0
   17.7451   20.9671   22.7396 H   0  0  0  0  0  0  0  0  0  0  0  0
   19.1179   20.6124   21.6793 H   0  0  0  0  0  0  0  0  0  0  0  0
   18.5104   18.9298   22.9620 C   0  0  0  0  0  0  0  0  0  0  0  0
   17.5856   18.5976   23.4542 H   0  0  0  0  0  0  0  0  0  0  0  0
   19.2076   19.1871   23.7709 H   0  0  0  0  0  0  0  0  0  0  0  0
   19.0766   17.7577   22.1221 C   0  0  0  0  0  0  0  0  0  0  0  0
   19.2446   16.8899   22.7736 H   0  0  0  0  0  0  0  0  0  0  0  0
   18.3246   17.4454   21.3854 H   0  0  0  0  0  0  0  0  0  0  0  0
   20.3856   18.0939   21.3774 C   0  0  0  0  0  0  0  0  0  0  0  0
   20.2154   18.9275   20.6920 H   0  0  0  0  0  0  0  0  0  0  0  0
   20.6990   17.2289   20.7873 H   0  0  0  0  0  0  0  0  0  0  0  0
   21.5363   18.4678   22.2921 N   0  3  0  0  0  0  0  0  0  0  0  0
   21.7257   17.7020   22.9566 H   0  0  0  0  0  0  0  0  0  0  0  0
   21.2757   19.2785   22.8729 H   0  0  0  0  0  0  0  0  0  0  0  0
   22.7772   18.7792   21.4664 C   0  0  0  0  0  0  0  0  0  0  0  0
   22.5627   19.6133   20.7948 H   0  0  0  0  0  0  0  0  0  0  0  0
   23.5964   19.0477   22.1370 H   0  0  0  0  0  0  0  0  0  0  0  0
   23.0524   17.8973   20.8840 H   0  0  0  0  0  0  0  0  0  0  0  0
  1  2  1  0  0  0  0
  1  3  1  0  0  0  0
  1  4  1  0  0  0  0
  1  5  1  0  0  0  0
  5  6  1  0  0  0  0
  5  7  1  0  0  0  0
  5  8  1  0  0  0  0
  8  9  1  0  0  0  0
  8 10  1  0  0  0  0
  8 11  1  0  0  0  0
 11 12  1  0  0  0  0
 11 13  1  0  0  0  0
 11 14  1  0  0  0  0
 14 15  1  0  0  0  0
 14 16  1  0  0  0  0
 14 17  1  0  0  0  0
 17 18  1  0  0  0  0
 17 19  1  0  0  0  0
 17 20  1  0  0  0  0
M  END
> <VConfSearch Rank>
335

> <Conf_Id>
24

> <Delta U+W>
0.792

> <U+W>
16.130

> <U>
70.374

> <W>
-54.243

> <W(PB)>
-56.130

> <W(SA)>
1.887

> <Valence>
1.257

> <Coulomb>
69.240

> <VdW>
-0.123

> <VdW6>
-4.336

> <VdW12>
4.213

> <Bond>
0.128

> <Angle>
0.603

> <Pdih>
0.526

> <Idih>
0.000

> <Tether>
0.000

$$$$
VeraChem MOL file


 20 19  0  0  0  0  0  0  0  0999 V2000     
   20.5224   19.9812   23.7741 C   0  0  0  0  0  0  0  0  0  0  0  0
   20.8834   20.8056   24.4028 H   0  0  0  0  0  0  0  0  0  0  0  0
   19.7030   20.3785   23.1636 H   0  0  0  0  0  0  0  0  0  0  0  0
   20.1256   19.2046   24.4408 H   0  0  0  0  0  0  0  0  0  0  0  0
   21.6717   19.4352   22.8963 C   0  0  0  0  0  0  0  0  0  0  0  0
   22.5451   19.2504   23.5375 H   0  0  0  0  0  0  0  0  0  0  0  0
   21.9810   20.2070   22.1775 H   0  0  0  0  0  0  0  0  0  0  0  0
   21.3351   18.1245   22.1402 C   0  0  0  0  0  0  0  0  0  0  0  0
   22.2401   17.7978   21.6110 H   0  0  0  0  0  0  0  0  0  0  0  0
   21.0968   17.3231   22.8520 H   0  0  0  0  0  0  0  0  0  0  0  0
   20.2036   18.2605   21.0994 C   0  0  0  0  0  0  0  0  0  0  0  0
   20.2819   17.4433   20.3779 H   0  0  0  0  0  0  0  0  0  0  0  0
   20.3120   19.2030   20.5570 H   0  0  0  0  0  0  0  0  0  0  0  0
   18.8052   18.2008   21.6842 N   0  3  0  0  0  0  0  0  0  0  0  0
   18.6966   18.9211   22.4121 H   0  0  0  0  0  0  0  0  0  0  0  0
   18.6605   17.3001   22.1658 H   0  0  0  0  0  0  0  0  0  0  0  0
   17.7711   18.3903   20.5828 C   0  0  0  0  0  0  0  0  0  0  0  0
   17.9232   19.3629   20.1098 H   0  0  0  0  0  0  0  0  0  0  0  0
   17.8861   17.5968   19.8412 H   0  0  0  0  0  0  0  0  0  0  0  0
   16.7704   18.3449   21.0181 H   0  0  0  0  0  0  0  0  0  0  0  0
  1  2  1  0  0  0  0
  1  3  1  0  0  0  0
  1  4  1  0  0  0  0
  1  5  1  0  0  0  0
  5  6  1  0  0  0  0
  5  7  1  0  0  0  0
  5  8  1  0  0  0  0
  8  9  1  0  0  0  0
  8 10  1  0  0  0  0
  8 11  1  0  0  0  0
 11 12  1  0  0  0  0
 11 13  1  0  0  0  0
 11 14  1  0  0  0  0
 14 15  1  0  0  0  0
 14 16  1  0  0  0  0
 14 17  1  0  0  0  0
 17 18  1  0  0  0  0
 17 19  1  0  0  0  0
 17 20  1  0  0  0  0
M  END
> <VConfSearch Rank>
336

> <Conf_Id>
26

> <Delta U+W>
2.888

> <U+W>
18.226

> <U>
72.042

> <W>
-53.816

> <W(PB)>
-55.689

> <W(SA)>
1.873

> <Valence>
2.428

> <Coulomb>
69.829

> <VdW>
-0.215

> <VdW6>
-4.563

> <VdW12>
4.348

> <Bond>
0.137

> <Angle>
0.936

> <Pdih>
1.356

> <Idih>
0.000

> <Tether>
0.000

$$$$
VeraChem MOL file


 20 19  0  0  0  0  0  0  0  0999 V2000     
   20.9159   16.9572   21.4848 C   0  0  0  0  0  0  0  0  0  0  0  0
   21.0077   15.9230   21.1280 H   0  0  0  0  0  0  0  0  0  0  0  0
   21.9021   17.2705   21.8515 H   0  0  0  0  0  0  0  0  0  0  0  0
   20.2114   16.9453   22.3248 H   0  0  0  0  0  0  0  0  0  0  0  0
   20.4230   17.8751   20.3429 C   0  0  0  0  0  0  0  0  0  0  0  0
   19.3975   17.5939   20.0647 H   0  0  0  0  0  0  0  0  0  0  0  0
   21.0405   17.6895   19.4527 H   0  0  0  0  0  0  0  0  0  0  0  0
   20.4776   19.3898   20.6678 C   0  0  0  0  0  0  0  0  0  0  0  0
   21.5106   19.6994   20.8745 H   0  0  0  0  0  0  0  0  0  0  0  0
   20.1730   19.9397   19.7675 H   0  0  0  0  0  0  0  0  0  0  0  0
   19.5533   19.8285   21.8234 C   0  0  0  0  0  0  0  0  0  0  0  0
   18.5940   19.3107   21.7460 H   0  0  0  0  0  0  0  0  0  0  0  0
   19.3662   20.9023   21.7432 H   0  0  0  0  0  0  0  0  0  0  0  0
   20.1222   19.5815   23.2078 N   0  3  0  0  0  0  0  0  0  0  0  0
   21.0088   20.0958   23.3235 H   0  0  0  0  0  0  0  0  0  0  0  0
   20.3663   18.5869   23.3162 H   0  0  0  0  0  0  0  0  0  0  0  0
   19.1155   20.0060   24.2683 C   0  0  0  0  0  0  0  0  0  0  0  0
   18.1981   19.4260   24.1464 H   0  0  0  0  0  0  0  0  0  0  0  0
   19.5383   19.8226   25.2585 H   0  0  0  0  0  0  0  0  0  0  0  0
   18.8980   21.0699   24.1523 H   0  0  0  0  0  0  0  0  0  0  0  0
  1  2  1  0  0  0  0
  1  3  1  0  0  0  0
  1  4  1  0  0  0  0
  1  5  1  0  0  0  0
  5  6  1  0  0  0  0
  5  7  1  0  0  0  0
  5  8  1  0  0  0  0
  8  9  1  0  0  0  0
  8 10  1  0  0  0  0
  8 11  1  0  0  0  0
 11 12  1  0  0  0  0
 11 13  1  0  0  0  0
 11 14  1  0  0  0  0
 14 15  1  0  0  0  0
 14 16  1  0  0  0  0
 14 17  1  0  0  0  0
 17 18  1  0  0  0  0
 17 19  1  0  0  0  0
 17 20  1  0  0  0  0
M  END
> <VConfSearch Rank>
337

> <Conf_Id>
5

> <Delta U+W>
2.950

> <U+W>
18.289

> <U>
72.042

> <W>
-53.753

> <W(PB)>
-55.644

> <W(SA)>
1.891

> <Valence>
2.428

> <Coulomb>
69.829

> <VdW>
-0.215

> <VdW6>
-4.563

> <VdW12>
4.348

> <Bond>
0.137

> <Angle>
0.936

> <Pdih>
1.356

> <Idih>
0.000

> <Tether>
0.000

$$$$
VeraChem MOL file


 20 19  0  0  0  0  0  0  0  0999 V2000     
   20.6082   16.5468   21.4058 C   0  0  0  0  0  0  0  0  0  0  0  0
   20.6885   15.8828   22.2763 H   0  0  0  0  0  0  0  0  0  0  0  0
   19.5435   16.6996   21.1892 H   0  0  0  0  0  0  0  0  0  0  0  0
   21.0493   16.0258   20.5462 H   0  0  0  0  0  0  0  0  0  0  0  0
   21.3366   17.8865   21.6600 C   0  0  0  0  0  0  0  0  0  0  0  0
   21.2459   18.5317   20.7755 H   0  0  0  0  0  0  0  0  0  0  0  0
   22.4111   17.6910   21.7831 H   0  0  0  0  0  0  0  0  0  0  0  0
   20.8182   18.6308   22.9156 C   0  0  0  0  0  0  0  0  0  0  0  0
   21.0030   18.0122   23.8037 H   0  0  0  0  0  0  0  0  0  0  0  0
   21.4016   19.5491   23.0615 H   0  0  0  0  0  0  0  0  0  0  0  0
   19.3130   18.9790   22.8636 C   0  0  0  0  0  0  0  0  0  0  0  0
   19.0271   19.5020   23.7796 H   0  0  0  0  0  0  0  0  0  0  0  0
   18.7354   18.0527   22.8141 H   0  0  0  0  0  0  0  0  0  0  0  0
   18.8886   19.8432   21.6862 N   0  3  0  0  0  0  0  0  0  0  0  0
   17.8589   19.9060   21.6565 H   0  0  0  0  0  0  0  0  0  0  0  0
   19.1544   19.3879   20.8006 H   0  0  0  0  0  0  0  0  0  0  0  0
   19.4915   21.2405   21.7795 C   0  0  0  0  0  0  0  0  0  0  0  0
   20.5803   21.1676   21.7479 H   0  0  0  0  0  0  0  0  0  0  0  0
   19.1395   21.8392   20.9365 H   0  0  0  0  0  0  0  0  0  0  0  0
   19.1783   21.7050   22.7169 H   0  0  0  0  0  0  0  0  0  0  0  0
  1  2  1  0  0  0  0
  1  3  1  0  0  0  0
  1  4  1  0  0  0  0
  1  5  1  0  0  0  0
  5  6  1  0  0  0  0
  5  7  1  0  0  0  0
  5  8  1  0  0  0  0
  8  9  1  0  0  0  0
  8 10  1  0  0  0  0
  8 11  1  0  0  0  0
 11 12  1  0  0  0  0
 11 13  1  0  0  0  0
 11 14  1  0  0  0  0
 14 15  1  0  0  0  0
 14 16  1  0  0  0  0
 14 17  1  0  0  0  0
 17 18  1  0  0  0  0
 17 19  1  0  0  0  0
 17 20  1  0  0  0  0
M  END
> <VConfSearch Rank>
338

> <Conf_Id>
52

> <Delta U+W>
0.784

> <U+W>
16.122

> <U>
70.777

> <W>
-54.655

> <W(PB)>
-56.491

> <W(SA)>
1.836

> <Valence>
1.529

> <Coulomb>
69.166

> <VdW>
0.082

> <VdW6>
-5.166

> <VdW12>
5.248

> <Bond>
0.171

> <Angle>
0.752

> <Pdih>
0.605

> <Idih>
0.000

> <Tether>
0.000

$$$$
VeraChem MOL file


 20 19  0  0  0  0  0  0  0  0999 V2000     
   18.0495   18.4432   21.5349 C   0  0  0  0  0  0  0  0  0  0  0  0
   16.9815   18.3787   21.2892 H   0  0  0  0  0  0  0  0  0  0  0  0
   18.5987   18.4080   20.5871 H   0  0  0  0  0  0  0  0  0  0  0  0
   18.3084   17.5568   22.1286 H   0  0  0  0  0  0  0  0  0  0  0  0
   18.3417   19.7461   22.3137 C   0  0  0  0  0  0  0  0  0  0  0  0
   17.6042   19.8414   23.1231 H   0  0  0  0  0  0  0  0  0  0  0  0
   18.1824   20.6114   21.6550 H   0  0  0  0  0  0  0  0  0  0  0  0
   19.7591   19.8169   22.9371 C   0  0  0  0  0  0  0  0  0  0  0  0
   19.8166   20.7341   23.5379 H   0  0  0  0  0  0  0  0  0  0  0  0
   19.9050   18.9900   23.6434 H   0  0  0  0  0  0  0  0  0  0  0  0
   20.9129   19.8601   21.9082 C   0  0  0  0  0  0  0  0  0  0  0  0
   21.8149   20.2391   22.3952 H   0  0  0  0  0  0  0  0  0  0  0  0
   20.6501   20.5551   21.1068 H   0  0  0  0  0  0  0  0  0  0  0  0
   21.2796   18.5293   21.2704 N   0  3  0  0  0  0  0  0  0  0  0  0
   21.9153   18.6916   20.4737 H   0  0  0  0  0  0  0  0  0  0  0  0
   20.4422   18.0902   20.8631 H   0  0  0  0  0  0  0  0  0  0  0  0
   21.9420   17.5967   22.2785 C   0  0  0  0  0  0  0  0  0  0  0  0
   22.8340   18.0800   22.6827 H   0  0  0  0  0  0  0  0  0  0  0  0
   21.2411   17.3782   23.0863 H   0  0  0  0  0  0  0  0  0  0  0  0
   22.2226   16.6683   21.7762 H   0  0  0  0  0  0  0  0  0  0  0  0
  1  2  1  0  0  0  0
  1  3  1  0  0  0  0
  1  4  1  0  0  0  0
  1  5  1  0  0  0  0
  5  6  1  0  0  0  0
  5  7  1  0  0  0  0
  5  8  1  0  0  0  0
  8  9  1  0  0  0  0
  8 10  1  0  0  0  0
  8 11  1  0  0  0  0
 11 12  1  0  0  0  0
 11 13  1  0  0  0  0
 11 14  1  0  0  0  0
 14 15  1  0  0  0  0
 14 16  1  0  0  0  0
 14 17  1  0  0  0  0
 17 18  1  0  0  0  0
 17 19  1  0  0  0  0
 17 20  1  0  0  0  0
M  END
> <VConfSearch Rank>
339

> <Conf_Id>
55

> <Delta U+W>
2.745

> <U+W>
18.083

> <U>
72.490

> <W>
-54.407

> <W(PB)>
-56.269

> <W(SA)>
1.861

> <Valence>
2.738

> <Coulomb>
69.795

> <VdW>
-0.043

> <VdW6>
-5.333

> <VdW12>
5.290

> <Bond>
0.182

> <Angle>
1.135

> <Pdih>
1.422

> <Idih>
0.000

> <Tether>
0.000

$$$$
VeraChem MOL file


 20 19  0  0  0  0  0  0  0  0999 V2000     
   20.5963   19.3739   20.0976 C   0  0  0  0  0  0  0  0  0  0  0  0
   20.8412   19.5094   19.0361 H   0  0  0  0  0  0  0  0  0  0  0  0
   20.4444   20.3699   20.5337 H   0  0  0  0  0  0  0  0  0  0  0  0
   21.4689   18.9091   20.5707 H   0  0  0  0  0  0  0  0  0  0  0  0
   19.3328   18.4962   20.2476 C   0  0  0  0  0  0  0  0  0  0  0  0
   19.5529   17.4743   19.9081 H   0  0  0  0  0  0  0  0  0  0  0  0
   18.5585   18.8809   19.5691 H   0  0  0  0  0  0  0  0  0  0  0  0
   18.7458   18.4561   21.6817 C   0  0  0  0  0  0  0  0  0  0  0  0
   18.4663   19.4663   22.0059 H   0  0  0  0  0  0  0  0  0  0  0  0
   17.8081   17.8860   21.6452 H   0  0  0  0  0  0  0  0  0  0  0  0
   19.6599   17.7837   22.7323 C   0  0  0  0  0  0  0  0  0  0  0  0
   20.0815   16.8701   22.3057 H   0  0  0  0  0  0  0  0  0  0  0  0
   19.0608   17.4999   23.6012 H   0  0  0  0  0  0  0  0  0  0  0  0
   20.8116   18.6332   23.2466 N   0  3  0  0  0  0  0  0  0  0  0  0
   21.3650   18.9932   22.4567 H   0  0  0  0  0  0  0  0  0  0  0  0
   21.4627   18.0420   23.7867 H   0  0  0  0  0  0  0  0  0  0  0  0
   20.3080   19.7778   24.1190 C   0  0  0  0  0  0  0  0  0  0  0  0
   19.6709   20.4349   23.5240 H   0  0  0  0  0  0  0  0  0  0  0  0
   19.7384   19.3679   24.9557 H   0  0  0  0  0  0  0  0  0  0  0  0
   21.1632   20.3418   24.4977 H   0  0  0  0  0  0  0  0  0  0  0  0
  1  2  1  0  0  0  0
  1  3  1  0  0  0  0
  1  4  1  0  0  0  0
  1  5  1  0  0  0  0
  5  6  1  0  0  0  0
  5  7  1  0  0  0  0
  5  8  1  0  0  0  0
  8  9  1  0  0  0  0
  8 10  1  0  0  0  0
  8 11  1  0  0  0  0
 11 12  1  0  0  0  0
 11 13  1  0  0  0  0
 11 14  1  0  0  0  0
 14 15  1  0  0  0  0
 14 16  1  0  0  0  0
 14 17  1  0  0  0  0
 17 18  1  0  0  0  0
 17 19  1  0  0  0  0
 17 20  1  0  0  0  0
M  END
> <VConfSearch Rank>
340

> <Conf_Id>
76

> <Delta U+W>
2.799

> <U+W>
18.137

> <U>
72.490

> <W>
-54.353

> <W(PB)>
-56.201

> <W(SA)>
1.848

> <Valence>
2.738

> <Coulomb>
69.795

> <VdW>
-0.043

> <VdW6>
-5.334

> <VdW12>
5.290

> <Bond>
0.182

> <Angle>
1.135

> <Pdih>
1.421

> <Idih>
0.000

> <Tether>
0.000

$$$$
VeraChem MOL file


 20 19  0  0  0  0  0  0  0  0999 V2000     
   18.9010   17.2167   21.0299 C   0  0  0  0  0  0  0  0  0  0  0  0
   19.3373   17.9665   20.3587 H   0  0  0  0  0  0  0  0  0  0  0  0
   19.4007   16.2578   20.8406 H   0  0  0  0  0  0  0  0  0  0  0  0
   17.8440   17.1025   20.7571 H   0  0  0  0  0  0  0  0  0  0  0  0
   19.0368   17.6294   22.5138 C   0  0  0  0  0  0  0  0  0  0  0  0
   18.5230   16.8840   23.1369 H   0  0  0  0  0  0  0  0  0  0  0  0
   18.5133   18.5776   22.6916 H   0  0  0  0  0  0  0  0  0  0  0  0
   20.5087   17.7361   22.9823 C   0  0  0  0  0  0  0  0  0  0  0  0
   20.5327   17.9887   24.0505 H   0  0  0  0  0  0  0  0  0  0  0  0
   20.9766   16.7464   22.8970 H   0  0  0  0  0  0  0  0  0  0  0  0
   21.3797   18.7500   22.2037 C   0  0  0  0  0  0  0  0  0  0  0  0
   21.3659   18.5267   21.1344 H   0  0  0  0  0  0  0  0  0  0  0  0
   22.4105   18.6395   22.5501 H   0  0  0  0  0  0  0  0  0  0  0  0
   21.0144   20.2145   22.3956 N   0  3  0  0  0  0  0  0  0  0  0  0
   21.8676   20.7897   22.3185 H   0  0  0  0  0  0  0  0  0  0  0  0
   20.6741   20.3769   23.3550 H   0  0  0  0  0  0  0  0  0  0  0  0
   19.9996   20.6838   21.3587 C   0  0  0  0  0  0  0  0  0  0  0  0
   19.7921   21.7443   21.5171 H   0  0  0  0  0  0  0  0  0  0  0  0
   20.4151   20.5372   20.3594 H   0  0  0  0  0  0  0  0  0  0  0  0
   19.0768   20.1120   21.4605 H   0  0  0  0  0  0  0  0  0  0  0  0
  1  2  1  0  0  0  0
  1  3  1  0  0  0  0
  1  4  1  0  0  0  0
  1  5  1  0  0  0  0
  5  6  1  0  0  0  0
  5  7  1  0  0  0  0
  5  8  1  0  0  0  0
  8  9  1  0  0  0  0
  8 10  1  0  0  0  0
  8 11  1  0  0  0  0
 11 12  1  0  0  0  0
 11 13  1  0  0  0  0
 11 14  1  0  0  0  0
 14 15  1  0  0  0  0
 14 16  1  0  0  0  0
 14 17  1  0  0  0  0
 17 18  1  0  0  0  0
 17 19  1  0  0  0  0
 17 20  1  0  0  0  0
M  END
> <VConfSearch Rank>
341

> <Conf_Id>
60

> <Delta U+W>
1.788

> <U+W>
17.127

> <U>
72.122

> <W>
-54.995

> <W(PB)>
-56.810

> <W(SA)>
1.815

> <Valence>
3.197

> <Coulomb>
69.115

> <VdW>
-0.190

> <VdW6>
-5.585

> <VdW12>
5.395

> <Bond>
0.177

> <Angle>
1.207

> <Pdih>
1.813

> <Idih>
0.000

> <Tether>
0.000

$$$$
VeraChem MOL file


 20 19  0  0  0  0  0  0  0  0999 V2000     
   18.1584   19.0938   22.7421 C   0  0  0  0  0  0  0  0  0  0  0  0
   17.1480   19.0675   22.3139 H   0  0  0  0  0  0  0  0  0  0  0  0
   18.0578   19.1929   23.8307 H   0  0  0  0  0  0  0  0  0  0  0  0
   18.6557   19.9948   22.3626 H   0  0  0  0  0  0  0  0  0  0  0  0
   18.9381   17.8111   22.3717 C   0  0  0  0  0  0  0  0  0  0  0  0
   19.0106   17.7148   21.2807 H   0  0  0  0  0  0  0  0  0  0  0  0
   18.3637   16.9375   22.7104 H   0  0  0  0  0  0  0  0  0  0  0  0
   20.3487   17.7529   23.0076 C   0  0  0  0  0  0  0  0  0  0  0  0
   20.2406   17.7391   24.1002 H   0  0  0  0  0  0  0  0  0  0  0  0
   20.8284   16.8019   22.7412 H   0  0  0  0  0  0  0  0  0  0  0  0
   21.2936   18.9183   22.6311 C   0  0  0  0  0  0  0  0  0  0  0  0
   22.2000   18.8210   23.2340 H   0  0  0  0  0  0  0  0  0  0  0  0
   20.8357   19.8791   22.8777 H   0  0  0  0  0  0  0  0  0  0  0  0
   21.7435   18.9570   21.1781 N   0  3  0  0  0  0  0  0  0  0  0  0
   21.8464   18.0002   20.8086 H   0  0  0  0  0  0  0  0  0  0  0  0
   22.6913   19.3617   21.1273 H   0  0  0  0  0  0  0  0  0  0  0  0
   20.7985   19.7873   20.3164 C   0  0  0  0  0  0  0  0  0  0  0  0
   20.7521   20.8037   20.7133 H   0  0  0  0  0  0  0  0  0  0  0  0
   21.1774   19.8110   19.2923 H   0  0  0  0  0  0  0  0  0  0  0  0
   19.8028   19.3428   20.3271 H   0  0  0  0  0  0  0  0  0  0  0  0
  1  2  1  0  0  0  0
  1  3  1  0  0  0  0
  1  4  1  0  0  0  0
  1  5  1  0  0  0  0
  5  6  1  0  0  0  0
  5  7  1  0  0  0  0
  5  8  1  0  0  0  0
  8  9  1  0  0  0  0
  8 10  1  0  0  0  0
  8 11  1  0  0  0  0
 11 12  1  0  0  0  0
 11 13  1  0  0  0  0
 11 14  1  0  0  0  0
 14 15  1  0  0  0  0
 14 16  1  0  0  0  0
 14 17  1  0  0  0  0
 17 18  1  0  0  0  0
 17 19  1  0  0  0  0
 17 20  1  0  0  0  0
M  END
> <VConfSearch Rank>
342

> <Conf_Id>
54

> <Delta U+W>
1.880

> <U+W>
17.218

> <U>
72.122

> <W>
-54.903

> <W(PB)>
-56.724

> <W(SA)>
1.821

> <Valence>
3.197

> <Coulomb>
69.115

> <VdW>
-0.190

> <VdW6>
-5.585

> <VdW12>
5.395

> <Bond>
0.177

> <Angle>
1.207

> <Pdih>
1.813

> <Idih>
0.000

> <Tether>
0.000

$$$$
VeraChem MOL file


 20 19  0  0  0  0  0  0  0  0999 V2000     
   18.4766   21.4564   21.0610 C   0  0  0  0  0  0  0  0  0  0  0  0
   17.4774   21.0056   21.0016 H   0  0  0  0  0  0  0  0  0  0  0  0
   18.3599   22.4851   21.4261 H   0  0  0  0  0  0  0  0  0  0  0  0
   18.8901   21.5053   20.0452 H   0  0  0  0  0  0  0  0  0  0  0  0
   19.3978   20.6459   21.9983 C   0  0  0  0  0  0  0  0  0  0  0  0
   18.9758   20.6445   23.0133 H   0  0  0  0  0  0  0  0  0  0  0  0
   20.3774   21.1403   22.0644 H   0  0  0  0  0  0  0  0  0  0  0  0
   19.5803   19.1925   21.5086 C   0  0  0  0  0  0  0  0  0  0  0  0
   18.6016   18.6983   21.4462 H   0  0  0  0  0  0  0  0  0  0  0  0
   20.0051   19.1947   20.4959 H   0  0  0  0  0  0  0  0  0  0  0  0
   20.5002   18.3910   22.4483 C   0  0  0  0  0  0  0  0  0  0  0  0
   20.0725   18.3736   23.4539 H   0  0  0  0  0  0  0  0  0  0  0  0
   21.4804   18.8716   22.5004 H   0  0  0  0  0  0  0  0  0  0  0  0
   20.7087   16.9556   22.0067 N   0  3  0  0  0  0  0  0  0  0  0  0
   21.1056   16.9294   21.0549 H   0  0  0  0  0  0  0  0  0  0  0  0
   19.8021   16.4684   21.9377 H   0  0  0  0  0  0  0  0  0  0  0  0
   21.6267   16.2383   22.9875 C   0  0  0  0  0  0  0  0  0  0  0  0
   21.1711   16.2483   23.9800 H   0  0  0  0  0  0  0  0  0  0  0  0
   21.7681   15.2067   22.6577 H   0  0  0  0  0  0  0  0  0  0  0  0
   22.5909   16.7503   23.0183 H   0  0  0  0  0  0  0  0  0  0  0  0
  1  2  1  0  0  0  0
  1  3  1  0  0  0  0
  1  4  1  0  0  0  0
  1  5  1  0  0  0  0
  5  6  1  0  0  0  0
  5  7  1  0  0  0  0
  5  8  1  0  0  0  0
  8  9  1  0  0  0  0
  8 10  1  0  0  0  0
  8 11  1  0  0  0  0
 11 12  1  0  0  0  0
 11 13  1  0  0  0  0
 11 14  1  0  0  0  0
 14 15  1  0  0  0  0
 14 16  1  0  0  0  0
 14 17  1  0  0  0  0
 17 18  1  0  0  0  0
 17 19  1  0  0  0  0
 17 20  1  0  0  0  0
M  END
> <VConfSearch Rank>
343

> <Conf_Id>
67

> <Delta U+W>
0.000

> <U+W>
15.338

> <U>
69.277

> <W>
-53.939

> <W(PB)>
-55.889

> <W(SA)>
1.950

> <Valence>
0.846

> <Coulomb>
68.557

> <VdW>
-0.127

> <VdW6>
-3.008

> <VdW12>
2.882

> <Bond>
0.088

> <Angle>
0.332

> <Pdih>
0.426

> <Idih>
0.000

> <Tether>
0.000

$$$$
VeraChem MOL file


 20 19  0  0  0  0  0  0  0  0999 V2000     
   21.1855   16.6133   23.6287 C   0  0  0  0  0  0  0  0  0  0  0  0
   22.0507   16.5408   22.9570 H   0  0  0  0  0  0  0  0  0  0  0  0
   21.5257   16.3665   24.6428 H   0  0  0  0  0  0  0  0  0  0  0  0
   20.4532   15.8536   23.3257 H   0  0  0  0  0  0  0  0  0  0  0  0
   20.5678   18.0280   23.5897 C   0  0  0  0  0  0  0  0  0  0  0  0
   21.3126   18.7611   23.9304 H   0  0  0  0  0  0  0  0  0  0  0  0
   19.7278   18.0792   24.2969 H   0  0  0  0  0  0  0  0  0  0  0  0
   20.0793   18.4028   22.1732 C   0  0  0  0  0  0  0  0  0  0  0  0
   20.9211   18.3503   21.4708 H   0  0  0  0  0  0  0  0  0  0  0  0
   19.3322   17.6726   21.8353 H   0  0  0  0  0  0  0  0  0  0  0  0
   19.4628   19.8167   22.1448 C   0  0  0  0  0  0  0  0  0  0  0  0
   20.2147   20.5554   22.4334 H   0  0  0  0  0  0  0  0  0  0  0  0
   18.6475   19.8627   22.8714 H   0  0  0  0  0  0  0  0  0  0  0  0
   18.8916   20.2313   20.7984 N   0  3  0  0  0  0  0  0  0  0  0  0
   18.3584   21.1085   20.9052 H   0  0  0  0  0  0  0  0  0  0  0  0
   18.1985   19.5390   20.4758 H   0  0  0  0  0  0  0  0  0  0  0  0
   19.9943   20.4191   19.7620 C   0  0  0  0  0  0  0  0  0  0  0  0
   20.5108   19.4701   19.6057 H   0  0  0  0  0  0  0  0  0  0  0  0
   19.5487   20.7524   18.8221 H   0  0  0  0  0  0  0  0  0  0  0  0
   20.7007   21.1707   20.1209 H   0  0  0  0  0  0  0  0  0  0  0  0
  1  2  1  0  0  0  0
  1  3  1  0  0  0  0
  1  4  1  0  0  0  0
  1  5  1  0  0  0  0
  5  6  1  0  0  0  0
  5  7  1  0  0  0  0
  5  8  1  0  0  0  0
  8  9  1  0  0  0  0
  8 10  1  0  0  0  0
  8 11  1  0  0  0  0
 11 12  1  0  0  0  0
 11 13  1  0  0  0  0
 11 14  1  0  0  0  0
 14 15  1  0  0  0  0
 14 16  1  0  0  0  0
 14 17  1  0  0  0  0
 17 18  1  0  0  0  0
 17 19  1  0  0  0  0
 17 20  1  0  0  0  0
M  END
> <VConfSearch Rank>
344

> <Conf_Id>
37

> <Delta U+W>
-0.021

> <U+W>
15.318

> <U>
69.657

> <W>
-54.340

> <W(PB)>
-56.238

> <W(SA)>
1.899

> <Valence>
1.137

> <Coulomb>
68.383

> <VdW>
0.138

> <VdW6>
-3.703

> <VdW12>
3.841

> <Bond>
0.125

> <Angle>
0.468

> <Pdih>
0.543

> <Idih>
0.000

> <Tether>
0.000

$$$$
VeraChem MOL file


 20 19  0  0  0  0  0  0  0  0999 V2000     
   19.7119   21.7030   22.6551 C   0  0  0  0  0  0  0  0  0  0  0  0
   19.1057   22.5885   22.4237 H   0  0  0  0  0  0  0  0  0  0  0  0
   19.5488   21.4507   23.7110 H   0  0  0  0  0  0  0  0  0  0  0  0
   20.7676   21.9760   22.5282 H   0  0  0  0  0  0  0  0  0  0  0  0
   19.3279   20.5235   21.7355 C   0  0  0  0  0  0  0  0  0  0  0  0
   19.4683   20.8182   20.6859 H   0  0  0  0  0  0  0  0  0  0  0  0
   18.2596   20.2965   21.8595 H   0  0  0  0  0  0  0  0  0  0  0  0
   20.1662   19.2621   22.0386 C   0  0  0  0  0  0  0  0  0  0  0  0
   21.2330   19.4884   21.9103 H   0  0  0  0  0  0  0  0  0  0  0  0
   20.0230   18.9717   23.0873 H   0  0  0  0  0  0  0  0  0  0  0  0
   19.7766   18.0901   21.1141 C   0  0  0  0  0  0  0  0  0  0  0  0
   19.8941   18.4048   20.0740 H   0  0  0  0  0  0  0  0  0  0  0  0
   18.7276   17.8266   21.2710 H   0  0  0  0  0  0  0  0  0  0  0  0
   20.6088   16.8320   21.3020 N   0  3  0  0  0  0  0  0  0  0  0  0
   21.6116   17.0472   21.1932 H   0  0  0  0  0  0  0  0  0  0  0  0
   20.3987   16.1631   20.5446 H   0  0  0  0  0  0  0  0  0  0  0  0
   20.3364   16.1835   22.6551 C   0  0  0  0  0  0  0  0  0  0  0  0
   19.2727   15.9489   22.7336 H   0  0  0  0  0  0  0  0  0  0  0  0
   20.9225   15.2655   22.7361 H   0  0  0  0  0  0  0  0  0  0  0  0
   20.6235   16.8724   23.4519 H   0  0  0  0  0  0  0  0  0  0  0  0
  1  2  1  0  0  0  0
  1  3  1  0  0  0  0
  1  4  1  0  0  0  0
  1  5  1  0  0  0  0
  5  6  1  0  0  0  0
  5  7  1  0  0  0  0
  5  8  1  0  0  0  0
  8  9  1  0  0  0  0
  8 10  1  0  0  0  0
  8 11  1  0  0  0  0
 11 12  1  0  0  0  0
 11 13  1  0  0  0  0
 11 14  1  0  0  0  0
 14 15  1  0  0  0  0
 14 16  1  0  0  0  0
 14 17  1  0  0  0  0
 17 18  1  0  0  0  0
 17 19  1  0  0  0  0
 17 20  1  0  0  0  0
M  END
> <VConfSearch Rank>
345

> <Conf_Id>
2

> <Delta U+W>
0.069

> <U+W>
15.407

> <U>
69.657

> <W>
-54.250

> <W(PB)>
-56.176

> <W(SA)>
1.926

> <Valence>
1.137

> <Coulomb>
68.383

> <VdW>
0.138

> <VdW6>
-3.703

> <VdW12>
3.841

> <Bond>
0.125

> <Angle>
0.468

> <Pdih>
0.543

> <Idih>
0.000

> <Tether>
0.000

$$$$
VeraChem MOL file


 20 19  0  0  0  0  0  0  0  0999 V2000     
   17.3696   18.9940   21.8686 C   0  0  0  0  0  0  0  0  0  0  0  0
   17.6879   17.9685   21.6427 H   0  0  0  0  0  0  0  0  0  0  0  0
   17.1969   19.0693   22.9500 H   0  0  0  0  0  0  0  0  0  0  0  0
   16.4090   19.1606   21.3641 H   0  0  0  0  0  0  0  0  0  0  0  0
   18.4156   20.0309   21.3984 C   0  0  0  0  0  0  0  0  0  0  0  0
   18.0154   21.0419   21.5590 H   0  0  0  0  0  0  0  0  0  0  0  0
   18.5742   19.9302   20.3154 H   0  0  0  0  0  0  0  0  0  0  0  0
   19.7683   19.9029   22.1373 C   0  0  0  0  0  0  0  0  0  0  0  0
   20.4321   20.7143   21.8105 H   0  0  0  0  0  0  0  0  0  0  0  0
   19.6128   20.0386   23.2159 H   0  0  0  0  0  0  0  0  0  0  0  0
   20.4597   18.5497   21.8801 C   0  0  0  0  0  0  0  0  0  0  0  0
   20.6166   18.4159   20.8069 H   0  0  0  0  0  0  0  0  0  0  0  0
   19.8234   17.7370   22.2385 H   0  0  0  0  0  0  0  0  0  0  0  0
   21.8051   18.4211   22.5670 N   0  3  0  0  0  0  0  0  0  0  0  0
   21.6997   18.5513   23.5849 H   0  0  0  0  0  0  0  0  0  0  0  0
   22.4365   19.1766   22.2592 H   0  0  0  0  0  0  0  0  0  0  0  0
   22.4151   17.0591   22.2637 C   0  0  0  0  0  0  0  0  0  0  0  0
   22.5492   16.9571   21.1846 H   0  0  0  0  0  0  0  0  0  0  0  0
   23.3828   16.9800   22.7639 H   0  0  0  0  0  0  0  0  0  0  0  0
   21.7470   16.2761   22.6287 H   0  0  0  0  0  0  0  0  0  0  0  0
  1  2  1  0  0  0  0
  1  3  1  0  0  0  0
  1  4  1  0  0  0  0
  1  5  1  0  0  0  0
  5  6  1  0  0  0  0
  5  7  1  0  0  0  0
  5  8  1  0  0  0  0
  8  9  1  0  0  0  0
  8 10  1  0  0  0  0
  8 11  1  0  0  0  0
 11 12  1  0  0  0  0
 11 13  1  0  0  0  0
 11 14  1  0  0  0  0
 14 15  1  0  0  0  0
 14 16  1  0  0  0  0
 14 17  1  0  0  0  0
 17 18  1  0  0  0  0
 17 19  1  0  0  0  0
 17 20  1  0  0  0  0
M  END
> <VConfSearch Rank>
346

> <Conf_Id>
34

> <Delta U+W>
0.276

> <U+W>
15.615

> <U>
69.798

> <W>
-54.184

> <W(PB)>
-56.116

> <W(SA)>
1.933

> <Valence>
1.134

> <Coulomb>
68.735

> <VdW>
-0.070

> <VdW6>
-3.565

> <VdW12>
3.494

> <Bond>
0.108

> <Angle>
0.456

> <Pdih>
0.569

> <Idih>
0.000

> <Tether>
0.000

$$$$
VeraChem MOL file


 20 19  0  0  0  0  0  0  0  0999 V2000     
   19.2543   16.3275   23.5904 C   0  0  0  0  0  0  0  0  0  0  0  0
   19.8157   16.3187   24.5337 H   0  0  0  0  0  0  0  0  0  0  0  0
   18.2244   16.0174   23.8097 H   0  0  0  0  0  0  0  0  0  0  0  0
   19.6965   15.5764   22.9229 H   0  0  0  0  0  0  0  0  0  0  0  0
   19.2761   17.7289   22.9426 C   0  0  0  0  0  0  0  0  0  0  0  0
   18.7990   18.4508   23.6204 H   0  0  0  0  0  0  0  0  0  0  0  0
   18.6728   17.7091   22.0249 H   0  0  0  0  0  0  0  0  0  0  0  0
   20.7180   18.1893   22.6228 C   0  0  0  0  0  0  0  0  0  0  0  0
   21.3183   18.1663   23.5421 H   0  0  0  0  0  0  0  0  0  0  0  0
   21.1914   17.4873   21.9235 H   0  0  0  0  0  0  0  0  0  0  0  0
   20.7751   19.6155   22.0397 C   0  0  0  0  0  0  0  0  0  0  0  0
   21.8194   19.9152   21.9200 H   0  0  0  0  0  0  0  0  0  0  0  0
   20.2980   20.3145   22.7312 H   0  0  0  0  0  0  0  0  0  0  0  0
   20.1006   19.7590   20.6882 N   0  3  0  0  0  0  0  0  0  0  0  0
   19.1087   19.4871   20.7554 H   0  0  0  0  0  0  0  0  0  0  0  0
   20.5200   19.1042   20.0104 H   0  0  0  0  0  0  0  0  0  0  0  0
   20.2276   21.1936   20.1938 C   0  0  0  0  0  0  0  0  0  0  0  0
   19.7484   21.8648   20.9098 H   0  0  0  0  0  0  0  0  0  0  0  0
   21.2852   21.4491   20.0984 H   0  0  0  0  0  0  0  0  0  0  0  0
   19.7384   21.2827   19.2213 H   0  0  0  0  0  0  0  0  0  0  0  0
  1  2  1  0  0  0  0
  1  3  1  0  0  0  0
  1  4  1  0  0  0  0
  1  5  1  0  0  0  0
  5  6  1  0  0  0  0
  5  7  1  0  0  0  0
  5  8  1  0  0  0  0
  8  9  1  0  0  0  0
  8 10  1  0  0  0  0
  8 11  1  0  0  0  0
 11 12  1  0  0  0  0
 11 13  1  0  0  0  0
 11 14  1  0  0  0  0
 14 15  1  0  0  0  0
 14 16  1  0  0  0  0
 14 17  1  0  0  0  0
 17 18  1  0  0  0  0
 17 19  1  0  0  0  0
 17 20  1  0  0  0  0
M  END
> <VConfSearch Rank>
347

> <Conf_Id>
50

> <Delta U+W>
0.319

> <U+W>
15.657

> <U>
69.962

> <W>
-54.305

> <W(PB)>
-56.223

> <W(SA)>
1.918

> <Valence>
0.982

> <Coulomb>
69.058

> <VdW>
-0.078

> <VdW6>
-3.548

> <VdW12>
3.471

> <Bond>
0.105

> <Angle>
0.408

> <Pdih>
0.469

> <Idih>
0.000

> <Tether>
0.000

$$$$
VeraChem MOL file


 20 19  0  0  0  0  0  0  0  0999 V2000     
   19.8395   16.2745   23.6153 C   0  0  0  0  0  0  0  0  0  0  0  0
   19.3323   16.1826   24.5845 H   0  0  0  0  0  0  0  0  0  0  0  0
   19.4625   15.4768   22.9620 H   0  0  0  0  0  0  0  0  0  0  0  0
   20.9114   16.1034   23.7793 H   0  0  0  0  0  0  0  0  0  0  0  0
   19.5868   17.6665   22.9969 C   0  0  0  0  0  0  0  0  0  0  0  0
   19.9395   18.4382   23.6944 H   0  0  0  0  0  0  0  0  0  0  0  0
   18.5051   17.8198   22.8748 H   0  0  0  0  0  0  0  0  0  0  0  0
   20.2923   17.8218   21.6289 C   0  0  0  0  0  0  0  0  0  0  0  0
   21.3769   17.6978   21.7480 H   0  0  0  0  0  0  0  0  0  0  0  0
   19.9588   17.0207   20.9559 H   0  0  0  0  0  0  0  0  0  0  0  0
   19.9991   19.1773   20.9550 C   0  0  0  0  0  0  0  0  0  0  0  0
   18.9196   19.3055   20.8421 H   0  0  0  0  0  0  0  0  0  0  0  0
   20.4490   19.1904   19.9590 H   0  0  0  0  0  0  0  0  0  0  0  0
   20.5365   20.3754   21.7151 N   0  3  0  0  0  0  0  0  0  0  0  0
   21.5551   20.2831   21.8498 H   0  0  0  0  0  0  0  0  0  0  0  0
   20.1352   20.4035   22.6641 H   0  0  0  0  0  0  0  0  0  0  0  0
   20.2115   21.6577   20.9609 C   0  0  0  0  0  0  0  0  0  0  0  0
   20.6034   22.5112   21.5185 H   0  0  0  0  0  0  0  0  0  0  0  0
   20.6736   21.6206   19.9721 H   0  0  0  0  0  0  0  0  0  0  0  0
   19.1280   21.7506   20.8592 H   0  0  0  0  0  0  0  0  0  0  0  0
  1  2  1  0  0  0  0
  1  3  1  0  0  0  0
  1  4  1  0  0  0  0
  1  5  1  0  0  0  0
  5  6  1  0  0  0  0
  5  7  1  0  0  0  0
  5  8  1  0  0  0  0
  8  9  1  0  0  0  0
  8 10  1  0  0  0  0
  8 11  1  0  0  0  0
 11 12  1  0  0  0  0
 11 13  1  0  0  0  0
 11 14  1  0  0  0  0
 14 15  1  0  0  0  0
 14 16  1  0  0  0  0
 14 17  1  0  0  0  0
 17 18  1  0  0  0  0
 17 19  1  0  0  0  0
 17 20  1  0  0  0  0
M  END
> <VConfSearch Rank>
348

> <Conf_Id>
35

> <Delta U+W>
0.360

> <U+W>
15.698

> <U>
69.962

> <W>
-54.264

> <W(PB)>
-56.166

> <W(SA)>
1.902

> <Valence>
0.982

> <Coulomb>
69.058

> <VdW>
-0.078

> <VdW6>
-3.548

> <VdW12>
3.471

> <Bond>
0.105

> <Angle>
0.408

> <Pdih>
0.469

> <Idih>
0.000

> <Tether>
0.000

$$$$
VeraChem MOL file


 20 19  0  0  0  0  0  0  0  0999 V2000     
   18.7720   19.2360   24.1833 C   0  0  0  0  0  0  0  0  0  0  0  0
   19.3269   18.3147   24.4013 H   0  0  0  0  0  0  0  0  0  0  0  0
   18.4924   19.6887   25.1434 H   0  0  0  0  0  0  0  0  0  0  0  0
   17.8465   18.9630   23.6599 H   0  0  0  0  0  0  0  0  0  0  0  0
   19.6158   20.2226   23.3438 C   0  0  0  0  0  0  0  0  0  0  0  0
   20.5373   20.4753   23.8870 H   0  0  0  0  0  0  0  0  0  0  0  0
   19.0583   21.1627   23.2278 H   0  0  0  0  0  0  0  0  0  0  0  0
   19.9706   19.6727   21.9425 C   0  0  0  0  0  0  0  0  0  0  0  0
   19.0462   19.4575   21.3912 H   0  0  0  0  0  0  0  0  0  0  0  0
   20.5005   20.4504   21.3769 H   0  0  0  0  0  0  0  0  0  0  0  0
   20.8521   18.4069   22.0085 C   0  0  0  0  0  0  0  0  0  0  0  0
   20.3102   17.6020   22.5108 H   0  0  0  0  0  0  0  0  0  0  0  0
   21.7478   18.6290   22.5941 H   0  0  0  0  0  0  0  0  0  0  0  0
   21.3124   17.8858   20.6569 N   0  3  0  0  0  0  0  0  0  0  0  0
   22.0215   17.1485   20.7943 H   0  0  0  0  0  0  0  0  0  0  0  0
   21.8019   18.6287   20.1352 H   0  0  0  0  0  0  0  0  0  0  0  0
   20.1429   17.3347   19.8483 C   0  0  0  0  0  0  0  0  0  0  0  0
   19.4288   18.1366   19.6508 H   0  0  0  0  0  0  0  0  0  0  0  0
   20.5177   16.9372   18.9026 H   0  0  0  0  0  0  0  0  0  0  0  0
   19.6575   16.5378   20.4156 H   0  0  0  0  0  0  0  0  0  0  0  0
  1  2  1  0  0  0  0
  1  3  1  0  0  0  0
  1  4  1  0  0  0  0
  1  5  1  0  0  0  0
  5  6  1  0  0  0  0
  5  7  1  0  0  0  0
  5  8  1  0  0  0  0
  8  9  1  0  0  0  0
  8 10  1  0  0  0  0
  8 11  1  0  0  0  0
 11 12  1  0  0  0  0
 11 13  1  0  0  0  0
 11 14  1  0  0  0  0
 14 15  1  0  0  0  0
 14 16  1  0  0  0  0
 14 17  1  0  0  0  0
 17 18  1  0  0  0  0
 17 19  1  0  0  0  0
 17 20  1  0  0  0  0
M  END
> <VConfSearch Rank>
349

> <Conf_Id>
33

> <Delta U+W>
0.372

> <U+W>
15.711

> <U>
70.163

> <W>
-54.452

> <W(PB)>
-56.363

> <W(SA)>
1.911

> <Valence>
1.420

> <Coulomb>
68.566

> <VdW>
0.177

> <VdW6>
-4.267

> <VdW12>
4.445

> <Bond>
0.146

> <Angle>
0.581

> <Pdih>
0.693

> <Idih>
0.000

> <Tether>
0.000

$$$$
VeraChem MOL file


 20 19  0  0  0  0  0  0  0  0999 V2000     
   19.7468   21.0468   20.7752 C   0  0  0  0  0  0  0  0  0  0  0  0
   19.3204   22.0182   20.4931 H   0  0  0  0  0  0  0  0  0  0  0  0
   20.6156   21.2409   21.4167 H   0  0  0  0  0  0  0  0  0  0  0  0
   20.1001   20.5574   19.8583 H   0  0  0  0  0  0  0  0  0  0  0  0
   18.6896   20.1798   21.4969 C   0  0  0  0  0  0  0  0  0  0  0  0
   17.8022   20.0879   20.8550 H   0  0  0  0  0  0  0  0  0  0  0  0
   18.3569   20.6891   22.4124 H   0  0  0  0  0  0  0  0  0  0  0  0
   19.2061   18.7644   21.8461 C   0  0  0  0  0  0  0  0  0  0  0  0
   18.3848   18.1820   22.2839 H   0  0  0  0  0  0  0  0  0  0  0  0
   19.5018   18.2473   20.9242 H   0  0  0  0  0  0  0  0  0  0  0  0
   20.3893   18.7933   22.8373 C   0  0  0  0  0  0  0  0  0  0  0  0
   20.0892   19.3456   23.7314 H   0  0  0  0  0  0  0  0  0  0  0  0
   21.2388   19.3130   22.3876 H   0  0  0  0  0  0  0  0  0  0  0  0
   20.8681   17.4237   23.2906 N   0  3  0  0  0  0  0  0  0  0  0  0
   20.0850   16.8863   23.6927 H   0  0  0  0  0  0  0  0  0  0  0  0
   21.5400   17.5321   24.0665 H   0  0  0  0  0  0  0  0  0  0  0  0
   21.5202   16.6578   22.1445 C   0  0  0  0  0  0  0  0  0  0  0  0
   21.8833   15.6975   22.5170 H   0  0  0  0  0  0  0  0  0  0  0  0
   20.7845   16.4898   21.3556 H   0  0  0  0  0  0  0  0  0  0  0  0
   22.3568   17.2405   21.7528 H   0  0  0  0  0  0  0  0  0  0  0  0
  1  2  1  0  0  0  0
  1  3  1  0  0  0  0
  1  4  1  0  0  0  0
  1  5  1  0  0  0  0
  5  6  1  0  0  0  0
  5  7  1  0  0  0  0
  5  8  1  0  0  0  0
  8  9  1  0  0  0  0
  8 10  1  0  0  0  0
  8 11  1  0  0  0  0
 11 12  1  0  0  0  0
 11 13  1  0  0  0  0
 11 14  1  0  0  0  0
 14 15  1  0  0  0  0
 14 16  1  0  0  0  0
 14 17  1  0  0  0  0
 17 18  1  0  0  0  0
 17 19  1  0  0  0  0
 17 20  1  0  0  0  0
M  END
> <VConfSearch Rank>
350

> <Conf_Id>
53

> <Delta U+W>
0.379

> <U+W>
15.717

> <U>
70.163

> <W>
-54.446

> <W(PB)>
-56.322

> <W(SA)>
1.876

> <Valence>
1.420

> <Coulomb>
68.566

> <VdW>
0.177

> <VdW6>
-4.267

> <VdW12>
4.445

> <Bond>
0.146

> <Angle>
0.581

> <Pdih>
0.693

> <Idih>
0.000

> <Tether>
0.000

$$$$
VeraChem MOL file


 20 19  0  0  0  0  0  0  0  0999 V2000     
   17.5960   19.1348   20.8089 C   0  0  0  0  0  0  0  0  0  0  0  0
   16.8273   18.3647   20.6629 H   0  0  0  0  0  0  0  0  0  0  0  0
   17.0935   20.0517   21.1434 H   0  0  0  0  0  0  0  0  0  0  0  0
   18.0599   19.3356   19.8344 H   0  0  0  0  0  0  0  0  0  0  0  0
   18.6470   18.6682   21.8393 C   0  0  0  0  0  0  0  0  0  0  0  0
   19.0998   17.7304   21.4900 H   0  0  0  0  0  0  0  0  0  0  0  0
   18.1483   18.4450   22.7931 H   0  0  0  0  0  0  0  0  0  0  0  0
   19.7439   19.7359   22.0618 C   0  0  0  0  0  0  0  0  0  0  0  0
   20.2636   19.9430   21.1175 H   0  0  0  0  0  0  0  0  0  0  0  0
   19.2743   20.6801   22.3680 H   0  0  0  0  0  0  0  0  0  0  0  0
   20.7669   19.3292   23.1457 C   0  0  0  0  0  0  0  0  0  0  0  0
   20.2410   19.1829   24.0926 H   0  0  0  0  0  0  0  0  0  0  0  0
   21.4897   20.1369   23.2858 H   0  0  0  0  0  0  0  0  0  0  0  0
   21.5495   18.0564   22.8589 N   0  3  0  0  0  0  0  0  0  0  0  0
   20.9036   17.2661   22.7164 H   0  0  0  0  0  0  0  0  0  0  0  0
   22.1051   17.7987   23.6896 H   0  0  0  0  0  0  0  0  0  0  0  0
   22.4680   18.2297   21.6542 C   0  0  0  0  0  0  0  0  0  0  0  0
   23.1529   19.0596   21.8409 H   0  0  0  0  0  0  0  0  0  0  0  0
   23.0372   17.3099   21.5030 H   0  0  0  0  0  0  0  0  0  0  0  0
   21.8664   18.4381   20.7673 H   0  0  0  0  0  0  0  0  0  0  0  0
  1  2  1  0  0  0  0
  1  3  1  0  0  0  0
  1  4  1  0  0  0  0
  1  5  1  0  0  0  0
  5  6  1  0  0  0  0
  5  7  1  0  0  0  0
  5  8  1  0  0  0  0
  8  9  1  0  0  0  0
  8 10  1  0  0  0  0
  8 11  1  0  0  0  0
 11 12  1  0  0  0  0
 11 13  1  0  0  0  0
 11 14  1  0  0  0  0
 14 15  1  0  0  0  0
 14 16  1  0  0  0  0
 14 17  1  0  0  0  0
 17 18  1  0  0  0  0
 17 19  1  0  0  0  0
 17 20  1  0  0  0  0
M  END
> <VConfSearch Rank>
351

> <Conf_Id>
49

> <Delta U+W>
0.268

> <U+W>
15.607

> <U>
70.298

> <W>
-54.692

> <W(PB)>
-56.576

> <W(SA)>
1.885

> <Valence>
1.245

> <Coulomb>
68.933

> <VdW>
0.120

> <VdW6>
-4.430

> <VdW12>
4.550

> <Bond>
0.148

> <Angle>
0.587

> <Pdih>
0.509

> <Idih>
0.000

> <Tether>
0.000

$$$$
VeraChem MOL file


 20 19  0  0  0  0  0  0  0  0999 V2000     
   17.4765   17.9922   22.6790 C   0  0  0  0  0  0  0  0  0  0  0  0
   16.8732   18.7447   22.1548 H   0  0  0  0  0  0  0  0  0  0  0  0
   17.2351   17.0073   22.2583 H   0  0  0  0  0  0  0  0  0  0  0  0
   17.1705   17.9909   23.7332 H   0  0  0  0  0  0  0  0  0  0  0  0
   18.9842   18.2992   22.5489 C   0  0  0  0  0  0  0  0  0  0  0  0
   19.5597   17.5465   23.1059 H   0  0  0  0  0  0  0  0  0  0  0  0
   19.1890   19.2718   23.0156 H   0  0  0  0  0  0  0  0  0  0  0  0
   19.4394   18.3179   21.0711 C   0  0  0  0  0  0  0  0  0  0  0  0
   19.1237   17.3841   20.5871 H   0  0  0  0  0  0  0  0  0  0  0  0
   18.9296   19.1296   20.5356 H   0  0  0  0  0  0  0  0  0  0  0  0
   20.9670   18.4583   20.8819 C   0  0  0  0  0  0  0  0  0  0  0  0
   21.1810   18.3947   19.8120 H   0  0  0  0  0  0  0  0  0  0  0  0
   21.4882   17.6330   21.3732 H   0  0  0  0  0  0  0  0  0  0  0  0
   21.5731   19.7643   21.3721 N   0  3  0  0  0  0  0  0  0  0  0  0
   20.9014   20.5380   21.2575 H   0  0  0  0  0  0  0  0  0  0  0  0
   22.3713   20.0166   20.7686 H   0  0  0  0  0  0  0  0  0  0  0  0
   22.0524   19.6495   22.8156 C   0  0  0  0  0  0  0  0  0  0  0  0
   22.5001   20.5983   23.1195 H   0  0  0  0  0  0  0  0  0  0  0  0
   21.2096   19.4176   23.4676 H   0  0  0  0  0  0  0  0  0  0  0  0
   22.7984   18.8547   22.8826 H   0  0  0  0  0  0  0  0  0  0  0  0
  1  2  1  0  0  0  0
  1  3  1  0  0  0  0
  1  4  1  0  0  0  0
  1  5  1  0  0  0  0
  5  6  1  0  0  0  0
  5  7  1  0  0  0  0
  5  8  1  0  0  0  0
  8  9  1  0  0  0  0
  8 10  1  0  0  0  0
  8 11  1  0  0  0  0
 11 12  1  0  0  0  0
 11 13  1  0  0  0  0
 11 14  1  0  0  0  0
 14 15  1  0  0  0  0
 14 16  1  0  0  0  0
 14 17  1  0  0  0  0
 17 18  1  0  0  0  0
 17 19  1  0  0  0  0
 17 20  1  0  0  0  0
M  END
> <VConfSearch Rank>
352

> <Conf_Id>
65

> <Delta U+W>
1.775

> <U+W>
17.114

> <U>
71.726

> <W>
-54.613

> <W(PB)>
-56.495

> <W(SA)>
1.883

> <Valence>
2.885

> <Coulomb>
68.822

> <VdW>
0.019

> <VdW6>
-4.600

> <VdW12>
4.619

> <Bond>
0.152

> <Angle>
0.862

> <Pdih>
1.871

> <Idih>
0.000

> <Tether>
0.000

$$$$
VeraChem MOL file


 20 19  0  0  0  0  0  0  0  0999 V2000     
   21.2856   18.0385   23.9542 C   0  0  0  0  0  0  0  0  0  0  0  0
   21.8231   18.0193   22.9978 H   0  0  0  0  0  0  0  0  0  0  0  0
   21.9805   18.4142   24.7165 H   0  0  0  0  0  0  0  0  0  0  0  0
   21.0233   17.0064   24.2206 H   0  0  0  0  0  0  0  0  0  0  0  0
   20.0255   18.9314   23.8821 C   0  0  0  0  0  0  0  0  0  0  0  0
   20.3140   19.9572   23.6152 H   0  0  0  0  0  0  0  0  0  0  0  0
   19.5750   18.9945   24.8826 H   0  0  0  0  0  0  0  0  0  0  0  0
   18.9614   18.4008   22.8890 C   0  0  0  0  0  0  0  0  0  0  0  0
   18.6091   17.4179   23.2288 H   0  0  0  0  0  0  0  0  0  0  0  0
   18.0848   19.0619   22.9061 H   0  0  0  0  0  0  0  0  0  0  0  0
   19.4683   18.2676   21.4377 C   0  0  0  0  0  0  0  0  0  0  0  0
   18.6707   17.8598   20.8115 H   0  0  0  0  0  0  0  0  0  0  0  0
   20.3123   17.5747   21.4048 H   0  0  0  0  0  0  0  0  0  0  0  0
   19.9146   19.5782   20.8182 N   0  3  0  0  0  0  0  0  0  0  0  0
   20.6643   19.9994   21.3865 H   0  0  0  0  0  0  0  0  0  0  0  0
   19.1409   20.2602   20.8330 H   0  0  0  0  0  0  0  0  0  0  0  0
   20.3936   19.3430   19.3920 C   0  0  0  0  0  0  0  0  0  0  0  0
   19.5747   18.9264   18.8017 H   0  0  0  0  0  0  0  0  0  0  0  0
   20.7127   20.2937   18.9593 H   0  0  0  0  0  0  0  0  0  0  0  0
   21.2327   18.6442   19.4048 H   0  0  0  0  0  0  0  0  0  0  0  0
  1  2  1  0  0  0  0
  1  3  1  0  0  0  0
  1  4  1  0  0  0  0
  1  5  1  0  0  0  0
  5  6  1  0  0  0  0
  5  7  1  0  0  0  0
  5  8  1  0  0  0  0
  8  9  1  0  0  0  0
  8 10  1  0  0  0  0
  8 11  1  0  0  0  0
 11 12  1  0  0  0  0
 11 13  1  0  0  0  0
 11 14  1  0  0  0  0
 14 15  1  0  0  0  0
 14 16  1  0  0  0  0
 14 17  1  0  0  0  0
 17 18  1  0  0  0  0
 17 19  1  0  0  0  0
 17 20  1  0  0  0  0
M  END
> <VConfSearch Rank>
353

> <Conf_Id>
23

> <Delta U+W>
0.896

> <U+W>
16.234

> <U>
70.374

> <W>
-54.140

> <W(PB)>
-56.046

> <W(SA)>
1.907

> <Valence>
1.257

> <Coulomb>
69.240

> <VdW>
-0.123

> <VdW6>
-4.336

> <VdW12>
4.213

> <Bond>
0.128

> <Angle>
0.603

> <Pdih>
0.526

> <Idih>
0.000

> <Tether>
0.000

$$$$
VeraChem MOL file


 20 19  0  0  0  0  0  0  0  0999 V2000     
   19.8972   21.1288   22.3107 C   0  0  0  0  0  0  0  0  0  0  0  0
   19.1547   21.3630   23.0846 H   0  0  0  0  0  0  0  0  0  0  0  0
   20.3321   22.0762   21.9670 H   0  0  0  0  0  0  0  0  0  0  0  0
   19.3731   20.6774   21.4589 H   0  0  0  0  0  0  0  0  0  0  0  0
   20.9990   20.1948   22.8621 C   0  0  0  0  0  0  0  0  0  0  0  0
   21.5553   20.7243   23.6483 H   0  0  0  0  0  0  0  0  0  0  0  0
   21.7286   19.9762   22.0706 H   0  0  0  0  0  0  0  0  0  0  0  0
   20.4386   18.8758   23.4503 C   0  0  0  0  0  0  0  0  0  0  0  0
   21.2660   18.2731   23.8478 H   0  0  0  0  0  0  0  0  0  0  0  0
   19.7917   19.1087   24.3065 H   0  0  0  0  0  0  0  0  0  0  0  0
   19.6342   18.0301   22.4410 C   0  0  0  0  0  0  0  0  0  0  0  0
   18.7813   18.6067   22.0751 H   0  0  0  0  0  0  0  0  0  0  0  0
   19.2499   17.1376   22.9413 H   0  0  0  0  0  0  0  0  0  0  0  0
   20.4398   17.5729   21.2399 N   0  3  0  0  0  0  0  0  0  0  0  0
   21.2571   17.0243   21.5479 H   0  0  0  0  0  0  0  0  0  0  0  0
   20.8269   18.3894   20.7438 H   0  0  0  0  0  0  0  0  0  0  0  0
   19.5621   16.7485   20.3080 C   0  0  0  0  0  0  0  0  0  0  0  0
   18.7227   17.3599   19.9696 H   0  0  0  0  0  0  0  0  0  0  0  0
   20.1540   16.4275   19.4481 H   0  0  0  0  0  0  0  0  0  0  0  0
   19.1892   15.8738   20.8453 H   0  0  0  0  0  0  0  0  0  0  0  0
  1  2  1  0  0  0  0
  1  3  1  0  0  0  0
  1  4  1  0  0  0  0
  1  5  1  0  0  0  0
  5  6  1  0  0  0  0
  5  7  1  0  0  0  0
  5  8  1  0  0  0  0
  8  9  1  0  0  0  0
  8 10  1  0  0  0  0
  8 11  1  0  0  0  0
 11 12  1  0  0  0  0
 11 13  1  0  0  0  0
 11 14  1  0  0  0  0
 14 15  1  0  0  0  0
 14 16  1  0  0  0  0
 14 17  1  0  0  0  0
 17 18  1  0  0  0  0
 17 19  1  0  0  0  0
 17 20  1  0  0  0  0
M  END
> <VConfSearch Rank>
354

> <Conf_Id>
24

> <Delta U+W>
0.792

> <U+W>
16.130

> <U>
70.374

> <W>
-54.243

> <W(PB)>
-56.130

> <W(SA)>
1.887

> <Valence>
1.257

> <Coulomb>
69.240

> <VdW>
-0.123

> <VdW6>
-4.336

> <VdW12>
4.213

> <Bond>
0.128

> <Angle>
0.603

> <Pdih>
0.526

> <Idih>
0.000

> <Tether>
0.000

$$$$
VeraChem MOL file


 20 19  0  0  0  0  0  0  0  0999 V2000     
   19.5660   20.7193   21.1385 C   0  0  0  0  0  0  0  0  0  0  0  0
   19.0511   21.6243   20.7903 H   0  0  0  0  0  0  0  0  0  0  0  0
   19.4157   20.6619   22.2230 H   0  0  0  0  0  0  0  0  0  0  0  0
   20.6369   20.8472   20.9336 H   0  0  0  0  0  0  0  0  0  0  0  0
   19.0011   19.4727   20.4199 C   0  0  0  0  0  0  0  0  0  0  0  0
   18.9803   19.6706   19.3389 H   0  0  0  0  0  0  0  0  0  0  0  0
   17.9550   19.3202   20.7206 H   0  0  0  0  0  0  0  0  0  0  0  0
   19.8075   18.1713   20.6626 C   0  0  0  0  0  0  0  0  0  0  0  0
   19.3579   17.3765   20.0527 H   0  0  0  0  0  0  0  0  0  0  0  0
   20.8366   18.2855   20.2970 H   0  0  0  0  0  0  0  0  0  0  0  0
   19.8181   17.6910   22.1294 C   0  0  0  0  0  0  0  0  0  0  0  0
   20.0646   16.6265   22.1548 H   0  0  0  0  0  0  0  0  0  0  0  0
   18.8252   17.8195   22.5673 H   0  0  0  0  0  0  0  0  0  0  0  0
   20.8280   18.3993   23.0123 N   0  3  0  0  0  0  0  0  0  0  0  0
   20.6714   19.4167   22.9806 H   0  0  0  0  0  0  0  0  0  0  0  0
   21.7814   18.2569   22.6451 H   0  0  0  0  0  0  0  0  0  0  0  0
   20.7228   17.8841   24.4413 C   0  0  0  0  0  0  0  0  0  0  0  0
   19.7162   18.0750   24.8195 H   0  0  0  0  0  0  0  0  0  0  0  0
   20.9243   16.8108   24.4523 H   0  0  0  0  0  0  0  0  0  0  0  0
   21.4549   18.4024   25.0645 H   0  0  0  0  0  0  0  0  0  0  0  0
  1  2  1  0  0  0  0
  1  3  1  0  0  0  0
  1  4  1  0  0  0  0
  1  5  1  0  0  0  0
  5  6  1  0  0  0  0
  5  7  1  0  0  0  0
  5  8  1  0  0  0  0
  8  9  1  0  0  0  0
  8 10  1  0  0  0  0
  8 11  1  0  0  0  0
 11 12  1  0  0  0  0
 11 13  1  0  0  0  0
 11 14  1  0  0  0  0
 14 15  1  0  0  0  0
 14 16  1  0  0  0  0
 14 17  1  0  0  0  0
 17 18  1  0  0  0  0
 17 19  1  0  0  0  0
 17 20  1  0  0  0  0
M  END
> <VConfSearch Rank>
355

> <Conf_Id>
26

> <Delta U+W>
2.888

> <U+W>
18.226

> <U>
72.042

> <W>
-53.816

> <W(PB)>
-55.689

> <W(SA)>
1.873

> <Valence>
2.428

> <Coulomb>
69.829

> <VdW>
-0.215

> <VdW6>
-4.563

> <VdW12>
4.348

> <Bond>
0.137

> <Angle>
0.936

> <Pdih>
1.356

> <Idih>
0.000

> <Tether>
0.000

$$$$
VeraChem MOL file


 20 19  0  0  0  0  0  0  0  0999 V2000     
   19.9711   19.3966   24.1661 C   0  0  0  0  0  0  0  0  0  0  0  0
   19.7296   19.3648   25.2365 H   0  0  0  0  0  0  0  0  0  0  0  0
   20.5035   20.3372   23.9738 H   0  0  0  0  0  0  0  0  0  0  0  0
   19.0189   19.4095   23.6227 H   0  0  0  0  0  0  0  0  0  0  0  0
   20.8316   18.1733   23.7754 C   0  0  0  0  0  0  0  0  0  0  0  0
   20.2367   17.2563   23.8904 H   0  0  0  0  0  0  0  0  0  0  0  0
   21.6628   18.0872   24.4893 H   0  0  0  0  0  0  0  0  0  0  0  0
   21.4221   18.2347   22.3435 C   0  0  0  0  0  0  0  0  0  0  0  0
   22.0797   19.1077   22.2384 H   0  0  0  0  0  0  0  0  0  0  0  0
   22.0649   17.3553   22.2051 H   0  0  0  0  0  0  0  0  0  0  0  0
   20.3669   18.2294   21.2170 C   0  0  0  0  0  0  0  0  0  0  0  0
   19.5708   17.5214   21.4601 H   0  0  0  0  0  0  0  0  0  0  0  0
   20.8390   17.9024   20.2871 H   0  0  0  0  0  0  0  0  0  0  0  0
   19.7391   19.5825   20.9415 N   0  3  0  0  0  0  0  0  0  0  0  0
   20.4657   20.2610   20.6662 H   0  0  0  0  0  0  0  0  0  0  0  0
   19.3242   19.9608   21.8049 H   0  0  0  0  0  0  0  0  0  0  0  0
   18.6850   19.4555   19.8501 C   0  0  0  0  0  0  0  0  0  0  0  0
   17.9106   18.7582   20.1770 H   0  0  0  0  0  0  0  0  0  0  0  0
   18.2423   20.4363   19.6627 H   0  0  0  0  0  0  0  0  0  0  0  0
   19.1555   19.0837   18.9373 H   0  0  0  0  0  0  0  0  0  0  0  0
  1  2  1  0  0  0  0
  1  3  1  0  0  0  0
  1  4  1  0  0  0  0
  1  5  1  0  0  0  0
  5  6  1  0  0  0  0
  5  7  1  0  0  0  0
  5  8  1  0  0  0  0
  8  9  1  0  0  0  0
  8 10  1  0  0  0  0
  8 11  1  0  0  0  0
 11 12  1  0  0  0  0
 11 13  1  0  0  0  0
 11 14  1  0  0  0  0
 14 15  1  0  0  0  0
 14 16  1  0  0  0  0
 14 17  1  0  0  0  0
 17 18  1  0  0  0  0
 17 19  1  0  0  0  0
 17 20  1  0  0  0  0
M  END
> <VConfSearch Rank>
356

> <Conf_Id>
5

> <Delta U+W>
2.950

> <U+W>
18.289

> <U>
72.042

> <W>
-53.753

> <W(PB)>
-55.644

> <W(SA)>
1.891

> <Valence>
2.428

> <Coulomb>
69.829

> <VdW>
-0.215

> <VdW6>
-4.563

> <VdW12>
4.348

> <Bond>
0.137

> <Angle>
0.936

> <Pdih>
1.356

> <Idih>
0.000

> <Tether>
0.000

$$$$
VeraChem MOL file


 20 19  0  0  0  0  0  0  0  0999 V2000     
   21.8439   20.4905   22.4119 C   0  0  0  0  0  0  0  0  0  0  0  0
   21.4696   21.5204   22.4768 H   0  0  0  0  0  0  0  0  0  0  0  0
   21.6411   19.9919   23.3679 H   0  0  0  0  0  0  0  0  0  0  0  0
   22.9336   20.5381   22.2881 H   0  0  0  0  0  0  0  0  0  0  0  0
   21.1960   19.7377   21.2271 C   0  0  0  0  0  0  0  0  0  0  0  0
   21.5880   18.7126   21.1801 H   0  0  0  0  0  0  0  0  0  0  0  0
   21.4996   20.2212   20.2880 H   0  0  0  0  0  0  0  0  0  0  0  0
   19.6489   19.7120   21.2972 C   0  0  0  0  0  0  0  0  0  0  0  0
   19.2683   20.7406   21.2472 H   0  0  0  0  0  0  0  0  0  0  0  0
   19.2525   19.2007   20.4105 H   0  0  0  0  0  0  0  0  0  0  0  0
   19.0883   19.0420   22.5725 C   0  0  0  0  0  0  0  0  0  0  0  0
   17.9959   19.0614   22.5454 H   0  0  0  0  0  0  0  0  0  0  0  0
   19.4105   19.6143   23.4458 H   0  0  0  0  0  0  0  0  0  0  0  0
   19.5196   17.5997   22.7893 N   0  3  0  0  0  0  0  0  0  0  0  0
   19.2161   17.2845   23.7240 H   0  0  0  0  0  0  0  0  0  0  0  0
   20.5482   17.5382   22.8073 H   0  0  0  0  0  0  0  0  0  0  0  0
   18.9404   16.6817   21.7186 C   0  0  0  0  0  0  0  0  0  0  0  0
   19.3166   16.9854   20.7396 H   0  0  0  0  0  0  0  0  0  0  0  0
   19.2451   15.6535   21.9256 H   0  0  0  0  0  0  0  0  0  0  0  0
   17.8508   16.7531   21.7352 H   0  0  0  0  0  0  0  0  0  0  0  0
  1  2  1  0  0  0  0
  1  3  1  0  0  0  0
  1  4  1  0  0  0  0
  1  5  1  0  0  0  0
  5  6  1  0  0  0  0
  5  7  1  0  0  0  0
  5  8  1  0  0  0  0
  8  9  1  0  0  0  0
  8 10  1  0  0  0  0
  8 11  1  0  0  0  0
 11 12  1  0  0  0  0
 11 13  1  0  0  0  0
 11 14  1  0  0  0  0
 14 15  1  0  0  0  0
 14 16  1  0  0  0  0
 14 17  1  0  0  0  0
 17 18  1  0  0  0  0
 17 19  1  0  0  0  0
 17 20  1  0  0  0  0
M  END
> <VConfSearch Rank>
357

> <Conf_Id>
52

> <Delta U+W>
0.784

> <U+W>
16.122

> <U>
70.777

> <W>
-54.655

> <W(PB)>
-56.491

> <W(SA)>
1.836

> <Valence>
1.529

> <Coulomb>
69.166

> <VdW>
0.082

> <VdW6>
-5.166

> <VdW12>
5.248

> <Bond>
0.171

> <Angle>
0.752

> <Pdih>
0.605

> <Idih>
0.000

> <Tether>
0.000

$$$$
VeraChem MOL file


 20 19  0  0  0  0  0  0  0  0999 V2000     
   17.9597   18.6224   21.9085 C   0  0  0  0  0  0  0  0  0  0  0  0
   16.9009   18.3382   21.9663 H   0  0  0  0  0  0  0  0  0  0  0  0
   18.0933   19.4938   22.5595 H   0  0  0  0  0  0  0  0  0  0  0  0
   18.1687   18.9179   20.8721 H   0  0  0  0  0  0  0  0  0  0  0  0
   18.8554   17.4416   22.3476 C   0  0  0  0  0  0  0  0  0  0  0  0
   18.5197   16.5356   21.8236 H   0  0  0  0  0  0  0  0  0  0  0  0
   18.7058   17.2453   23.4186 H   0  0  0  0  0  0  0  0  0  0  0  0
   20.3653   17.6391   22.0578 C   0  0  0  0  0  0  0  0  0  0  0  0
   20.8830   16.7077   22.3225 H   0  0  0  0  0  0  0  0  0  0  0  0
   20.5308   17.7749   20.9817 H   0  0  0  0  0  0  0  0  0  0  0  0
   21.0291   18.7850   22.8565 C   0  0  0  0  0  0  0  0  0  0  0  0
   22.1128   18.6438   22.8547 H   0  0  0  0  0  0  0  0  0  0  0  0
   20.6891   18.7397   23.8942 H   0  0  0  0  0  0  0  0  0  0  0  0
   20.7644   20.1904   22.3396 N   0  3  0  0  0  0  0  0  0  0  0  0
   21.0835   20.8809   23.0372 H   0  0  0  0  0  0  0  0  0  0  0  0
   19.7512   20.3477   22.2471 H   0  0  0  0  0  0  0  0  0  0  0  0
   21.4720   20.4333   21.0110 C   0  0  0  0  0  0  0  0  0  0  0  0
   22.5447   20.2747   21.1411 H   0  0  0  0  0  0  0  0  0  0  0  0
   21.0838   19.7417   20.2609 H   0  0  0  0  0  0  0  0  0  0  0  0
   21.2886   21.4613   20.6908 H   0  0  0  0  0  0  0  0  0  0  0  0
  1  2  1  0  0  0  0
  1  3  1  0  0  0  0
  1  4  1  0  0  0  0
  1  5  1  0  0  0  0
  5  6  1  0  0  0  0
  5  7  1  0  0  0  0
  5  8  1  0  0  0  0
  8  9  1  0  0  0  0
  8 10  1  0  0  0  0
  8 11  1  0  0  0  0
 11 12  1  0  0  0  0
 11 13  1  0  0  0  0
 11 14  1  0  0  0  0
 14 15  1  0  0  0  0
 14 16  1  0  0  0  0
 14 17  1  0  0  0  0
 17 18  1  0  0  0  0
 17 19  1  0  0  0  0
 17 20  1  0  0  0  0
M  END
> <VConfSearch Rank>
358

> <Conf_Id>
55

> <Delta U+W>
2.745

> <U+W>
18.083

> <U>
72.490

> <W>
-54.407

> <W(PB)>
-56.269

> <W(SA)>
1.861

> <Valence>
2.738

> <Coulomb>
69.795

> <VdW>
-0.043

> <VdW6>
-5.333

> <VdW12>
5.290

> <Bond>
0.182

> <Angle>
1.135

> <Pdih>
1.422

> <Idih>
0.000

> <Tether>
0.000

$$$$
VeraChem MOL file


 20 19  0  0  0  0  0  0  0  0999 V2000     
   19.8977   17.3373   20.5433 C   0  0  0  0  0  0  0  0  0  0  0  0
   19.7543   16.4718   19.8832 H   0  0  0  0  0  0  0  0  0  0  0  0
   19.9794   18.2296   19.9089 H   0  0  0  0  0  0  0  0  0  0  0  0
   20.8486   17.1864   21.0670 H   0  0  0  0  0  0  0  0  0  0  0  0
   18.7161   17.4573   21.5326 C   0  0  0  0  0  0  0  0  0  0  0  0
   18.7308   16.6060   22.2276 H   0  0  0  0  0  0  0  0  0  0  0  0
   17.7777   17.3708   20.9669 H   0  0  0  0  0  0  0  0  0  0  0  0
   18.6808   18.7849   22.3320 C   0  0  0  0  0  0  0  0  0  0  0  0
   18.6045   19.6387   21.6470 H   0  0  0  0  0  0  0  0  0  0  0  0
   17.7563   18.7961   22.9243 H   0  0  0  0  0  0  0  0  0  0  0  0
   19.8634   18.9789   23.3094 C   0  0  0  0  0  0  0  0  0  0  0  0
   20.0417   18.0423   23.8436 H   0  0  0  0  0  0  0  0  0  0  0  0
   19.5980   19.7387   24.0487 H   0  0  0  0  0  0  0  0  0  0  0  0
   21.1771   19.4140   22.6790 N   0  3  0  0  0  0  0  0  0  0  0  0
   21.4335   18.7706   21.9173 H   0  0  0  0  0  0  0  0  0  0  0  0
   21.9373   19.3303   23.3720 H   0  0  0  0  0  0  0  0  0  0  0  0
   21.0977   20.8490   22.1698 C   0  0  0  0  0  0  0  0  0  0  0  0
   20.3353   20.9166   21.3914 H   0  0  0  0  0  0  0  0  0  0  0  0
   20.8396   21.5107   22.9993 H   0  0  0  0  0  0  0  0  0  0  0  0
   22.0676   21.1366   21.7581 H   0  0  0  0  0  0  0  0  0  0  0  0
  1  2  1  0  0  0  0
  1  3  1  0  0  0  0
  1  4  1  0  0  0  0
  1  5  1  0  0  0  0
  5  6  1  0  0  0  0
  5  7  1  0  0  0  0
  5  8  1  0  0  0  0
  8  9  1  0  0  0  0
  8 10  1  0  0  0  0
  8 11  1  0  0  0  0
 11 12  1  0  0  0  0
 11 13  1  0  0  0  0
 11 14  1  0  0  0  0
 14 15  1  0  0  0  0
 14 16  1  0  0  0  0
 14 17  1  0  0  0  0
 17 18  1  0  0  0  0
 17 19  1  0  0  0  0
 17 20  1  0  0  0  0
M  END
> <VConfSearch Rank>
359

> <Conf_Id>
76

> <Delta U+W>
2.799

> <U+W>
18.137

> <U>
72.490

> <W>
-54.353

> <W(PB)>
-56.201

> <W(SA)>
1.848

> <Valence>
2.738

> <Coulomb>
69.795

> <VdW>
-0.043

> <VdW6>
-5.334

> <VdW12>
5.290

> <Bond>
0.182

> <Angle>
1.135

> <Pdih>
1.421

> <Idih>
0.000

> <Tether>
0.000

$$$$
VeraChem MOL file


 20 19  0  0  0  0  0  0  0  0999 V2000     
   18.3405   18.5382   23.2348 C   0  0  0  0  0  0  0  0  0  0  0  0
   18.2382   18.1214   22.2254 H   0  0  0  0  0  0  0  0  0  0  0  0
   18.3408   17.7048   23.9493 H   0  0  0  0  0  0  0  0  0  0  0  0
   17.4501   19.1486   23.4334 H   0  0  0  0  0  0  0  0  0  0  0  0
   19.6238   19.3892   23.3750 C   0  0  0  0  0  0  0  0  0  0  0  0
   19.6417   19.8402   24.3770 H   0  0  0  0  0  0  0  0  0  0  0  0
   19.5980   20.2304   22.6704 H   0  0  0  0  0  0  0  0  0  0  0  0
   20.9216   18.5679   23.1786 C   0  0  0  0  0  0  0  0  0  0  0  0
   21.7912   19.2200   23.3335 H   0  0  0  0  0  0  0  0  0  0  0  0
   20.9754   17.8035   23.9649 H   0  0  0  0  0  0  0  0  0  0  0  0
   21.0575   17.8615   21.8092 C   0  0  0  0  0  0  0  0  0  0  0  0
   20.1986   17.2119   21.6251 H   0  0  0  0  0  0  0  0  0  0  0  0
   21.9474   17.2280   21.8474 H   0  0  0  0  0  0  0  0  0  0  0  0
   21.2331   18.7808   20.6095 N   0  3  0  0  0  0  0  0  0  0  0  0
   21.8119   18.3053   19.8998 H   0  0  0  0  0  0  0  0  0  0  0  0
   21.7756   19.6164   20.8739 H   0  0  0  0  0  0  0  0  0  0  0  0
   19.8932   19.1611   19.9888 C   0  0  0  0  0  0  0  0  0  0  0  0
   20.0709   19.7942   19.1167 H   0  0  0  0  0  0  0  0  0  0  0  0
   19.3704   18.2528   19.6816 H   0  0  0  0  0  0  0  0  0  0  0  0
   19.2900   19.7039   20.7171 H   0  0  0  0  0  0  0  0  0  0  0  0
  1  2  1  0  0  0  0
  1  3  1  0  0  0  0
  1  4  1  0  0  0  0
  1  5  1  0  0  0  0
  5  6  1  0  0  0  0
  5  7  1  0  0  0  0
  5  8  1  0  0  0  0
  8  9  1  0  0  0  0
  8 10  1  0  0  0  0
  8 11  1  0  0  0  0
 11 12  1  0  0  0  0
 11 13  1  0  0  0  0
 11 14  1  0  0  0  0
 14 15  1  0  0  0  0
 14 16  1  0  0  0  0
 14 17  1  0  0  0  0
 17 18  1  0  0  0  0
 17 19  1  0  0  0  0
 17 20  1  0  0  0  0
M  END
> <VConfSearch Rank>
360

> <Conf_Id>
60

> <Delta U+W>
1.788

> <U+W>
17.127

> <U>
72.122

> <W>
-54.995

> <W(PB)>
-56.810

> <W(SA)>
1.815

> <Valence>
3.197

> <Coulomb>
69.115

> <VdW>
-0.190

> <VdW6>
-5.585

> <VdW12>
5.395

> <Bond>
0.177

> <Angle>
1.207

> <Pdih>
1.813

> <Idih>
0.000

> <Tether>
0.000

$$$$
VeraChem MOL file


 20 19  0  0  0  0  0  0  0  0999 V2000     
   18.0748   18.3010   22.2599 C   0  0  0  0  0  0  0  0  0  0  0  0
   17.1427   18.5245   21.7251 H   0  0  0  0  0  0  0  0  0  0  0  0
   17.8457   17.5587   23.0354 H   0  0  0  0  0  0  0  0  0  0  0  0
   18.4011   19.2229   22.7566 H   0  0  0  0  0  0  0  0  0  0  0  0
   19.1470   17.7681   21.2816 C   0  0  0  0  0  0  0  0  0  0  0  0
   19.3484   18.5120   20.5000 H   0  0  0  0  0  0  0  0  0  0  0  0
   18.7441   16.8890   20.7594 H   0  0  0  0  0  0  0  0  0  0  0  0
   20.4651   17.3640   21.9865 C   0  0  0  0  0  0  0  0  0  0  0  0
   20.2527   16.5423   22.6831 H   0  0  0  0  0  0  0  0  0  0  0  0
   21.1637   16.9557   21.2443 H   0  0  0  0  0  0  0  0  0  0  0  0
   21.1685   18.4944   22.7740 C   0  0  0  0  0  0  0  0  0  0  0  0
   22.0089   18.0514   23.3146 H   0  0  0  0  0  0  0  0  0  0  0  0
   20.4910   18.9255   23.5148 H   0  0  0  0  0  0  0  0  0  0  0  0
   21.7438   19.6232   21.9316 N   0  3  0  0  0  0  0  0  0  0  0  0
   22.0882   19.2593   21.0307 H   0  0  0  0  0  0  0  0  0  0  0  0
   22.5818   20.0023   22.3995 H   0  0  0  0  0  0  0  0  0  0  0  0
   20.7336   20.7471   21.7279 C   0  0  0  0  0  0  0  0  0  0  0  0
   20.4285   21.1350   22.7021 H   0  0  0  0  0  0  0  0  0  0  0  0
   21.1999   21.5448   21.1456 H   0  0  0  0  0  0  0  0  0  0  0  0
   19.8619   20.3672   21.1942 H   0  0  0  0  0  0  0  0  0  0  0  0
  1  2  1  0  0  0  0
  1  3  1  0  0  0  0
  1  4  1  0  0  0  0
  1  5  1  0  0  0  0
  5  6  1  0  0  0  0
  5  7  1  0  0  0  0
  5  8  1  0  0  0  0
  8  9  1  0  0  0  0
  8 10  1  0  0  0  0
  8 11  1  0  0  0  0
 11 12  1  0  0  0  0
 11 13  1  0  0  0  0
 11 14  1  0  0  0  0
 14 15  1  0  0  0  0
 14 16  1  0  0  0  0
 14 17  1  0  0  0  0
 17 18  1  0  0  0  0
 17 19  1  0  0  0  0
 17 20  1  0  0  0  0
M  END
> <VConfSearch Rank>
361

> <Conf_Id>
54

> <Delta U+W>
1.880

> <U+W>
17.218

> <U>
72.122

> <W>
-54.903

> <W(PB)>
-56.724

> <W(SA)>
1.821

> <Valence>
3.197

> <Coulomb>
69.115

> <VdW>
-0.190

> <VdW6>
-5.585

> <VdW12>
5.395

> <Bond>
0.177

> <Angle>
1.207

> <Pdih>
1.813

> <Idih>
0.000

> <Tether>
0.000

$$$$
VeraChem MOL file


 20 19  0  0  0  0  0  0  0  0999 V2000     
   17.5468   17.9417   20.1933 C   0  0  0  0  0  0  0  0  0  0  0  0
   17.2864   17.0330   20.7516 H   0  0  0  0  0  0  0  0  0  0  0  0
   16.6124   18.4052   19.8512 H   0  0  0  0  0  0  0  0  0  0  0  0
   18.1194   17.6446   19.3051 H   0  0  0  0  0  0  0  0  0  0  0  0
   18.3526   18.9228   21.0722 C   0  0  0  0  0  0  0  0  0  0  0  0
   17.7412   19.2285   21.9331 H   0  0  0  0  0  0  0  0  0  0  0  0
   18.5677   19.8351   20.4979 H   0  0  0  0  0  0  0  0  0  0  0  0
   19.6744   18.2967   21.5687 C   0  0  0  0  0  0  0  0  0  0  0  0
   19.4585   17.3873   22.1452 H   0  0  0  0  0  0  0  0  0  0  0  0
   20.2860   17.9947   20.7081 H   0  0  0  0  0  0  0  0  0  0  0  0
   20.4721   19.2811   22.4441 C   0  0  0  0  0  0  0  0  0  0  0  0
   19.8719   19.5717   23.3100 H   0  0  0  0  0  0  0  0  0  0  0  0
   20.7023   20.1810   21.8682 H   0  0  0  0  0  0  0  0  0  0  0  0
   21.7797   18.7088   22.9553 N   0  3  0  0  0  0  0  0  0  0  0  0
   22.3734   18.4142   22.1648 H   0  0  0  0  0  0  0  0  0  0  0  0
   21.6046   17.8502   23.4997 H   0  0  0  0  0  0  0  0  0  0  0  0
   22.5015   19.7434   23.8083 C   0  0  0  0  0  0  0  0  0  0  0  0
   21.8697   20.0146   24.6568 H   0  0  0  0  0  0  0  0  0  0  0  0
   23.4406   19.3185   24.1696 H   0  0  0  0  0  0  0  0  0  0  0  0
   22.7071   20.6289   23.2028 H   0  0  0  0  0  0  0  0  0  0  0  0
  1  2  1  0  0  0  0
  1  3  1  0  0  0  0
  1  4  1  0  0  0  0
  1  5  1  0  0  0  0
  5  6  1  0  0  0  0
  5  7  1  0  0  0  0
  5  8  1  0  0  0  0
  8  9  1  0  0  0  0
  8 10  1  0  0  0  0
  8 11  1  0  0  0  0
 11 12  1  0  0  0  0
 11 13  1  0  0  0  0
 11 14  1  0  0  0  0
 14 15  1  0  0  0  0
 14 16  1  0  0  0  0
 14 17  1  0  0  0  0
 17 18  1  0  0  0  0
 17 19  1  0  0  0  0
 17 20  1  0  0  0  0
M  END
> <VConfSearch Rank>
362

> <Conf_Id>
67

> <Delta U+W>
0.000

> <U+W>
15.338

> <U>
69.277

> <W>
-53.939

> <W(PB)>
-55.889

> <W(SA)>
1.950

> <Valence>
0.846

> <Coulomb>
68.557

> <VdW>
-0.127

> <VdW6>
-3.008

> <VdW12>
2.882

> <Bond>
0.088

> <Angle>
0.332

> <Pdih>
0.426

> <Idih>
0.000

> <Tether>
0.000

$$$$
VeraChem MOL file


 20 19  0  0  0  0  0  0  0  0999 V2000     
   21.9839   19.8173   24.1222 C   0  0  0  0  0  0  0  0  0  0  0  0
   22.7103   20.1112   23.3535 H   0  0  0  0  0  0  0  0  0  0  0  0
   22.0663   20.5305   24.9527 H   0  0  0  0  0  0  0  0  0  0  0  0
   22.2686   18.8268   24.5003 H   0  0  0  0  0  0  0  0  0  0  0  0
   20.5479   19.8044   23.5548 C   0  0  0  0  0  0  0  0  0  0  0  0
   20.2798   20.8153   23.2165 H   0  0  0  0  0  0  0  0  0  0  0  0
   19.8415   19.5414   24.3549 H   0  0  0  0  0  0  0  0  0  0  0  0
   20.4018   18.8082   22.3834 C   0  0  0  0  0  0  0  0  0  0  0  0
   21.1088   19.0746   21.5872 H   0  0  0  0  0  0  0  0  0  0  0  0
   20.6656   17.7980   22.7231 H   0  0  0  0  0  0  0  0  0  0  0  0
   18.9640   18.8014   21.8244 C   0  0  0  0  0  0  0  0  0  0  0  0
   18.7107   19.7924   21.4395 H   0  0  0  0  0  0  0  0  0  0  0  0
   18.2695   18.5662   22.6351 H   0  0  0  0  0  0  0  0  0  0  0  0
   18.7211   17.7917   20.7144 N   0  3  0  0  0  0  0  0  0  0  0  0
   17.7102   17.7359   20.5139 H   0  0  0  0  0  0  0  0  0  0  0  0
   18.9801   16.8445   21.0299 H   0  0  0  0  0  0  0  0  0  0  0  0
   19.4799   18.1679   19.4463 C   0  0  0  0  0  0  0  0  0  0  0  0
   20.5525   18.1600   19.6495 H   0  0  0  0  0  0  0  0  0  0  0  0
   19.2503   17.4417   18.6634 H   0  0  0  0  0  0  0  0  0  0  0  0
   19.1711   19.1649   19.1250 H   0  0  0  0  0  0  0  0  0  0  0  0
  1  2  1  0  0  0  0
  1  3  1  0  0  0  0
  1  4  1  0  0  0  0
  1  5  1  0  0  0  0
  5  6  1  0  0  0  0
  5  7  1  0  0  0  0
  5  8  1  0  0  0  0
  8  9  1  0  0  0  0
  8 10  1  0  0  0  0
  8 11  1  0  0  0  0
 11 12  1  0  0  0  0
 11 13  1  0  0  0  0
 11 14  1  0  0  0  0
 14 15  1  0  0  0  0
 14 16  1  0  0  0  0
 14 17  1  0  0  0  0
 17 18  1  0  0  0  0
 17 19  1  0  0  0  0
 17 20  1  0  0  0  0
M  END
> <VConfSearch Rank>
363

> <Conf_Id>
37

> <Delta U+W>
-0.021

> <U+W>
15.318

> <U>
69.657

> <W>
-54.340

> <W(PB)>
-56.238

> <W(SA)>
1.899

> <Valence>
1.137

> <Coulomb>
68.383

> <VdW>
0.138

> <VdW6>
-3.703

> <VdW12>
3.841

> <Bond>
0.125

> <Angle>
0.468

> <Pdih>
0.543

> <Idih>
0.000

> <Tether>
0.000

$$$$
VeraChem MOL file


 20 19  0  0  0  0  0  0  0  0999 V2000     
   19.5032   20.7783   24.1831 C   0  0  0  0  0  0  0  0  0  0  0  0
   19.7411   21.8066   24.4848 H   0  0  0  0  0  0  0  0  0  0  0  0
   18.4219   20.7231   24.0013 H   0  0  0  0  0  0  0  0  0  0  0  0
   19.7419   20.1169   25.0261 H   0  0  0  0  0  0  0  0  0  0  0  0
   20.3004   20.3815   22.9217 C   0  0  0  0  0  0  0  0  0  0  0  0
   21.3764   20.4804   23.1237 H   0  0  0  0  0  0  0  0  0  0  0  0
   20.0665   21.0812   22.1067 H   0  0  0  0  0  0  0  0  0  0  0  0
   19.9855   18.9373   22.4735 C   0  0  0  0  0  0  0  0  0  0  0  0
   20.2234   18.2386   23.2864 H   0  0  0  0  0  0  0  0  0  0  0  0
   18.9105   18.8433   22.2730 H   0  0  0  0  0  0  0  0  0  0  0  0
   20.7876   18.5498   21.2140 C   0  0  0  0  0  0  0  0  0  0  0  0
   21.8535   18.6787   21.4188 H   0  0  0  0  0  0  0  0  0  0  0  0
   20.5203   19.2108   20.3858 H   0  0  0  0  0  0  0  0  0  0  0  0
   20.5869   17.1155   20.7521 N   0  3  0  0  0  0  0  0  0  0  0  0
   20.7990   16.4599   21.5195 H   0  0  0  0  0  0  0  0  0  0  0  0
   21.2740   16.8909   20.0155 H   0  0  0  0  0  0  0  0  0  0  0  0
   19.1730   16.8951   20.2250 C   0  0  0  0  0  0  0  0  0  0  0  0
   18.9841   17.5877   19.4019 H   0  0  0  0  0  0  0  0  0  0  0  0
   19.0803   15.8668   19.8689 H   0  0  0  0  0  0  0  0  0  0  0  0
   18.4548   17.0702   21.0284 H   0  0  0  0  0  0  0  0  0  0  0  0
  1  2  1  0  0  0  0
  1  3  1  0  0  0  0
  1  4  1  0  0  0  0
  1  5  1  0  0  0  0
  5  6  1  0  0  0  0
  5  7  1  0  0  0  0
  5  8  1  0  0  0  0
  8  9  1  0  0  0  0
  8 10  1  0  0  0  0
  8 11  1  0  0  0  0
 11 12  1  0  0  0  0
 11 13  1  0  0  0  0
 11 14  1  0  0  0  0
 14 15  1  0  0  0  0
 14 16  1  0  0  0  0
 14 17  1  0  0  0  0
 17 18  1  0  0  0  0
 17 19  1  0  0  0  0
 17 20  1  0  0  0  0
M  END
> <VConfSearch Rank>
364

> <Conf_Id>
2

> <Delta U+W>
0.069

> <U+W>
15.407

> <U>
69.657

> <W>
-54.250

> <W(PB)>
-56.176

> <W(SA)>
1.926

> <Valence>
1.137

> <Coulomb>
68.383

> <VdW>
0.138

> <VdW6>
-3.703

> <VdW12>
3.841

> <Bond>
0.125

> <Angle>
0.468

> <Pdih>
0.543

> <Idih>
0.000

> <Tether>
0.000

$$$$
VeraChem MOL file


 20 19  0  0  0  0  0  0  0  0999 V2000     
   20.4627   16.3528   20.9370 C   0  0  0  0  0  0  0  0  0  0  0  0
   20.2841   17.1121   20.1653 H   0  0  0  0  0  0  0  0  0  0  0  0
   21.5395   16.3258   21.1490 H   0  0  0  0  0  0  0  0  0  0  0  0
   20.1805   15.3796   20.5147 H   0  0  0  0  0  0  0  0  0  0  0  0
   19.6499   16.6433   22.2197 C   0  0  0  0  0  0  0  0  0  0  0  0
   19.7861   15.8125   22.9262 H   0  0  0  0  0  0  0  0  0  0  0  0
   18.5778   16.6711   21.9789 H   0  0  0  0  0  0  0  0  0  0  0  0
   20.0631   17.9636   22.9113 C   0  0  0  0  0  0  0  0  0  0  0  0
   19.5027   18.0657   23.8502 H   0  0  0  0  0  0  0  0  0  0  0  0
   21.1263   17.9200   23.1824 H   0  0  0  0  0  0  0  0  0  0  0  0
   19.8037   19.2016   22.0308 C   0  0  0  0  0  0  0  0  0  0  0  0
   18.7451   19.2462   21.7630 H   0  0  0  0  0  0  0  0  0  0  0  0
   20.3882   19.1282   21.1106 H   0  0  0  0  0  0  0  0  0  0  0  0
   20.1684   20.5085   22.7073 N   0  3  0  0  0  0  0  0  0  0  0  0
   21.1619   20.5012   22.9847 H   0  0  0  0  0  0  0  0  0  0  0  0
   19.6402   20.6142   23.5870 H   0  0  0  0  0  0  0  0  0  0  0  0
   19.8844   21.6752   21.7708 C   0  0  0  0  0  0  0  0  0  0  0  0
   18.8219   21.6834   21.5180 H   0  0  0  0  0  0  0  0  0  0  0  0
   20.1512   22.6092   22.2701 H   0  0  0  0  0  0  0  0  0  0  0  0
   20.4795   21.5606   20.8622 H   0  0  0  0  0  0  0  0  0  0  0  0
  1  2  1  0  0  0  0
  1  3  1  0  0  0  0
  1  4  1  0  0  0  0
  1  5  1  0  0  0  0
  5  6  1  0  0  0  0
  5  7  1  0  0  0  0
  5  8  1  0  0  0  0
  8  9  1  0  0  0  0
  8 10  1  0  0  0  0
  8 11  1  0  0  0  0
 11 12  1  0  0  0  0
 11 13  1  0  0  0  0
 11 14  1  0  0  0  0
 14 15  1  0  0  0  0
 14 16  1  0  0  0  0
 14 17  1  0  0  0  0
 17 18  1  0  0  0  0
 17 19  1  0  0  0  0
 17 20  1  0  0  0  0
M  END
> <VConfSearch Rank>
365

> <Conf_Id>
34

> <Delta U+W>
0.276

> <U+W>
15.615

> <U>
69.798

> <W>
-54.184

> <W(PB)>
-56.116

> <W(SA)>
1.933

> <Valence>
1.134

> <Coulomb>
68.735

> <VdW>
-0.070

> <VdW6>
-3.565

> <VdW12>
3.494

> <Bond>
0.108

> <Angle>
0.456

> <Pdih>
0.569

> <Idih>
0.000

> <Tether>
0.000

$$$$
VeraChem MOL file


 20 19  0  0  0  0  0  0  0  0999 V2000     
   20.9981   21.1108   20.2937 C   0  0  0  0  0  0  0  0  0  0  0  0
   20.8054   22.0522   20.8246 H   0  0  0  0  0  0  0  0  0  0  0  0
   21.9931   21.1815   19.8353 H   0  0  0  0  0  0  0  0  0  0  0  0
   20.2614   21.0177   19.4853 H   0  0  0  0  0  0  0  0  0  0  0  0
   20.9246   19.9046   21.2548 C   0  0  0  0  0  0  0  0  0  0  0  0
   21.6938   20.0114   22.0327 H   0  0  0  0  0  0  0  0  0  0  0  0
   21.1618   18.9878   20.6983 H   0  0  0  0  0  0  0  0  0  0  0  0
   19.5306   19.7823   21.9143 C   0  0  0  0  0  0  0  0  0  0  0  0
   19.2915   20.7200   22.4334 H   0  0  0  0  0  0  0  0  0  0  0  0
   18.7598   19.6470   21.1440 H   0  0  0  0  0  0  0  0  0  0  0  0
   19.4499   18.6277   22.9330 C   0  0  0  0  0  0  0  0  0  0  0  0
   18.4752   18.6494   23.4271 H   0  0  0  0  0  0  0  0  0  0  0  0
   20.2211   18.7569   23.6965 H   0  0  0  0  0  0  0  0  0  0  0  0
   19.6217   17.2498   22.3215 N   0  3  0  0  0  0  0  0  0  0  0  0
   20.5329   17.1838   21.8442 H   0  0  0  0  0  0  0  0  0  0  0  0
   18.9145   17.0964   21.5865 H   0  0  0  0  0  0  0  0  0  0  0  0
   19.5082   16.1836   23.4028 C   0  0  0  0  0  0  0  0  0  0  0  0
   20.2864   16.3462   24.1517 H   0  0  0  0  0  0  0  0  0  0  0  0
   18.5242   16.2503   23.8720 H   0  0  0  0  0  0  0  0  0  0  0  0
   19.6337   15.1979   22.9494 H   0  0  0  0  0  0  0  0  0  0  0  0
  1  2  1  0  0  0  0
  1  3  1  0  0  0  0
  1  4  1  0  0  0  0
  1  5  1  0  0  0  0
  5  6  1  0  0  0  0
  5  7  1  0  0  0  0
  5  8  1  0  0  0  0
  8  9  1  0  0  0  0
  8 10  1  0  0  0  0
  8 11  1  0  0  0  0
 11 12  1  0  0  0  0
 11 13  1  0  0  0  0
 11 14  1  0  0  0  0
 14 15  1  0  0  0  0
 14 16  1  0  0  0  0
 14 17  1  0  0  0  0
 17 18  1  0  0  0  0
 17 19  1  0  0  0  0
 17 20  1  0  0  0  0
M  END
> <VConfSearch Rank>
366

> <Conf_Id>
50

> <Delta U+W>
0.319

> <U+W>
15.657

> <U>
69.962

> <W>
-54.305

> <W(PB)>
-56.223

> <W(SA)>
1.918

> <Valence>
0.982

> <Coulomb>
69.058

> <VdW>
-0.078

> <VdW6>
-3.548

> <VdW12>
3.471

> <Bond>
0.105

> <Angle>
0.408

> <Pdih>
0.469

> <Idih>
0.000

> <Tether>
0.000

$$$$
VeraChem MOL file


 20 19  0  0  0  0  0  0  0  0999 V2000     
   21.9346   17.6139   24.0665 C   0  0  0  0  0  0  0  0  0  0  0  0
   22.0617   17.9758   25.0950 H   0  0  0  0  0  0  0  0  0  0  0  0
   21.7547   16.5318   24.1111 H   0  0  0  0  0  0  0  0  0  0  0  0
   22.8790   17.7813   23.5322 H   0  0  0  0  0  0  0  0  0  0  0  0
   20.7654   18.3444   23.3714 C   0  0  0  0  0  0  0  0  0  0  0  0
   20.9613   19.4252   23.3813 H   0  0  0  0  0  0  0  0  0  0  0  0
   19.8424   18.1840   23.9464 H   0  0  0  0  0  0  0  0  0  0  0  0
   20.5657   17.8522   21.9184 C   0  0  0  0  0  0  0  0  0  0  0  0
   21.4748   18.0352   21.3302 H   0  0  0  0  0  0  0  0  0  0  0  0
   20.4101   16.7651   21.9219 H   0  0  0  0  0  0  0  0  0  0  0  0
   19.3594   18.5144   21.2229 C   0  0  0  0  0  0  0  0  0  0  0  0
   18.4548   18.3392   21.8107 H   0  0  0  0  0  0  0  0  0  0  0  0
   19.2176   18.0625   20.2379 H   0  0  0  0  0  0  0  0  0  0  0  0
   19.5057   20.0111   21.0223 N   0  3  0  0  0  0  0  0  0  0  0  0
   20.3579   20.2153   20.4782 H   0  0  0  0  0  0  0  0  0  0  0  0
   19.6405   20.4800   21.9303 H   0  0  0  0  0  0  0  0  0  0  0  0
   18.2753   20.5633   20.3150 C   0  0  0  0  0  0  0  0  0  0  0  0
   18.3937   21.6404   20.1773 H   0  0  0  0  0  0  0  0  0  0  0  0
   18.1709   20.0773   19.3426 H   0  0  0  0  0  0  0  0  0  0  0  0
   17.3908   20.3651   20.9241 H   0  0  0  0  0  0  0  0  0  0  0  0
  1  2  1  0  0  0  0
  1  3  1  0  0  0  0
  1  4  1  0  0  0  0
  1  5  1  0  0  0  0
  5  6  1  0  0  0  0
  5  7  1  0  0  0  0
  5  8  1  0  0  0  0
  8  9  1  0  0  0  0
  8 10  1  0  0  0  0
  8 11  1  0  0  0  0
 11 12  1  0  0  0  0
 11 13  1  0  0  0  0
 11 14  1  0  0  0  0
 14 15  1  0  0  0  0
 14 16  1  0  0  0  0
 14 17  1  0  0  0  0
 17 18  1  0  0  0  0
 17 19  1  0  0  0  0
 17 20  1  0  0  0  0
M  END
> <VConfSearch Rank>
367

> <Conf_Id>
35

> <Delta U+W>
0.360

> <U+W>
15.698

> <U>
69.962

> <W>
-54.264

> <W(PB)>
-56.166

> <W(SA)>
1.902

> <Valence>
0.982

> <Coulomb>
69.058

> <VdW>
-0.078

> <VdW6>
-3.548

> <VdW12>
3.471

> <Bond>
0.105

> <Angle>
0.408

> <Pdih>
0.469

> <Idih>
0.000

> <Tether>
0.000

$$$$
VeraChem MOL file


 20 19  0  0  0  0  0  0  0  0999 V2000     
   19.4459   17.9698   24.3822 C   0  0  0  0  0  0  0  0  0  0  0  0
   19.1192   19.0169   24.3524 H   0  0  0  0  0  0  0  0  0  0  0  0
   18.9204   17.4830   25.2140 H   0  0  0  0  0  0  0  0  0  0  0  0
   20.5199   17.9522   24.6089 H   0  0  0  0  0  0  0  0  0  0  0  0
   19.1460   17.2425   23.0514 C   0  0  0  0  0  0  0  0  0  0  0  0
   18.0668   17.2790   22.8457 H   0  0  0  0  0  0  0  0  0  0  0  0
   19.4041   16.1795   23.1575 H   0  0  0  0  0  0  0  0  0  0  0  0
   19.9254   17.8317   21.8525 C   0  0  0  0  0  0  0  0  0  0  0  0
   21.0031   17.7582   22.0476 H   0  0  0  0  0  0  0  0  0  0  0  0
   19.7248   17.2224   20.9614 H   0  0  0  0  0  0  0  0  0  0  0  0
   19.5414   19.2979   21.5590 C   0  0  0  0  0  0  0  0  0  0  0  0
   19.7981   19.9280   22.4139 H   0  0  0  0  0  0  0  0  0  0  0  0
   18.4607   19.3575   21.4069 H   0  0  0  0  0  0  0  0  0  0  0  0
   20.2054   19.8910   20.3271 N   0  3  0  0  0  0  0  0  0  0  0  0
   19.7759   20.8037   20.1088 H   0  0  0  0  0  0  0  0  0  0  0  0
   20.0138   19.3048   19.5005 H   0  0  0  0  0  0  0  0  0  0  0  0
   21.7063   20.0621   20.5353 C   0  0  0  0  0  0  0  0  0  0  0  0
   22.1633   19.0844   20.7003 H   0  0  0  0  0  0  0  0  0  0  0  0
   22.1405   20.5236   19.6457 H   0  0  0  0  0  0  0  0  0  0  0  0
   21.8782   20.7026   21.4030 H   0  0  0  0  0  0  0  0  0  0  0  0
  1  2  1  0  0  0  0
  1  3  1  0  0  0  0
  1  4  1  0  0  0  0
  1  5  1  0  0  0  0
  5  6  1  0  0  0  0
  5  7  1  0  0  0  0
  5  8  1  0  0  0  0
  8  9  1  0  0  0  0
  8 10  1  0  0  0  0
  8 11  1  0  0  0  0
 11 12  1  0  0  0  0
 11 13  1  0  0  0  0
 11 14  1  0  0  0  0
 14 15  1  0  0  0  0
 14 16  1  0  0  0  0
 14 17  1  0  0  0  0
 17 18  1  0  0  0  0
 17 19  1  0  0  0  0
 17 20  1  0  0  0  0
M  END
> <VConfSearch Rank>
368

> <Conf_Id>
33

> <Delta U+W>
0.372

> <U+W>
15.711

> <U>
70.163

> <W>
-54.452

> <W(PB)>
-56.363

> <W(SA)>
1.911

> <Valence>
1.420

> <Coulomb>
68.566

> <VdW>
0.177

> <VdW6>
-4.267

> <VdW12>
4.445

> <Bond>
0.146

> <Angle>
0.581

> <Pdih>
0.693

> <Idih>
0.000

> <Tether>
0.000

$$$$
VeraChem MOL file


 20 19  0  0  0  0  0  0  0  0999 V2000     
   18.5234   17.5912   20.4104 C   0  0  0  0  0  0  0  0  0  0  0  0
   17.6942   17.3966   19.7179 H   0  0  0  0  0  0  0  0  0  0  0  0
   19.4253   17.7575   19.8078 H   0  0  0  0  0  0  0  0  0  0  0  0
   18.6758   16.6863   21.0128 H   0  0  0  0  0  0  0  0  0  0  0  0
   18.2062   18.8099   21.3072 C   0  0  0  0  0  0  0  0  0  0  0  0
   17.2503   18.6377   21.8215 H   0  0  0  0  0  0  0  0  0  0  0  0
   18.0635   19.7020   20.6811 H   0  0  0  0  0  0  0  0  0  0  0  0
   19.3026   19.0840   22.3630 C   0  0  0  0  0  0  0  0  0  0  0  0
   18.9775   19.9094   23.0101 H   0  0  0  0  0  0  0  0  0  0  0  0
   19.4143   18.2035   23.0087 H   0  0  0  0  0  0  0  0  0  0  0  0
   20.6613   19.4466   21.7259 C   0  0  0  0  0  0  0  0  0  0  0  0
   20.5226   20.2997   21.0569 H   0  0  0  0  0  0  0  0  0  0  0  0
   21.0295   18.6069   21.1318 H   0  0  0  0  0  0  0  0  0  0  0  0
   21.7461   19.8238   22.7217 N   0  3  0  0  0  0  0  0  0  0  0  0
   21.4239   20.5946   23.3264 H   0  0  0  0  0  0  0  0  0  0  0  0
   22.5604   20.2070   22.2166 H   0  0  0  0  0  0  0  0  0  0  0  0
   22.1738   18.6214   23.5563 C   0  0  0  0  0  0  0  0  0  0  0  0
   22.9777   18.9225   24.2317 H   0  0  0  0  0  0  0  0  0  0  0  0
   21.3225   18.2623   24.1380 H   0  0  0  0  0  0  0  0  0  0  0  0
   22.5286   17.8305   22.8920 H   0  0  0  0  0  0  0  0  0  0  0  0
  1  2  1  0  0  0  0
  1  3  1  0  0  0  0
  1  4  1  0  0  0  0
  1  5  1  0  0  0  0
  5  6  1  0  0  0  0
  5  7  1  0  0  0  0
  5  8  1  0  0  0  0
  8  9  1  0  0  0  0
  8 10  1  0  0  0  0
  8 11  1  0  0  0  0
 11 12  1  0  0  0  0
 11 13  1  0  0  0  0
 11 14  1  0  0  0  0
 14 15  1  0  0  0  0
 14 16  1  0  0  0  0
 14 17  1  0  0  0  0
 17 18  1  0  0  0  0
 17 19  1  0  0  0  0
 17 20  1  0  0  0  0
M  END
> <VConfSearch Rank>
369

> <Conf_Id>
53

> <Delta U+W>
0.379

> <U+W>
15.717

> <U>
70.163

> <W>
-54.446

> <W(PB)>
-56.322

> <W(SA)>
1.876

> <Valence>
1.420

> <Coulomb>
68.566

> <VdW>
0.177

> <VdW6>
-4.267

> <VdW12>
4.445

> <Bond>
0.146

> <Angle>
0.581

> <Pdih>
0.693

> <Idih>
0.000

> <Tether>
0.000

$$$$
VeraChem MOL file


 20 19  0  0  0  0  0  0  0  0999 V2000     
   20.8842   17.6324   24.3835 C   0  0  0  0  0  0  0  0  0  0  0  0
   20.3147   17.5700   25.3199 H   0  0  0  0  0  0  0  0  0  0  0  0
   21.3594   16.6575   24.2138 H   0  0  0  0  0  0  0  0  0  0  0  0
   21.6769   18.3793   24.5214 H   0  0  0  0  0  0  0  0  0  0  0  0
   19.9598   18.0136   23.2070 C   0  0  0  0  0  0  0  0  0  0  0  0
   19.4738   18.9732   23.4294 H   0  0  0  0  0  0  0  0  0  0  0  0
   19.1598   17.2655   23.1148 H   0  0  0  0  0  0  0  0  0  0  0  0
   20.7393   18.1103   21.8745 C   0  0  0  0  0  0  0  0  0  0  0  0
   21.5223   18.8756   21.9520 H   0  0  0  0  0  0  0  0  0  0  0  0
   21.2557   17.1597   21.6864 H   0  0  0  0  0  0  0  0  0  0  0  0
   19.8268   18.4139   20.6654 C   0  0  0  0  0  0  0  0  0  0  0  0
   19.0893   17.6132   20.5679 H   0  0  0  0  0  0  0  0  0  0  0  0
   20.4260   18.4299   19.7516 H   0  0  0  0  0  0  0  0  0  0  0  0
   19.0638   19.7282   20.7380 N   0  3  0  0  0  0  0  0  0  0  0  0
   18.4852   19.7571   21.5903 H   0  0  0  0  0  0  0  0  0  0  0  0
   18.3900   19.7793   19.9579 H   0  0  0  0  0  0  0  0  0  0  0  0
   20.0102   20.9225   20.6846 C   0  0  0  0  0  0  0  0  0  0  0  0
   20.5954   20.8764   19.7637 H   0  0  0  0  0  0  0  0  0  0  0  0
   19.4246   21.8443   20.7026 H   0  0  0  0  0  0  0  0  0  0  0  0
   20.6767   20.8951   21.5489 H   0  0  0  0  0  0  0  0  0  0  0  0
  1  2  1  0  0  0  0
  1  3  1  0  0  0  0
  1  4  1  0  0  0  0
  1  5  1  0  0  0  0
  5  6  1  0  0  0  0
  5  7  1  0  0  0  0
  5  8  1  0  0  0  0
  8  9  1  0  0  0  0
  8 10  1  0  0  0  0
  8 11  1  0  0  0  0
 11 12  1  0  0  0  0
 11 13  1  0  0  0  0
 11 14  1  0  0  0  0
 14 15  1  0  0  0  0
 14 16  1  0  0  0  0
 14 17  1  0  0  0  0
 17 18  1  0  0  0  0
 17 19  1  0  0  0  0
 17 20  1  0  0  0  0
M  END
> <VConfSearch Rank>
370

> <Conf_Id>
49

> <Delta U+W>
0.268

> <U+W>
15.607

> <U>
70.298

> <W>
-54.692

> <W(PB)>
-56.576

> <W(SA)>
1.885

> <Valence>
1.245

> <Coulomb>
68.933

> <VdW>
0.120

> <VdW6>
-4.430

> <VdW12>
4.550

> <Bond>
0.148

> <Angle>
0.587

> <Pdih>
0.509

> <Idih>
0.000

> <Tether>
0.000

$$$$
VeraChem MOL file


 20 19  0  0  0  0  0  0  0  0999 V2000     
   21.0069   18.1443   24.5063 C   0  0  0  0  0  0  0  0  0  0  0  0
   20.0910   18.2068   25.1082 H   0  0  0  0  0  0  0  0  0  0  0  0
   21.3706   17.1092   24.5442 H   0  0  0  0  0  0  0  0  0  0  0  0
   21.7640   18.7834   24.9790 H   0  0  0  0  0  0  0  0  0  0  0  0
   20.7475   18.5909   23.0511 C   0  0  0  0  0  0  0  0  0  0  0  0
   21.6865   18.5444   22.4819 H   0  0  0  0  0  0  0  0  0  0  0  0
   20.4246   19.6403   23.0551 H   0  0  0  0  0  0  0  0  0  0  0  0
   19.6755   17.7125   22.3650 C   0  0  0  0  0  0  0  0  0  0  0  0
   19.9558   16.6562   22.4718 H   0  0  0  0  0  0  0  0  0  0  0  0
   18.7136   17.8292   22.8814 H   0  0  0  0  0  0  0  0  0  0  0  0
   19.4882   18.0046   20.8589 C   0  0  0  0  0  0  0  0  0  0  0  0
   18.7615   17.2894   20.4650 H   0  0  0  0  0  0  0  0  0  0  0  0
   20.4277   17.8510   20.3223 H   0  0  0  0  0  0  0  0  0  0  0  0
   18.9655   19.3916   20.5180 N   0  3  0  0  0  0  0  0  0  0  0  0
   18.3304   19.7285   21.2569 H   0  0  0  0  0  0  0  0  0  0  0  0
   18.3783   19.3353   19.6712 H   0  0  0  0  0  0  0  0  0  0  0  0
   20.1071   20.3729   20.2721 C   0  0  0  0  0  0  0  0  0  0  0  0
   19.6898   21.3472   20.0087 H   0  0  0  0  0  0  0  0  0  0  0  0
   20.7142   20.4669   21.1732 H   0  0  0  0  0  0  0  0  0  0  0  0
   20.7245   20.0047   19.4499 H   0  0  0  0  0  0  0  0  0  0  0  0
  1  2  1  0  0  0  0
  1  3  1  0  0  0  0
  1  4  1  0  0  0  0
  1  5  1  0  0  0  0
  5  6  1  0  0  0  0
  5  7  1  0  0  0  0
  5  8  1  0  0  0  0
  8  9  1  0  0  0  0
  8 10  1  0  0  0  0
  8 11  1  0  0  0  0
 11 12  1  0  0  0  0
 11 13  1  0  0  0  0
 11 14  1  0  0  0  0
 14 15  1  0  0  0  0
 14 16  1  0  0  0  0
 14 17  1  0  0  0  0
 17 18  1  0  0  0  0
 17 19  1  0  0  0  0
 17 20  1  0  0  0  0
M  END
> <VConfSearch Rank>
371

> <Conf_Id>
65

> <Delta U+W>
1.775

> <U+W>
17.114

> <U>
71.726

> <W>
-54.613

> <W(PB)>
-56.495

> <W(SA)>
1.883

> <Valence>
2.885

> <Coulomb>
68.822

> <VdW>
0.019

> <VdW6>
-4.600

> <VdW12>
4.619

> <Bond>
0.152

> <Angle>
0.862

> <Pdih>
1.871

> <Idih>
0.000

> <Tether>
0.000

$$$$
VeraChem MOL file


 20 19  0  0  0  0  0  0  0  0999 V2000     
   20.9270   20.5018   23.3977 C   0  0  0  0  0  0  0  0  0  0  0  0
   20.3821   20.7947   22.4914 H   0  0  0  0  0  0  0  0  0  0  0  0
   20.6177   21.1804   24.2032 H   0  0  0  0  0  0  0  0  0  0  0  0
   21.9985   20.6607   23.2197 H   0  0  0  0  0  0  0  0  0  0  0  0
   20.6398   19.0331   23.7859 C   0  0  0  0  0  0  0  0  0  0  0  0
   19.5633   18.9001   23.9593 H   0  0  0  0  0  0  0  0  0  0  0  0
   21.1298   18.8151   24.7453 H   0  0  0  0  0  0  0  0  0  0  0  0
   21.1396   18.0168   22.7289 C   0  0  0  0  0  0  0  0  0  0  0  0
   22.2318   18.0927   22.6434 H   0  0  0  0  0  0  0  0  0  0  0  0
   20.9308   16.9964   23.0766 H   0  0  0  0  0  0  0  0  0  0  0  0
   20.5214   18.2121   21.3286 C   0  0  0  0  0  0  0  0  0  0  0  0
   20.9479   17.4794   20.6389 H   0  0  0  0  0  0  0  0  0  0  0  0
   20.7641   19.2098   20.9552 H   0  0  0  0  0  0  0  0  0  0  0  0
   19.0134   18.0534   21.2933 N   0  3  0  0  0  0  0  0  0  0  0  0
   18.5731   18.7252   21.9392 H   0  0  0  0  0  0  0  0  0  0  0  0
   18.7458   17.1201   21.6415 H   0  0  0  0  0  0  0  0  0  0  0  0
   18.5014   18.2624   19.8746 C   0  0  0  0  0  0  0  0  0  0  0  0
   18.9568   17.5207   19.2149 H   0  0  0  0  0  0  0  0  0  0  0  0
   17.4153   18.1466   19.8643 H   0  0  0  0  0  0  0  0  0  0  0  0
   18.7676   19.2674   19.5403 H   0  0  0  0  0  0  0  0  0  0  0  0
  1  2  1  0  0  0  0
  1  3  1  0  0  0  0
  1  4  1  0  0  0  0
  1  5  1  0  0  0  0
  5  6  1  0  0  0  0
  5  7  1  0  0  0  0
  5  8  1  0  0  0  0
  8  9  1  0  0  0  0
  8 10  1  0  0  0  0
  8 11  1  0  0  0  0
 11 12  1  0  0  0  0
 11 13  1  0  0  0  0
 11 14  1  0  0  0  0
 14 15  1  0  0  0  0
 14 16  1  0  0  0  0
 14 17  1  0  0  0  0
 17 18  1  0  0  0  0
 17 19  1  0  0  0  0
 17 20  1  0  0  0  0
M  END
> <VConfSearch Rank>
372

> <Conf_Id>
23

> <Delta U+W>
0.896

> <U+W>
16.234

> <U>
70.374

> <W>
-54.140

> <W(PB)>
-56.046

> <W(SA)>
1.907

> <Valence>
1.257

> <Coulomb>
69.240

> <VdW>
-0.123

> <VdW6>
-4.336

> <VdW12>
4.213

> <Bond>
0.128

> <Angle>
0.603

> <Pdih>
0.526

> <Idih>
0.000

> <Tether>
0.000

$$$$
VeraChem MOL file


 20 19  0  0  0  0  0  0  0  0999 V2000     
   17.8269   19.2125   22.4933 C   0  0  0  0  0  0  0  0  0  0  0  0
   17.6657   20.2759   22.7126 H   0  0  0  0  0  0  0  0  0  0  0  0
   16.8480   18.7160   22.5082 H   0  0  0  0  0  0  0  0  0  0  0  0
   18.4278   18.7828   23.3046 H   0  0  0  0  0  0  0  0  0  0  0  0
   18.5087   19.0256   21.1184 C   0  0  0  0  0  0  0  0  0  0  0  0
   17.8306   19.3854   20.3318 H   0  0  0  0  0  0  0  0  0  0  0  0
   18.6581   17.9552   20.9221 H   0  0  0  0  0  0  0  0  0  0  0  0
   19.8551   19.7828   21.0003 C   0  0  0  0  0  0  0  0  0  0  0  0
   20.2715   19.6320   19.9955 H   0  0  0  0  0  0  0  0  0  0  0  0
   19.6721   20.8613   21.0963 H   0  0  0  0  0  0  0  0  0  0  0  0
   20.9042   19.3658   22.0522 C   0  0  0  0  0  0  0  0  0  0  0  0
   20.5153   19.5561   23.0553 H   0  0  0  0  0  0  0  0  0  0  0  0
   21.8081   19.9658   21.9199 H   0  0  0  0  0  0  0  0  0  0  0  0
   21.3066   17.9053   21.9758 N   0  3  0  0  0  0  0  0  0  0  0  0
   21.6788   17.6876   21.0388 H   0  0  0  0  0  0  0  0  0  0  0  0
   20.4766   17.3047   22.0891 H   0  0  0  0  0  0  0  0  0  0  0  0
   22.3415   17.5941   23.0484 C   0  0  0  0  0  0  0  0  0  0  0  0
   21.9140   17.8009   24.0319 H   0  0  0  0  0  0  0  0  0  0  0  0
   22.6209   16.5402   22.9825 H   0  0  0  0  0  0  0  0  0  0  0  0
   23.2230   18.2190   22.8898 H   0  0  0  0  0  0  0  0  0  0  0  0
  1  2  1  0  0  0  0
  1  3  1  0  0  0  0
  1  4  1  0  0  0  0
  1  5  1  0  0  0  0
  5  6  1  0  0  0  0
  5  7  1  0  0  0  0
  5  8  1  0  0  0  0
  8  9  1  0  0  0  0
  8 10  1  0  0  0  0
  8 11  1  0  0  0  0
 11 12  1  0  0  0  0
 11 13  1  0  0  0  0
 11 14  1  0  0  0  0
 14 15  1  0  0  0  0
 14 16  1  0  0  0  0
 14 17  1  0  0  0  0
 17 18  1  0  0  0  0
 17 19  1  0  0  0  0
 17 20  1  0  0  0  0
M  END
> <VConfSearch Rank>
373

> <Conf_Id>
24

> <Delta U+W>
0.792

> <U+W>
16.130

> <U>
70.374

> <W>
-54.243

> <W(PB)>
-56.130

> <W(SA)>
1.887

> <Valence>
1.257

> <Coulomb>
69.240

> <VdW>
-0.123

> <VdW6>
-4.336

> <VdW12>
4.213

> <Bond>
0.128

> <Angle>
0.603

> <Pdih>
0.526

> <Idih>
0.000

> <Tether>
0.000

$$$$
VeraChem MOL file


 20 19  0  0  0  0  0  0  0  0999 V2000     
   19.8934   16.6617   22.5676 C   0  0  0  0  0  0  0  0  0  0  0  0
   19.5534   15.6908   22.9510 H   0  0  0  0  0  0  0  0  0  0  0  0
   19.1518   16.9933   21.8313 H   0  0  0  0  0  0  0  0  0  0  0  0
   20.8527   16.5001   22.0590 H   0  0  0  0  0  0  0  0  0  0  0  0
   20.0352   17.6744   23.7268 C   0  0  0  0  0  0  0  0  0  0  0  0
   20.6174   17.2057   24.5326 H   0  0  0  0  0  0  0  0  0  0  0  0
   19.0436   17.8847   24.1518 H   0  0  0  0  0  0  0  0  0  0  0  0
   20.7267   19.0054   23.3355 C   0  0  0  0  0  0  0  0  0  0  0  0
   20.8334   19.6110   24.2453 H   0  0  0  0  0  0  0  0  0  0  0  0
   21.7477   18.8153   22.9790 H   0  0  0  0  0  0  0  0  0  0  0  0
   19.9527   19.8460   22.2979 C   0  0  0  0  0  0  0  0  0  0  0  0
   20.2874   20.8847   22.3584 H   0  0  0  0  0  0  0  0  0  0  0  0
   18.8840   19.8206   22.5251 H   0  0  0  0  0  0  0  0  0  0  0  0
   20.1491   19.4018   20.8609 N   0  3  0  0  0  0  0  0  0  0  0  0
   19.8968   18.4082   20.7615 H   0  0  0  0  0  0  0  0  0  0  0  0
   21.1470   19.4582   20.6056 H   0  0  0  0  0  0  0  0  0  0  0  0
   19.3093   20.2647   19.9291 C   0  0  0  0  0  0  0  0  0  0  0  0
   18.2554   20.1636   20.1972 H   0  0  0  0  0  0  0  0  0  0  0  0
   19.6175   21.3077   20.0295 H   0  0  0  0  0  0  0  0  0  0  0  0
   19.4607   19.9338   18.8993 H   0  0  0  0  0  0  0  0  0  0  0  0
  1  2  1  0  0  0  0
  1  3  1  0  0  0  0
  1  4  1  0  0  0  0
  1  5  1  0  0  0  0
  5  6  1  0  0  0  0
  5  7  1  0  0  0  0
  5  8  1  0  0  0  0
  8  9  1  0  0  0  0
  8 10  1  0  0  0  0
  8 11  1  0  0  0  0
 11 12  1  0  0  0  0
 11 13  1  0  0  0  0
 11 14  1  0  0  0  0
 14 15  1  0  0  0  0
 14 16  1  0  0  0  0
 14 17  1  0  0  0  0
 17 18  1  0  0  0  0
 17 19  1  0  0  0  0
 17 20  1  0  0  0  0
M  END
> <VConfSearch Rank>
374

> <Conf_Id>
26

> <Delta U+W>
2.888

> <U+W>
18.226

> <U>
72.042

> <W>
-53.816

> <W(PB)>
-55.689

> <W(SA)>
1.873

> <Valence>
2.428

> <Coulomb>
69.829

> <VdW>
-0.215

> <VdW6>
-4.563

> <VdW12>
4.348

> <Bond>
0.137

> <Angle>
0.936

> <Pdih>
1.356

> <Idih>
0.000

> <Tether>
0.000

$$$$
VeraChem MOL file


 20 19  0  0  0  0  0  0  0  0999 V2000     
   18.8907   19.9335   20.5517 C   0  0  0  0  0  0  0  0  0  0  0  0
   18.0860   20.5008   20.0658 H   0  0  0  0  0  0  0  0  0  0  0  0
   19.6015   19.6313   19.7716 H   0  0  0  0  0  0  0  0  0  0  0  0
   18.4340   19.0354   20.9840 H   0  0  0  0  0  0  0  0  0  0  0  0
   19.5771   20.7987   21.6333 C   0  0  0  0  0  0  0  0  0  0  0  0
   18.8641   21.0036   22.4443 H   0  0  0  0  0  0  0  0  0  0  0  0
   19.8266   21.7752   21.1948 H   0  0  0  0  0  0  0  0  0  0  0  0
   20.8720   20.1825   22.2218 C   0  0  0  0  0  0  0  0  0  0  0  0
   21.6218   20.0422   21.4320 H   0  0  0  0  0  0  0  0  0  0  0  0
   21.3046   20.9098   22.9216 H   0  0  0  0  0  0  0  0  0  0  0  0
   20.6586   18.8601   22.9885 C   0  0  0  0  0  0  0  0  0  0  0  0
   19.7499   18.9257   23.5922 H   0  0  0  0  0  0  0  0  0  0  0  0
   21.5029   18.6982   23.6634 H   0  0  0  0  0  0  0  0  0  0  0  0
   20.5594   17.6325   22.1029 N   0  3  0  0  0  0  0  0  0  0  0  0
   21.4248   17.5216   21.5526 H   0  0  0  0  0  0  0  0  0  0  0  0
   19.8081   17.7578   21.4098 H   0  0  0  0  0  0  0  0  0  0  0  0
   20.3045   16.3955   22.9534 C   0  0  0  0  0  0  0  0  0  0  0  0
   19.3681   16.5220   23.5010 H   0  0  0  0  0  0  0  0  0  0  0  0
   20.2356   15.5207   22.3031 H   0  0  0  0  0  0  0  0  0  0  0  0
   21.1296   16.2668   23.6573 H   0  0  0  0  0  0  0  0  0  0  0  0
  1  2  1  0  0  0  0
  1  3  1  0  0  0  0
  1  4  1  0  0  0  0
  1  5  1  0  0  0  0
  5  6  1  0  0  0  0
  5  7  1  0  0  0  0
  5  8  1  0  0  0  0
  8  9  1  0  0  0  0
  8 10  1  0  0  0  0
  8 11  1  0  0  0  0
 11 12  1  0  0  0  0
 11 13  1  0  0  0  0
 11 14  1  0  0  0  0
 14 15  1  0  0  0  0
 14 16  1  0  0  0  0
 14 17  1  0  0  0  0
 17 18  1  0  0  0  0
 17 19  1  0  0  0  0
 17 20  1  0  0  0  0
M  END
> <VConfSearch Rank>
375

> <Conf_Id>
5

> <Delta U+W>
2.950

> <U+W>
18.289

> <U>
72.042

> <W>
-53.753

> <W(PB)>
-55.644

> <W(SA)>
1.891

> <Valence>
2.428

> <Coulomb>
69.829

> <VdW>
-0.215

> <VdW6>
-4.563

> <VdW12>
4.348

> <Bond>
0.137

> <Angle>
0.936

> <Pdih>
1.356

> <Idih>
0.000

> <Tether>
0.000

$$$$
VeraChem MOL file


 20 19  0  0  0  0  0  0  0  0999 V2000     
   20.2676   20.6688   20.3844 C   0  0  0  0  0  0  0  0  0  0  0  0
   20.7920   20.3696   19.4676 H   0  0  0  0  0  0  0  0  0  0  0  0
   19.2384   20.2927   20.3281 H   0  0  0  0  0  0  0  0  0  0  0  0
   20.2188   21.7654   20.3988 H   0  0  0  0  0  0  0  0  0  0  0  0
   20.9997   20.1421   21.6401 C   0  0  0  0  0  0  0  0  0  0  0  0
   20.4596   20.4565   22.5435 H   0  0  0  0  0  0  0  0  0  0  0  0
   21.9904   20.6140   21.7000 H   0  0  0  0  0  0  0  0  0  0  0  0
   21.1795   18.6036   21.6373 C   0  0  0  0  0  0  0  0  0  0  0  0
   21.8019   18.3146   20.7801 H   0  0  0  0  0  0  0  0  0  0  0  0
   21.7392   18.3007   22.5316 H   0  0  0  0  0  0  0  0  0  0  0  0
   19.8516   17.8153   21.5685 C   0  0  0  0  0  0  0  0  0  0  0  0
   20.0625   16.7430   21.5733 H   0  0  0  0  0  0  0  0  0  0  0  0
   19.3461   18.0517   20.6290 H   0  0  0  0  0  0  0  0  0  0  0  0
   18.8713   18.0985   22.6964 N   0  3  0  0  0  0  0  0  0  0  0  0
   17.9690   17.6403   22.4938 H   0  0  0  0  0  0  0  0  0  0  0  0
   18.6573   19.1060   22.7330 H   0  0  0  0  0  0  0  0  0  0  0  0
   19.4123   17.6104   24.0357 C   0  0  0  0  0  0  0  0  0  0  0  0
   20.3345   18.1457   24.2702 H   0  0  0  0  0  0  0  0  0  0  0  0
   18.6694   17.8019   24.8131 H   0  0  0  0  0  0  0  0  0  0  0  0
   19.6118   16.5385   23.9734 H   0  0  0  0  0  0  0  0  0  0  0  0
  1  2  1  0  0  0  0
  1  3  1  0  0  0  0
  1  4  1  0  0  0  0
  1  5  1  0  0  0  0
  5  6  1  0  0  0  0
  5  7  1  0  0  0  0
  5  8  1  0  0  0  0
  8  9  1  0  0  0  0
  8 10  1  0  0  0  0
  8 11  1  0  0  0  0
 11 12  1  0  0  0  0
 11 13  1  0  0  0  0
 11 14  1  0  0  0  0
 14 15  1  0  0  0  0
 14 16  1  0  0  0  0
 14 17  1  0  0  0  0
 17 18  1  0  0  0  0
 17 19  1  0  0  0  0
 17 20  1  0  0  0  0
M  END
> <VConfSearch Rank>
376

> <Conf_Id>
52

> <Delta U+W>
0.784

> <U+W>
16.122

> <U>
70.777

> <W>
-54.655

> <W(PB)>
-56.491

> <W(SA)>
1.836

> <Valence>
1.529

> <Coulomb>
69.166

> <VdW>
0.082

> <VdW6>
-5.166

> <VdW12>
5.248

> <Bond>
0.171

> <Angle>
0.752

> <Pdih>
0.605

> <Idih>
0.000

> <Tether>
0.000

$$$$
VeraChem MOL file


 20 19  0  0  0  0  0  0  0  0999 V2000     
   20.3553   20.9316   21.5368 C   0  0  0  0  0  0  0  0  0  0  0  0
   20.4497   21.9417   21.1173 H   0  0  0  0  0  0  0  0  0  0  0  0
   19.4433   20.9211   22.1443 H   0  0  0  0  0  0  0  0  0  0  0  0
   21.2201   20.7610   22.1913 H   0  0  0  0  0  0  0  0  0  0  0  0
   20.2947   19.8843   20.4015 C   0  0  0  0  0  0  0  0  0  0  0  0
   21.1091   20.0907   19.6929 H   0  0  0  0  0  0  0  0  0  0  0  0
   19.3611   20.0097   19.8353 H   0  0  0  0  0  0  0  0  0  0  0  0
   20.4250   18.4145   20.8766 C   0  0  0  0  0  0  0  0  0  0  0  0
   20.4635   17.7752   19.9848 H   0  0  0  0  0  0  0  0  0  0  0  0
   21.3830   18.2651   21.3903 H   0  0  0  0  0  0  0  0  0  0  0  0
   19.2551   17.9171   21.7572 C   0  0  0  0  0  0  0  0  0  0  0  0
   19.2499   16.8242   21.7645 H   0  0  0  0  0  0  0  0  0  0  0  0
   18.3115   18.2517   21.3188 H   0  0  0  0  0  0  0  0  0  0  0  0
   19.2817   18.3697   23.2087 N   0  3  0  0  0  0  0  0  0  0  0  0
   18.3774   18.1509   23.6554 H   0  0  0  0  0  0  0  0  0  0  0  0
   19.3666   19.3945   23.2576 H   0  0  0  0  0  0  0  0  0  0  0  0
   20.4138   17.6970   23.9771 C   0  0  0  0  0  0  0  0  0  0  0  0
   20.2911   16.6132   23.9219 H   0  0  0  0  0  0  0  0  0  0  0  0
   21.3714   17.9839   23.5384 H   0  0  0  0  0  0  0  0  0  0  0  0
   20.3783   18.0182   25.0204 H   0  0  0  0  0  0  0  0  0  0  0  0
  1  2  1  0  0  0  0
  1  3  1  0  0  0  0
  1  4  1  0  0  0  0
  1  5  1  0  0  0  0
  5  6  1  0  0  0  0
  5  7  1  0  0  0  0
  5  8  1  0  0  0  0
  8  9  1  0  0  0  0
  8 10  1  0  0  0  0
  8 11  1  0  0  0  0
 11 12  1  0  0  0  0
 11 13  1  0  0  0  0
 11 14  1  0  0  0  0
 14 15  1  0  0  0  0
 14 16  1  0  0  0  0
 14 17  1  0  0  0  0
 17 18  1  0  0  0  0
 17 19  1  0  0  0  0
 17 20  1  0  0  0  0
M  END
> <VConfSearch Rank>
377

> <Conf_Id>
55

> <Delta U+W>
2.745

> <U+W>
18.083

> <U>
72.490

> <W>
-54.407

> <W(PB)>
-56.269

> <W(SA)>
1.861

> <Valence>
2.738

> <Coulomb>
69.795

> <VdW>
-0.043

> <VdW6>
-5.333

> <VdW12>
5.290

> <Bond>
0.182

> <Angle>
1.135

> <Pdih>
1.422

> <Idih>
0.000

> <Tether>
0.000

$$$$
VeraChem MOL file


 20 19  0  0  0  0  0  0  0  0999 V2000     
   18.5477   18.7879   23.5875 C   0  0  0  0  0  0  0  0  0  0  0  0
   17.6878   18.7807   24.2699 H   0  0  0  0  0  0  0  0  0  0  0  0
   19.3089   18.1155   24.0043 H   0  0  0  0  0  0  0  0  0  0  0  0
   18.9428   19.8102   23.5812 H   0  0  0  0  0  0  0  0  0  0  0  0
   18.1131   18.3372   22.1742 C   0  0  0  0  0  0  0  0  0  0  0  0
   17.4405   19.0899   21.7392 H   0  0  0  0  0  0  0  0  0  0  0  0
   17.5183   17.4178   22.2690 H   0  0  0  0  0  0  0  0  0  0  0  0
   19.2864   18.0586   21.2004 C   0  0  0  0  0  0  0  0  0  0  0  0
   19.9301   17.2644   21.5988 H   0  0  0  0  0  0  0  0  0  0  0  0
   18.8629   17.6584   20.2697 H   0  0  0  0  0  0  0  0  0  0  0  0
   20.1270   19.3036   20.8330 C   0  0  0  0  0  0  0  0  0  0  0  0
   19.4542   20.1401   20.6278 H   0  0  0  0  0  0  0  0  0  0  0  0
   20.6922   19.0992   19.9202 H   0  0  0  0  0  0  0  0  0  0  0  0
   21.1293   19.7574   21.8827 N   0  3  0  0  0  0  0  0  0  0  0  0
   20.6574   19.8885   22.7882 H   0  0  0  0  0  0  0  0  0  0  0  0
   21.4958   20.6886   21.6305 H   0  0  0  0  0  0  0  0  0  0  0  0
   22.2809   18.7666   22.0126 C   0  0  0  0  0  0  0  0  0  0  0  0
   21.8935   17.8005   22.3415 H   0  0  0  0  0  0  0  0  0  0  0  0
   22.7724   18.6580   21.0434 H   0  0  0  0  0  0  0  0  0  0  0  0
   22.9959   19.1435   22.7471 H   0  0  0  0  0  0  0  0  0  0  0  0
  1  2  1  0  0  0  0
  1  3  1  0  0  0  0
  1  4  1  0  0  0  0
  1  5  1  0  0  0  0
  5  6  1  0  0  0  0
  5  7  1  0  0  0  0
  5  8  1  0  0  0  0
  8  9  1  0  0  0  0
  8 10  1  0  0  0  0
  8 11  1  0  0  0  0
 11 12  1  0  0  0  0
 11 13  1  0  0  0  0
 11 14  1  0  0  0  0
 14 15  1  0  0  0  0
 14 16  1  0  0  0  0
 14 17  1  0  0  0  0
 17 18  1  0  0  0  0
 17 19  1  0  0  0  0
 17 20  1  0  0  0  0
M  END
> <VConfSearch Rank>
378

> <Conf_Id>
76

> <Delta U+W>
2.799

> <U+W>
18.137

> <U>
72.490

> <W>
-54.353

> <W(PB)>
-56.201

> <W(SA)>
1.848

> <Valence>
2.738

> <Coulomb>
69.795

> <VdW>
-0.043

> <VdW6>
-5.334

> <VdW12>
5.290

> <Bond>
0.182

> <Angle>
1.135

> <Pdih>
1.421

> <Idih>
0.000

> <Tether>
0.000

$$$$
VeraChem MOL file


 20 19  0  0  0  0  0  0  0  0999 V2000     
   19.8975   19.6322   20.0634 C   0  0  0  0  0  0  0  0  0  0  0  0
   20.9265   19.4923   20.4166 H   0  0  0  0  0  0  0  0  0  0  0  0
   19.7309   18.9496   19.2200 H   0  0  0  0  0  0  0  0  0  0  0  0
   19.8138   20.6589   19.6842 H   0  0  0  0  0  0  0  0  0  0  0  0
   18.8675   19.3841   21.1895 C   0  0  0  0  0  0  0  0  0  0  0  0
   17.8623   19.6065   20.8050 H   0  0  0  0  0  0  0  0  0  0  0  0
   19.0330   20.0886   22.0148 H   0  0  0  0  0  0  0  0  0  0  0  0
   18.8845   17.9290   21.7183 C   0  0  0  0  0  0  0  0  0  0  0  0
   18.1039   17.8105   22.4813 H   0  0  0  0  0  0  0  0  0  0  0  0
   18.6073   17.2543   20.8976 H   0  0  0  0  0  0  0  0  0  0  0  0
   20.2359   17.4513   22.2999 C   0  0  0  0  0  0  0  0  0  0  0  0
   21.0338   17.5672   21.5626 H   0  0  0  0  0  0  0  0  0  0  0  0
   20.1452   16.3850   22.5222 H   0  0  0  0  0  0  0  0  0  0  0  0
   20.6711   18.1263   23.5921 N   0  3  0  0  0  0  0  0  0  0  0  0
   21.2177   17.4574   24.1567 H   0  0  0  0  0  0  0  0  0  0  0  0
   19.8503   18.3515   24.1736 H   0  0  0  0  0  0  0  0  0  0  0  0
   21.5196   19.3647   23.3242 C   0  0  0  0  0  0  0  0  0  0  0  0
   21.8324   19.7959   24.2777 H   0  0  0  0  0  0  0  0  0  0  0  0
   22.4002   19.0770   22.7459 H   0  0  0  0  0  0  0  0  0  0  0  0
   20.9365   20.0976   22.7658 H   0  0  0  0  0  0  0  0  0  0  0  0
  1  2  1  0  0  0  0
  1  3  1  0  0  0  0
  1  4  1  0  0  0  0
  1  5  1  0  0  0  0
  5  6  1  0  0  0  0
  5  7  1  0  0  0  0
  5  8  1  0  0  0  0
  8  9  1  0  0  0  0
  8 10  1  0  0  0  0
  8 11  1  0  0  0  0
 11 12  1  0  0  0  0
 11 13  1  0  0  0  0
 11 14  1  0  0  0  0
 14 15  1  0  0  0  0
 14 16  1  0  0  0  0
 14 17  1  0  0  0  0
 17 18  1  0  0  0  0
 17 19  1  0  0  0  0
 17 20  1  0  0  0  0
M  END
> <VConfSearch Rank>
379

> <Conf_Id>
60

> <Delta U+W>
1.788

> <U+W>
17.127

> <U>
72.122

> <W>
-54.995

> <W(PB)>
-56.810

> <W(SA)>
1.815

> <Valence>
3.197

> <Coulomb>
69.115

> <VdW>
-0.190

> <VdW6>
-5.585

> <VdW12>
5.395

> <Bond>
0.177

> <Angle>
1.207

> <Pdih>
1.813

> <Idih>
0.000

> <Tether>
0.000

$$$$
VeraChem MOL file


 20 19  0  0  0  0  0  0  0  0999 V2000     
   21.5881   20.3728   21.9893 C   0  0  0  0  0  0  0  0  0  0  0  0
   22.3269   20.7563   21.2739 H   0  0  0  0  0  0  0  0  0  0  0  0
   21.5464   21.0722   22.8342 H   0  0  0  0  0  0  0  0  0  0  0  0
   21.9571   19.4096   22.3624 H   0  0  0  0  0  0  0  0  0  0  0  0
   20.2031   20.2328   21.3163 C   0  0  0  0  0  0  0  0  0  0  0  0
   20.2663   19.5484   20.4605 H   0  0  0  0  0  0  0  0  0  0  0  0
   19.9128   21.2068   20.8980 H   0  0  0  0  0  0  0  0  0  0  0  0
   19.0974   19.7645   22.2939 C   0  0  0  0  0  0  0  0  0  0  0  0
   18.9795   20.5227   23.0793 H   0  0  0  0  0  0  0  0  0  0  0  0
   18.1361   19.7281   21.7647 H   0  0  0  0  0  0  0  0  0  0  0  0
   19.3508   18.3993   22.9755 C   0  0  0  0  0  0  0  0  0  0  0  0
   18.5652   18.2472   23.7201 H   0  0  0  0  0  0  0  0  0  0  0  0
   20.3076   18.4050   23.5029 H   0  0  0  0  0  0  0  0  0  0  0  0
   19.3142   17.1880   22.0556 N   0  3  0  0  0  0  0  0  0  0  0  0
   18.6219   17.3282   21.3048 H   0  0  0  0  0  0  0  0  0  0  0  0
   18.9678   16.3717   22.5833 H   0  0  0  0  0  0  0  0  0  0  0  0
   20.6929   16.8681   21.4881 C   0  0  0  0  0  0  0  0  0  0  0  0
   21.3848   16.6821   22.3123 H   0  0  0  0  0  0  0  0  0  0  0  0
   20.6224   15.9769   20.8607 H   0  0  0  0  0  0  0  0  0  0  0  0
   21.0499   17.7077   20.8909 H   0  0  0  0  0  0  0  0  0  0  0  0
  1  2  1  0  0  0  0
  1  3  1  0  0  0  0
  1  4  1  0  0  0  0
  1  5  1  0  0  0  0
  5  6  1  0  0  0  0
  5  7  1  0  0  0  0
  5  8  1  0  0  0  0
  8  9  1  0  0  0  0
  8 10  1  0  0  0  0
  8 11  1  0  0  0  0
 11 12  1  0  0  0  0
 11 13  1  0  0  0  0
 11 14  1  0  0  0  0
 14 15  1  0  0  0  0
 14 16  1  0  0  0  0
 14 17  1  0  0  0  0
 17 18  1  0  0  0  0
 17 19  1  0  0  0  0
 17 20  1  0  0  0  0
M  END
> <VConfSearch Rank>
380

> <Conf_Id>
54

> <Delta U+W>
1.880

> <U+W>
17.218

> <U>
72.122

> <W>
-54.903

> <W(PB)>
-56.724

> <W(SA)>
1.821

> <Valence>
3.197

> <Coulomb>
69.115

> <VdW>
-0.190

> <VdW6>
-5.585

> <VdW12>
5.395

> <Bond>
0.177

> <Angle>
1.207

> <Pdih>
1.813

> <Idih>
0.000

> <Tether>
0.000

$$$$
VeraChem MOL file


 20 19  0  0  0  0  0  0  0  0999 V2000     
   17.3563   20.5310   22.3770 C   0  0  0  0  0  0  0  0  0  0  0  0
   17.7668   21.5005   22.0661 H   0  0  0  0  0  0  0  0  0  0  0  0
   16.3217   20.4724   22.0148 H   0  0  0  0  0  0  0  0  0  0  0  0
   17.3301   20.5073   23.4743 H   0  0  0  0  0  0  0  0  0  0  0  0
   18.1979   19.3646   21.8154 C   0  0  0  0  0  0  0  0  0  0  0  0
   18.1764   19.3947   20.7167 H   0  0  0  0  0  0  0  0  0  0  0  0
   17.7431   18.4094   22.1139 H   0  0  0  0  0  0  0  0  0  0  0  0
   19.6603   19.4215   22.3090 C   0  0  0  0  0  0  0  0  0  0  0  0
   20.1150   20.3745   22.0073 H   0  0  0  0  0  0  0  0  0  0  0  0
   19.6811   19.3879   23.4065 H   0  0  0  0  0  0  0  0  0  0  0  0
   20.4928   18.2552   21.7448 C   0  0  0  0  0  0  0  0  0  0  0  0
   20.4871   18.2946   20.6526 H   0  0  0  0  0  0  0  0  0  0  0  0
   20.0519   17.3049   22.0563 H   0  0  0  0  0  0  0  0  0  0  0  0
   21.9380   18.2699   22.2032 N   0  3  0  0  0  0  0  0  0  0  0  0
   21.9857   18.2415   23.2333 H   0  0  0  0  0  0  0  0  0  0  0  0
   22.3886   19.1579   21.9336 H   0  0  0  0  0  0  0  0  0  0  0  0
   22.6860   17.0877   21.6016 C   0  0  0  0  0  0  0  0  0  0  0  0
   22.6520   17.1569   20.5122 H   0  0  0  0  0  0  0  0  0  0  0  0
   23.7244   17.1106   21.9396 H   0  0  0  0  0  0  0  0  0  0  0  0
   22.2132   16.1589   21.9279 H   0  0  0  0  0  0  0  0  0  0  0  0
  1  2  1  0  0  0  0
  1  3  1  0  0  0  0
  1  4  1  0  0  0  0
  1  5  1  0  0  0  0
  5  6  1  0  0  0  0
  5  7  1  0  0  0  0
  5  8  1  0  0  0  0
  8  9  1  0  0  0  0
  8 10  1  0  0  0  0
  8 11  1  0  0  0  0
 11 12  1  0  0  0  0
 11 13  1  0  0  0  0
 11 14  1  0  0  0  0
 14 15  1  0  0  0  0
 14 16  1  0  0  0  0
 14 17  1  0  0  0  0
 17 18  1  0  0  0  0
 17 19  1  0  0  0  0
 17 20  1  0  0  0  0
M  END
> <VConfSearch Rank>
381

> <Conf_Id>
67

> <Delta U+W>
0.000

> <U+W>
15.338

> <U>
69.277

> <W>
-53.939

> <W(PB)>
-55.889

> <W(SA)>
1.950

> <Valence>
0.846

> <Coulomb>
68.557

> <VdW>
-0.127

> <VdW6>
-3.008

> <VdW12>
2.882

> <Bond>
0.088

> <Angle>
0.332

> <Pdih>
0.426

> <Idih>
0.000

> <Tether>
0.000

$$$$
VeraChem MOL file


 20 19  0  0  0  0  0  0  0  0999 V2000     
   22.7902   19.5788   20.8825 C   0  0  0  0  0  0  0  0  0  0  0  0
   23.2722   18.9964   21.6785 H   0  0  0  0  0  0  0  0  0  0  0  0
   23.4041   19.4834   19.9775 H   0  0  0  0  0  0  0  0  0  0  0  0
   22.7944   20.6350   21.1816 H   0  0  0  0  0  0  0  0  0  0  0  0
   21.3522   19.0803   20.6213 C   0  0  0  0  0  0  0  0  0  0  0  0
   21.3833   18.0323   20.2911 H   0  0  0  0  0  0  0  0  0  0  0  0
   20.9096   19.6580   19.7975 H   0  0  0  0  0  0  0  0  0  0  0  0
   20.4642   19.2031   21.8791 C   0  0  0  0  0  0  0  0  0  0  0  0
   20.9099   18.6250   22.6988 H   0  0  0  0  0  0  0  0  0  0  0  0
   20.4300   20.2509   22.2058 H   0  0  0  0  0  0  0  0  0  0  0  0
   19.0297   18.7043   21.6079 C   0  0  0  0  0  0  0  0  0  0  0  0
   19.0507   17.6478   21.3289 H   0  0  0  0  0  0  0  0  0  0  0  0
   18.6112   19.2670   20.7695 H   0  0  0  0  0  0  0  0  0  0  0  0
   18.0732   18.8606   22.7789 N   0  3  0  0  0  0  0  0  0  0  0  0
   17.1099   18.6608   22.4666 H   0  0  0  0  0  0  0  0  0  0  0  0
   18.0503   19.8426   23.0932 H   0  0  0  0  0  0  0  0  0  0  0  0
   18.4472   17.9312   23.9287 C   0  0  0  0  0  0  0  0  0  0  0  0
   19.4411   18.1922   24.2975 H   0  0  0  0  0  0  0  0  0  0  0  0
   17.7169   18.0453   24.7328 H   0  0  0  0  0  0  0  0  0  0  0  0
   18.4435   16.8989   23.5723 H   0  0  0  0  0  0  0  0  0  0  0  0
  1  2  1  0  0  0  0
  1  3  1  0  0  0  0
  1  4  1  0  0  0  0
  1  5  1  0  0  0  0
  5  6  1  0  0  0  0
  5  7  1  0  0  0  0
  5  8  1  0  0  0  0
  8  9  1  0  0  0  0
  8 10  1  0  0  0  0
  8 11  1  0  0  0  0
 11 12  1  0  0  0  0
 11 13  1  0  0  0  0
 11 14  1  0  0  0  0
 14 15  1  0  0  0  0
 14 16  1  0  0  0  0
 14 17  1  0  0  0  0
 17 18  1  0  0  0  0
 17 19  1  0  0  0  0
 17 20  1  0  0  0  0
M  END
> <VConfSearch Rank>
382

> <Conf_Id>
37

> <Delta U+W>
-0.021

> <U+W>
15.318

> <U>
69.657

> <W>
-54.340

> <W(PB)>
-56.238

> <W(SA)>
1.899

> <Valence>
1.137

> <Coulomb>
68.383

> <VdW>
0.138

> <VdW6>
-3.703

> <VdW12>
3.841

> <Bond>
0.125

> <Angle>
0.468

> <Pdih>
0.543

> <Idih>
0.000

> <Tether>
0.000

$$$$
VeraChem MOL file


 20 19  0  0  0  0  0  0  0  0999 V2000     
   20.6247   18.8859   19.0491 C   0  0  0  0  0  0  0  0  0  0  0  0
   20.4562   18.3433   18.1099 H   0  0  0  0  0  0  0  0  0  0  0  0
   20.1248   19.8600   18.9688 H   0  0  0  0  0  0  0  0  0  0  0  0
   21.7038   19.0628   19.1461 H   0  0  0  0  0  0  0  0  0  0  0  0
   20.0830   18.0800   20.2496 C   0  0  0  0  0  0  0  0  0  0  0  0
   20.5762   17.0982   20.2826 H   0  0  0  0  0  0  0  0  0  0  0  0
   19.0097   17.8896   20.1072 H   0  0  0  0  0  0  0  0  0  0  0  0
   20.3069   18.8202   21.5867 C   0  0  0  0  0  0  0  0  0  0  0  0
   21.3794   19.0062   21.7303 H   0  0  0  0  0  0  0  0  0  0  0  0
   19.8128   19.7996   21.5491 H   0  0  0  0  0  0  0  0  0  0  0  0
   19.7640   18.0067   22.7798 C   0  0  0  0  0  0  0  0  0  0  0  0
   20.2414   17.0235   22.7851 H   0  0  0  0  0  0  0  0  0  0  0  0
   18.6869   17.8587   22.6687 H   0  0  0  0  0  0  0  0  0  0  0  0
   20.0122   18.6367   24.1407 N   0  3  0  0  0  0  0  0  0  0  0  0
   21.0184   18.8222   24.2706 H   0  0  0  0  0  0  0  0  0  0  0  0
   19.7705   17.9613   24.8828 H   0  0  0  0  0  0  0  0  0  0  0  0
   19.1974   19.9135   24.3181 C   0  0  0  0  0  0  0  0  0  0  0  0
   18.1369   19.6831   24.1955 H   0  0  0  0  0  0  0  0  0  0  0  0
   19.3734   20.3139   25.3189 H   0  0  0  0  0  0  0  0  0  0  0  0
   19.5058   20.6473   23.5709 H   0  0  0  0  0  0  0  0  0  0  0  0
  1  2  1  0  0  0  0
  1  3  1  0  0  0  0
  1  4  1  0  0  0  0
  1  5  1  0  0  0  0
  5  6  1  0  0  0  0
  5  7  1  0  0  0  0
  5  8  1  0  0  0  0
  8  9  1  0  0  0  0
  8 10  1  0  0  0  0
  8 11  1  0  0  0  0
 11 12  1  0  0  0  0
 11 13  1  0  0  0  0
 11 14  1  0  0  0  0
 14 15  1  0  0  0  0
 14 16  1  0  0  0  0
 14 17  1  0  0  0  0
 17 18  1  0  0  0  0
 17 19  1  0  0  0  0
 17 20  1  0  0  0  0
M  END
> <VConfSearch Rank>
383

> <Conf_Id>
2

> <Delta U+W>
0.069

> <U+W>
15.407

> <U>
69.657

> <W>
-54.250

> <W(PB)>
-56.176

> <W(SA)>
1.926

> <Valence>
1.137

> <Coulomb>
68.383

> <VdW>
0.138

> <VdW6>
-3.703

> <VdW12>
3.841

> <Bond>
0.125

> <Angle>
0.468

> <Pdih>
0.543

> <Idih>
0.000

> <Tether>
0.000

$$$$
VeraChem MOL file


 20 19  0  0  0  0  0  0  0  0999 V2000     
   18.5697   20.0212   23.8626 C   0  0  0  0  0  0  0  0  0  0  0  0
   18.6023   20.5853   22.9220 H   0  0  0  0  0  0  0  0  0  0  0  0
   17.7098   19.3399   23.8244 H   0  0  0  0  0  0  0  0  0  0  0  0
   18.3912   20.7399   24.6729 H   0  0  0  0  0  0  0  0  0  0  0  0
   19.8845   19.2451   24.1063 C   0  0  0  0  0  0  0  0  0  0  0  0
   19.8436   18.7732   25.0981 H   0  0  0  0  0  0  0  0  0  0  0  0
   20.7286   19.9486   24.1340 H   0  0  0  0  0  0  0  0  0  0  0  0
   20.1493   18.1548   23.0417 C   0  0  0  0  0  0  0  0  0  0  0  0
   21.0530   17.5963   23.3196 H   0  0  0  0  0  0  0  0  0  0  0  0
   19.3214   17.4334   23.0399 H   0  0  0  0  0  0  0  0  0  0  0  0
   20.3308   18.7382   21.6268 C   0  0  0  0  0  0  0  0  0  0  0  0
   21.1563   19.4543   21.6282 H   0  0  0  0  0  0  0  0  0  0  0  0
   19.4211   19.2628   21.3252 H   0  0  0  0  0  0  0  0  0  0  0  0
   20.6282   17.6867   20.5759 N   0  3  0  0  0  0  0  0  0  0  0  0
   19.8732   16.9843   20.5506 H   0  0  0  0  0  0  0  0  0  0  0  0
   21.4804   17.1624   20.8271 H   0  0  0  0  0  0  0  0  0  0  0  0
   20.7897   18.3459   19.2126 C   0  0  0  0  0  0  0  0  0  0  0  0
   21.6155   19.0595   19.2535 H   0  0  0  0  0  0  0  0  0  0  0  0
   21.0035   17.5780   18.4659 H   0  0  0  0  0  0  0  0  0  0  0  0
   19.8649   18.8652   18.9521 H   0  0  0  0  0  0  0  0  0  0  0  0
  1  2  1  0  0  0  0
  1  3  1  0  0  0  0
  1  4  1  0  0  0  0
  1  5  1  0  0  0  0
  5  6  1  0  0  0  0
  5  7  1  0  0  0  0
  5  8  1  0  0  0  0
  8  9  1  0  0  0  0
  8 10  1  0  0  0  0
  8 11  1  0  0  0  0
 11 12  1  0  0  0  0
 11 13  1  0  0  0  0
 11 14  1  0  0  0  0
 14 15  1  0  0  0  0
 14 16  1  0  0  0  0
 14 17  1  0  0  0  0
 17 18  1  0  0  0  0
 17 19  1  0  0  0  0
 17 20  1  0  0  0  0
M  END
> <VConfSearch Rank>
384

> <Conf_Id>
34

> <Delta U+W>
0.276

> <U+W>
15.615

> <U>
69.798

> <W>
-54.184

> <W(PB)>
-56.116

> <W(SA)>
1.933

> <Valence>
1.134

> <Coulomb>
68.735

> <VdW>
-0.070

> <VdW6>
-3.565

> <VdW12>
3.494

> <Bond>
0.108

> <Angle>
0.456

> <Pdih>
0.569

> <Idih>
0.000

> <Tether>
0.000

$$$$
VeraChem MOL file


 20 19  0  0  0  0  0  0  0  0999 V2000     
   22.6910   18.6556   23.4586 C   0  0  0  0  0  0  0  0  0  0  0  0
   22.5319   18.2143   24.4511 H   0  0  0  0  0  0  0  0  0  0  0  0
   23.6127   18.2269   23.0442 H   0  0  0  0  0  0  0  0  0  0  0  0
   22.8497   19.7344   23.5860 H   0  0  0  0  0  0  0  0  0  0  0  0
   21.4921   18.3763   22.5265 C   0  0  0  0  0  0  0  0  0  0  0  0
   21.3792   17.2910   22.3938 H   0  0  0  0  0  0  0  0  0  0  0  0
   21.7040   18.7966   21.5341 H   0  0  0  0  0  0  0  0  0  0  0  0
   20.1794   18.9715   23.0884 C   0  0  0  0  0  0  0  0  0  0  0  0
   20.0020   18.5719   24.0957 H   0  0  0  0  0  0  0  0  0  0  0  0
   20.2753   20.0600   23.1971 H   0  0  0  0  0  0  0  0  0  0  0  0
   18.9524   18.6469   22.2128 C   0  0  0  0  0  0  0  0  0  0  0  0
   18.0492   19.0150   22.7060 H   0  0  0  0  0  0  0  0  0  0  0  0
   18.8595   17.5640   22.0976 H   0  0  0  0  0  0  0  0  0  0  0  0
   19.0003   19.2634   20.8273 N   0  3  0  0  0  0  0  0  0  0  0  0
   19.8395   18.9405   20.3234 H   0  0  0  0  0  0  0  0  0  0  0  0
   19.0987   20.2878   20.8973 H   0  0  0  0  0  0  0  0  0  0  0  0
   17.7407   18.8995   20.0528 C   0  0  0  0  0  0  0  0  0  0  0  0
   17.6749   17.8130   19.9628 H   0  0  0  0  0  0  0  0  0  0  0  0
   16.8673   19.2795   20.5872 H   0  0  0  0  0  0  0  0  0  0  0  0
   17.7883   19.3491   19.0586 H   0  0  0  0  0  0  0  0  0  0  0  0
  1  2  1  0  0  0  0
  1  3  1  0  0  0  0
  1  4  1  0  0  0  0
  1  5  1  0  0  0  0
  5  6  1  0  0  0  0
  5  7  1  0  0  0  0
  5  8  1  0  0  0  0
  8  9  1  0  0  0  0
  8 10  1  0  0  0  0
  8 11  1  0  0  0  0
 11 12  1  0  0  0  0
 11 13  1  0  0  0  0
 11 14  1  0  0  0  0
 14 15  1  0  0  0  0
 14 16  1  0  0  0  0
 14 17  1  0  0  0  0
 17 18  1  0  0  0  0
 17 19  1  0  0  0  0
 17 20  1  0  0  0  0
M  END
> <VConfSearch Rank>
385

> <Conf_Id>
50

> <Delta U+W>
0.319

> <U+W>
15.657

> <U>
69.962

> <W>
-54.305

> <W(PB)>
-56.223

> <W(SA)>
1.918

> <Valence>
0.982

> <Coulomb>
69.058

> <VdW>
-0.078

> <VdW6>
-3.548

> <VdW12>
3.471

> <Bond>
0.105

> <Angle>
0.408

> <Pdih>
0.469

> <Idih>
0.000

> <Tether>
0.000

$$$$
VeraChem MOL file


 20 19  0  0  0  0  0  0  0  0999 V2000     
   22.1717   17.9367   20.0095 C   0  0  0  0  0  0  0  0  0  0  0  0
   23.1686   18.3830   19.8993 H   0  0  0  0  0  0  0  0  0  0  0  0
   22.2979   16.8493   20.0917 H   0  0  0  0  0  0  0  0  0  0  0  0
   21.6062   18.1465   19.0923 H   0  0  0  0  0  0  0  0  0  0  0  0
   21.4518   18.5088   21.2498 C   0  0  0  0  0  0  0  0  0  0  0  0
   21.3798   19.6004   21.1508 H   0  0  0  0  0  0  0  0  0  0  0  0
   22.0571   18.3108   22.1458 H   0  0  0  0  0  0  0  0  0  0  0  0
   20.0427   17.8956   21.4274 C   0  0  0  0  0  0  0  0  0  0  0  0
   19.4230   18.1139   20.5475 H   0  0  0  0  0  0  0  0  0  0  0  0
   20.1277   16.8023   21.4856 H   0  0  0  0  0  0  0  0  0  0  0  0
   19.3281   18.3966   22.6986 C   0  0  0  0  0  0  0  0  0  0  0  0
   19.9466   18.1864   23.5747 H   0  0  0  0  0  0  0  0  0  0  0  0
   18.3814   17.8628   22.8149 H   0  0  0  0  0  0  0  0  0  0  0  0
   19.0173   19.8816   22.6893 N   0  3  0  0  0  0  0  0  0  0  0  0
   18.4414   20.1191   21.8671 H   0  0  0  0  0  0  0  0  0  0  0  0
   19.8861   20.4259   22.5827 H   0  0  0  0  0  0  0  0  0  0  0  0
   18.2994   20.2703   23.9747 C   0  0  0  0  0  0  0  0  0  0  0  0
   18.0822   21.3405   23.9549 H   0  0  0  0  0  0  0  0  0  0  0  0
   17.3669   19.7068   24.0506 H   0  0  0  0  0  0  0  0  0  0  0  0
   18.9405   20.0405   24.8286 H   0  0  0  0  0  0  0  0  0  0  0  0
  1  2  1  0  0  0  0
  1  3  1  0  0  0  0
  1  4  1  0  0  0  0
  1  5  1  0  0  0  0
  5  6  1  0  0  0  0
  5  7  1  0  0  0  0
  5  8  1  0  0  0  0
  8  9  1  0  0  0  0
  8 10  1  0  0  0  0
  8 11  1  0  0  0  0
 11 12  1  0  0  0  0
 11 13  1  0  0  0  0
 11 14  1  0  0  0  0
 14 15  1  0  0  0  0
 14 16  1  0  0  0  0
 14 17  1  0  0  0  0
 17 18  1  0  0  0  0
 17 19  1  0  0  0  0
 17 20  1  0  0  0  0
M  END
> <VConfSearch Rank>
386

> <Conf_Id>
35

> <Delta U+W>
0.360

> <U+W>
15.698

> <U>
69.962

> <W>
-54.264

> <W(PB)>
-56.166

> <W(SA)>
1.902

> <Valence>
0.982

> <Coulomb>
69.058

> <VdW>
-0.078

> <VdW6>
-3.548

> <VdW12>
3.471

> <Bond>
0.105

> <Angle>
0.408

> <Pdih>
0.469

> <Idih>
0.000

> <Tether>
0.000

$$$$
VeraChem MOL file


 20 19  0  0  0  0  0  0  0  0999 V2000     
   21.2721   18.8581   19.7435 C   0  0  0  0  0  0  0  0  0  0  0  0
   20.6105   19.7335   19.7324 H   0  0  0  0  0  0  0  0  0  0  0  0
   22.0570   19.0274   18.9950 H   0  0  0  0  0  0  0  0  0  0  0  0
   20.6894   17.9839   19.4255 H   0  0  0  0  0  0  0  0  0  0  0  0
   21.8947   18.6336   21.1407 C   0  0  0  0  0  0  0  0  0  0  0  0
   22.4674   19.5238   21.4372 H   0  0  0  0  0  0  0  0  0  0  0  0
   22.6168   17.8071   21.0830 H   0  0  0  0  0  0  0  0  0  0  0  0
   20.8417   18.3062   22.2251 C   0  0  0  0  0  0  0  0  0  0  0  0
   20.2987   17.3954   21.9418 H   0  0  0  0  0  0  0  0  0  0  0  0
   21.3573   18.0844   23.1688 H   0  0  0  0  0  0  0  0  0  0  0  0
   19.8464   19.4641   22.4534 C   0  0  0  0  0  0  0  0  0  0  0  0
   19.2777   19.6514   21.5395 H   0  0  0  0  0  0  0  0  0  0  0  0
   20.4069   20.3707   22.6952 H   0  0  0  0  0  0  0  0  0  0  0  0
   18.8535   19.2315   23.5805 N   0  3  0  0  0  0  0  0  0  0  0  0
   18.3403   20.1057   23.7746 H   0  0  0  0  0  0  0  0  0  0  0  0
   19.3520   19.0178   24.4577 H   0  0  0  0  0  0  0  0  0  0  0  0
   17.8693   18.1204   23.2309 C   0  0  0  0  0  0  0  0  0  0  0  0
   18.4136   17.1843   23.0916 H   0  0  0  0  0  0  0  0  0  0  0  0
   17.1516   18.0086   24.0466 H   0  0  0  0  0  0  0  0  0  0  0  0
   17.3425   18.3830   22.3110 H   0  0  0  0  0  0  0  0  0  0  0  0
  1  2  1  0  0  0  0
  1  3  1  0  0  0  0
  1  4  1  0  0  0  0
  1  5  1  0  0  0  0
  5  6  1  0  0  0  0
  5  7  1  0  0  0  0
  5  8  1  0  0  0  0
  8  9  1  0  0  0  0
  8 10  1  0  0  0  0
  8 11  1  0  0  0  0
 11 12  1  0  0  0  0
 11 13  1  0  0  0  0
 11 14  1  0  0  0  0
 14 15  1  0  0  0  0
 14 16  1  0  0  0  0
 14 17  1  0  0  0  0
 17 18  1  0  0  0  0
 17 19  1  0  0  0  0
 17 20  1  0  0  0  0
M  END
> <VConfSearch Rank>
387

> <Conf_Id>
33

> <Delta U+W>
0.372

> <U+W>
15.711

> <U>
70.163

> <W>
-54.452

> <W(PB)>
-56.363

> <W(SA)>
1.911

> <Valence>
1.420

> <Coulomb>
68.566

> <VdW>
0.177

> <VdW6>
-4.267

> <VdW12>
4.445

> <Bond>
0.146

> <Angle>
0.581

> <Pdih>
0.693

> <Idih>
0.000

> <Tether>
0.000

$$$$
VeraChem MOL file


 20 19  0  0  0  0  0  0  0  0999 V2000     
   22.3075   17.5410   22.4725 C   0  0  0  0  0  0  0  0  0  0  0  0
   23.1554   16.8546   22.3499 H   0  0  0  0  0  0  0  0  0  0  0  0
   22.6436   18.5396   22.1660 H   0  0  0  0  0  0  0  0  0  0  0  0
   22.0575   17.5765   23.5408 H   0  0  0  0  0  0  0  0  0  0  0  0
   21.0991   17.0655   21.6336 C   0  0  0  0  0  0  0  0  0  0  0  0
   20.8555   16.0302   21.9105 H   0  0  0  0  0  0  0  0  0  0  0  0
   21.3739   17.0439   20.5695 H   0  0  0  0  0  0  0  0  0  0  0  0
   19.8436   17.9470   21.8300 C   0  0  0  0  0  0  0  0  0  0  0  0
   19.0080   17.5093   21.2683 H   0  0  0  0  0  0  0  0  0  0  0  0
   19.5521   17.9345   22.8881 H   0  0  0  0  0  0  0  0  0  0  0  0
   20.0614   19.4014   21.3600 C   0  0  0  0  0  0  0  0  0  0  0  0
   20.3888   19.3916   20.3173 H   0  0  0  0  0  0  0  0  0  0  0  0
   20.8464   19.8716   21.9570 H   0  0  0  0  0  0  0  0  0  0  0  0
   18.8256   20.2829   21.4383 N   0  3  0  0  0  0  0  0  0  0  0  0
   18.0479   19.8558   20.9125 H   0  0  0  0  0  0  0  0  0  0  0  0
   19.0089   21.1780   20.9581 H   0  0  0  0  0  0  0  0  0  0  0  0
   18.4231   20.5450   22.8856 C   0  0  0  0  0  0  0  0  0  0  0  0
   17.5568   21.2100   22.9010 H   0  0  0  0  0  0  0  0  0  0  0  0
   18.1674   19.5996   23.3678 H   0  0  0  0  0  0  0  0  0  0  0  0
   19.2571   21.0152   23.4111 H   0  0  0  0  0  0  0  0  0  0  0  0
  1  2  1  0  0  0  0
  1  3  1  0  0  0  0
  1  4  1  0  0  0  0
  1  5  1  0  0  0  0
  5  6  1  0  0  0  0
  5  7  1  0  0  0  0
  5  8  1  0  0  0  0
  8  9  1  0  0  0  0
  8 10  1  0  0  0  0
  8 11  1  0  0  0  0
 11 12  1  0  0  0  0
 11 13  1  0  0  0  0
 11 14  1  0  0  0  0
 14 15  1  0  0  0  0
 14 16  1  0  0  0  0
 14 17  1  0  0  0  0
 17 18  1  0  0  0  0
 17 19  1  0  0  0  0
 17 20  1  0  0  0  0
M  END
> <VConfSearch Rank>
388

> <Conf_Id>
53

> <Delta U+W>
0.379

> <U+W>
15.717

> <U>
70.163

> <W>
-54.446

> <W(PB)>
-56.322

> <W(SA)>
1.876

> <Valence>
1.420

> <Coulomb>
68.566

> <VdW>
0.177

> <VdW6>
-4.267

> <VdW12>
4.445

> <Bond>
0.146

> <Angle>
0.581

> <Pdih>
0.693

> <Idih>
0.000

> <Tether>
0.000

$$$$
VeraChem MOL file


 20 19  0  0  0  0  0  0  0  0999 V2000     
   18.9580   19.0059   19.4440 C   0  0  0  0  0  0  0  0  0  0  0  0
   18.9249   19.8729   18.7716 H   0  0  0  0  0  0  0  0  0  0  0  0
   19.1812   18.1187   18.8373 H   0  0  0  0  0  0  0  0  0  0  0  0
   17.9580   18.8794   19.8790 H   0  0  0  0  0  0  0  0  0  0  0  0
   20.0214   19.2094   20.5449 C   0  0  0  0  0  0  0  0  0  0  0  0
   19.7870   20.1250   21.1048 H   0  0  0  0  0  0  0  0  0  0  0  0
   21.0043   19.3647   20.0780 H   0  0  0  0  0  0  0  0  0  0  0  0
   20.0867   18.0010   21.5082 C   0  0  0  0  0  0  0  0  0  0  0  0
   19.1149   17.8580   21.9979 H   0  0  0  0  0  0  0  0  0  0  0  0
   20.2778   17.0867   20.9309 H   0  0  0  0  0  0  0  0  0  0  0  0
   21.1959   18.1420   22.5743 C   0  0  0  0  0  0  0  0  0  0  0  0
   22.1627   18.2256   22.0713 H   0  0  0  0  0  0  0  0  0  0  0  0
   21.2192   17.2439   23.1968 H   0  0  0  0  0  0  0  0  0  0  0  0
   21.0607   19.3407   23.5014 N   0  3  0  0  0  0  0  0  0  0  0  0
   21.0315   20.2129   22.9533 H   0  0  0  0  0  0  0  0  0  0  0  0
   21.9078   19.4224   24.0853 H   0  0  0  0  0  0  0  0  0  0  0  0
   19.8282   19.2178   24.3906 C   0  0  0  0  0  0  0  0  0  0  0  0
   19.8955   18.2963   24.9728 H   0  0  0  0  0  0  0  0  0  0  0  0
   19.7859   20.0765   25.0643 H   0  0  0  0  0  0  0  0  0  0  0  0
   18.9324   19.1974   23.7668 H   0  0  0  0  0  0  0  0  0  0  0  0
  1  2  1  0  0  0  0
  1  3  1  0  0  0  0
  1  4  1  0  0  0  0
  1  5  1  0  0  0  0
  5  6  1  0  0  0  0
  5  7  1  0  0  0  0
  5  8  1  0  0  0  0
  8  9  1  0  0  0  0
  8 10  1  0  0  0  0
  8 11  1  0  0  0  0
 11 12  1  0  0  0  0
 11 13  1  0  0  0  0
 11 14  1  0  0  0  0
 14 15  1  0  0  0  0
 14 16  1  0  0  0  0
 14 17  1  0  0  0  0
 17 18  1  0  0  0  0
 17 19  1  0  0  0  0
 17 20  1  0  0  0  0
M  END
> <VConfSearch Rank>
389

> <Conf_Id>
49

> <Delta U+W>
0.268

> <U+W>
15.607

> <U>
70.298

> <W>
-54.692

> <W(PB)>
-56.576

> <W(SA)>
1.885

> <Valence>
1.245

> <Coulomb>
68.933

> <VdW>
0.120

> <VdW6>
-4.430

> <VdW12>
4.550

> <Bond>
0.148

> <Angle>
0.587

> <Pdih>
0.509

> <Idih>
0.000

> <Tether>
0.000

$$$$
VeraChem MOL file


 20 19  0  0  0  0  0  0  0  0999 V2000     
   21.2934   19.6137   19.6449 C   0  0  0  0  0  0  0  0  0  0  0  0
   21.8305   20.5034   19.9986 H   0  0  0  0  0  0  0  0  0  0  0  0
   22.0354   18.8781   19.3080 H   0  0  0  0  0  0  0  0  0  0  0  0
   20.6929   19.9076   18.7742 H   0  0  0  0  0  0  0  0  0  0  0  0
   20.3939   19.0291   20.7556 C   0  0  0  0  0  0  0  0  0  0  0  0
   19.8492   18.1585   20.3640 H   0  0  0  0  0  0  0  0  0  0  0  0
   19.6432   19.7800   21.0351 H   0  0  0  0  0  0  0  0  0  0  0  0
   21.2149   18.6167   21.9996 C   0  0  0  0  0  0  0  0  0  0  0  0
   22.0342   17.9565   21.6854 H   0  0  0  0  0  0  0  0  0  0  0  0
   21.6871   19.5030   22.4434 H   0  0  0  0  0  0  0  0  0  0  0  0
   20.3955   17.8760   23.0806 C   0  0  0  0  0  0  0  0  0  0  0  0
   21.0817   17.5766   23.8770 H   0  0  0  0  0  0  0  0  0  0  0  0
   19.9532   16.9668   22.6658 H   0  0  0  0  0  0  0  0  0  0  0  0
   19.2897   18.6870   23.7384 N   0  3  0  0  0  0  0  0  0  0  0  0
   19.5568   19.6812   23.7936 H   0  0  0  0  0  0  0  0  0  0  0  0
   19.1858   18.3870   24.7203 H   0  0  0  0  0  0  0  0  0  0  0  0
   17.9591   18.5051   23.0151 C   0  0  0  0  0  0  0  0  0  0  0  0
   17.1902   19.0840   23.5314 H   0  0  0  0  0  0  0  0  0  0  0  0
   18.0479   18.8522   21.9851 H   0  0  0  0  0  0  0  0  0  0  0  0
   17.6887   17.4471   23.0242 H   0  0  0  0  0  0  0  0  0  0  0  0
  1  2  1  0  0  0  0
  1  3  1  0  0  0  0
  1  4  1  0  0  0  0
  1  5  1  0  0  0  0
  5  6  1  0  0  0  0
  5  7  1  0  0  0  0
  5  8  1  0  0  0  0
  8  9  1  0  0  0  0
  8 10  1  0  0  0  0
  8 11  1  0  0  0  0
 11 12  1  0  0  0  0
 11 13  1  0  0  0  0
 11 14  1  0  0  0  0
 14 15  1  0  0  0  0
 14 16  1  0  0  0  0
 14 17  1  0  0  0  0
 17 18  1  0  0  0  0
 17 19  1  0  0  0  0
 17 20  1  0  0  0  0
M  END
> <VConfSearch Rank>
390

> <Conf_Id>
65

> <Delta U+W>
1.775

> <U+W>
17.114

> <U>
71.726

> <W>
-54.613

> <W(PB)>
-56.495

> <W(SA)>
1.883

> <Valence>
2.885

> <Coulomb>
68.822

> <VdW>
0.019

> <VdW6>
-4.600

> <VdW12>
4.619

> <Bond>
0.152

> <Angle>
0.862

> <Pdih>
1.871

> <Idih>
0.000

> <Tether>
0.000

$$$$
VeraChem MOL file


 20 19  0  0  0  0  0  0  0  0999 V2000     
   19.1627   20.9103   21.6715 C   0  0  0  0  0  0  0  0  0  0  0  0
   20.1814   20.8646   22.0767 H   0  0  0  0  0  0  0  0  0  0  0  0
   19.1380   21.7188   20.9295 H   0  0  0  0  0  0  0  0  0  0  0  0
   18.4814   21.1845   22.4875 H   0  0  0  0  0  0  0  0  0  0  0  0
   18.7452   19.5690   21.0260 C   0  0  0  0  0  0  0  0  0  0  0  0
   19.4404   19.3174   20.2135 H   0  0  0  0  0  0  0  0  0  0  0  0
   17.7602   19.6912   20.5541 H   0  0  0  0  0  0  0  0  0  0  0  0
   18.6691   18.4031   22.0433 C   0  0  0  0  0  0  0  0  0  0  0  0
   17.8957   18.6259   22.7903 H   0  0  0  0  0  0  0  0  0  0  0  0
   18.3421   17.4902   21.5281 H   0  0  0  0  0  0  0  0  0  0  0  0
   19.9970   18.1231   22.7777 C   0  0  0  0  0  0  0  0  0  0  0  0
   19.8499   17.3120   23.4954 H   0  0  0  0  0  0  0  0  0  0  0  0
   20.3061   19.0130   23.3312 H   0  0  0  0  0  0  0  0  0  0  0  0
   21.1366   17.7238   21.8598 N   0  3  0  0  0  0  0  0  0  0  0  0
   21.3017   18.4633   21.1609 H   0  0  0  0  0  0  0  0  0  0  0  0
   20.8794   16.8847   21.3180 H   0  0  0  0  0  0  0  0  0  0  0  0
   22.3968   17.4689   22.6756 C   0  0  0  0  0  0  0  0  0  0  0  0
   22.2078   16.6617   23.3866 H   0  0  0  0  0  0  0  0  0  0  0  0
   23.2084   17.1839   22.0025 H   0  0  0  0  0  0  0  0  0  0  0  0
   22.6675   18.3797   23.2139 H   0  0  0  0  0  0  0  0  0  0  0  0
  1  2  1  0  0  0  0
  1  3  1  0  0  0  0
  1  4  1  0  0  0  0
  1  5  1  0  0  0  0
  5  6  1  0  0  0  0
  5  7  1  0  0  0  0
  5  8  1  0  0  0  0
  8  9  1  0  0  0  0
  8 10  1  0  0  0  0
  8 11  1  0  0  0  0
 11 12  1  0  0  0  0
 11 13  1  0  0  0  0
 11 14  1  0  0  0  0
 14 15  1  0  0  0  0
 14 16  1  0  0  0  0
 14 17  1  0  0  0  0
 17 18  1  0  0  0  0
 17 19  1  0  0  0  0
 17 20  1  0  0  0  0
M  END
> <VConfSearch Rank>
391

> <Conf_Id>
23

> <Delta U+W>
0.896

> <U+W>
16.234

> <U>
70.374

> <W>
-54.140

> <W(PB)>
-56.046

> <W(SA)>
1.907

> <Valence>
1.257

> <Coulomb>
69.240

> <VdW>
-0.123

> <VdW6>
-4.336

> <VdW12>
4.213

> <Bond>
0.128

> <Angle>
0.603

> <Pdih>
0.526

> <Idih>
0.000

> <Tether>
0.000

$$$$
VeraChem MOL file


 20 19  0  0  0  0  0  0  0  0999 V2000     
   18.3720   20.2111   22.7717 C   0  0  0  0  0  0  0  0  0  0  0  0
   17.6344   19.6554   23.3653 H   0  0  0  0  0  0  0  0  0  0  0  0
   18.0748   21.2678   22.7734 H   0  0  0  0  0  0  0  0  0  0  0  0
   18.3170   19.8539   21.7357 H   0  0  0  0  0  0  0  0  0  0  0  0
   19.7936   20.0467   23.3566 C   0  0  0  0  0  0  0  0  0  0  0  0
   19.8229   20.5014   24.3568 H   0  0  0  0  0  0  0  0  0  0  0  0
   20.5119   20.6115   22.7469 H   0  0  0  0  0  0  0  0  0  0  0  0
   20.2367   18.5665   23.4690 C   0  0  0  0  0  0  0  0  0  0  0  0
   21.2390   18.5186   23.9150 H   0  0  0  0  0  0  0  0  0  0  0  0
   19.5679   18.0414   24.1637 H   0  0  0  0  0  0  0  0  0  0  0  0
   20.2431   17.8093   22.1245 C   0  0  0  0  0  0  0  0  0  0  0  0
   19.2381   17.8123   21.6957 H   0  0  0  0  0  0  0  0  0  0  0  0
   20.5352   16.7701   22.2954 H   0  0  0  0  0  0  0  0  0  0  0  0
   21.1929   18.3904   21.0945 N   0  3  0  0  0  0  0  0  0  0  0  0
   22.1549   18.4047   21.4661 H   0  0  0  0  0  0  0  0  0  0  0  0
   20.9535   19.3761   20.9110 H   0  0  0  0  0  0  0  0  0  0  0  0
   21.1276   17.5767   19.8091 C   0  0  0  0  0  0  0  0  0  0  0  0
   20.1084   17.6034   19.4176 H   0  0  0  0  0  0  0  0  0  0  0  0
   21.8147   18.0066   19.0770 H   0  0  0  0  0  0  0  0  0  0  0  0
   21.4148   16.5447   20.0218 H   0  0  0  0  0  0  0  0  0  0  0  0
  1  2  1  0  0  0  0
  1  3  1  0  0  0  0
  1  4  1  0  0  0  0
  1  5  1  0  0  0  0
  5  6  1  0  0  0  0
  5  7  1  0  0  0  0
  5  8  1  0  0  0  0
  8  9  1  0  0  0  0
  8 10  1  0  0  0  0
  8 11  1  0  0  0  0
 11 12  1  0  0  0  0
 11 13  1  0  0  0  0
 11 14  1  0  0  0  0
 14 15  1  0  0  0  0
 14 16  1  0  0  0  0
 14 17  1  0  0  0  0
 17 18  1  0  0  0  0
 17 19  1  0  0  0  0
 17 20  1  0  0  0  0
M  END
> <VConfSearch Rank>
392

> <Conf_Id>
24

> <Delta U+W>
0.792

> <U+W>
16.130

> <U>
70.374

> <W>
-54.243

> <W(PB)>
-56.130

> <W(SA)>
1.887

> <Valence>
1.257

> <Coulomb>
69.240

> <VdW>
-0.123

> <VdW6>
-4.336

> <VdW12>
4.213

> <Bond>
0.128

> <Angle>
0.603

> <Pdih>
0.526

> <Idih>
0.000

> <Tether>
0.000

$$$$
VeraChem MOL file


 20 19  0  0  0  0  0  0  0  0999 V2000     
   21.5565   19.7197   23.2045 C   0  0  0  0  0  0  0  0  0  0  0  0
   22.1183   20.4323   23.8223 H   0  0  0  0  0  0  0  0  0  0  0  0
   20.6557   19.4478   23.7672 H   0  0  0  0  0  0  0  0  0  0  0  0
   22.1809   18.8256   23.0782 H   0  0  0  0  0  0  0  0  0  0  0  0
   21.2038   20.3563   21.8407 C   0  0  0  0  0  0  0  0  0  0  0  0
   22.1145   20.8013   21.4156 H   0  0  0  0  0  0  0  0  0  0  0  0
   20.5035   21.1890   21.9963 H   0  0  0  0  0  0  0  0  0  0  0  0
   20.6140   19.3668   20.8036 C   0  0  0  0  0  0  0  0  0  0  0  0
   20.4695   19.9114   19.8611 H   0  0  0  0  0  0  0  0  0  0  0  0
   21.3358   18.5693   20.5827 H   0  0  0  0  0  0  0  0  0  0  0  0
   19.2561   18.7536   21.2066 C   0  0  0  0  0  0  0  0  0  0  0  0
   18.7487   18.3888   20.3100 H   0  0  0  0  0  0  0  0  0  0  0  0
   18.6261   19.5202   21.6643 H   0  0  0  0  0  0  0  0  0  0  0  0
   19.3586   17.5813   22.1639 N   0  3  0  0  0  0  0  0  0  0  0  0
   19.8786   17.8600   23.0080 H   0  0  0  0  0  0  0  0  0  0  0  0
   19.9132   16.8232   21.7377 H   0  0  0  0  0  0  0  0  0  0  0  0
   17.9667   17.0846   22.5303 C   0  0  0  0  0  0  0  0  0  0  0  0
   17.4102   17.8935   23.0086 H   0  0  0  0  0  0  0  0  0  0  0  0
   17.4484   16.7655   21.6235 H   0  0  0  0  0  0  0  0  0  0  0  0
   18.0561   16.2416   23.2190 H   0  0  0  0  0  0  0  0  0  0  0  0
  1  2  1  0  0  0  0
  1  3  1  0  0  0  0
  1  4  1  0  0  0  0
  1  5  1  0  0  0  0
  5  6  1  0  0  0  0
  5  7  1  0  0  0  0
  5  8  1  0  0  0  0
  8  9  1  0  0  0  0
  8 10  1  0  0  0  0
  8 11  1  0  0  0  0
 11 12  1  0  0  0  0
 11 13  1  0  0  0  0
 11 14  1  0  0  0  0
 14 15  1  0  0  0  0
 14 16  1  0  0  0  0
 14 17  1  0  0  0  0
 17 18  1  0  0  0  0
 17 19  1  0  0  0  0
 17 20  1  0  0  0  0
M  END
> <VConfSearch Rank>
393

> <Conf_Id>
26

> <Delta U+W>
2.888

> <U+W>
18.226

> <U>
72.042

> <W>
-53.816

> <W(PB)>
-55.689

> <W(SA)>
1.873

> <Valence>
2.428

> <Coulomb>
69.829

> <VdW>
-0.215

> <VdW6>
-4.563

> <VdW12>
4.348

> <Bond>
0.137

> <Angle>
0.936

> <Pdih>
1.356

> <Idih>
0.000

> <Tether>
0.000

$$$$
VeraChem MOL file


 20 19  0  0  0  0  0  0  0  0999 V2000     
   18.6598   18.7693   20.4070 C   0  0  0  0  0  0  0  0  0  0  0  0
   17.9525   19.0408   19.6125 H   0  0  0  0  0  0  0  0  0  0  0  0
   18.6622   17.6746   20.4893 H   0  0  0  0  0  0  0  0  0  0  0  0
   18.2728   19.1952   21.3402 H   0  0  0  0  0  0  0  0  0  0  0  0
   20.0692   19.3114   20.0766 C   0  0  0  0  0  0  0  0  0  0  0  0
   20.0517   20.4103   20.0952 H   0  0  0  0  0  0  0  0  0  0  0  0
   20.3201   19.0295   19.0443 H   0  0  0  0  0  0  0  0  0  0  0  0
   21.1919   18.7927   21.0110 C   0  0  0  0  0  0  0  0  0  0  0  0
   21.2699   17.6995   20.9446 H   0  0  0  0  0  0  0  0  0  0  0  0
   22.1481   19.1857   20.6408 H   0  0  0  0  0  0  0  0  0  0  0  0
   21.0448   19.2232   22.4859 C   0  0  0  0  0  0  0  0  0  0  0  0
   20.7169   20.2645   22.5357 H   0  0  0  0  0  0  0  0  0  0  0  0
   22.0179   19.1504   22.9781 H   0  0  0  0  0  0  0  0  0  0  0  0
   20.0781   18.3760   23.2914 N   0  3  0  0  0  0  0  0  0  0  0  0
   20.3890   17.3925   23.2976 H   0  0  0  0  0  0  0  0  0  0  0  0
   19.1537   18.3683   22.8375 H   0  0  0  0  0  0  0  0  0  0  0  0
   19.9740   18.9128   24.7125 C   0  0  0  0  0  0  0  0  0  0  0  0
   19.6125   19.9429   24.6826 H   0  0  0  0  0  0  0  0  0  0  0  0
   19.2756   18.2937   25.2799 H   0  0  0  0  0  0  0  0  0  0  0  0
   20.9595   18.8806   25.1821 H   0  0  0  0  0  0  0  0  0  0  0  0
  1  2  1  0  0  0  0
  1  3  1  0  0  0  0
  1  4  1  0  0  0  0
  1  5  1  0  0  0  0
  5  6  1  0  0  0  0
  5  7  1  0  0  0  0
  5  8  1  0  0  0  0
  8  9  1  0  0  0  0
  8 10  1  0  0  0  0
  8 11  1  0  0  0  0
 11 12  1  0  0  0  0
 11 13  1  0  0  0  0
 11 14  1  0  0  0  0
 14 15  1  0  0  0  0
 14 16  1  0  0  0  0
 14 17  1  0  0  0  0
 17 18  1  0  0  0  0
 17 19  1  0  0  0  0
 17 20  1  0  0  0  0
M  END
> <VConfSearch Rank>
394

> <Conf_Id>
5

> <Delta U+W>
2.950

> <U+W>
18.289

> <U>
72.042

> <W>
-53.753

> <W(PB)>
-55.644

> <W(SA)>
1.891

> <Valence>
2.428

> <Coulomb>
69.829

> <VdW>
-0.215

> <VdW6>
-4.563

> <VdW12>
4.348

> <Bond>
0.137

> <Angle>
0.936

> <Pdih>
1.356

> <Idih>
0.000

> <Tether>
0.000

$$$$
VeraChem MOL file


 20 19  0  0  0  0  0  0  0  0999 V2000     
   19.9530   19.5175   19.6607 C   0  0  0  0  0  0  0  0  0  0  0  0
   19.6777   20.5716   19.5260 H   0  0  0  0  0  0  0  0  0  0  0  0
   21.0156   19.4732   19.9302 H   0  0  0  0  0  0  0  0  0  0  0  0
   19.8361   19.0151   18.6917 H   0  0  0  0  0  0  0  0  0  0  0  0
   19.0643   18.8437   20.7314 C   0  0  0  0  0  0  0  0  0  0  0  0
   19.3552   17.7906   20.8458 H   0  0  0  0  0  0  0  0  0  0  0  0
   18.0240   18.8336   20.3771 H   0  0  0  0  0  0  0  0  0  0  0  0
   19.1168   19.5613   22.1032 C   0  0  0  0  0  0  0  0  0  0  0  0
   18.7330   20.5838   21.9904 H   0  0  0  0  0  0  0  0  0  0  0  0
   18.4362   19.0595   22.8029 H   0  0  0  0  0  0  0  0  0  0  0  0
   20.5317   19.6328   22.7217 C   0  0  0  0  0  0  0  0  0  0  0  0
   20.4841   20.1485   23.6840 H   0  0  0  0  0  0  0  0  0  0  0  0
   21.1789   20.2161   22.0622 H   0  0  0  0  0  0  0  0  0  0  0  0
   21.2072   18.2893   22.9501 N   0  3  0  0  0  0  0  0  0  0  0  0
   22.1891   18.4389   23.2302 H   0  0  0  0  0  0  0  0  0  0  0  0
   21.2587   17.7654   22.0641 H   0  0  0  0  0  0  0  0  0  0  0  0
   20.4805   17.4788   24.0176 C   0  0  0  0  0  0  0  0  0  0  0  0
   19.4614   17.2729   23.6844 H   0  0  0  0  0  0  0  0  0  0  0  0
   21.0116   16.5376   24.1759 H   0  0  0  0  0  0  0  0  0  0  0  0
   20.4577   18.0494   24.9485 H   0  0  0  0  0  0  0  0  0  0  0  0
  1  2  1  0  0  0  0
  1  3  1  0  0  0  0
  1  4  1  0  0  0  0
  1  5  1  0  0  0  0
  5  6  1  0  0  0  0
  5  7  1  0  0  0  0
  5  8  1  0  0  0  0
  8  9  1  0  0  0  0
  8 10  1  0  0  0  0
  8 11  1  0  0  0  0
 11 12  1  0  0  0  0
 11 13  1  0  0  0  0
 11 14  1  0  0  0  0
 14 15  1  0  0  0  0
 14 16  1  0  0  0  0
 14 17  1  0  0  0  0
 17 18  1  0  0  0  0
 17 19  1  0  0  0  0
 17 20  1  0  0  0  0
M  END
> <VConfSearch Rank>
395

> <Conf_Id>
52

> <Delta U+W>
0.784

> <U+W>
16.122

> <U>
70.777

> <W>
-54.655

> <W(PB)>
-56.491

> <W(SA)>
1.836

> <Valence>
1.529

> <Coulomb>
69.166

> <VdW>
0.082

> <VdW6>
-5.166

> <VdW12>
5.248

> <Bond>
0.171

> <Angle>
0.752

> <Pdih>
0.605

> <Idih>
0.000

> <Tether>
0.000

$$$$
VeraChem MOL file


 20 19  0  0  0  0  0  0  0  0999 V2000     
   18.2652   17.7821   21.9873 C   0  0  0  0  0  0  0  0  0  0  0  0
   17.3184   17.2601   21.7970 H   0  0  0  0  0  0  0  0  0  0  0  0
   19.0705   17.0613   21.8051 H   0  0  0  0  0  0  0  0  0  0  0  0
   18.2793   18.0700   23.0466 H   0  0  0  0  0  0  0  0  0  0  0  0
   18.3891   19.0181   21.0674 C   0  0  0  0  0  0  0  0  0  0  0  0
   17.4499   19.5867   21.1190 H   0  0  0  0  0  0  0  0  0  0  0  0
   18.4881   18.6904   20.0230 H   0  0  0  0  0  0  0  0  0  0  0  0
   19.5555   19.9729   21.4291 C   0  0  0  0  0  0  0  0  0  0  0  0
   19.4857   20.8517   20.7744 H   0  0  0  0  0  0  0  0  0  0  0  0
   19.4317   20.3535   22.4507 H   0  0  0  0  0  0  0  0  0  0  0  0
   20.9653   19.3647   21.2449 C   0  0  0  0  0  0  0  0  0  0  0  0
   21.7008   20.1713   21.1922 H   0  0  0  0  0  0  0  0  0  0  0  0
   20.9982   18.8215   20.2971 H   0  0  0  0  0  0  0  0  0  0  0  0
   21.4247   18.4171   22.3420 N   0  3  0  0  0  0  0  0  0  0  0  0
   22.2789   17.9245   22.0377 H   0  0  0  0  0  0  0  0  0  0  0  0
   20.7230   17.6778   22.4867 H   0  0  0  0  0  0  0  0  0  0  0  0
   21.6955   19.1663   23.6421 C   0  0  0  0  0  0  0  0  0  0  0  0
   22.4527   19.9328   23.4639 H   0  0  0  0  0  0  0  0  0  0  0  0
   20.7724   19.6321   23.9920 H   0  0  0  0  0  0  0  0  0  0  0  0
   22.0568   18.4603   24.3931 H   0  0  0  0  0  0  0  0  0  0  0  0
  1  2  1  0  0  0  0
  1  3  1  0  0  0  0
  1  4  1  0  0  0  0
  1  5  1  0  0  0  0
  5  6  1  0  0  0  0
  5  7  1  0  0  0  0
  5  8  1  0  0  0  0
  8  9  1  0  0  0  0
  8 10  1  0  0  0  0
  8 11  1  0  0  0  0
 11 12  1  0  0  0  0
 11 13  1  0  0  0  0
 11 14  1  0  0  0  0
 14 15  1  0  0  0  0
 14 16  1  0  0  0  0
 14 17  1  0  0  0  0
 17 18  1  0  0  0  0
 17 19  1  0  0  0  0
 17 20  1  0  0  0  0
M  END
> <VConfSearch Rank>
396

> <Conf_Id>
55

> <Delta U+W>
2.745

> <U+W>
18.083

> <U>
72.490

> <W>
-54.407

> <W(PB)>
-56.269

> <W(SA)>
1.861

> <Valence>
2.738

> <Coulomb>
69.795

> <VdW>
-0.043

> <VdW6>
-5.333

> <VdW12>
5.290

> <Bond>
0.182

> <Angle>
1.135

> <Pdih>
1.422

> <Idih>
0.000

> <Tether>
0.000

$$$$
VeraChem MOL file


 20 19  0  0  0  0  0  0  0  0999 V2000     
   21.6508   19.9385   22.5950 C   0  0  0  0  0  0  0  0  0  0  0  0
   22.6255   20.3610   22.8715 H   0  0  0  0  0  0  0  0  0  0  0  0
   21.1004   20.7081   22.0381 H   0  0  0  0  0  0  0  0  0  0  0  0
   21.1172   19.7266   23.5286 H   0  0  0  0  0  0  0  0  0  0  0  0
   21.8428   18.6605   21.7469 C   0  0  0  0  0  0  0  0  0  0  0  0
   22.2917   17.8719   22.3670 H   0  0  0  0  0  0  0  0  0  0  0  0
   22.5727   18.8749   20.9536 H   0  0  0  0  0  0  0  0  0  0  0  0
   20.5462   18.1299   21.0834 C   0  0  0  0  0  0  0  0  0  0  0  0
   20.1236   18.8899   20.4144 H   0  0  0  0  0  0  0  0  0  0  0  0
   20.8205   17.2854   20.4375 H   0  0  0  0  0  0  0  0  0  0  0  0
   19.4739   17.6274   22.0780 C   0  0  0  0  0  0  0  0  0  0  0  0
   19.9587   17.0263   22.8513 H   0  0  0  0  0  0  0  0  0  0  0  0
   18.7671   16.9828   21.5494 H   0  0  0  0  0  0  0  0  0  0  0  0
   18.6567   18.7072   22.7699 N   0  3  0  0  0  0  0  0  0  0  0  0
   19.2825   19.3895   23.2202 H   0  0  0  0  0  0  0  0  0  0  0  0
   18.1129   18.2883   23.5406 H   0  0  0  0  0  0  0  0  0  0  0  0
   17.7160   19.4013   21.7912 C   0  0  0  0  0  0  0  0  0  0  0  0
   18.3011   19.8963   21.0139 H   0  0  0  0  0  0  0  0  0  0  0  0
   17.0547   18.6583   21.3403 H   0  0  0  0  0  0  0  0  0  0  0  0
   17.1223   20.1427   22.3305 H   0  0  0  0  0  0  0  0  0  0  0  0
  1  2  1  0  0  0  0
  1  3  1  0  0  0  0
  1  4  1  0  0  0  0
  1  5  1  0  0  0  0
  5  6  1  0  0  0  0
  5  7  1  0  0  0  0
  5  8  1  0  0  0  0
  8  9  1  0  0  0  0
  8 10  1  0  0  0  0
  8 11  1  0  0  0  0
 11 12  1  0  0  0  0
 11 13  1  0  0  0  0
 11 14  1  0  0  0  0
 14 15  1  0  0  0  0
 14 16  1  0  0  0  0
 14 17  1  0  0  0  0
 17 18  1  0  0  0  0
 17 19  1  0  0  0  0
 17 20  1  0  0  0  0
M  END
> <VConfSearch Rank>
397

> <Conf_Id>
76

> <Delta U+W>
2.799

> <U+W>
18.137

> <U>
72.490

> <W>
-54.353

> <W(PB)>
-56.201

> <W(SA)>
1.848

> <Valence>
2.738

> <Coulomb>
69.795

> <VdW>
-0.043

> <VdW6>
-5.334

> <VdW12>
5.290

> <Bond>
0.182

> <Angle>
1.135

> <Pdih>
1.421

> <Idih>
0.000

> <Tether>
0.000

$$$$
VeraChem MOL file


 20 19  0  0  0  0  0  0  0  0999 V2000     
   21.8168   19.8651   22.5124 C   0  0  0  0  0  0  0  0  0  0  0  0
   21.7152   18.9086   23.0394 H   0  0  0  0  0  0  0  0  0  0  0  0
   22.6700   19.7874   21.8262 H   0  0  0  0  0  0  0  0  0  0  0  0
   22.0578   20.6317   23.2602 H   0  0  0  0  0  0  0  0  0  0  0  0
   20.5243   20.2383   21.7502 C   0  0  0  0  0  0  0  0  0  0  0  0
   20.6527   21.2333   21.3016 H   0  0  0  0  0  0  0  0  0  0  0  0
   19.6861   20.3343   22.4522 H   0  0  0  0  0  0  0  0  0  0  0  0
   20.1687   19.2318   20.6286 C   0  0  0  0  0  0  0  0  0  0  0  0
   19.2696   19.5776   20.1018 H   0  0  0  0  0  0  0  0  0  0  0  0
   20.9748   19.2381   19.8831 H   0  0  0  0  0  0  0  0  0  0  0  0
   19.9522   17.7722   21.0927 C   0  0  0  0  0  0  0  0  0  0  0  0
   20.8304   17.4055   21.6292 H   0  0  0  0  0  0  0  0  0  0  0  0
   19.8291   17.1531   20.2003 H   0  0  0  0  0  0  0  0  0  0  0  0
   18.7235   17.5324   21.9574 N   0  3  0  0  0  0  0  0  0  0  0  0
   18.3667   16.5800   21.7829 H   0  0  0  0  0  0  0  0  0  0  0  0
   17.9553   18.1571   21.6708 H   0  0  0  0  0  0  0  0  0  0  0  0
   19.0393   17.6838   23.4415 C   0  0  0  0  0  0  0  0  0  0  0  0
   18.1379   17.4735   24.0213 H   0  0  0  0  0  0  0  0  0  0  0  0
   19.8241   16.9752   23.7145 H   0  0  0  0  0  0  0  0  0  0  0  0
   19.3753   18.7010   23.6452 H   0  0  0  0  0  0  0  0  0  0  0  0
  1  2  1  0  0  0  0
  1  3  1  0  0  0  0
  1  4  1  0  0  0  0
  1  5  1  0  0  0  0
  5  6  1  0  0  0  0
  5  7  1  0  0  0  0
  5  8  1  0  0  0  0
  8  9  1  0  0  0  0
  8 10  1  0  0  0  0
  8 11  1  0  0  0  0
 11 12  1  0  0  0  0
 11 13  1  0  0  0  0
 11 14  1  0  0  0  0
 14 15  1  0  0  0  0
 14 16  1  0  0  0  0
 14 17  1  0  0  0  0
 17 18  1  0  0  0  0
 17 19  1  0  0  0  0
 17 20  1  0  0  0  0
M  END
> <VConfSearch Rank>
398

> <Conf_Id>
60

> <Delta U+W>
1.788

> <U+W>
17.127

> <U>
72.122

> <W>
-54.995

> <W(PB)>
-56.810

> <W(SA)>
1.815

> <Valence>
3.197

> <Coulomb>
69.115

> <VdW>
-0.190

> <VdW6>
-5.585

> <VdW12>
5.395

> <Bond>
0.177

> <Angle>
1.207

> <Pdih>
1.813

> <Idih>
0.000

> <Tether>
0.000

$$$$
VeraChem MOL file


 20 19  0  0  0  0  0  0  0  0999 V2000     
   21.0012   16.8886   21.5045 C   0  0  0  0  0  0  0  0  0  0  0  0
   20.6135   15.8799   21.3120 H   0  0  0  0  0  0  0  0  0  0  0  0
   22.0721   16.8870   21.2633 H   0  0  0  0  0  0  0  0  0  0  0  0
   20.8943   17.0853   22.5783 H   0  0  0  0  0  0  0  0  0  0  0  0
   20.2426   17.9330   20.6534 C   0  0  0  0  0  0  0  0  0  0  0  0
   19.1711   17.9067   20.8898 H   0  0  0  0  0  0  0  0  0  0  0  0
   20.3210   17.6507   19.5942 H   0  0  0  0  0  0  0  0  0  0  0  0
   20.7919   19.3705   20.8245 C   0  0  0  0  0  0  0  0  0  0  0  0
   21.8331   19.3919   20.4765 H   0  0  0  0  0  0  0  0  0  0  0  0
   20.2401   20.0515   20.1632 H   0  0  0  0  0  0  0  0  0  0  0  0
   20.7541   19.9266   22.2674 C   0  0  0  0  0  0  0  0  0  0  0  0
   21.2745   20.8878   22.2683 H   0  0  0  0  0  0  0  0  0  0  0  0
   21.2893   19.2618   22.9494 H   0  0  0  0  0  0  0  0  0  0  0  0
   19.3669   20.1862   22.8360 N   0  3  0  0  0  0  0  0  0  0  0  0
   18.7257   20.4961   22.0908 H   0  0  0  0  0  0  0  0  0  0  0  0
   19.4125   20.9819   23.4914 H   0  0  0  0  0  0  0  0  0  0  0  0
   18.8197   18.9659   23.5687 C   0  0  0  0  0  0  0  0  0  0  0  0
   19.5032   18.6975   24.3770 H   0  0  0  0  0  0  0  0  0  0  0  0
   17.8391   19.2091   23.9837 H   0  0  0  0  0  0  0  0  0  0  0  0
   18.7253   18.1304   22.8744 H   0  0  0  0  0  0  0  0  0  0  0  0
  1  2  1  0  0  0  0
  1  3  1  0  0  0  0
  1  4  1  0  0  0  0
  1  5  1  0  0  0  0
  5  6  1  0  0  0  0
  5  7  1  0  0  0  0
  5  8  1  0  0  0  0
  8  9  1  0  0  0  0
  8 10  1  0  0  0  0
  8 11  1  0  0  0  0
 11 12  1  0  0  0  0
 11 13  1  0  0  0  0
 11 14  1  0  0  0  0
 14 15  1  0  0  0  0
 14 16  1  0  0  0  0
 14 17  1  0  0  0  0
 17 18  1  0  0  0  0
 17 19  1  0  0  0  0
 17 20  1  0  0  0  0
M  END
> <VConfSearch Rank>
399

> <Conf_Id>
54

> <Delta U+W>
1.880

> <U+W>
17.218

> <U>
72.122

> <W>
-54.903

> <W(PB)>
-56.724

> <W(SA)>
1.821

> <Valence>
3.197

> <Coulomb>
69.115

> <VdW>
-0.190

> <VdW6>
-5.585

> <VdW12>
5.395

> <Bond>
0.177

> <Angle>
1.207

> <Pdih>
1.813

> <Idih>
0.000

> <Tether>
0.000

$$$$
VeraChem MOL file


 20 19  0  0  0  0  0  0  0  0999 V2000     
   17.0098   19.3720   21.1250 C   0  0  0  0  0  0  0  0  0  0  0  0
   16.7822   18.3563   20.7761 H   0  0  0  0  0  0  0  0  0  0  0  0
   16.1058   19.7745   21.6004 H   0  0  0  0  0  0  0  0  0  0  0  0
   17.2326   19.9927   20.2474 H   0  0  0  0  0  0  0  0  0  0  0  0
   18.1924   19.3673   22.1179 C   0  0  0  0  0  0  0  0  0  0  0  0
   17.9263   18.7676   22.9998 H   0  0  0  0  0  0  0  0  0  0  0  0
   18.3732   20.3911   22.4751 H   0  0  0  0  0  0  0  0  0  0  0  0
   19.4797   18.8053   21.4754 C   0  0  0  0  0  0  0  0  0  0  0  0
   19.2992   17.7814   21.1219 H   0  0  0  0  0  0  0  0  0  0  0  0
   19.7467   19.4071   20.5964 H   0  0  0  0  0  0  0  0  0  0  0  0
   20.6541   18.8041   22.4715 C   0  0  0  0  0  0  0  0  0  0  0  0
   20.3976   18.1933   23.3408 H   0  0  0  0  0  0  0  0  0  0  0  0
   20.8466   19.8241   22.8135 H   0  0  0  0  0  0  0  0  0  0  0  0
   21.9414   18.2597   21.8839 N   0  3  0  0  0  0  0  0  0  0  0  0
   22.2138   18.8072   21.0531 H   0  0  0  0  0  0  0  0  0  0  0  0
   21.7981   17.2972   21.5414 H   0  0  0  0  0  0  0  0  0  0  0  0
   23.0462   18.2943   22.9314 C   0  0  0  0  0  0  0  0  0  0  0  0
   22.7515   17.6810   23.7858 H   0  0  0  0  0  0  0  0  0  0  0  0
   23.9667   17.8998   22.4953 H   0  0  0  0  0  0  0  0  0  0  0  0
   23.2043   19.3257   23.2539 H   0  0  0  0  0  0  0  0  0  0  0  0
  1  2  1  0  0  0  0
  1  3  1  0  0  0  0
  1  4  1  0  0  0  0
  1  5  1  0  0  0  0
  5  6  1  0  0  0  0
  5  7  1  0  0  0  0
  5  8  1  0  0  0  0
  8  9  1  0  0  0  0
  8 10  1  0  0  0  0
  8 11  1  0  0  0  0
 11 12  1  0  0  0  0
 11 13  1  0  0  0  0
 11 14  1  0  0  0  0
 14 15  1  0  0  0  0
 14 16  1  0  0  0  0
 14 17  1  0  0  0  0
 17 18  1  0  0  0  0
 17 19  1  0  0  0  0
 17 20  1  0  0  0  0
M  END
> <VConfSearch Rank>
400

> <Conf_Id>
67

> <Delta U+W>
0.000

> <U+W>
15.338

> <U>
69.277

> <W>
-53.939

> <W(PB)>
-55.889

> <W(SA)>
1.950

> <Valence>
0.846

> <Coulomb>
68.557

> <VdW>
-0.127

> <VdW6>
-3.008

> <VdW12>
2.882

> <Bond>
0.088

> <Angle>
0.332

> <Pdih>
0.426

> <Idih>
0.000

> <Tether>
0.000

$$$$
VeraChem MOL file


 20 19  0  0  0  0  0  0  0  0999 V2000     
   21.9951   21.1993   21.9217 C   0  0  0  0  0  0  0  0  0  0  0  0
   22.8158   20.5221   21.6513 H   0  0  0  0  0  0  0  0  0  0  0  0
   22.1714   22.1587   21.4183 H   0  0  0  0  0  0  0  0  0  0  0  0
   22.0397   21.3747   23.0045 H   0  0  0  0  0  0  0  0  0  0  0  0
   20.6288   20.6097   21.5095 C   0  0  0  0  0  0  0  0  0  0  0  0
   20.6022   20.4778   20.4185 H   0  0  0  0  0  0  0  0  0  0  0  0
   19.8321   21.3243   21.7606 H   0  0  0  0  0  0  0  0  0  0  0  0
   20.3532   19.2578   22.2037 C   0  0  0  0  0  0  0  0  0  0  0  0
   21.1510   18.5478   21.9501 H   0  0  0  0  0  0  0  0  0  0  0  0
   20.3757   19.3912   23.2933 H   0  0  0  0  0  0  0  0  0  0  0  0
   18.9858   18.6778   21.7868 C   0  0  0  0  0  0  0  0  0  0  0  0
   18.9725   18.4964   20.7091 H   0  0  0  0  0  0  0  0  0  0  0  0
   18.2060   19.4085   22.0161 H   0  0  0  0  0  0  0  0  0  0  0  0
   18.6089   17.3810   22.4846 N   0  3  0  0  0  0  0  0  0  0  0  0
   17.6242   17.1513   22.2775 H   0  0  0  0  0  0  0  0  0  0  0  0
   18.6416   17.5033   23.5082 H   0  0  0  0  0  0  0  0  0  0  0  0
   19.5112   16.2324   22.0461 C   0  0  0  0  0  0  0  0  0  0  0  0
   20.5425   16.4531   22.3283 H   0  0  0  0  0  0  0  0  0  0  0  0
   19.1856   15.3137   22.5390 H   0  0  0  0  0  0  0  0  0  0  0  0
   19.4408   16.1134   20.9628 H   0  0  0  0  0  0  0  0  0  0  0  0
  1  2  1  0  0  0  0
  1  3  1  0  0  0  0
  1  4  1  0  0  0  0
  1  5  1  0  0  0  0
  5  6  1  0  0  0  0
  5  7  1  0  0  0  0
  5  8  1  0  0  0  0
  8  9  1  0  0  0  0
  8 10  1  0  0  0  0
  8 11  1  0  0  0  0
 11 12  1  0  0  0  0
 11 13  1  0  0  0  0
 11 14  1  0  0  0  0
 14 15  1  0  0  0  0
 14 16  1  0  0  0  0
 14 17  1  0  0  0  0
 17 18  1  0  0  0  0
 17 19  1  0  0  0  0
 17 20  1  0  0  0  0
M  END
> <VConfSearch Rank>
401

> <Conf_Id>
37

> <Delta U+W>
-0.021

> <U+W>
15.318

> <U>
69.657

> <W>
-54.340

> <W(PB)>
-56.238

> <W(SA)>
1.899

> <Valence>
1.137

> <Coulomb>
68.383

> <VdW>
0.138

> <VdW6>
-3.703

> <VdW12>
3.841

> <Bond>
0.125

> <Angle>
0.468

> <Pdih>
0.543

> <Idih>
0.000

> <Tether>
0.000

$$$$
VeraChem MOL file


 20 19  0  0  0  0  0  0  0  0999 V2000     
   22.6171   18.5398   20.5468 C   0  0  0  0  0  0  0  0  0  0  0  0
   23.4212   17.8237   20.3332 H   0  0  0  0  0  0  0  0  0  0  0  0
   22.1261   18.7870   19.5965 H   0  0  0  0  0  0  0  0  0  0  0  0
   23.0780   19.4548   20.9412 H   0  0  0  0  0  0  0  0  0  0  0  0
   21.6103   17.9449   21.5550 C   0  0  0  0  0  0  0  0  0  0  0  0
   22.1372   17.6756   22.4814 H   0  0  0  0  0  0  0  0  0  0  0  0
   21.1923   17.0136   21.1473 H   0  0  0  0  0  0  0  0  0  0  0  0
   20.4662   18.9320   21.8751 C   0  0  0  0  0  0  0  0  0  0  0  0
   20.8842   19.8604   22.2863 H   0  0  0  0  0  0  0  0  0  0  0  0
   19.9432   19.1980   20.9475 H   0  0  0  0  0  0  0  0  0  0  0  0
   19.4668   18.3294   22.8840 C   0  0  0  0  0  0  0  0  0  0  0  0
   20.0072   18.0407   23.7891 H   0  0  0  0  0  0  0  0  0  0  0  0
   19.0098   17.4308   22.4621 H   0  0  0  0  0  0  0  0  0  0  0  0
   18.3490   19.2693   23.3059 N   0  3  0  0  0  0  0  0  0  0  0  0
   18.7418   20.1460   23.6811 H   0  0  0  0  0  0  0  0  0  0  0  0
   17.8286   18.8543   24.0948 H   0  0  0  0  0  0  0  0  0  0  0  0
   17.3960   19.5524   22.1496 C   0  0  0  0  0  0  0  0  0  0  0  0
   16.9809   18.6097   21.7867 H   0  0  0  0  0  0  0  0  0  0  0  0
   16.5887   20.1984   22.5015 H   0  0  0  0  0  0  0  0  0  0  0  0
   17.9398   20.0517   21.3453 H   0  0  0  0  0  0  0  0  0  0  0  0
  1  2  1  0  0  0  0
  1  3  1  0  0  0  0
  1  4  1  0  0  0  0
  1  5  1  0  0  0  0
  5  6  1  0  0  0  0
  5  7  1  0  0  0  0
  5  8  1  0  0  0  0
  8  9  1  0  0  0  0
  8 10  1  0  0  0  0
  8 11  1  0  0  0  0
 11 12  1  0  0  0  0
 11 13  1  0  0  0  0
 11 14  1  0  0  0  0
 14 15  1  0  0  0  0
 14 16  1  0  0  0  0
 14 17  1  0  0  0  0
 17 18  1  0  0  0  0
 17 19  1  0  0  0  0
 17 20  1  0  0  0  0
M  END
> <VConfSearch Rank>
402

> <Conf_Id>
2

> <Delta U+W>
0.069

> <U+W>
15.407

> <U>
69.657

> <W>
-54.250

> <W(PB)>
-56.176

> <W(SA)>
1.926

> <Valence>
1.137

> <Coulomb>
68.383

> <VdW>
0.138

> <VdW6>
-3.703

> <VdW12>
3.841

> <Bond>
0.125

> <Angle>
0.468

> <Pdih>
0.543

> <Idih>
0.000

> <Tether>
0.000

$$$$
VeraChem MOL file


 20 19  0  0  0  0  0  0  0  0999 V2000     
   22.6824   18.6364   21.8945 C   0  0  0  0  0  0  0  0  0  0  0  0
   22.2525   17.6501   22.1098 H   0  0  0  0  0  0  0  0  0  0  0  0
   22.7517   18.7500   20.8048 H   0  0  0  0  0  0  0  0  0  0  0  0
   23.7035   18.6470   22.2974 H   0  0  0  0  0  0  0  0  0  0  0  0
   21.8410   19.7725   22.5203 C   0  0  0  0  0  0  0  0  0  0  0  0
   22.3563   20.7301   22.3603 H   0  0  0  0  0  0  0  0  0  0  0  0
   21.7824   19.6318   23.6088 H   0  0  0  0  0  0  0  0  0  0  0  0
   20.4147   19.8647   21.9291 C   0  0  0  0  0  0  0  0  0  0  0  0
   19.9046   20.7359   22.3611 H   0  0  0  0  0  0  0  0  0  0  0  0
   20.4755   20.0402   20.8468 H   0  0  0  0  0  0  0  0  0  0  0  0
   19.5759   18.6010   22.2024 C   0  0  0  0  0  0  0  0  0  0  0  0
   19.5135   18.4279   23.2796 H   0  0  0  0  0  0  0  0  0  0  0  0
   20.0555   17.7339   21.7421 H   0  0  0  0  0  0  0  0  0  0  0  0
   18.1621   18.6886   21.6620 N   0  3  0  0  0  0  0  0  0  0  0  0
   18.1791   18.8618   20.6453 H   0  0  0  0  0  0  0  0  0  0  0  0
   17.6744   19.5013   22.0692 H   0  0  0  0  0  0  0  0  0  0  0  0
   17.4070   17.4029   21.9718 C   0  0  0  0  0  0  0  0  0  0  0  0
   17.3719   17.2579   23.0537 H   0  0  0  0  0  0  0  0  0  0  0  0
   16.3913   17.4795   21.5776 H   0  0  0  0  0  0  0  0  0  0  0  0
   17.9214   16.5614   21.5026 H   0  0  0  0  0  0  0  0  0  0  0  0
  1  2  1  0  0  0  0
  1  3  1  0  0  0  0
  1  4  1  0  0  0  0
  1  5  1  0  0  0  0
  5  6  1  0  0  0  0
  5  7  1  0  0  0  0
  5  8  1  0  0  0  0
  8  9  1  0  0  0  0
  8 10  1  0  0  0  0
  8 11  1  0  0  0  0
 11 12  1  0  0  0  0
 11 13  1  0  0  0  0
 11 14  1  0  0  0  0
 14 15  1  0  0  0  0
 14 16  1  0  0  0  0
 14 17  1  0  0  0  0
 17 18  1  0  0  0  0
 17 19  1  0  0  0  0
 17 20  1  0  0  0  0
M  END
> <VConfSearch Rank>
403

> <Conf_Id>
34

> <Delta U+W>
0.276

> <U+W>
15.615

> <U>
69.798

> <W>
-54.184

> <W(PB)>
-56.116

> <W(SA)>
1.933

> <Valence>
1.134

> <Coulomb>
68.735

> <VdW>
-0.070

> <VdW6>
-3.565

> <VdW12>
3.494

> <Bond>
0.108

> <Angle>
0.456

> <Pdih>
0.569

> <Idih>
0.000

> <Tether>
0.000

$$$$
VeraChem MOL file


 20 19  0  0  0  0  0  0  0  0999 V2000     
   19.6792   21.1221   20.0835 C   0  0  0  0  0  0  0  0  0  0  0  0
   20.1724   20.8769   19.1339 H   0  0  0  0  0  0  0  0  0  0  0  0
   18.7227   21.6072   19.8497 H   0  0  0  0  0  0  0  0  0  0  0  0
   20.3048   21.8511   20.6149 H   0  0  0  0  0  0  0  0  0  0  0  0
   19.4543   19.8554   20.9374 C   0  0  0  0  0  0  0  0  0  0  0  0
   18.8000   19.1604   20.3923 H   0  0  0  0  0  0  0  0  0  0  0  0
   18.9244   20.1334   21.8585 H   0  0  0  0  0  0  0  0  0  0  0  0
   20.7888   19.1527   21.2814 C   0  0  0  0  0  0  0  0  0  0  0  0
   21.3244   18.9165   20.3523 H   0  0  0  0  0  0  0  0  0  0  0  0
   21.4368   19.8322   21.8508 H   0  0  0  0  0  0  0  0  0  0  0  0
   20.5894   17.8453   22.0742 C   0  0  0  0  0  0  0  0  0  0  0  0
   21.5560   17.3528   22.2077 H   0  0  0  0  0  0  0  0  0  0  0  0
   19.9389   17.1704   21.5122 H   0  0  0  0  0  0  0  0  0  0  0  0
   19.9830   18.0427   23.4509 N   0  3  0  0  0  0  0  0  0  0  0  0
   19.0650   18.5048   23.3720 H   0  0  0  0  0  0  0  0  0  0  0  0
   20.5672   18.6850   24.0079 H   0  0  0  0  0  0  0  0  0  0  0  0
   19.8448   16.6997   24.1553 C   0  0  0  0  0  0  0  0  0  0  0  0
   19.1964   16.0487   23.5648 H   0  0  0  0  0  0  0  0  0  0  0  0
   20.8319   16.2438   24.2575 H   0  0  0  0  0  0  0  0  0  0  0  0
   19.4075   16.8563   25.1438 H   0  0  0  0  0  0  0  0  0  0  0  0
  1  2  1  0  0  0  0
  1  3  1  0  0  0  0
  1  4  1  0  0  0  0
  1  5  1  0  0  0  0
  5  6  1  0  0  0  0
  5  7  1  0  0  0  0
  5  8  1  0  0  0  0
  8  9  1  0  0  0  0
  8 10  1  0  0  0  0
  8 11  1  0  0  0  0
 11 12  1  0  0  0  0
 11 13  1  0  0  0  0
 11 14  1  0  0  0  0
 14 15  1  0  0  0  0
 14 16  1  0  0  0  0
 14 17  1  0  0  0  0
 17 18  1  0  0  0  0
 17 19  1  0  0  0  0
 17 20  1  0  0  0  0
M  END
> <VConfSearch Rank>
404

> <Conf_Id>
50

> <Delta U+W>
0.319

> <U+W>
15.657

> <U>
69.962

> <W>
-54.305

> <W(PB)>
-56.223

> <W(SA)>
1.918

> <Valence>
0.982

> <Coulomb>
69.058

> <VdW>
-0.078

> <VdW6>
-3.548

> <VdW12>
3.471

> <Bond>
0.105

> <Angle>
0.408

> <Pdih>
0.469

> <Idih>
0.000

> <Tether>
0.000

$$$$
VeraChem MOL file


 20 19  0  0  0  0  0  0  0  0999 V2000     
   22.1358   21.0069   22.5089 C   0  0  0  0  0  0  0  0  0  0  0  0
   23.2141   20.8353   22.6227 H   0  0  0  0  0  0  0  0  0  0  0  0
   21.9993   21.8072   21.7699 H   0  0  0  0  0  0  0  0  0  0  0  0
   21.7485   21.3623   23.4726 H   0  0  0  0  0  0  0  0  0  0  0  0
   21.4210   19.7121   22.0657 C   0  0  0  0  0  0  0  0  0  0  0  0
   21.6128   18.9248   22.8073 H   0  0  0  0  0  0  0  0  0  0  0  0
   21.8521   19.3650   21.1159 H   0  0  0  0  0  0  0  0  0  0  0  0
   19.8982   19.9274   21.8985 C   0  0  0  0  0  0  0  0  0  0  0  0
   19.4560   20.2472   22.8514 H   0  0  0  0  0  0  0  0  0  0  0  0
   19.7235   20.7429   21.1842 H   0  0  0  0  0  0  0  0  0  0  0  0
   19.1686   18.6686   21.3881 C   0  0  0  0  0  0  0  0  0  0  0  0
   19.6121   18.3447   20.4432 H   0  0  0  0  0  0  0  0  0  0  0  0
   18.1181   18.9090   21.2057 H   0  0  0  0  0  0  0  0  0  0  0  0
   19.2088   17.4968   22.3509 N   0  3  0  0  0  0  0  0  0  0  0  0
   18.8061   17.7700   23.2605 H   0  0  0  0  0  0  0  0  0  0  0  0
   20.1853   17.2340   22.5505 H   0  0  0  0  0  0  0  0  0  0  0  0
   18.4486   16.3153   21.7636 C   0  0  0  0  0  0  0  0  0  0  0  0
   18.4856   15.4797   22.4660 H   0  0  0  0  0  0  0  0  0  0  0  0
   17.4099   16.6055   21.5914 H   0  0  0  0  0  0  0  0  0  0  0  0
   18.9120   16.0228   20.8189 H   0  0  0  0  0  0  0  0  0  0  0  0
  1  2  1  0  0  0  0
  1  3  1  0  0  0  0
  1  4  1  0  0  0  0
  1  5  1  0  0  0  0
  5  6  1  0  0  0  0
  5  7  1  0  0  0  0
  5  8  1  0  0  0  0
  8  9  1  0  0  0  0
  8 10  1  0  0  0  0
  8 11  1  0  0  0  0
 11 12  1  0  0  0  0
 11 13  1  0  0  0  0
 11 14  1  0  0  0  0
 14 15  1  0  0  0  0
 14 16  1  0  0  0  0
 14 17  1  0  0  0  0
 17 18  1  0  0  0  0
 17 19  1  0  0  0  0
 17 20  1  0  0  0  0
M  END
> <VConfSearch Rank>
405

> <Conf_Id>
35

> <Delta U+W>
0.360

> <U+W>
15.698

> <U>
69.962

> <W>
-54.264

> <W(PB)>
-56.166

> <W(SA)>
1.902

> <Valence>
0.982

> <Coulomb>
69.058

> <VdW>
-0.078

> <VdW6>
-3.548

> <VdW12>
3.471

> <Bond>
0.105

> <Angle>
0.408

> <Pdih>
0.469

> <Idih>
0.000

> <Tether>
0.000

$$$$
VeraChem MOL file


 20 19  0  0  0  0  0  0  0  0999 V2000     
   22.5056   18.0522   21.6865 C   0  0  0  0  0  0  0  0  0  0  0  0
   22.5378   18.7809   22.5063 H   0  0  0  0  0  0  0  0  0  0  0  0
   23.4332   17.4666   21.7280 H   0  0  0  0  0  0  0  0  0  0  0  0
   22.5004   18.6039   20.7375 H   0  0  0  0  0  0  0  0  0  0  0  0
   21.2735   17.1250   21.7980 C   0  0  0  0  0  0  0  0  0  0  0  0
   21.3002   16.5892   22.7574 H   0  0  0  0  0  0  0  0  0  0  0  0
   21.3306   16.3569   21.0139 H   0  0  0  0  0  0  0  0  0  0  0  0
   19.9328   17.8838   21.6617 C   0  0  0  0  0  0  0  0  0  0  0  0
   19.8963   18.3859   20.6864 H   0  0  0  0  0  0  0  0  0  0  0  0
   19.1087   17.1583   21.6730 H   0  0  0  0  0  0  0  0  0  0  0  0
   19.7163   18.9121   22.7927 C   0  0  0  0  0  0  0  0  0  0  0  0
   20.4930   19.6794   22.7515 H   0  0  0  0  0  0  0  0  0  0  0  0
   19.7954   18.4015   23.7558 H   0  0  0  0  0  0  0  0  0  0  0  0
   18.3675   19.6123   22.7610 N   0  3  0  0  0  0  0  0  0  0  0  0
   18.2383   20.1524   23.6309 H   0  0  0  0  0  0  0  0  0  0  0  0
   17.6044   18.9185   22.7652 H   0  0  0  0  0  0  0  0  0  0  0  0
   18.2527   20.5384   21.5550 C   0  0  0  0  0  0  0  0  0  0  0  0
   18.3247   19.9504   20.6380 H   0  0  0  0  0  0  0  0  0  0  0  0
   17.2881   21.0497   21.5873 H   0  0  0  0  0  0  0  0  0  0  0  0
   19.0598   21.2734   21.5880 H   0  0  0  0  0  0  0  0  0  0  0  0
  1  2  1  0  0  0  0
  1  3  1  0  0  0  0
  1  4  1  0  0  0  0
  1  5  1  0  0  0  0
  5  6  1  0  0  0  0
  5  7  1  0  0  0  0
  5  8  1  0  0  0  0
  8  9  1  0  0  0  0
  8 10  1  0  0  0  0
  8 11  1  0  0  0  0
 11 12  1  0  0  0  0
 11 13  1  0  0  0  0
 11 14  1  0  0  0  0
 14 15  1  0  0  0  0
 14 16  1  0  0  0  0
 14 17  1  0  0  0  0
 17 18  1  0  0  0  0
 17 19  1  0  0  0  0
 17 20  1  0  0  0  0
M  END
> <VConfSearch Rank>
406

> <Conf_Id>
33

> <Delta U+W>
0.372

> <U+W>
15.711

> <U>
70.163

> <W>
-54.452

> <W(PB)>
-56.363

> <W(SA)>
1.911

> <Valence>
1.420

> <Coulomb>
68.566

> <VdW>
0.177

> <VdW6>
-4.267

> <VdW12>
4.445

> <Bond>
0.146

> <Angle>
0.581

> <Pdih>
0.693

> <Idih>
0.000

> <Tether>
0.000

$$$$
VeraChem MOL file


 20 19  0  0  0  0  0  0  0  0999 V2000     
   21.6499   20.6135   23.0428 C   0  0  0  0  0  0  0  0  0  0  0  0
   22.4844   21.0832   23.5795 H   0  0  0  0  0  0  0  0  0  0  0  0
   21.8824   20.6524   21.9711 H   0  0  0  0  0  0  0  0  0  0  0  0
   20.7531   21.2210   23.2213 H   0  0  0  0  0  0  0  0  0  0  0  0
   21.4431   19.1600   23.5273 C   0  0  0  0  0  0  0  0  0  0  0  0
   21.3043   19.1617   24.6176 H   0  0  0  0  0  0  0  0  0  0  0  0
   22.3518   18.5731   23.3327 H   0  0  0  0  0  0  0  0  0  0  0  0
   20.2261   18.4711   22.8668 C   0  0  0  0  0  0  0  0  0  0  0  0
   20.0939   17.4759   23.3113 H   0  0  0  0  0  0  0  0  0  0  0  0
   19.3165   19.0412   23.0959 H   0  0  0  0  0  0  0  0  0  0  0  0
   20.3856   18.3245   21.3383 C   0  0  0  0  0  0  0  0  0  0  0  0
   21.3154   17.7895   21.1287 H   0  0  0  0  0  0  0  0  0  0  0  0
   20.4512   19.3117   20.8747 H   0  0  0  0  0  0  0  0  0  0  0  0
   19.2613   17.5630   20.6553 N   0  3  0  0  0  0  0  0  0  0  0  0
   19.1445   16.6340   21.0877 H   0  0  0  0  0  0  0  0  0  0  0  0
   19.5217   17.3676   19.6759 H   0  0  0  0  0  0  0  0  0  0  0  0
   17.9553   18.3491   20.6964 C   0  0  0  0  0  0  0  0  0  0  0  0
   17.1833   17.7881   20.1652 H   0  0  0  0  0  0  0  0  0  0  0  0
   17.6523   18.4948   21.7351 H   0  0  0  0  0  0  0  0  0  0  0  0
   18.1034   19.3178   20.2144 H   0  0  0  0  0  0  0  0  0  0  0  0
  1  2  1  0  0  0  0
  1  3  1  0  0  0  0
  1  4  1  0  0  0  0
  1  5  1  0  0  0  0
  5  6  1  0  0  0  0
  5  7  1  0  0  0  0
  5  8  1  0  0  0  0
  8  9  1  0  0  0  0
  8 10  1  0  0  0  0
  8 11  1  0  0  0  0
 11 12  1  0  0  0  0
 11 13  1  0  0  0  0
 11 14  1  0  0  0  0
 14 15  1  0  0  0  0
 14 16  1  0  0  0  0
 14 17  1  0  0  0  0
 17 18  1  0  0  0  0
 17 19  1  0  0  0  0
 17 20  1  0  0  0  0
M  END
> <VConfSearch Rank>
407

> <Conf_Id>
53

> <Delta U+W>
0.379

> <U+W>
15.717

> <U>
70.163

> <W>
-54.446

> <W(PB)>
-56.322

> <W(SA)>
1.876

> <Valence>
1.420

> <Coulomb>
68.566

> <VdW>
0.177

> <VdW6>
-4.267

> <VdW12>
4.445

> <Bond>
0.146

> <Angle>
0.581

> <Pdih>
0.693

> <Idih>
0.000

> <Tether>
0.000

$$$$
VeraChem MOL file


 20 19  0  0  0  0  0  0  0  0999 V2000     
   17.7543   18.6779   23.4701 C   0  0  0  0  0  0  0  0  0  0  0  0
   16.7508   19.0170   23.1819 H   0  0  0  0  0  0  0  0  0  0  0  0
   17.6507   17.7022   23.9623 H   0  0  0  0  0  0  0  0  0  0  0  0
   18.1518   19.3904   24.2046 H   0  0  0  0  0  0  0  0  0  0  0  0
   18.6741   18.5828   22.2336 C   0  0  0  0  0  0  0  0  0  0  0  0
   18.7226   19.5662   21.7465 H   0  0  0  0  0  0  0  0  0  0  0  0
   18.2341   17.8878   21.5046 H   0  0  0  0  0  0  0  0  0  0  0  0
   20.0966   18.1085   22.6134 C   0  0  0  0  0  0  0  0  0  0  0  0
   20.5514   18.8138   23.3208 H   0  0  0  0  0  0  0  0  0  0  0  0
   20.0302   17.1463   23.1382 H   0  0  0  0  0  0  0  0  0  0  0  0
   21.0175   17.9290   21.3860 C   0  0  0  0  0  0  0  0  0  0  0  0
   20.5790   17.1816   20.7199 H   0  0  0  0  0  0  0  0  0  0  0  0
   21.9913   17.5555   21.7128 H   0  0  0  0  0  0  0  0  0  0  0  0
   21.2595   19.1854   20.5629 N   0  3  0  0  0  0  0  0  0  0  0  0
   20.3631   19.5745   20.2357 H   0  0  0  0  0  0  0  0  0  0  0  0
   21.7726   18.9400   19.7017 H   0  0  0  0  0  0  0  0  0  0  0  0
   22.0445   20.2250   21.3555 C   0  0  0  0  0  0  0  0  0  0  0  0
   22.9959   19.7923   21.6720 H   0  0  0  0  0  0  0  0  0  0  0  0
   22.2287   21.0946   20.7208 H   0  0  0  0  0  0  0  0  0  0  0  0
   21.4651   20.5263   22.2304 H   0  0  0  0  0  0  0  0  0  0  0  0
  1  2  1  0  0  0  0
  1  3  1  0  0  0  0
  1  4  1  0  0  0  0
  1  5  1  0  0  0  0
  5  6  1  0  0  0  0
  5  7  1  0  0  0  0
  5  8  1  0  0  0  0
  8  9  1  0  0  0  0
  8 10  1  0  0  0  0
  8 11  1  0  0  0  0
 11 12  1  0  0  0  0
 11 13  1  0  0  0  0
 11 14  1  0  0  0  0
 14 15  1  0  0  0  0
 14 16  1  0  0  0  0
 14 17  1  0  0  0  0
 17 18  1  0  0  0  0
 17 19  1  0  0  0  0
 17 20  1  0  0  0  0
M  END
> <VConfSearch Rank>
408

> <Conf_Id>
49

> <Delta U+W>
0.268

> <U+W>
15.607

> <U>
70.298

> <W>
-54.692

> <W(PB)>
-56.576

> <W(SA)>
1.885

> <Valence>
1.245

> <Coulomb>
68.933

> <VdW>
0.120

> <VdW6>
-4.430

> <VdW12>
4.550

> <Bond>
0.148

> <Angle>
0.587

> <Pdih>
0.509

> <Idih>
0.000

> <Tether>
0.000

$$$$
VeraChem MOL file


 20 19  0  0  0  0  0  0  0  0999 V2000     
   19.3067   16.0766   21.9740 C   0  0  0  0  0  0  0  0  0  0  0  0
   19.6302   15.7584   22.9736 H   0  0  0  0  0  0  0  0  0  0  0  0
   18.2144   15.9802   21.9216 H   0  0  0  0  0  0  0  0  0  0  0  0
   19.7403   15.3816   21.2432 H   0  0  0  0  0  0  0  0  0  0  0  0
   19.7529   17.5254   21.6803 C   0  0  0  0  0  0  0  0  0  0  0  0
   19.4399   17.8052   20.6645 H   0  0  0  0  0  0  0  0  0  0  0  0
   20.8497   17.5696   21.7032 H   0  0  0  0  0  0  0  0  0  0  0  0
   19.1639   18.5245   22.7032 C   0  0  0  0  0  0  0  0  0  0  0  0
   18.0756   18.3867   22.7529 H   0  0  0  0  0  0  0  0  0  0  0  0
   19.5486   18.2990   23.7065 H   0  0  0  0  0  0  0  0  0  0  0  0
   19.4403   20.0080   22.3690 C   0  0  0  0  0  0  0  0  0  0  0  0
   18.9281   20.6221   23.1143 H   0  0  0  0  0  0  0  0  0  0  0  0
   19.0251   20.2609   21.3902 H   0  0  0  0  0  0  0  0  0  0  0  0
   20.9027   20.4253   22.3890 N   0  3  0  0  0  0  0  0  0  0  0  0
   21.4216   19.8843   23.0968 H   0  0  0  0  0  0  0  0  0  0  0  0
   20.9725   21.4058   22.7032 H   0  0  0  0  0  0  0  0  0  0  0  0
   21.5388   20.2945   21.0088 C   0  0  0  0  0  0  0  0  0  0  0  0
   22.5785   20.6248   21.0622 H   0  0  0  0  0  0  0  0  0  0  0  0
   21.5020   19.2548   20.6819 H   0  0  0  0  0  0  0  0  0  0  0  0
   20.9914   20.9216   20.3018 H   0  0  0  0  0  0  0  0  0  0  0  0
  1  2  1  0  0  0  0
  1  3  1  0  0  0  0
  1  4  1  0  0  0  0
  1  5  1  0  0  0  0
  5  6  1  0  0  0  0
  5  7  1  0  0  0  0
  5  8  1  0  0  0  0
  8  9  1  0  0  0  0
  8 10  1  0  0  0  0
  8 11  1  0  0  0  0
 11 12  1  0  0  0  0
 11 13  1  0  0  0  0
 11 14  1  0  0  0  0
 14 15  1  0  0  0  0
 14 16  1  0  0  0  0
 14 17  1  0  0  0  0
 17 18  1  0  0  0  0
 17 19  1  0  0  0  0
 17 20  1  0  0  0  0
M  END
> <VConfSearch Rank>
409

> <Conf_Id>
65

> <Delta U+W>
1.775

> <U+W>
17.114

> <U>
71.726

> <W>
-54.613

> <W(PB)>
-56.495

> <W(SA)>
1.883

> <Valence>
2.885

> <Coulomb>
68.822

> <VdW>
0.019

> <VdW6>
-4.600

> <VdW12>
4.619

> <Bond>
0.152

> <Angle>
0.862

> <Pdih>
1.871

> <Idih>
0.000

> <Tether>
0.000

$$$$
VeraChem MOL file


 20 19  0  0  0  0  0  0  0  0999 V2000     
   21.0391   17.4444   20.2820 C   0  0  0  0  0  0  0  0  0  0  0  0
   21.7069   18.1409   20.8044 H   0  0  0  0  0  0  0  0  0  0  0  0
   21.5964   16.5133   20.1164 H   0  0  0  0  0  0  0  0  0  0  0  0
   20.8008   17.8707   19.2988 H   0  0  0  0  0  0  0  0  0  0  0  0
   19.7531   17.1694   21.0949 C   0  0  0  0  0  0  0  0  0  0  0  0
   20.0175   16.7433   22.0722 H   0  0  0  0  0  0  0  0  0  0  0  0
   19.1625   16.3993   20.5791 H   0  0  0  0  0  0  0  0  0  0  0  0
   18.8724   18.4300   21.2830 C   0  0  0  0  0  0  0  0  0  0  0  0
   18.5321   18.7823   20.3002 H   0  0  0  0  0  0  0  0  0  0  0  0
   17.9660   18.1616   21.8418 H   0  0  0  0  0  0  0  0  0  0  0  0
   19.5865   19.5930   22.0029 C   0  0  0  0  0  0  0  0  0  0  0  0
   18.9103   20.4493   22.0667 H   0  0  0  0  0  0  0  0  0  0  0  0
   20.4648   19.8974   21.4287 H   0  0  0  0  0  0  0  0  0  0  0  0
   20.0407   19.2600   23.4112 N   0  3  0  0  0  0  0  0  0  0  0  0
   20.6771   18.4493   23.3938 H   0  0  0  0  0  0  0  0  0  0  0  0
   19.2352   18.9660   23.9844 H   0  0  0  0  0  0  0  0  0  0  0  0
   20.7295   20.4664   24.0347 C   0  0  0  0  0  0  0  0  0  0  0  0
   20.0276   21.3022   24.0712 H   0  0  0  0  0  0  0  0  0  0  0  0
   21.0521   20.2121   25.0467 H   0  0  0  0  0  0  0  0  0  0  0  0
   21.5968   20.7383   23.4292 H   0  0  0  0  0  0  0  0  0  0  0  0
  1  2  1  0  0  0  0
  1  3  1  0  0  0  0
  1  4  1  0  0  0  0
  1  5  1  0  0  0  0
  5  6  1  0  0  0  0
  5  7  1  0  0  0  0
  5  8  1  0  0  0  0
  8  9  1  0  0  0  0
  8 10  1  0  0  0  0
  8 11  1  0  0  0  0
 11 12  1  0  0  0  0
 11 13  1  0  0  0  0
 11 14  1  0  0  0  0
 14 15  1  0  0  0  0
 14 16  1  0  0  0  0
 14 17  1  0  0  0  0
 17 18  1  0  0  0  0
 17 19  1  0  0  0  0
 17 20  1  0  0  0  0
M  END
> <VConfSearch Rank>
410

> <Conf_Id>
23

> <Delta U+W>
0.896

> <U+W>
16.234

> <U>
70.374

> <W>
-54.140

> <W(PB)>
-56.046

> <W(SA)>
1.907

> <Valence>
1.257

> <Coulomb>
69.240

> <VdW>
-0.123

> <VdW6>
-4.336

> <VdW12>
4.213

> <Bond>
0.128

> <Angle>
0.603

> <Pdih>
0.526

> <Idih>
0.000

> <Tether>
0.000

$$$$
VeraChem MOL file


 20 19  0  0  0  0  0  0  0  0999 V2000     
   18.2590   17.3024   21.8908 C   0  0  0  0  0  0  0  0  0  0  0  0
   17.3252   17.8231   22.1397 H   0  0  0  0  0  0  0  0  0  0  0  0
   18.0022   16.2746   21.6032 H   0  0  0  0  0  0  0  0  0  0  0  0
   18.8731   17.2479   22.7985 H   0  0  0  0  0  0  0  0  0  0  0  0
   19.0044   18.0172   20.7403 C   0  0  0  0  0  0  0  0  0  0  0  0
   18.3905   17.9646   19.8302 H   0  0  0  0  0  0  0  0  0  0  0  0
   19.9331   17.4777   20.5099 H   0  0  0  0  0  0  0  0  0  0  0  0
   19.3131   19.5038   21.0480 C   0  0  0  0  0  0  0  0  0  0  0  0
   19.8159   19.9583   20.1840 H   0  0  0  0  0  0  0  0  0  0  0  0
   18.3688   20.0499   21.1737 H   0  0  0  0  0  0  0  0  0  0  0  0
   20.1773   19.7177   22.3083 C   0  0  0  0  0  0  0  0  0  0  0  0
   19.6626   19.3091   23.1811 H   0  0  0  0  0  0  0  0  0  0  0  0
   20.3216   20.7888   22.4710 H   0  0  0  0  0  0  0  0  0  0  0  0
   21.5492   19.0754   22.2311 N   0  3  0  0  0  0  0  0  0  0  0  0
   22.0659   19.4375   21.4151 H   0  0  0  0  0  0  0  0  0  0  0  0
   21.4551   18.0616   22.0700 H   0  0  0  0  0  0  0  0  0  0  0  0
   22.3219   19.3427   23.5156 C   0  0  0  0  0  0  0  0  0  0  0  0
   21.7722   18.9221   24.3604 H   0  0  0  0  0  0  0  0  0  0  0  0
   23.3060   18.8740   23.4466 H   0  0  0  0  0  0  0  0  0  0  0  0
   22.4361   20.4206   23.6490 H   0  0  0  0  0  0  0  0  0  0  0  0
  1  2  1  0  0  0  0
  1  3  1  0  0  0  0
  1  4  1  0  0  0  0
  1  5  1  0  0  0  0
  5  6  1  0  0  0  0
  5  7  1  0  0  0  0
  5  8  1  0  0  0  0
  8  9  1  0  0  0  0
  8 10  1  0  0  0  0
  8 11  1  0  0  0  0
 11 12  1  0  0  0  0
 11 13  1  0  0  0  0
 11 14  1  0  0  0  0
 14 15  1  0  0  0  0
 14 16  1  0  0  0  0
 14 17  1  0  0  0  0
 17 18  1  0  0  0  0
 17 19  1  0  0  0  0
 17 20  1  0  0  0  0
M  END
> <VConfSearch Rank>
411

> <Conf_Id>
24

> <Delta U+W>
0.792

> <U+W>
16.130

> <U>
70.374

> <W>
-54.243

> <W(PB)>
-56.130

> <W(SA)>
1.887

> <Valence>
1.257

> <Coulomb>
69.240

> <VdW>
-0.123

> <VdW6>
-4.336

> <VdW12>
4.213

> <Bond>
0.128

> <Angle>
0.603

> <Pdih>
0.526

> <Idih>
0.000

> <Tether>
0.000

$$$$
VeraChem MOL file


 20 19  0  0  0  0  0  0  0  0999 V2000     
   19.1668   17.4003   23.5303 C   0  0  0  0  0  0  0  0  0  0  0  0
   19.0041   16.5103   24.1521 H   0  0  0  0  0  0  0  0  0  0  0  0
   20.2028   17.7203   23.6932 H   0  0  0  0  0  0  0  0  0  0  0  0
   18.4905   18.1859   23.8916 H   0  0  0  0  0  0  0  0  0  0  0  0
   18.9014   17.0698   22.0437 C   0  0  0  0  0  0  0  0  0  0  0  0
   17.9325   16.5568   21.9663 H   0  0  0  0  0  0  0  0  0  0  0  0
   19.6541   16.3516   21.6890 H   0  0  0  0  0  0  0  0  0  0  0  0
   18.8768   18.3039   21.1061 C   0  0  0  0  0  0  0  0  0  0  0  0
   18.6131   17.9572   20.0981 H   0  0  0  0  0  0  0  0  0  0  0  0
   18.0779   18.9953   21.4052 H   0  0  0  0  0  0  0  0  0  0  0  0
   20.2197   19.0586   21.0088 C   0  0  0  0  0  0  0  0  0  0  0  0
   20.2320   19.6484   20.0887 H   0  0  0  0  0  0  0  0  0  0  0  0
   21.0435   18.3421   20.9631 H   0  0  0  0  0  0  0  0  0  0  0  0
   20.4815   20.0196   22.1529 N   0  3  0  0  0  0  0  0  0  0  0  0
   20.4276   19.5202   23.0520 H   0  0  0  0  0  0  0  0  0  0  0  0
   19.7396   20.7352   22.1916 H   0  0  0  0  0  0  0  0  0  0  0  0
   21.8462   20.6731   21.9827 C   0  0  0  0  0  0  0  0  0  0  0  0
   22.6174   19.8998   21.9773 H   0  0  0  0  0  0  0  0  0  0  0  0
   21.8669   21.2220   21.0388 H   0  0  0  0  0  0  0  0  0  0  0  0
   22.0207   21.3615   22.8126 H   0  0  0  0  0  0  0  0  0  0  0  0
  1  2  1  0  0  0  0
  1  3  1  0  0  0  0
  1  4  1  0  0  0  0
  1  5  1  0  0  0  0
  5  6  1  0  0  0  0
  5  7  1  0  0  0  0
  5  8  1  0  0  0  0
  8  9  1  0  0  0  0
  8 10  1  0  0  0  0
  8 11  1  0  0  0  0
 11 12  1  0  0  0  0
 11 13  1  0  0  0  0
 11 14  1  0  0  0  0
 14 15  1  0  0  0  0
 14 16  1  0  0  0  0
 14 17  1  0  0  0  0
 17 18  1  0  0  0  0
 17 19  1  0  0  0  0
 17 20  1  0  0  0  0
M  END
> <VConfSearch Rank>
412

> <Conf_Id>
26

> <Delta U+W>
2.888

> <U+W>
18.226

> <U>
72.042

> <W>
-53.816

> <W(PB)>
-55.689

> <W(SA)>
1.873

> <Valence>
2.428

> <Coulomb>
69.829

> <VdW>
-0.215

> <VdW6>
-4.563

> <VdW12>
4.348

> <Bond>
0.137

> <Angle>
0.936

> <Pdih>
1.356

> <Idih>
0.000

> <Tether>
0.000

$$$$
VeraChem MOL file


 20 19  0  0  0  0  0  0  0  0999 V2000     
   18.4888   19.5782   23.3594 C   0  0  0  0  0  0  0  0  0  0  0  0
   17.5006   19.7270   23.8138 H   0  0  0  0  0  0  0  0  0  0  0  0
   19.1969   20.2338   23.8829 H   0  0  0  0  0  0  0  0  0  0  0  0
   18.4128   19.8996   22.3140 H   0  0  0  0  0  0  0  0  0  0  0  0
   18.9097   18.0949   23.4685 C   0  0  0  0  0  0  0  0  0  0  0  0
   18.2363   17.4779   22.8571 H   0  0  0  0  0  0  0  0  0  0  0  0
   18.7645   17.7647   24.5068 H   0  0  0  0  0  0  0  0  0  0  0  0
   20.3806   17.8137   23.0680 C   0  0  0  0  0  0  0  0  0  0  0  0
   21.0673   18.3674   23.7219 H   0  0  0  0  0  0  0  0  0  0  0  0
   20.5831   16.7500   23.2506 H   0  0  0  0  0  0  0  0  0  0  0  0
   20.7069   18.1085   21.5885 C   0  0  0  0  0  0  0  0  0  0  0  0
   19.8836   17.7703   20.9543 H   0  0  0  0  0  0  0  0  0  0  0  0
   21.6044   17.5538   21.3033 H   0  0  0  0  0  0  0  0  0  0  0  0
   20.9767   19.5704   21.2866 N   0  3  0  0  0  0  0  0  0  0  0  0
   21.7796   19.9045   21.8413 H   0  0  0  0  0  0  0  0  0  0  0  0
   20.1774   20.1458   21.5878 H   0  0  0  0  0  0  0  0  0  0  0  0
   21.2408   19.7552   19.7985 C   0  0  0  0  0  0  0  0  0  0  0  0
   20.3659   19.4257   19.2340 H   0  0  0  0  0  0  0  0  0  0  0  0
   21.4332   20.8112   19.5965 H   0  0  0  0  0  0  0  0  0  0  0  0
   22.1110   19.1610   19.5113 H   0  0  0  0  0  0  0  0  0  0  0  0
  1  2  1  0  0  0  0
  1  3  1  0  0  0  0
  1  4  1  0  0  0  0
  1  5  1  0  0  0  0
  5  6  1  0  0  0  0
  5  7  1  0  0  0  0
  5  8  1  0  0  0  0
  8  9  1  0  0  0  0
  8 10  1  0  0  0  0
  8 11  1  0  0  0  0
 11 12  1  0  0  0  0
 11 13  1  0  0  0  0
 11 14  1  0  0  0  0
 14 15  1  0  0  0  0
 14 16  1  0  0  0  0
 14 17  1  0  0  0  0
 17 18  1  0  0  0  0
 17 19  1  0  0  0  0
 17 20  1  0  0  0  0
M  END
> <VConfSearch Rank>
413

> <Conf_Id>
5

> <Delta U+W>
2.950

> <U+W>
18.289

> <U>
72.042

> <W>
-53.753

> <W(PB)>
-55.644

> <W(SA)>
1.891

> <Valence>
2.428

> <Coulomb>
69.829

> <VdW>
-0.215

> <VdW6>
-4.563

> <VdW12>
4.348

> <Bond>
0.137

> <Angle>
0.936

> <Pdih>
1.356

> <Idih>
0.000

> <Tether>
0.000

$$$$
VeraChem MOL file


 20 19  0  0  0  0  0  0  0  0999 V2000     
   17.8288   17.9315   22.2988 C   0  0  0  0  0  0  0  0  0  0  0  0
   17.4600   18.0146   23.3294 H   0  0  0  0  0  0  0  0  0  0  0  0
   17.7167   18.9101   21.8155 H   0  0  0  0  0  0  0  0  0  0  0  0
   17.1794   17.2237   21.7675 H   0  0  0  0  0  0  0  0  0  0  0  0
   19.2965   17.4465   22.2715 C   0  0  0  0  0  0  0  0  0  0  0  0
   19.6417   17.3675   21.2316 H   0  0  0  0  0  0  0  0  0  0  0  0
   19.3440   16.4290   22.6843 H   0  0  0  0  0  0  0  0  0  0  0  0
   20.2524   18.3580   23.0807 C   0  0  0  0  0  0  0  0  0  0  0  0
   19.9504   18.3507   24.1363 H   0  0  0  0  0  0  0  0  0  0  0  0
   21.2659   17.9374   23.0544 H   0  0  0  0  0  0  0  0  0  0  0  0
   20.2893   19.8234   22.5901 C   0  0  0  0  0  0  0  0  0  0  0  0
   20.9848   20.3978   23.2071 H   0  0  0  0  0  0  0  0  0  0  0  0
   19.2961   20.2633   22.7092 H   0  0  0  0  0  0  0  0  0  0  0  0
   20.6981   20.0097   21.1370 N   0  3  0  0  0  0  0  0  0  0  0  0
   20.5597   20.9948   20.8622 H   0  0  0  0  0  0  0  0  0  0  0  0
   20.0713   19.4700   20.5223 H   0  0  0  0  0  0  0  0  0  0  0  0
   22.1522   19.6083   20.9153 C   0  0  0  0  0  0  0  0  0  0  0  0
   22.2749   18.5491   21.1498 H   0  0  0  0  0  0  0  0  0  0  0  0
   22.4172   19.7857   19.8707 H   0  0  0  0  0  0  0  0  0  0  0  0
   22.7935   20.2082   21.5645 H   0  0  0  0  0  0  0  0  0  0  0  0
  1  2  1  0  0  0  0
  1  3  1  0  0  0  0
  1  4  1  0  0  0  0
  1  5  1  0  0  0  0
  5  6  1  0  0  0  0
  5  7  1  0  0  0  0
  5  8  1  0  0  0  0
  8  9  1  0  0  0  0
  8 10  1  0  0  0  0
  8 11  1  0  0  0  0
 11 12  1  0  0  0  0
 11 13  1  0  0  0  0
 11 14  1  0  0  0  0
 14 15  1  0  0  0  0
 14 16  1  0  0  0  0
 14 17  1  0  0  0  0
 17 18  1  0  0  0  0
 17 19  1  0  0  0  0
 17 20  1  0  0  0  0
M  END
> <VConfSearch Rank>
414

> <Conf_Id>
52

> <Delta U+W>
0.784

> <U+W>
16.122

> <U>
70.777

> <W>
-54.655

> <W(PB)>
-56.491

> <W(SA)>
1.836

> <Valence>
1.529

> <Coulomb>
69.166

> <VdW>
0.082

> <VdW6>
-5.166

> <VdW12>
5.248

> <Bond>
0.171

> <Angle>
0.752

> <Pdih>
0.605

> <Idih>
0.000

> <Tether>
0.000

$$$$
VeraChem MOL file


 20 19  0  0  0  0  0  0  0  0999 V2000     
   18.5875   17.6951   21.1142 C   0  0  0  0  0  0  0  0  0  0  0  0
   17.9713   16.9691   20.5679 H   0  0  0  0  0  0  0  0  0  0  0  0
   18.6322   17.3574   22.1559 H   0  0  0  0  0  0  0  0  0  0  0  0
   18.0721   18.6638   21.0766 H   0  0  0  0  0  0  0  0  0  0  0  0
   19.9960   17.7832   20.4837 C   0  0  0  0  0  0  0  0  0  0  0  0
   19.8848   17.8937   19.3958 H   0  0  0  0  0  0  0  0  0  0  0  0
   20.5282   16.8342   20.6392 H   0  0  0  0  0  0  0  0  0  0  0  0
   20.8603   18.9594   21.0056 C   0  0  0  0  0  0  0  0  0  0  0  0
   21.7913   18.9764   20.4237 H   0  0  0  0  0  0  0  0  0  0  0  0
   20.3641   19.9160   20.7993 H   0  0  0  0  0  0  0  0  0  0  0  0
   21.2459   18.8607   22.5000 C   0  0  0  0  0  0  0  0  0  0  0  0
   22.0993   19.5150   22.6951 H   0  0  0  0  0  0  0  0  0  0  0  0
   21.5544   17.8359   22.7216 H   0  0  0  0  0  0  0  0  0  0  0  0
   20.1574   19.2449   23.4900 N   0  3  0  0  0  0  0  0  0  0  0  0
   20.4426   18.9666   24.4421 H   0  0  0  0  0  0  0  0  0  0  0  0
   19.2996   18.7094   23.2971 H   0  0  0  0  0  0  0  0  0  0  0  0
   19.8786   20.7434   23.4513 C   0  0  0  0  0  0  0  0  0  0  0  0
   20.7999   21.2860   23.6738 H   0  0  0  0  0  0  0  0  0  0  0  0
   19.5164   21.0200   22.4594 H   0  0  0  0  0  0  0  0  0  0  0  0
   19.1198   20.9854   24.1987 H   0  0  0  0  0  0  0  0  0  0  0  0
  1  2  1  0  0  0  0
  1  3  1  0  0  0  0
  1  4  1  0  0  0  0
  1  5  1  0  0  0  0
  5  6  1  0  0  0  0
  5  7  1  0  0  0  0
  5  8  1  0  0  0  0
  8  9  1  0  0  0  0
  8 10  1  0  0  0  0
  8 11  1  0  0  0  0
 11 12  1  0  0  0  0
 11 13  1  0  0  0  0
 11 14  1  0  0  0  0
 14 15  1  0  0  0  0
 14 16  1  0  0  0  0
 14 17  1  0  0  0  0
 17 18  1  0  0  0  0
 17 19  1  0  0  0  0
 17 20  1  0  0  0  0
M  END
> <VConfSearch Rank>
415

> <Conf_Id>
55

> <Delta U+W>
2.745

> <U+W>
18.083

> <U>
72.490

> <W>
-54.407

> <W(PB)>
-56.269

> <W(SA)>
1.861

> <Valence>
2.738

> <Coulomb>
69.795

> <VdW>
-0.043

> <VdW6>
-5.333

> <VdW12>
5.290

> <Bond>
0.182

> <Angle>
1.135

> <Pdih>
1.422

> <Idih>
0.000

> <Tether>
0.000

$$$$
VeraChem MOL file


 20 19  0  0  0  0  0  0  0  0999 V2000     
   18.7771   18.1895   20.4057 C   0  0  0  0  0  0  0  0  0  0  0  0
   18.2988   17.7416   19.5249 H   0  0  0  0  0  0  0  0  0  0  0  0
   17.9883   18.4087   21.1372 H   0  0  0  0  0  0  0  0  0  0  0  0
   19.2300   19.1326   20.0793 H   0  0  0  0  0  0  0  0  0  0  0  0
   19.8329   17.2237   20.9904 C   0  0  0  0  0  0  0  0  0  0  0  0
   20.6650   17.1154   20.2805 H   0  0  0  0  0  0  0  0  0  0  0  0
   19.3804   16.2262   21.0816 H   0  0  0  0  0  0  0  0  0  0  0  0
   20.3813   17.6374   22.3800 C   0  0  0  0  0  0  0  0  0  0  0  0
   19.5643   17.6887   23.1107 H   0  0  0  0  0  0  0  0  0  0  0  0
   21.0442   16.8359   22.7319 H   0  0  0  0  0  0  0  0  0  0  0  0
   21.1955   18.9521   22.3849 C   0  0  0  0  0  0  0  0  0  0  0  0
   21.8703   18.9568   21.5253 H   0  0  0  0  0  0  0  0  0  0  0  0
   21.8079   18.9925   23.2892 H   0  0  0  0  0  0  0  0  0  0  0  0
   20.3795   20.2348   22.3448 N   0  3  0  0  0  0  0  0  0  0  0  0
   19.7253   20.2123   21.5503 H   0  0  0  0  0  0  0  0  0  0  0  0
   21.0037   21.0356   22.1596 H   0  0  0  0  0  0  0  0  0  0  0  0
   19.6309   20.4552   23.6546 C   0  0  0  0  0  0  0  0  0  0  0  0
   18.9262   19.6366   23.8125 H   0  0  0  0  0  0  0  0  0  0  0  0
   20.3485   20.4900   24.4771 H   0  0  0  0  0  0  0  0  0  0  0  0
   19.0872   21.4009   23.6010 H   0  0  0  0  0  0  0  0  0  0  0  0
  1  2  1  0  0  0  0
  1  3  1  0  0  0  0
  1  4  1  0  0  0  0
  1  5  1  0  0  0  0
  5  6  1  0  0  0  0
  5  7  1  0  0  0  0
  5  8  1  0  0  0  0
  8  9  1  0  0  0  0
  8 10  1  0  0  0  0
  8 11  1  0  0  0  0
 11 12  1  0  0  0  0
 11 13  1  0  0  0  0
 11 14  1  0  0  0  0
 14 15  1  0  0  0  0
 14 16  1  0  0  0  0
 14 17  1  0  0  0  0
 17 18  1  0  0  0  0
 17 19  1  0  0  0  0
 17 20  1  0  0  0  0
M  END
> <VConfSearch Rank>
416

> <Conf_Id>
76

> <Delta U+W>
2.799

> <U+W>
18.137

> <U>
72.490

> <W>
-54.353

> <W(PB)>
-56.201

> <W(SA)>
1.848

> <Valence>
2.738

> <Coulomb>
69.795

> <VdW>
-0.043

> <VdW6>
-5.334

> <VdW12>
5.290

> <Bond>
0.182

> <Angle>
1.135

> <Pdih>
1.421

> <Idih>
0.000

> <Tether>
0.000

$$$$
VeraChem MOL file


 20 19  0  0  0  0  0  0  0  0999 V2000     
   21.6191   17.7439   20.8745 C   0  0  0  0  0  0  0  0  0  0  0  0
   21.6941   17.6326   21.9631 H   0  0  0  0  0  0  0  0  0  0  0  0
   21.3618   16.7654   20.4487 H   0  0  0  0  0  0  0  0  0  0  0  0
   22.6133   18.0204   20.5002 H   0  0  0  0  0  0  0  0  0  0  0  0
   20.5741   18.8128   20.4795 C   0  0  0  0  0  0  0  0  0  0  0  0
   20.5896   18.9364   19.3876 H   0  0  0  0  0  0  0  0  0  0  0  0
   20.8573   19.7891   20.8935 H   0  0  0  0  0  0  0  0  0  0  0  0
   19.1347   18.4452   20.9157 C   0  0  0  0  0  0  0  0  0  0  0  0
   18.4402   19.2212   20.5679 H   0  0  0  0  0  0  0  0  0  0  0  0
   18.8368   17.5226   20.4003 H   0  0  0  0  0  0  0  0  0  0  0  0
   18.9366   18.2343   22.4352 C   0  0  0  0  0  0  0  0  0  0  0  0
   19.6235   17.4719   22.8100 H   0  0  0  0  0  0  0  0  0  0  0  0
   17.9192   17.8664   22.5912 H   0  0  0  0  0  0  0  0  0  0  0  0
   19.0819   19.4801   23.2966 N   0  3  0  0  0  0  0  0  0  0  0  0
   18.4611   19.3996   24.1168 H   0  0  0  0  0  0  0  0  0  0  0  0
   18.7400   20.3095   22.7888 H   0  0  0  0  0  0  0  0  0  0  0  0
   20.5175   19.6726   23.7732 C   0  0  0  0  0  0  0  0  0  0  0  0
   20.5663   20.5586   24.4100 H   0  0  0  0  0  0  0  0  0  0  0  0
   20.8260   18.7940   24.3438 H   0  0  0  0  0  0  0  0  0  0  0  0
   21.1769   19.8034   22.9146 H   0  0  0  0  0  0  0  0  0  0  0  0
  1  2  1  0  0  0  0
  1  3  1  0  0  0  0
  1  4  1  0  0  0  0
  1  5  1  0  0  0  0
  5  6  1  0  0  0  0
  5  7  1  0  0  0  0
  5  8  1  0  0  0  0
  8  9  1  0  0  0  0
  8 10  1  0  0  0  0
  8 11  1  0  0  0  0
 11 12  1  0  0  0  0
 11 13  1  0  0  0  0
 11 14  1  0  0  0  0
 14 15  1  0  0  0  0
 14 16  1  0  0  0  0
 14 17  1  0  0  0  0
 17 18  1  0  0  0  0
 17 19  1  0  0  0  0
 17 20  1  0  0  0  0
M  END
> <VConfSearch Rank>
417

> <Conf_Id>
60

> <Delta U+W>
1.788

> <U+W>
17.127

> <U>
72.122

> <W>
-54.995

> <W(PB)>
-56.810

> <W(SA)>
1.815

> <Valence>
3.197

> <Coulomb>
69.115

> <VdW>
-0.190

> <VdW6>
-5.585

> <VdW12>
5.395

> <Bond>
0.177

> <Angle>
1.207

> <Pdih>
1.813

> <Idih>
0.000

> <Tether>
0.000

$$$$
VeraChem MOL file


 20 19  0  0  0  0  0  0  0  0999 V2000     
   20.2421   18.4587   24.1130 C   0  0  0  0  0  0  0  0  0  0  0  0
   20.2602   19.0962   25.0064 H   0  0  0  0  0  0  0  0  0  0  0  0
   20.1382   17.4182   24.4467 H   0  0  0  0  0  0  0  0  0  0  0  0
   21.2131   18.5609   23.6134 H   0  0  0  0  0  0  0  0  0  0  0  0
   19.0749   18.8618   23.1826 C   0  0  0  0  0  0  0  0  0  0  0  0
   19.1809   19.9104   22.8761 H   0  0  0  0  0  0  0  0  0  0  0  0
   18.1355   18.8111   23.7508 H   0  0  0  0  0  0  0  0  0  0  0  0
   18.9493   17.9515   21.9364 C   0  0  0  0  0  0  0  0  0  0  0  0
   18.7336   16.9279   22.2701 H   0  0  0  0  0  0  0  0  0  0  0  0
   18.0792   18.2640   21.3443 H   0  0  0  0  0  0  0  0  0  0  0  0
   20.1947   17.9076   21.0201 C   0  0  0  0  0  0  0  0  0  0  0  0
   20.0199   17.1461   20.2557 H   0  0  0  0  0  0  0  0  0  0  0  0
   21.0788   17.6077   21.5875 H   0  0  0  0  0  0  0  0  0  0  0  0
   20.5118   19.1982   20.2792 N   0  3  0  0  0  0  0  0  0  0  0  0
   19.6421   19.6935   20.0324 H   0  0  0  0  0  0  0  0  0  0  0  0
   20.9506   18.9702   19.3735 H   0  0  0  0  0  0  0  0  0  0  0  0
   21.4529   20.0920   21.0796 C   0  0  0  0  0  0  0  0  0  0  0  0
   22.3780   19.5479   21.2814 H   0  0  0  0  0  0  0  0  0  0  0  0
   21.6749   20.9887   20.4969 H   0  0  0  0  0  0  0  0  0  0  0  0
   20.9807   20.3758   22.0207 H   0  0  0  0  0  0  0  0  0  0  0  0
  1  2  1  0  0  0  0
  1  3  1  0  0  0  0
  1  4  1  0  0  0  0
  1  5  1  0  0  0  0
  5  6  1  0  0  0  0
  5  7  1  0  0  0  0
  5  8  1  0  0  0  0
  8  9  1  0  0  0  0
  8 10  1  0  0  0  0
  8 11  1  0  0  0  0
 11 12  1  0  0  0  0
 11 13  1  0  0  0  0
 11 14  1  0  0  0  0
 14 15  1  0  0  0  0
 14 16  1  0  0  0  0
 14 17  1  0  0  0  0
 17 18  1  0  0  0  0
 17 19  1  0  0  0  0
 17 20  1  0  0  0  0
M  END
> <VConfSearch Rank>
418

> <Conf_Id>
54

> <Delta U+W>
1.880

> <U+W>
17.218

> <U>
72.122

> <W>
-54.903

> <W(PB)>
-56.724

> <W(SA)>
1.821

> <Valence>
3.197

> <Coulomb>
69.115

> <VdW>
-0.190

> <VdW6>
-5.585

> <VdW12>
5.395

> <Bond>
0.177

> <Angle>
1.207

> <Pdih>
1.813

> <Idih>
0.000

> <Tether>
0.000

$$$$
VeraChem MOL file


 20 19  0  0  0  0  0  0  0  0999 V2000     
   19.2704   21.7839   22.9663 C   0  0  0  0  0  0  0  0  0  0  0  0
   18.3054   21.5300   23.4238 H   0  0  0  0  0  0  0  0  0  0  0  0
   19.7357   22.5686   23.5769 H   0  0  0  0  0  0  0  0  0  0  0  0
   19.0764   22.2036   21.9706 H   0  0  0  0  0  0  0  0  0  0  0  0
   20.1877   20.5449   22.8787 C   0  0  0  0  0  0  0  0  0  0  0  0
   20.3916   20.1692   23.8914 H   0  0  0  0  0  0  0  0  0  0  0  0
   21.1565   20.8374   22.4495 H   0  0  0  0  0  0  0  0  0  0  0  0
   19.5577   19.4228   22.0244 C   0  0  0  0  0  0  0  0  0  0  0  0
   18.5915   19.1287   22.4557 H   0  0  0  0  0  0  0  0  0  0  0  0
   19.3574   19.7980   21.0119 H   0  0  0  0  0  0  0  0  0  0  0  0
   20.4783   18.1911   21.9418 C   0  0  0  0  0  0  0  0  0  0  0  0
   20.6671   17.8058   22.9469 H   0  0  0  0  0  0  0  0  0  0  0  0
   21.4354   18.4771   21.4983 H   0  0  0  0  0  0  0  0  0  0  0  0
   19.9000   17.0618   21.1117 N   0  3  0  0  0  0  0  0  0  0  0  0
   19.7000   17.3892   20.1541 H   0  0  0  0  0  0  0  0  0  0  0  0
   18.9888   16.7676   21.4954 H   0  0  0  0  0  0  0  0  0  0  0  0
   20.8705   15.8886   21.0826 C   0  0  0  0  0  0  0  0  0  0  0  0
   21.0406   15.5367   22.1025 H   0  0  0  0  0  0  0  0  0  0  0  0
   20.4419   15.0832   20.4821 H   0  0  0  0  0  0  0  0  0  0  0  0
   21.8152   16.2138   20.6415 H   0  0  0  0  0  0  0  0  0  0  0  0
  1  2  1  0  0  0  0
  1  3  1  0  0  0  0
  1  4  1  0  0  0  0
  1  5  1  0  0  0  0
  5  6  1  0  0  0  0
  5  7  1  0  0  0  0
  5  8  1  0  0  0  0
  8  9  1  0  0  0  0
  8 10  1  0  0  0  0
  8 11  1  0  0  0  0
 11 12  1  0  0  0  0
 11 13  1  0  0  0  0
 11 14  1  0  0  0  0
 14 15  1  0  0  0  0
 14 16  1  0  0  0  0
 14 17  1  0  0  0  0
 17 18  1  0  0  0  0
 17 19  1  0  0  0  0
 17 20  1  0  0  0  0
M  END
> <VConfSearch Rank>
419

> <Conf_Id>
67

> <Delta U+W>
0.000

> <U+W>
15.338

> <U>
69.277

> <W>
-53.939

> <W(PB)>
-55.889

> <W(SA)>
1.950

> <Valence>
0.846

> <Coulomb>
68.557

> <VdW>
-0.127

> <VdW6>
-3.008

> <VdW12>
2.882

> <Bond>
0.088

> <Angle>
0.332

> <Pdih>
0.426

> <Idih>
0.000

> <Tether>
0.000

$$$$
VeraChem MOL file


 20 19  0  0  0  0  0  0  0  0999 V2000     
   19.8585   21.3177   23.7335 C   0  0  0  0  0  0  0  0  0  0  0  0
   20.3620   20.7859   24.5513 H   0  0  0  0  0  0  0  0  0  0  0  0
   20.1562   22.3731   23.7855 H   0  0  0  0  0  0  0  0  0  0  0  0
   18.7759   21.2650   23.9072 H   0  0  0  0  0  0  0  0  0  0  0  0
   20.2322   20.7124   22.3630 C   0  0  0  0  0  0  0  0  0  0  0  0
   21.3153   20.8107   22.2034 H   0  0  0  0  0  0  0  0  0  0  0  0
   19.7419   21.2868   21.5643 H   0  0  0  0  0  0  0  0  0  0  0  0
   19.8244   19.2261   22.2609 C   0  0  0  0  0  0  0  0  0  0  0  0
   20.3161   18.6567   23.0601 H   0  0  0  0  0  0  0  0  0  0  0  0
   18.7417   19.1291   22.4161 H   0  0  0  0  0  0  0  0  0  0  0  0
   20.2003   18.6309   20.8882 C   0  0  0  0  0  0  0  0  0  0  0  0
   21.2829   18.6795   20.7465 H   0  0  0  0  0  0  0  0  0  0  0  0
   19.7295   19.2270   20.1023 H   0  0  0  0  0  0  0  0  0  0  0  0
   19.7653   17.1889   20.6829 N   0  3  0  0  0  0  0  0  0  0  0  0
   19.9047   16.9237   19.6952 H   0  0  0  0  0  0  0  0  0  0  0  0
   18.7503   17.0958   20.8404 H   0  0  0  0  0  0  0  0  0  0  0  0
   20.5442   16.2402   21.5879 C   0  0  0  0  0  0  0  0  0  0  0  0
   20.3395   16.4849   22.6320 H   0  0  0  0  0  0  0  0  0  0  0  0
   20.2310   15.2139   21.3843 H   0  0  0  0  0  0  0  0  0  0  0  0
   21.6122   16.3458   21.3852 H   0  0  0  0  0  0  0  0  0  0  0  0
  1  2  1  0  0  0  0
  1  3  1  0  0  0  0
  1  4  1  0  0  0  0
  1  5  1  0  0  0  0
  5  6  1  0  0  0  0
  5  7  1  0  0  0  0
  5  8  1  0  0  0  0
  8  9  1  0  0  0  0
  8 10  1  0  0  0  0
  8 11  1  0  0  0  0
 11 12  1  0  0  0  0
 11 13  1  0  0  0  0
 11 14  1  0  0  0  0
 14 15  1  0  0  0  0
 14 16  1  0  0  0  0
 14 17  1  0  0  0  0
 17 18  1  0  0  0  0
 17 19  1  0  0  0  0
 17 20  1  0  0  0  0
M  END
> <VConfSearch Rank>
420

> <Conf_Id>
37

> <Delta U+W>
-0.021

> <U+W>
15.318

> <U>
69.657

> <W>
-54.340

> <W(PB)>
-56.238

> <W(SA)>
1.899

> <Valence>
1.137

> <Coulomb>
68.383

> <VdW>
0.138

> <VdW6>
-3.703

> <VdW12>
3.841

> <Bond>
0.125

> <Angle>
0.468

> <Pdih>
0.543

> <Idih>
0.000

> <Tether>
0.000

$$$$
VeraChem MOL file


 20 19  0  0  0  0  0  0  0  0999 V2000     
   18.0513   18.3240   24.2367 C   0  0  0  0  0  0  0  0  0  0  0  0
   16.9793   18.3468   24.4719 H   0  0  0  0  0  0  0  0  0  0  0  0
   18.3926   17.2843   24.3243 H   0  0  0  0  0  0  0  0  0  0  0  0
   18.5746   18.9203   24.9954 H   0  0  0  0  0  0  0  0  0  0  0  0
   18.3106   18.8769   22.8185 C   0  0  0  0  0  0  0  0  0  0  0  0
   17.9272   19.9050   22.7518 H   0  0  0  0  0  0  0  0  0  0  0  0
   17.7473   18.2817   22.0858 H   0  0  0  0  0  0  0  0  0  0  0  0
   19.8128   18.8572   22.4598 C   0  0  0  0  0  0  0  0  0  0  0  0
   20.3742   19.4555   23.1895 H   0  0  0  0  0  0  0  0  0  0  0  0
   20.1911   17.8291   22.5278 H   0  0  0  0  0  0  0  0  0  0  0  0
   20.0617   19.4128   21.0422 C   0  0  0  0  0  0  0  0  0  0  0  0
   19.6518   20.4241   20.9807 H   0  0  0  0  0  0  0  0  0  0  0  0
   19.5451   18.7933   20.3048 H   0  0  0  0  0  0  0  0  0  0  0  0
   21.5260   19.4939   20.6423 N   0  3  0  0  0  0  0  0  0  0  0  0
   22.0555   20.0460   21.3343 H   0  0  0  0  0  0  0  0  0  0  0  0
   21.6140   20.0223   19.7601 H   0  0  0  0  0  0  0  0  0  0  0  0
   22.1337   18.1052   20.4762 C   0  0  0  0  0  0  0  0  0  0  0  0
   21.5663   17.5520   19.7247 H   0  0  0  0  0  0  0  0  0  0  0  0
   23.1721   18.2055   20.1528 H   0  0  0  0  0  0  0  0  0  0  0  0
   22.0973   17.5767   21.4308 H   0  0  0  0  0  0  0  0  0  0  0  0
  1  2  1  0  0  0  0
  1  3  1  0  0  0  0
  1  4  1  0  0  0  0
  1  5  1  0  0  0  0
  5  6  1  0  0  0  0
  5  7  1  0  0  0  0
  5  8  1  0  0  0  0
  8  9  1  0  0  0  0
  8 10  1  0  0  0  0
  8 11  1  0  0  0  0
 11 12  1  0  0  0  0
 11 13  1  0  0  0  0
 11 14  1  0  0  0  0
 14 15  1  0  0  0  0
 14 16  1  0  0  0  0
 14 17  1  0  0  0  0
 17 18  1  0  0  0  0
 17 19  1  0  0  0  0
 17 20  1  0  0  0  0
M  END
> <VConfSearch Rank>
421

> <Conf_Id>
2

> <Delta U+W>
0.069

> <U+W>
15.407

> <U>
69.657

> <W>
-54.250

> <W(PB)>
-56.176

> <W(SA)>
1.926

> <Valence>
1.137

> <Coulomb>
68.383

> <VdW>
0.138

> <VdW6>
-3.703

> <VdW12>
3.841

> <Bond>
0.125

> <Angle>
0.468

> <Pdih>
0.543

> <Idih>
0.000

> <Tether>
0.000

$$$$
VeraChem MOL file


 20 19  0  0  0  0  0  0  0  0999 V2000     
   21.0861   19.6970   19.7683 C   0  0  0  0  0  0  0  0  0  0  0  0
   20.9972   20.4837   20.5281 H   0  0  0  0  0  0  0  0  0  0  0  0
   22.0638   19.2126   19.8889 H   0  0  0  0  0  0  0  0  0  0  0  0
   21.0734   20.1844   18.7848 H   0  0  0  0  0  0  0  0  0  0  0  0
   19.9376   18.6678   19.8782 C   0  0  0  0  0  0  0  0  0  0  0  0
   20.0136   17.9556   19.0445 H   0  0  0  0  0  0  0  0  0  0  0  0
   18.9716   19.1788   19.7603 H   0  0  0  0  0  0  0  0  0  0  0  0
   19.9534   17.8841   21.2115 C   0  0  0  0  0  0  0  0  0  0  0  0
   19.1627   17.1225   21.1876 H   0  0  0  0  0  0  0  0  0  0  0  0
   20.9056   17.3462   21.3109 H   0  0  0  0  0  0  0  0  0  0  0  0
   19.7422   18.7937   22.4375 C   0  0  0  0  0  0  0  0  0  0  0  0
   18.7934   19.3272   22.3395 H   0  0  0  0  0  0  0  0  0  0  0  0
   20.5468   19.5308   22.4923 H   0  0  0  0  0  0  0  0  0  0  0  0
   19.7176   18.0373   23.7511 N   0  3  0  0  0  0  0  0  0  0  0  0
   20.5961   17.5112   23.8761 H   0  0  0  0  0  0  0  0  0  0  0  0
   18.9721   17.3244   23.7383 H   0  0  0  0  0  0  0  0  0  0  0  0
   19.5080   19.0079   24.9057 C   0  0  0  0  0  0  0  0  0  0  0  0
   18.5572   19.5280   24.7705 H   0  0  0  0  0  0  0  0  0  0  0  0
   19.4923   18.4504   25.8448 H   0  0  0  0  0  0  0  0  0  0  0  0
   20.3261   19.7313   24.9208 H   0  0  0  0  0  0  0  0  0  0  0  0
  1  2  1  0  0  0  0
  1  3  1  0  0  0  0
  1  4  1  0  0  0  0
  1  5  1  0  0  0  0
  5  6  1  0  0  0  0
  5  7  1  0  0  0  0
  5  8  1  0  0  0  0
  8  9  1  0  0  0  0
  8 10  1  0  0  0  0
  8 11  1  0  0  0  0
 11 12  1  0  0  0  0
 11 13  1  0  0  0  0
 11 14  1  0  0  0  0
 14 15  1  0  0  0  0
 14 16  1  0  0  0  0
 14 17  1  0  0  0  0
 17 18  1  0  0  0  0
 17 19  1  0  0  0  0
 17 20  1  0  0  0  0
M  END
> <VConfSearch Rank>
422

> <Conf_Id>
34

> <Delta U+W>
0.276

> <U+W>
15.615

> <U>
69.798

> <W>
-54.184

> <W(PB)>
-56.116

> <W(SA)>
1.933

> <Valence>
1.134

> <Coulomb>
68.735

> <VdW>
-0.070

> <VdW6>
-3.565

> <VdW12>
3.494

> <Bond>
0.108

> <Angle>
0.456

> <Pdih>
0.569

> <Idih>
0.000

> <Tether>
0.000

$$$$
VeraChem MOL file


 20 19  0  0  0  0  0  0  0  0999 V2000     
   20.6286   21.7350   22.4855 C   0  0  0  0  0  0  0  0  0  0  0  0
   21.4354   21.8178   23.2254 H   0  0  0  0  0  0  0  0  0  0  0  0
   20.8178   22.4762   21.6982 H   0  0  0  0  0  0  0  0  0  0  0  0
   19.6846   22.0017   22.9784 H   0  0  0  0  0  0  0  0  0  0  0  0
   20.5627   20.3117   21.8907 C   0  0  0  0  0  0  0  0  0  0  0  0
   21.5087   20.0871   21.3780 H   0  0  0  0  0  0  0  0  0  0  0  0
   19.7730   20.2781   21.1280 H   0  0  0  0  0  0  0  0  0  0  0  0
   20.2962   19.2474   22.9813 C   0  0  0  0  0  0  0  0  0  0  0  0
   21.0714   19.3196   23.7557 H   0  0  0  0  0  0  0  0  0  0  0  0
   19.3384   19.4493   23.4790 H   0  0  0  0  0  0  0  0  0  0  0  0
   20.2954   17.8089   22.4259 C   0  0  0  0  0  0  0  0  0  0  0  0
   20.1925   17.1023   23.2534 H   0  0  0  0  0  0  0  0  0  0  0  0
   21.2453   17.6085   21.9239 H   0  0  0  0  0  0  0  0  0  0  0  0
   19.1760   17.5262   21.4415 N   0  3  0  0  0  0  0  0  0  0  0  0
   19.2359   18.1718   20.6402 H   0  0  0  0  0  0  0  0  0  0  0  0
   18.2614   17.7154   21.8794 H   0  0  0  0  0  0  0  0  0  0  0  0
   19.2529   16.0809   20.9682 C   0  0  0  0  0  0  0  0  0  0  0  0
   20.2150   15.9130   20.4794 H   0  0  0  0  0  0  0  0  0  0  0  0
   19.1542   15.4150   21.8282 H   0  0  0  0  0  0  0  0  0  0  0  0
   18.4425   15.8913   20.2610 H   0  0  0  0  0  0  0  0  0  0  0  0
  1  2  1  0  0  0  0
  1  3  1  0  0  0  0
  1  4  1  0  0  0  0
  1  5  1  0  0  0  0
  5  6  1  0  0  0  0
  5  7  1  0  0  0  0
  5  8  1  0  0  0  0
  8  9  1  0  0  0  0
  8 10  1  0  0  0  0
  8 11  1  0  0  0  0
 11 12  1  0  0  0  0
 11 13  1  0  0  0  0
 11 14  1  0  0  0  0
 14 15  1  0  0  0  0
 14 16  1  0  0  0  0
 14 17  1  0  0  0  0
 17 18  1  0  0  0  0
 17 19  1  0  0  0  0
 17 20  1  0  0  0  0
M  END
> <VConfSearch Rank>
423

> <Conf_Id>
50

> <Delta U+W>
0.319

> <U+W>
15.657

> <U>
69.962

> <W>
-54.305

> <W(PB)>
-56.223

> <W(SA)>
1.918

> <Valence>
0.982

> <Coulomb>
69.058

> <VdW>
-0.078

> <VdW6>
-3.548

> <VdW12>
3.471

> <Bond>
0.105

> <Angle>
0.408

> <Pdih>
0.469

> <Idih>
0.000

> <Tether>
0.000

$$$$
VeraChem MOL file


 20 19  0  0  0  0  0  0  0  0999 V2000     
   18.9812   18.2223   19.2410 C   0  0  0  0  0  0  0  0  0  0  0  0
   18.7985   18.9673   18.4557 H   0  0  0  0  0  0  0  0  0  0  0  0
   19.5690   17.4068   18.8000 H   0  0  0  0  0  0  0  0  0  0  0  0
   18.0099   17.8147   19.5502 H   0  0  0  0  0  0  0  0  0  0  0  0
   19.7225   18.8598   20.4360 C   0  0  0  0  0  0  0  0  0  0  0  0
   19.1245   19.6951   20.8247 H   0  0  0  0  0  0  0  0  0  0  0  0
   20.6745   19.2858   20.0887 H   0  0  0  0  0  0  0  0  0  0  0  0
   19.9919   17.8295   21.5581 C   0  0  0  0  0  0  0  0  0  0  0  0
   19.0430   17.4203   21.9297 H   0  0  0  0  0  0  0  0  0  0  0  0
   20.5563   16.9829   21.1453 H   0  0  0  0  0  0  0  0  0  0  0  0
   20.7938   18.4219   22.7344 C   0  0  0  0  0  0  0  0  0  0  0  0
   21.7355   18.8361   22.3653 H   0  0  0  0  0  0  0  0  0  0  0  0
   21.0281   17.6279   23.4480 H   0  0  0  0  0  0  0  0  0  0  0  0
   20.0649   19.5164   23.4913 N   0  3  0  0  0  0  0  0  0  0  0  0
   19.1633   19.1630   23.8466 H   0  0  0  0  0  0  0  0  0  0  0  0
   19.8249   20.2901   22.8540 H   0  0  0  0  0  0  0  0  0  0  0  0
   20.9307   20.0200   24.6384 C   0  0  0  0  0  0  0  0  0  0  0  0
   20.3947   20.8066   25.1740 H   0  0  0  0  0  0  0  0  0  0  0  0
   21.1448   19.1921   25.3178 H   0  0  0  0  0  0  0  0  0  0  0  0
   21.8645   20.4189   24.2363 H   0  0  0  0  0  0  0  0  0  0  0  0
  1  2  1  0  0  0  0
  1  3  1  0  0  0  0
  1  4  1  0  0  0  0
  1  5  1  0  0  0  0
  5  6  1  0  0  0  0
  5  7  1  0  0  0  0
  5  8  1  0  0  0  0
  8  9  1  0  0  0  0
  8 10  1  0  0  0  0
  8 11  1  0  0  0  0
 11 12  1  0  0  0  0
 11 13  1  0  0  0  0
 11 14  1  0  0  0  0
 14 15  1  0  0  0  0
 14 16  1  0  0  0  0
 14 17  1  0  0  0  0
 17 18  1  0  0  0  0
 17 19  1  0  0  0  0
 17 20  1  0  0  0  0
M  END
> <VConfSearch Rank>
424

> <Conf_Id>
35

> <Delta U+W>
0.360

> <U+W>
15.698

> <U>
69.962

> <W>
-54.264

> <W(PB)>
-56.166

> <W(SA)>
1.902

> <Valence>
0.982

> <Coulomb>
69.058

> <VdW>
-0.078

> <VdW6>
-3.548

> <VdW12>
3.471

> <Bond>
0.105

> <Angle>
0.408

> <Pdih>
0.469

> <Idih>
0.000

> <Tether>
0.000

$$$$
VeraChem MOL file


 20 19  0  0  0  0  0  0  0  0999 V2000     
   18.9265   20.8233   20.9834 C   0  0  0  0  0  0  0  0  0  0  0  0
   19.5876   21.2307   21.7587 H   0  0  0  0  0  0  0  0  0  0  0  0
   18.6889   21.6396   20.2890 H   0  0  0  0  0  0  0  0  0  0  0  0
   17.9903   20.5081   21.4622 H   0  0  0  0  0  0  0  0  0  0  0  0
   19.5902   19.6471   20.2308 C   0  0  0  0  0  0  0  0  0  0  0  0
   20.5262   19.9875   19.7658 H   0  0  0  0  0  0  0  0  0  0  0  0
   18.9335   19.3318   19.4078 H   0  0  0  0  0  0  0  0  0  0  0  0
   19.8732   18.4302   21.1424 C   0  0  0  0  0  0  0  0  0  0  0  0
   18.9300   18.0718   21.5742 H   0  0  0  0  0  0  0  0  0  0  0  0
   20.2708   17.6099   20.5304 H   0  0  0  0  0  0  0  0  0  0  0  0
   20.8790   18.7543   22.2679 C   0  0  0  0  0  0  0  0  0  0  0  0
   20.4667   19.5234   22.9253 H   0  0  0  0  0  0  0  0  0  0  0  0
   21.7963   19.1466   21.8214 H   0  0  0  0  0  0  0  0  0  0  0  0
   21.2682   17.5644   23.1300 N   0  3  0  0  0  0  0  0  0  0  0  0
   22.0566   17.8251   23.7429 H   0  0  0  0  0  0  0  0  0  0  0  0
   21.6331   16.8004   22.5411 H   0  0  0  0  0  0  0  0  0  0  0  0
   20.0928   17.0848   23.9748 C   0  0  0  0  0  0  0  0  0  0  0  0
   19.2875   16.7490   23.3185 H   0  0  0  0  0  0  0  0  0  0  0  0
   20.4206   16.2556   24.6057 H   0  0  0  0  0  0  0  0  0  0  0  0
   19.7413   17.9072   24.6016 H   0  0  0  0  0  0  0  0  0  0  0  0
  1  2  1  0  0  0  0
  1  3  1  0  0  0  0
  1  4  1  0  0  0  0
  1  5  1  0  0  0  0
  5  6  1  0  0  0  0
  5  7  1  0  0  0  0
  5  8  1  0  0  0  0
  8  9  1  0  0  0  0
  8 10  1  0  0  0  0
  8 11  1  0  0  0  0
 11 12  1  0  0  0  0
 11 13  1  0  0  0  0
 11 14  1  0  0  0  0
 14 15  1  0  0  0  0
 14 16  1  0  0  0  0
 14 17  1  0  0  0  0
 17 18  1  0  0  0  0
 17 19  1  0  0  0  0
 17 20  1  0  0  0  0
M  END
> <VConfSearch Rank>
425

> <Conf_Id>
33

> <Delta U+W>
0.372

> <U+W>
15.711

> <U>
70.163

> <W>
-54.452

> <W(PB)>
-56.363

> <W(SA)>
1.911

> <Valence>
1.420

> <Coulomb>
68.566

> <VdW>
0.177

> <VdW6>
-4.267

> <VdW12>
4.445

> <Bond>
0.146

> <Angle>
0.581

> <Pdih>
0.693

> <Idih>
0.000

> <Tether>
0.000

$$$$
VeraChem MOL file


 20 19  0  0  0  0  0  0  0  0999 V2000     
   19.6671   21.1557   21.0302 C   0  0  0  0  0  0  0  0  0  0  0  0
   19.1341   22.0277   20.6295 H   0  0  0  0  0  0  0  0  0  0  0  0
   19.8564   21.3442   22.0945 H   0  0  0  0  0  0  0  0  0  0  0  0
   20.6349   21.0899   20.5163 H   0  0  0  0  0  0  0  0  0  0  0  0
   18.8366   19.8687   20.8196 C   0  0  0  0  0  0  0  0  0  0  0  0
   18.5939   19.7692   19.7523 H   0  0  0  0  0  0  0  0  0  0  0  0
   17.8766   19.9583   21.3475 H   0  0  0  0  0  0  0  0  0  0  0  0
   19.5725   18.5920   21.2889 C   0  0  0  0  0  0  0  0  0  0  0  0
   18.9607   17.7148   21.0403 H   0  0  0  0  0  0  0  0  0  0  0  0
   20.5124   18.4880   20.7317 H   0  0  0  0  0  0  0  0  0  0  0  0
   19.8567   18.5958   22.8064 C   0  0  0  0  0  0  0  0  0  0  0  0
   18.9155   18.7397   23.3429 H   0  0  0  0  0  0  0  0  0  0  0  0
   20.5204   19.4264   23.0585 H   0  0  0  0  0  0  0  0  0  0  0  0
   20.4883   17.3182   23.3347 N   0  3  0  0  0  0  0  0  0  0  0  0
   19.9066   16.5031   23.0876 H   0  0  0  0  0  0  0  0  0  0  0  0
   20.4929   17.3362   24.3666 H   0  0  0  0  0  0  0  0  0  0  0  0
   21.9113   17.1475   22.8138 C   0  0  0  0  0  0  0  0  0  0  0  0
   22.3431   16.2409   23.2435 H   0  0  0  0  0  0  0  0  0  0  0  0
   21.8915   17.0632   21.7255 H   0  0  0  0  0  0  0  0  0  0  0  0
   22.5079   18.0138   23.1074 H   0  0  0  0  0  0  0  0  0  0  0  0
  1  2  1  0  0  0  0
  1  3  1  0  0  0  0
  1  4  1  0  0  0  0
  1  5  1  0  0  0  0
  5  6  1  0  0  0  0
  5  7  1  0  0  0  0
  5  8  1  0  0  0  0
  8  9  1  0  0  0  0
  8 10  1  0  0  0  0
  8 11  1  0  0  0  0
 11 12  1  0  0  0  0
 11 13  1  0  0  0  0
 11 14  1  0  0  0  0
 14 15  1  0  0  0  0
 14 16  1  0  0  0  0
 14 17  1  0  0  0  0
 17 18  1  0  0  0  0
 17 19  1  0  0  0  0
 17 20  1  0  0  0  0
M  END
> <VConfSearch Rank>
426

> <Conf_Id>
53

> <Delta U+W>
0.379

> <U+W>
15.717

> <U>
70.163

> <W>
-54.446

> <W(PB)>
-56.322

> <W(SA)>
1.876

> <Valence>
1.420

> <Coulomb>
68.566

> <VdW>
0.177

> <VdW6>
-4.267

> <VdW12>
4.445

> <Bond>
0.146

> <Angle>
0.581

> <Pdih>
0.693

> <Idih>
0.000

> <Tether>
0.000

$$$$
VeraChem MOL file


 20 19  0  0  0  0  0  0  0  0999 V2000     
   20.7635   19.7640   19.4234 C   0  0  0  0  0  0  0  0  0  0  0  0
   20.0842   19.9451   18.5803 H   0  0  0  0  0  0  0  0  0  0  0  0
   21.4845   20.5912   19.4575 H   0  0  0  0  0  0  0  0  0  0  0  0
   21.3157   18.8379   19.2173 H   0  0  0  0  0  0  0  0  0  0  0  0
   19.9748   19.6582   20.7465 C   0  0  0  0  0  0  0  0  0  0  0  0
   19.2387   18.8473   20.6612 H   0  0  0  0  0  0  0  0  0  0  0  0
   19.4085   20.5862   20.9087 H   0  0  0  0  0  0  0  0  0  0  0  0
   20.9099   19.4007   21.9515 C   0  0  0  0  0  0  0  0  0  0  0  0
   21.4580   18.4607   21.8074 H   0  0  0  0  0  0  0  0  0  0  0  0
   21.6672   20.1943   21.9990 H   0  0  0  0  0  0  0  0  0  0  0  0
   20.1568   19.3677   23.3000 C   0  0  0  0  0  0  0  0  0  0  0  0
   19.6641   20.3310   23.4547 H   0  0  0  0  0  0  0  0  0  0  0  0
   20.8723   19.2234   24.1134 H   0  0  0  0  0  0  0  0  0  0  0  0
   19.0929   18.2875   23.4265 N   0  3  0  0  0  0  0  0  0  0  0  0
   18.3960   18.3845   22.6735 H   0  0  0  0  0  0  0  0  0  0  0  0
   18.5612   18.4276   24.2999 H   0  0  0  0  0  0  0  0  0  0  0  0
   19.7128   16.8944   23.4149 C   0  0  0  0  0  0  0  0  0  0  0  0
   20.4313   16.8140   24.2335 H   0  0  0  0  0  0  0  0  0  0  0  0
   18.9236   16.1504   23.5436 H   0  0  0  0  0  0  0  0  0  0  0  0
   20.2182   16.7311   22.4610 H   0  0  0  0  0  0  0  0  0  0  0  0
  1  2  1  0  0  0  0
  1  3  1  0  0  0  0
  1  4  1  0  0  0  0
  1  5  1  0  0  0  0
  5  6  1  0  0  0  0
  5  7  1  0  0  0  0
  5  8  1  0  0  0  0
  8  9  1  0  0  0  0
  8 10  1  0  0  0  0
  8 11  1  0  0  0  0
 11 12  1  0  0  0  0
 11 13  1  0  0  0  0
 11 14  1  0  0  0  0
 14 15  1  0  0  0  0
 14 16  1  0  0  0  0
 14 17  1  0  0  0  0
 17 18  1  0  0  0  0
 17 19  1  0  0  0  0
 17 20  1  0  0  0  0
M  END
> <VConfSearch Rank>
427

> <Conf_Id>
49

> <Delta U+W>
0.268

> <U+W>
15.607

> <U>
70.298

> <W>
-54.692

> <W(PB)>
-56.576

> <W(SA)>
1.885

> <Valence>
1.245

> <Coulomb>
68.933

> <VdW>
0.120

> <VdW6>
-4.430

> <VdW12>
4.550

> <Bond>
0.148

> <Angle>
0.587

> <Pdih>
0.509

> <Idih>
0.000

> <Tether>
0.000

$$$$
VeraChem MOL file


 20 19  0  0  0  0  0  0  0  0999 V2000     
   21.0477   17.7793   24.3736 C   0  0  0  0  0  0  0  0  0  0  0  0
   20.1890   17.2117   24.7552 H   0  0  0  0  0  0  0  0  0  0  0  0
   21.8700   17.0748   24.1933 H   0  0  0  0  0  0  0  0  0  0  0  0
   21.3677   18.4744   25.1606 H   0  0  0  0  0  0  0  0  0  0  0  0
   20.6788   18.5464   23.0853 C   0  0  0  0  0  0  0  0  0  0  0  0
   21.5479   19.1260   22.7437 H   0  0  0  0  0  0  0  0  0  0  0  0
   19.8826   19.2661   23.3174 H   0  0  0  0  0  0  0  0  0  0  0  0
   20.2134   17.5900   21.9626 C   0  0  0  0  0  0  0  0  0  0  0  0
   20.9702   16.8067   21.8228 H   0  0  0  0  0  0  0  0  0  0  0  0
   19.2927   17.0769   22.2699 H   0  0  0  0  0  0  0  0  0  0  0  0
   19.9858   18.2800   20.5985 C   0  0  0  0  0  0  0  0  0  0  0  0
   19.7254   17.5079   19.8699 H   0  0  0  0  0  0  0  0  0  0  0  0
   20.9063   18.7600   20.2570 H   0  0  0  0  0  0  0  0  0  0  0  0
   18.8681   19.3109   20.5612 N   0  3  0  0  0  0  0  0  0  0  0  0
   18.1119   19.0453   21.2096 H   0  0  0  0  0  0  0  0  0  0  0  0
   18.4293   19.3034   19.6272 H   0  0  0  0  0  0  0  0  0  0  0  0
   19.3922   20.7124   20.8578 C   0  0  0  0  0  0  0  0  0  0  0  0
   18.5647   21.4228   20.7984 H   0  0  0  0  0  0  0  0  0  0  0  0
   19.8269   20.7405   21.8575 H   0  0  0  0  0  0  0  0  0  0  0  0
   20.1527   20.9737   20.1189 H   0  0  0  0  0  0  0  0  0  0  0  0
  1  2  1  0  0  0  0
  1  3  1  0  0  0  0
  1  4  1  0  0  0  0
  1  5  1  0  0  0  0
  5  6  1  0  0  0  0
  5  7  1  0  0  0  0
  5  8  1  0  0  0  0
  8  9  1  0  0  0  0
  8 10  1  0  0  0  0
  8 11  1  0  0  0  0
 11 12  1  0  0  0  0
 11 13  1  0  0  0  0
 11 14  1  0  0  0  0
 14 15  1  0  0  0  0
 14 16  1  0  0  0  0
 14 17  1  0  0  0  0
 17 18  1  0  0  0  0
 17 19  1  0  0  0  0
 17 20  1  0  0  0  0
M  END
> <VConfSearch Rank>
428

> <Conf_Id>
65

> <Delta U+W>
1.775

> <U+W>
17.114

> <U>
71.726

> <W>
-54.613

> <W(PB)>
-56.495

> <W(SA)>
1.883

> <Valence>
2.885

> <Coulomb>
68.822

> <VdW>
0.019

> <VdW6>
-4.600

> <VdW12>
4.619

> <Bond>
0.152

> <Angle>
0.862

> <Pdih>
1.871

> <Idih>
0.000

> <Tether>
0.000

$$$$
VeraChem MOL file


 20 19  0  0  0  0  0  0  0  0999 V2000     
   18.4148   17.1669   22.6162 C   0  0  0  0  0  0  0  0  0  0  0  0
   18.0857   18.1988   22.4409 H   0  0  0  0  0  0  0  0  0  0  0  0
   17.6697   16.5006   22.1623 H   0  0  0  0  0  0  0  0  0  0  0  0
   18.4102   16.9851   23.6988 H   0  0  0  0  0  0  0  0  0  0  0  0
   19.8146   16.9048   22.0145 C   0  0  0  0  0  0  0  0  0  0  0  0
   19.7929   17.0924   20.9324 H   0  0  0  0  0  0  0  0  0  0  0  0
   20.0600   15.8399   22.1319 H   0  0  0  0  0  0  0  0  0  0  0  0
   20.9296   17.7494   22.6803 C   0  0  0  0  0  0  0  0  0  0  0  0
   21.0064   17.4741   23.7405 H   0  0  0  0  0  0  0  0  0  0  0  0
   21.8979   17.4966   22.2283 H   0  0  0  0  0  0  0  0  0  0  0  0
   20.7063   19.2731   22.5822 C   0  0  0  0  0  0  0  0  0  0  0  0
   21.5164   19.7921   23.1008 H   0  0  0  0  0  0  0  0  0  0  0  0
   19.7661   19.5394   23.0710 H   0  0  0  0  0  0  0  0  0  0  0  0
   20.6595   19.7987   21.1602 N   0  3  0  0  0  0  0  0  0  0  0  0
   19.9094   19.3260   20.6343 H   0  0  0  0  0  0  0  0  0  0  0  0
   21.5335   19.5638   20.6654 H   0  0  0  0  0  0  0  0  0  0  0  0
   20.4377   21.3051   21.1694 C   0  0  0  0  0  0  0  0  0  0  0  0
   21.2595   21.7863   21.7040 H   0  0  0  0  0  0  0  0  0  0  0  0
   20.4049   21.6693   20.1402 H   0  0  0  0  0  0  0  0  0  0  0  0
   19.4920   21.5267   21.6687 H   0  0  0  0  0  0  0  0  0  0  0  0
  1  2  1  0  0  0  0
  1  3  1  0  0  0  0
  1  4  1  0  0  0  0
  1  5  1  0  0  0  0
  5  6  1  0  0  0  0
  5  7  1  0  0  0  0
  5  8  1  0  0  0  0
  8  9  1  0  0  0  0
  8 10  1  0  0  0  0
  8 11  1  0  0  0  0
 11 12  1  0  0  0  0
 11 13  1  0  0  0  0
 11 14  1  0  0  0  0
 14 15  1  0  0  0  0
 14 16  1  0  0  0  0
 14 17  1  0  0  0  0
 17 18  1  0  0  0  0
 17 19  1  0  0  0  0
 17 20  1  0  0  0  0
M  END
> <VConfSearch Rank>
429

> <Conf_Id>
23

> <Delta U+W>
0.896

> <U+W>
16.234

> <U>
70.374

> <W>
-54.140

> <W(PB)>
-56.046

> <W(SA)>
1.907

> <Valence>
1.257

> <Coulomb>
69.240

> <VdW>
-0.123

> <VdW6>
-4.336

> <VdW12>
4.213

> <Bond>
0.128

> <Angle>
0.603

> <Pdih>
0.526

> <Idih>
0.000

> <Tether>
0.000

$$$$
VeraChem MOL file


 20 19  0  0  0  0  0  0  0  0999 V2000     
   21.5105   19.4509   23.8339 C   0  0  0  0  0  0  0  0  0  0  0  0
   22.0761   20.3560   23.5771 H   0  0  0  0  0  0  0  0  0  0  0  0
   21.7437   19.1954   24.8757 H   0  0  0  0  0  0  0  0  0  0  0  0
   21.8734   18.6298   23.2030 H   0  0  0  0  0  0  0  0  0  0  0  0
   19.9912   19.6764   23.6579 C   0  0  0  0  0  0  0  0  0  0  0  0
   19.6583   20.4406   24.3743 H   0  0  0  0  0  0  0  0  0  0  0  0
   19.4482   18.7585   23.9212 H   0  0  0  0  0  0  0  0  0  0  0  0
   19.6065   20.1324   22.2282 C   0  0  0  0  0  0  0  0  0  0  0  0
   18.5226   20.3008   22.1783 H   0  0  0  0  0  0  0  0  0  0  0  0
   20.0762   21.1030   22.0205 H   0  0  0  0  0  0  0  0  0  0  0  0
   20.0172   19.1395   21.1208 C   0  0  0  0  0  0  0  0  0  0  0  0
   21.1010   19.0018   21.1335 H   0  0  0  0  0  0  0  0  0  0  0  0
   19.7393   19.5487   20.1462 H   0  0  0  0  0  0  0  0  0  0  0  0
   19.3705   17.7734   21.2472 N   0  3  0  0  0  0  0  0  0  0  0  0
   18.3431   17.8643   21.2401 H   0  0  0  0  0  0  0  0  0  0  0  0
   19.6040   17.3561   22.1604 H   0  0  0  0  0  0  0  0  0  0  0  0
   19.8358   16.8705   20.1128 C   0  0  0  0  0  0  0  0  0  0  0  0
   20.9216   16.7629   20.1607 H   0  0  0  0  0  0  0  0  0  0  0  0
   19.3638   15.8910   20.2171 H   0  0  0  0  0  0  0  0  0  0  0  0
   19.5504   17.3167   19.1578 H   0  0  0  0  0  0  0  0  0  0  0  0
  1  2  1  0  0  0  0
  1  3  1  0  0  0  0
  1  4  1  0  0  0  0
  1  5  1  0  0  0  0
  5  6  1  0  0  0  0
  5  7  1  0  0  0  0
  5  8  1  0  0  0  0
  8  9  1  0  0  0  0
  8 10  1  0  0  0  0
  8 11  1  0  0  0  0
 11 12  1  0  0  0  0
 11 13  1  0  0  0  0
 11 14  1  0  0  0  0
 14 15  1  0  0  0  0
 14 16  1  0  0  0  0
 14 17  1  0  0  0  0
 17 18  1  0  0  0  0
 17 19  1  0  0  0  0
 17 20  1  0  0  0  0
M  END
> <VConfSearch Rank>
430

> <Conf_Id>
24

> <Delta U+W>
0.792

> <U+W>
16.130

> <U>
70.374

> <W>
-54.243

> <W(PB)>
-56.130

> <W(SA)>
1.887

> <Valence>
1.257

> <Coulomb>
69.240

> <VdW>
-0.123

> <VdW6>
-4.336

> <VdW12>
4.213

> <Bond>
0.128

> <Angle>
0.603

> <Pdih>
0.526

> <Idih>
0.000

> <Tether>
0.000

$$$$
VeraChem MOL file


 20 19  0  0  0  0  0  0  0  0999 V2000     
   19.9690   18.1891   19.9423 C   0  0  0  0  0  0  0  0  0  0  0  0
   19.6412   17.8464   18.9522 H   0  0  0  0  0  0  0  0  0  0  0  0
   19.3801   19.0818   20.1839 H   0  0  0  0  0  0  0  0  0  0  0  0
   21.0269   18.4712   19.8624 H   0  0  0  0  0  0  0  0  0  0  0  0
   19.7627   17.0717   20.9903 C   0  0  0  0  0  0  0  0  0  0  0  0
   20.1938   16.1396   20.5984 H   0  0  0  0  0  0  0  0  0  0  0  0
   18.6874   16.8801   21.1136 H   0  0  0  0  0  0  0  0  0  0  0  0
   20.4017   17.3618   22.3724 C   0  0  0  0  0  0  0  0  0  0  0  0
   20.2523   16.4775   23.0061 H   0  0  0  0  0  0  0  0  0  0  0  0
   21.4888   17.4810   22.2735 H   0  0  0  0  0  0  0  0  0  0  0  0
   19.8019   18.5775   23.1105 C   0  0  0  0  0  0  0  0  0  0  0  0
   20.0214   18.4912   24.1777 H   0  0  0  0  0  0  0  0  0  0  0  0
   18.7161   18.5854   22.9874 H   0  0  0  0  0  0  0  0  0  0  0  0
   20.3470   19.9176   22.6545 N   0  3  0  0  0  0  0  0  0  0  0  0
   20.2121   20.0258   21.6392 H   0  0  0  0  0  0  0  0  0  0  0  0
   21.3674   19.9536   22.8010 H   0  0  0  0  0  0  0  0  0  0  0  0
   19.6580   21.0452   23.4109 C   0  0  0  0  0  0  0  0  0  0  0  0
   18.5843   21.0067   23.2148 H   0  0  0  0  0  0  0  0  0  0  0  0
   19.8427   20.9259   24.4807 H   0  0  0  0  0  0  0  0  0  0  0  0
   20.0602   22.0027   23.0726 H   0  0  0  0  0  0  0  0  0  0  0  0
  1  2  1  0  0  0  0
  1  3  1  0  0  0  0
  1  4  1  0  0  0  0
  1  5  1  0  0  0  0
  5  6  1  0  0  0  0
  5  7  1  0  0  0  0
  5  8  1  0  0  0  0
  8  9  1  0  0  0  0
  8 10  1  0  0  0  0
  8 11  1  0  0  0  0
 11 12  1  0  0  0  0
 11 13  1  0  0  0  0
 11 14  1  0  0  0  0
 14 15  1  0  0  0  0
 14 16  1  0  0  0  0
 14 17  1  0  0  0  0
 17 18  1  0  0  0  0
 17 19  1  0  0  0  0
 17 20  1  0  0  0  0
M  END
> <VConfSearch Rank>
431

> <Conf_Id>
26

> <Delta U+W>
2.888

> <U+W>
18.226

> <U>
72.042

> <W>
-53.816

> <W(PB)>
-55.689

> <W(SA)>
1.873

> <Valence>
2.428

> <Coulomb>
69.829

> <VdW>
-0.215

> <VdW6>
-4.563

> <VdW12>
4.348

> <Bond>
0.137

> <Angle>
0.936

> <Pdih>
1.356

> <Idih>
0.000

> <Tether>
0.000

$$$$
VeraChem MOL file


 20 19  0  0  0  0  0  0  0  0999 V2000     
   21.3652   17.1482   21.7691 C   0  0  0  0  0  0  0  0  0  0  0  0
   21.9604   16.3505   21.3057 H   0  0  0  0  0  0  0  0  0  0  0  0
   21.3480   16.9635   22.8511 H   0  0  0  0  0  0  0  0  0  0  0  0
   20.3456   17.0570   21.3764 H   0  0  0  0  0  0  0  0  0  0  0  0
   21.9776   18.5298   21.4443 C   0  0  0  0  0  0  0  0  0  0  0  0
   21.8931   18.7226   20.3655 H   0  0  0  0  0  0  0  0  0  0  0  0
   23.0542   18.4962   21.6630 H   0  0  0  0  0  0  0  0  0  0  0  0
   21.3555   19.7096   22.2342 C   0  0  0  0  0  0  0  0  0  0  0  0
   21.5000   19.5656   23.3131 H   0  0  0  0  0  0  0  0  0  0  0  0
   21.9115   20.6204   21.9750 H   0  0  0  0  0  0  0  0  0  0  0  0
   19.8640   19.9654   21.9304 C   0  0  0  0  0  0  0  0  0  0  0  0
   19.6815   19.8564   20.8584 H   0  0  0  0  0  0  0  0  0  0  0  0
   19.6122   20.9902   22.2146 H   0  0  0  0  0  0  0  0  0  0  0  0
   18.9084   19.0530   22.6756 N   0  3  0  0  0  0  0  0  0  0  0  0
   19.0293   19.1684   23.6935 H   0  0  0  0  0  0  0  0  0  0  0  0
   19.1387   18.0680   22.4824 H   0  0  0  0  0  0  0  0  0  0  0  0
   17.4730   19.3583   22.2697 C   0  0  0  0  0  0  0  0  0  0  0  0
   17.3609   19.1980   21.1953 H   0  0  0  0  0  0  0  0  0  0  0  0
   16.7971   18.6947   22.8136 H   0  0  0  0  0  0  0  0  0  0  0  0
   17.2436   20.3978   22.5140 H   0  0  0  0  0  0  0  0  0  0  0  0
  1  2  1  0  0  0  0
  1  3  1  0  0  0  0
  1  4  1  0  0  0  0
  1  5  1  0  0  0  0
  5  6  1  0  0  0  0
  5  7  1  0  0  0  0
  5  8  1  0  0  0  0
  8  9  1  0  0  0  0
  8 10  1  0  0  0  0
  8 11  1  0  0  0  0
 11 12  1  0  0  0  0
 11 13  1  0  0  0  0
 11 14  1  0  0  0  0
 14 15  1  0  0  0  0
 14 16  1  0  0  0  0
 14 17  1  0  0  0  0
 17 18  1  0  0  0  0
 17 19  1  0  0  0  0
 17 20  1  0  0  0  0
M  END
> <VConfSearch Rank>
432

> <Conf_Id>
5

> <Delta U+W>
2.950

> <U+W>
18.289

> <U>
72.042

> <W>
-53.753

> <W(PB)>
-55.644

> <W(SA)>
1.891

> <Valence>
2.428

> <Coulomb>
69.829

> <VdW>
-0.215

> <VdW6>
-4.563

> <VdW12>
4.348

> <Bond>
0.137

> <Angle>
0.936

> <Pdih>
1.356

> <Idih>
0.000

> <Tether>
0.000

$$$$
VeraChem MOL file


 20 19  0  0  0  0  0  0  0  0999 V2000     
   21.2200   17.2342   20.5831 C   0  0  0  0  0  0  0  0  0  0  0  0
   22.2260   16.9817   20.9427 H   0  0  0  0  0  0  0  0  0  0  0  0
   20.4916   16.6766   21.1850 H   0  0  0  0  0  0  0  0  0  0  0  0
   21.1359   16.8780   19.5482 H   0  0  0  0  0  0  0  0  0  0  0  0
   20.9711   18.7584   20.6539 C   0  0  0  0  0  0  0  0  0  0  0  0
   19.9615   18.9868   20.2860 H   0  0  0  0  0  0  0  0  0  0  0  0
   21.6648   19.2656   19.9687 H   0  0  0  0  0  0  0  0  0  0  0  0
   21.1620   19.3394   22.0770 C   0  0  0  0  0  0  0  0  0  0  0  0
   22.2027   19.1873   22.3922 H   0  0  0  0  0  0  0  0  0  0  0  0
   21.0112   20.4262   22.0499 H   0  0  0  0  0  0  0  0  0  0  0  0
   20.2300   18.7157   23.1410 C   0  0  0  0  0  0  0  0  0  0  0  0
   20.4234   19.1781   24.1122 H   0  0  0  0  0  0  0  0  0  0  0  0
   20.4536   17.6497   23.2286 H   0  0  0  0  0  0  0  0  0  0  0  0
   18.7419   18.8464   22.8550 N   0  3  0  0  0  0  0  0  0  0  0  0
   18.2079   18.2857   23.5372 H   0  0  0  0  0  0  0  0  0  0  0  0
   18.5215   18.4322   21.9374 H   0  0  0  0  0  0  0  0  0  0  0  0
   18.2926   20.3022   22.9144 C   0  0  0  0  0  0  0  0  0  0  0  0
   18.8182   20.8747   22.1476 H   0  0  0  0  0  0  0  0  0  0  0  0
   17.2162   20.3521   22.7360 H   0  0  0  0  0  0  0  0  0  0  0  0
   18.5211   20.7086   23.9020 H   0  0  0  0  0  0  0  0  0  0  0  0
  1  2  1  0  0  0  0
  1  3  1  0  0  0  0
  1  4  1  0  0  0  0
  1  5  1  0  0  0  0
  5  6  1  0  0  0  0
  5  7  1  0  0  0  0
  5  8  1  0  0  0  0
  8  9  1  0  0  0  0
  8 10  1  0  0  0  0
  8 11  1  0  0  0  0
 11 12  1  0  0  0  0
 11 13  1  0  0  0  0
 11 14  1  0  0  0  0
 14 15  1  0  0  0  0
 14 16  1  0  0  0  0
 14 17  1  0  0  0  0
 17 18  1  0  0  0  0
 17 19  1  0  0  0  0
 17 20  1  0  0  0  0
M  END
> <VConfSearch Rank>
433

> <Conf_Id>
52

> <Delta U+W>
0.784

> <U+W>
16.122

> <U>
70.777

> <W>
-54.655

> <W(PB)>
-56.491

> <W(SA)>
1.836

> <Valence>
1.529

> <Coulomb>
69.166

> <VdW>
0.082

> <VdW6>
-5.166

> <VdW12>
5.248

> <Bond>
0.171

> <Angle>
0.752

> <Pdih>
0.605

> <Idih>
0.000

> <Tether>
0.000

$$$$
VeraChem MOL file


 20 19  0  0  0  0  0  0  0  0999 V2000     
   21.9188   19.8355   22.2320 C   0  0  0  0  0  0  0  0  0  0  0  0
   22.8737   20.3731   22.1657 H   0  0  0  0  0  0  0  0  0  0  0  0
   21.2138   20.4976   22.7474 H   0  0  0  0  0  0  0  0  0  0  0  0
   22.0823   18.9418   22.8484 H   0  0  0  0  0  0  0  0  0  0  0  0
   21.4172   19.4596   20.8190 C   0  0  0  0  0  0  0  0  0  0  0  0
   22.2478   18.9998   20.2651 H   0  0  0  0  0  0  0  0  0  0  0  0
   21.1538   20.3731   20.2675 H   0  0  0  0  0  0  0  0  0  0  0  0
   20.2196   18.4756   20.8040 C   0  0  0  0  0  0  0  0  0  0  0  0
   20.0153   18.2109   19.7582 H   0  0  0  0  0  0  0  0  0  0  0  0
   20.4940   17.5359   21.2996 H   0  0  0  0  0  0  0  0  0  0  0  0
   18.9129   19.0435   21.4054 C   0  0  0  0  0  0  0  0  0  0  0  0
   18.0676   18.4425   21.0609 H   0  0  0  0  0  0  0  0  0  0  0  0
   18.7666   20.0635   21.0411 H   0  0  0  0  0  0  0  0  0  0  0  0
   18.8439   19.0759   22.9241 N   0  3  0  0  0  0  0  0  0  0  0  0
   18.0310   19.6381   23.2211 H   0  0  0  0  0  0  0  0  0  0  0  0
   19.6654   19.5661   23.3046 H   0  0  0  0  0  0  0  0  0  0  0  0
   18.7387   17.6692   23.5030 C   0  0  0  0  0  0  0  0  0  0  0  0
   17.8525   17.1784   23.0953 H   0  0  0  0  0  0  0  0  0  0  0  0
   19.6318   17.0999   23.2387 H   0  0  0  0  0  0  0  0  0  0  0  0
   18.6551   17.7352   24.5900 H   0  0  0  0  0  0  0  0  0  0  0  0
  1  2  1  0  0  0  0
  1  3  1  0  0  0  0
  1  4  1  0  0  0  0
  1  5  1  0  0  0  0
  5  6  1  0  0  0  0
  5  7  1  0  0  0  0
  5  8  1  0  0  0  0
  8  9  1  0  0  0  0
  8 10  1  0  0  0  0
  8 11  1  0  0  0  0
 11 12  1  0  0  0  0
 11 13  1  0  0  0  0
 11 14  1  0  0  0  0
 14 15  1  0  0  0  0
 14 16  1  0  0  0  0
 14 17  1  0  0  0  0
 17 18  1  0  0  0  0
 17 19  1  0  0  0  0
 17 20  1  0  0  0  0
M  END
> <VConfSearch Rank>
434

> <Conf_Id>
55

> <Delta U+W>
2.745

> <U+W>
18.083

> <U>
72.490

> <W>
-54.407

> <W(PB)>
-56.269

> <W(SA)>
1.861

> <Valence>
2.738

> <Coulomb>
69.795

> <VdW>
-0.043

> <VdW6>
-5.333

> <VdW12>
5.290

> <Bond>
0.182

> <Angle>
1.135

> <Pdih>
1.422

> <Idih>
0.000

> <Tether>
0.000

$$$$
VeraChem MOL file


 20 19  0  0  0  0  0  0  0  0999 V2000     
   18.1088   18.0693   21.3674 C   0  0  0  0  0  0  0  0  0  0  0  0
   17.0863   17.7099   21.1926 H   0  0  0  0  0  0  0  0  0  0  0  0
   18.4574   18.5443   20.4411 H   0  0  0  0  0  0  0  0  0  0  0  0
   18.7280   17.1877   21.5687 H   0  0  0  0  0  0  0  0  0  0  0  0
   18.1315   19.0629   22.5514 C   0  0  0  0  0  0  0  0  0  0  0  0
   17.8895   18.5309   23.4822 H   0  0  0  0  0  0  0  0  0  0  0  0
   17.3280   19.7984   22.4048 H   0  0  0  0  0  0  0  0  0  0  0  0
   19.4678   19.8303   22.7195 C   0  0  0  0  0  0  0  0  0  0  0  0
   19.6870   20.4134   21.8162 H   0  0  0  0  0  0  0  0  0  0  0  0
   19.3338   20.5666   23.5228 H   0  0  0  0  0  0  0  0  0  0  0  0
   20.6763   18.9424   23.0973 C   0  0  0  0  0  0  0  0  0  0  0  0
   20.3702   18.2340   23.8712 H   0  0  0  0  0  0  0  0  0  0  0  0
   21.4673   19.5705   23.5149 H   0  0  0  0  0  0  0  0  0  0  0  0
   21.2957   18.1493   21.9572 N   0  3  0  0  0  0  0  0  0  0  0  0
   20.5716   17.5970   21.4771 H   0  0  0  0  0  0  0  0  0  0  0  0
   21.9576   17.4554   22.3388 H   0  0  0  0  0  0  0  0  0  0  0  0
   22.0166   19.0651   20.9741 C   0  0  0  0  0  0  0  0  0  0  0  0
   21.2985   19.7547   20.5265 H   0  0  0  0  0  0  0  0  0  0  0  0
   22.7877   19.6268   21.5057 H   0  0  0  0  0  0  0  0  0  0  0  0
   22.4775   18.4580   20.1919 H   0  0  0  0  0  0  0  0  0  0  0  0
  1  2  1  0  0  0  0
  1  3  1  0  0  0  0
  1  4  1  0  0  0  0
  1  5  1  0  0  0  0
  5  6  1  0  0  0  0
  5  7  1  0  0  0  0
  5  8  1  0  0  0  0
  8  9  1  0  0  0  0
  8 10  1  0  0  0  0
  8 11  1  0  0  0  0
 11 12  1  0  0  0  0
 11 13  1  0  0  0  0
 11 14  1  0  0  0  0
 14 15  1  0  0  0  0
 14 16  1  0  0  0  0
 14 17  1  0  0  0  0
 17 18  1  0  0  0  0
 17 19  1  0  0  0  0
 17 20  1  0  0  0  0
M  END
> <VConfSearch Rank>
435

> <Conf_Id>
76

> <Delta U+W>
2.799

> <U+W>
18.137

> <U>
72.490

> <W>
-54.353

> <W(PB)>
-56.201

> <W(SA)>
1.848

> <Valence>
2.738

> <Coulomb>
69.795

> <VdW>
-0.043

> <VdW6>
-5.334

> <VdW12>
5.290

> <Bond>
0.182

> <Angle>
1.135

> <Pdih>
1.421

> <Idih>
0.000

> <Tether>
0.000

$$$$
VeraChem MOL file


 20 19  0  0  0  0  0  0  0  0999 V2000     
   20.4862   20.7654   21.4883 C   0  0  0  0  0  0  0  0  0  0  0  0
   19.5738   20.6059   22.0758 H   0  0  0  0  0  0  0  0  0  0  0  0
   21.2136   21.2873   22.1234 H   0  0  0  0  0  0  0  0  0  0  0  0
   20.2313   21.4322   20.6545 H   0  0  0  0  0  0  0  0  0  0  0  0
   21.0665   19.4333   20.9598 C   0  0  0  0  0  0  0  0  0  0  0  0
   21.9334   19.6535   20.3212 H   0  0  0  0  0  0  0  0  0  0  0  0
   20.3365   18.9350   20.3090 H   0  0  0  0  0  0  0  0  0  0  0  0
   21.5151   18.4752   22.0905 C   0  0  0  0  0  0  0  0  0  0  0  0
   21.9550   17.5718   21.6480 H   0  0  0  0  0  0  0  0  0  0  0  0
   22.3230   18.9560   22.6576 H   0  0  0  0  0  0  0  0  0  0  0  0
   20.4065   18.0615   23.0867 C   0  0  0  0  0  0  0  0  0  0  0  0
   19.9446   18.9439   23.5357 H   0  0  0  0  0  0  0  0  0  0  0  0
   20.8771   17.4906   23.8913 H   0  0  0  0  0  0  0  0  0  0  0  0
   19.3065   17.1782   22.5169 N   0  3  0  0  0  0  0  0  0  0  0  0
   18.9560   16.5521   23.2585 H   0  0  0  0  0  0  0  0  0  0  0  0
   19.6897   16.5457   21.7988 H   0  0  0  0  0  0  0  0  0  0  0  0
   18.1466   18.0031   21.9697 C   0  0  0  0  0  0  0  0  0  0  0  0
   17.3714   17.3279   21.6008 H   0  0  0  0  0  0  0  0  0  0  0  0
   17.7403   18.6245   22.7705 H   0  0  0  0  0  0  0  0  0  0  0  0
   18.4970   18.6369   21.1545 H   0  0  0  0  0  0  0  0  0  0  0  0
  1  2  1  0  0  0  0
  1  3  1  0  0  0  0
  1  4  1  0  0  0  0
  1  5  1  0  0  0  0
  5  6  1  0  0  0  0
  5  7  1  0  0  0  0
  5  8  1  0  0  0  0
  8  9  1  0  0  0  0
  8 10  1  0  0  0  0
  8 11  1  0  0  0  0
 11 12  1  0  0  0  0
 11 13  1  0  0  0  0
 11 14  1  0  0  0  0
 14 15  1  0  0  0  0
 14 16  1  0  0  0  0
 14 17  1  0  0  0  0
 17 18  1  0  0  0  0
 17 19  1  0  0  0  0
 17 20  1  0  0  0  0
M  END
> <VConfSearch Rank>
436

> <Conf_Id>
60

> <Delta U+W>
1.788

> <U+W>
17.127

> <U>
72.122

> <W>
-54.995

> <W(PB)>
-56.810

> <W(SA)>
1.815

> <Valence>
3.197

> <Coulomb>
69.115

> <VdW>
-0.190

> <VdW6>
-5.585

> <VdW12>
5.395

> <Bond>
0.177

> <Angle>
1.207

> <Pdih>
1.813

> <Idih>
0.000

> <Tether>
0.000

$$$$
VeraChem MOL file


 20 19  0  0  0  0  0  0  0  0999 V2000     
   20.8518   17.5048   23.5605 C   0  0  0  0  0  0  0  0  0  0  0  0
   20.7788   16.4335   23.7882 H   0  0  0  0  0  0  0  0  0  0  0  0
   21.5571   17.9509   24.2736 H   0  0  0  0  0  0  0  0  0  0  0  0
   19.8642   17.9487   23.7353 H   0  0  0  0  0  0  0  0  0  0  0  0
   21.3255   17.7189   22.1044 C   0  0  0  0  0  0  0  0  0  0  0  0
   20.6224   17.2481   21.4053 H   0  0  0  0  0  0  0  0  0  0  0  0
   22.2816   17.1958   21.9627 H   0  0  0  0  0  0  0  0  0  0  0  0
   21.5196   19.2117   21.7421 C   0  0  0  0  0  0  0  0  0  0  0  0
   22.3073   19.6288   22.3833 H   0  0  0  0  0  0  0  0  0  0  0  0
   21.8964   19.2901   20.7138 H   0  0  0  0  0  0  0  0  0  0  0  0
   20.2599   20.0977   21.8874 C   0  0  0  0  0  0  0  0  0  0  0  0
   20.5606   21.1351   21.7200 H   0  0  0  0  0  0  0  0  0  0  0  0
   19.8582   20.0308   22.9011 H   0  0  0  0  0  0  0  0  0  0  0  0
   19.1362   19.8096   20.9030 N   0  3  0  0  0  0  0  0  0  0  0  0
   19.5221   19.5158   19.9934 H   0  0  0  0  0  0  0  0  0  0  0  0
   18.6282   20.6851   20.7025 H   0  0  0  0  0  0  0  0  0  0  0  0
   18.1565   18.7775   21.4509 C   0  0  0  0  0  0  0  0  0  0  0  0
   17.7367   19.1454   22.3895 H   0  0  0  0  0  0  0  0  0  0  0  0
   17.3543   18.6265   20.7251 H   0  0  0  0  0  0  0  0  0  0  0  0
   18.6739   17.8335   21.6247 H   0  0  0  0  0  0  0  0  0  0  0  0
  1  2  1  0  0  0  0
  1  3  1  0  0  0  0
  1  4  1  0  0  0  0
  1  5  1  0  0  0  0
  5  6  1  0  0  0  0
  5  7  1  0  0  0  0
  5  8  1  0  0  0  0
  8  9  1  0  0  0  0
  8 10  1  0  0  0  0
  8 11  1  0  0  0  0
 11 12  1  0  0  0  0
 11 13  1  0  0  0  0
 11 14  1  0  0  0  0
 14 15  1  0  0  0  0
 14 16  1  0  0  0  0
 14 17  1  0  0  0  0
 17 18  1  0  0  0  0
 17 19  1  0  0  0  0
 17 20  1  0  0  0  0
M  END
> <VConfSearch Rank>
437

> <Conf_Id>
54

> <Delta U+W>
1.880

> <U+W>
17.218

> <U>
72.122

> <W>
-54.903

> <W(PB)>
-56.724

> <W(SA)>
1.821

> <Valence>
3.197

> <Coulomb>
69.115

> <VdW>
-0.190

> <VdW6>
-5.585

> <VdW12>
5.395

> <Bond>
0.177

> <Angle>
1.207

> <Pdih>
1.813

> <Idih>
0.000

> <Tether>
0.000

$$$$
VeraChem MOL file


 20 19  0  0  0  0  0  0  0  0999 V2000     
   20.5512   16.5013   24.1694 C   0  0  0  0  0  0  0  0  0  0  0  0
   21.1777   17.0875   24.8543 H   0  0  0  0  0  0  0  0  0  0  0  0
   19.9272   15.8313   24.7750 H   0  0  0  0  0  0  0  0  0  0  0  0
   21.2110   15.8786   23.5513 H   0  0  0  0  0  0  0  0  0  0  0  0
   19.6732   17.4212   23.2935 C   0  0  0  0  0  0  0  0  0  0  0  0
   19.0006   18.0053   23.9375 H   0  0  0  0  0  0  0  0  0  0  0  0
   19.0337   16.8060   22.6447 H   0  0  0  0  0  0  0  0  0  0  0  0
   20.5257   18.3763   22.4293 C   0  0  0  0  0  0  0  0  0  0  0  0
   21.1617   18.9930   23.0783 H   0  0  0  0  0  0  0  0  0  0  0  0
   21.1950   17.7920   21.7839 H   0  0  0  0  0  0  0  0  0  0  0  0
   19.6431   19.2901   21.5588 C   0  0  0  0  0  0  0  0  0  0  0  0
   18.9864   19.8845   22.1991 H   0  0  0  0  0  0  0  0  0  0  0  0
   19.0200   18.6797   20.9003 H   0  0  0  0  0  0  0  0  0  0  0  0
   20.4380   20.2467   20.6919 N   0  3  0  0  0  0  0  0  0  0  0  0
   21.0781   19.7220   20.0761 H   0  0  0  0  0  0  0  0  0  0  0  0
   21.0470   20.8376   21.2785 H   0  0  0  0  0  0  0  0  0  0  0  0
   19.4918   21.1092   19.8672 C   0  0  0  0  0  0  0  0  0  0  0  0
   18.8479   21.6808   20.5392 H   0  0  0  0  0  0  0  0  0  0  0  0
   20.0770   21.7929   19.2482 H   0  0  0  0  0  0  0  0  0  0  0  0
   18.8819   20.4658   19.2294 H   0  0  0  0  0  0  0  0  0  0  0  0
  1  2  1  0  0  0  0
  1  3  1  0  0  0  0
  1  4  1  0  0  0  0
  1  5  1  0  0  0  0
  5  6  1  0  0  0  0
  5  7  1  0  0  0  0
  5  8  1  0  0  0  0
  8  9  1  0  0  0  0
  8 10  1  0  0  0  0
  8 11  1  0  0  0  0
 11 12  1  0  0  0  0
 11 13  1  0  0  0  0
 11 14  1  0  0  0  0
 14 15  1  0  0  0  0
 14 16  1  0  0  0  0
 14 17  1  0  0  0  0
 17 18  1  0  0  0  0
 17 19  1  0  0  0  0
 17 20  1  0  0  0  0
M  END
> <VConfSearch Rank>
438

> <Conf_Id>
67

> <Delta U+W>
0.000

> <U+W>
15.338

> <U>
69.277

> <W>
-53.939

> <W(PB)>
-55.889

> <W(SA)>
1.950

> <Valence>
0.846

> <Coulomb>
68.557

> <VdW>
-0.127

> <VdW6>
-3.008

> <VdW12>
2.882

> <Bond>
0.088

> <Angle>
0.332

> <Pdih>
0.426

> <Idih>
0.000

> <Tether>
0.000

$$$$
VeraChem MOL file


 20 19  0  0  0  0  0  0  0  0999 V2000     
   19.1944   16.0303   21.6354 C   0  0  0  0  0  0  0  0  0  0  0  0
   19.9990   15.6907   22.3006 H   0  0  0  0  0  0  0  0  0  0  0  0
   18.3311   15.3697   21.7880 H   0  0  0  0  0  0  0  0  0  0  0  0
   19.5333   15.9063   20.5986 H   0  0  0  0  0  0  0  0  0  0  0  0
   18.8156   17.4989   21.9251 C   0  0  0  0  0  0  0  0  0  0  0  0
   18.4486   17.5845   22.9577 H   0  0  0  0  0  0  0  0  0  0  0  0
   17.9858   17.7981   21.2692 H   0  0  0  0  0  0  0  0  0  0  0  0
   20.0128   18.4527   21.7180 C   0  0  0  0  0  0  0  0  0  0  0  0
   20.8386   18.1502   22.3747 H   0  0  0  0  0  0  0  0  0  0  0  0
   20.3761   18.3698   20.6852 H   0  0  0  0  0  0  0  0  0  0  0  0
   19.6242   19.9172   22.0083 C   0  0  0  0  0  0  0  0  0  0  0  0
   19.3071   20.0177   23.0493 H   0  0  0  0  0  0  0  0  0  0  0  0
   18.7810   20.1934   21.3700 H   0  0  0  0  0  0  0  0  0  0  0  0
   20.7314   20.9277   21.7562 N   0  3  0  0  0  0  0  0  0  0  0  0
   20.3459   21.8834   21.8135 H   0  0  0  0  0  0  0  0  0  0  0  0
   21.0806   20.8417   20.7896 H   0  0  0  0  0  0  0  0  0  0  0  0
   21.8679   20.7676   22.7603 C   0  0  0  0  0  0  0  0  0  0  0  0
   22.3142   19.7775   22.6482 H   0  0  0  0  0  0  0  0  0  0  0  0
   22.6234   21.5332   22.5705 H   0  0  0  0  0  0  0  0  0  0  0  0
   21.4729   20.8835   23.7719 H   0  0  0  0  0  0  0  0  0  0  0  0
  1  2  1  0  0  0  0
  1  3  1  0  0  0  0
  1  4  1  0  0  0  0
  1  5  1  0  0  0  0
  5  6  1  0  0  0  0
  5  7  1  0  0  0  0
  5  8  1  0  0  0  0
  8  9  1  0  0  0  0
  8 10  1  0  0  0  0
  8 11  1  0  0  0  0
 11 12  1  0  0  0  0
 11 13  1  0  0  0  0
 11 14  1  0  0  0  0
 14 15  1  0  0  0  0
 14 16  1  0  0  0  0
 14 17  1  0  0  0  0
 17 18  1  0  0  0  0
 17 19  1  0  0  0  0
 17 20  1  0  0  0  0
M  END
> <VConfSearch Rank>
439

> <Conf_Id>
37

> <Delta U+W>
-0.021

> <U+W>
15.318

> <U>
69.657

> <W>
-54.340

> <W(PB)>
-56.238

> <W(SA)>
1.899

> <Valence>
1.137

> <Coulomb>
68.383

> <VdW>
0.138

> <VdW6>
-3.703

> <VdW12>
3.841

> <Bond>
0.125

> <Angle>
0.468

> <Pdih>
0.543

> <Idih>
0.000

> <Tether>
0.000

$$$$
VeraChem MOL file


 20 19  0  0  0  0  0  0  0  0999 V2000     
   21.9910   16.8156   20.9140 C   0  0  0  0  0  0  0  0  0  0  0  0
   22.3566   15.7906   21.0582 H   0  0  0  0  0  0  0  0  0  0  0  0
   21.5207   16.8684   19.9234 H   0  0  0  0  0  0  0  0  0  0  0  0
   22.8605   17.4858   20.9154 H   0  0  0  0  0  0  0  0  0  0  0  0
   20.9908   17.1997   22.0259 C   0  0  0  0  0  0  0  0  0  0  0  0
   21.4795   17.1034   23.0058 H   0  0  0  0  0  0  0  0  0  0  0  0
   20.1501   16.4915   22.0213 H   0  0  0  0  0  0  0  0  0  0  0  0
   20.4592   18.6390   21.8485 C   0  0  0  0  0  0  0  0  0  0  0  0
   21.2991   19.3462   21.8575 H   0  0  0  0  0  0  0  0  0  0  0  0
   19.9723   18.7304   20.8691 H   0  0  0  0  0  0  0  0  0  0  0  0
   19.4623   19.0138   22.9646 C   0  0  0  0  0  0  0  0  0  0  0  0
   19.9512   18.8875   23.9339 H   0  0  0  0  0  0  0  0  0  0  0  0
   18.5992   18.3441   22.9316 H   0  0  0  0  0  0  0  0  0  0  0  0
   18.9487   20.4431   22.9008 N   0  3  0  0  0  0  0  0  0  0  0  0
   19.7382   21.1068   22.8972 H   0  0  0  0  0  0  0  0  0  0  0  0
   18.4251   20.6605   23.7633 H   0  0  0  0  0  0  0  0  0  0  0  0
   18.0538   20.6574   21.6847 C   0  0  0  0  0  0  0  0  0  0  0  0
   17.2175   19.9563   21.7258 H   0  0  0  0  0  0  0  0  0  0  0  0
   17.6756   21.6820   21.6951 H   0  0  0  0  0  0  0  0  0  0  0  0
   18.6328   20.4904   20.7743 H   0  0  0  0  0  0  0  0  0  0  0  0
  1  2  1  0  0  0  0
  1  3  1  0  0  0  0
  1  4  1  0  0  0  0
  1  5  1  0  0  0  0
  5  6  1  0  0  0  0
  5  7  1  0  0  0  0
  5  8  1  0  0  0  0
  8  9  1  0  0  0  0
  8 10  1  0  0  0  0
  8 11  1  0  0  0  0
 11 12  1  0  0  0  0
 11 13  1  0  0  0  0
 11 14  1  0  0  0  0
 14 15  1  0  0  0  0
 14 16  1  0  0  0  0
 14 17  1  0  0  0  0
 17 18  1  0  0  0  0
 17 19  1  0  0  0  0
 17 20  1  0  0  0  0
M  END
> <VConfSearch Rank>
440

> <Conf_Id>
2

> <Delta U+W>
0.069

> <U+W>
15.407

> <U>
69.657

> <W>
-54.250

> <W(PB)>
-56.176

> <W(SA)>
1.926

> <Valence>
1.137

> <Coulomb>
68.383

> <VdW>
0.138

> <VdW6>
-3.703

> <VdW12>
3.841

> <Bond>
0.125

> <Angle>
0.468

> <Pdih>
0.543

> <Idih>
0.000

> <Tether>
0.000

$$$$
VeraChem MOL file


 20 19  0  0  0  0  0  0  0  0999 V2000     
   20.1857   21.3819   21.6317 C   0  0  0  0  0  0  0  0  0  0  0  0
   19.6634   21.1505   22.5686 H   0  0  0  0  0  0  0  0  0  0  0  0
   21.2587   21.4648   21.8486 H   0  0  0  0  0  0  0  0  0  0  0  0
   19.8361   22.3657   21.2927 H   0  0  0  0  0  0  0  0  0  0  0  0
   19.9174   20.3093   20.5511 C   0  0  0  0  0  0  0  0  0  0  0  0
   20.3808   20.6281   19.6068 H   0  0  0  0  0  0  0  0  0  0  0  0
   18.8375   20.2423   20.3577 H   0  0  0  0  0  0  0  0  0  0  0  0
   20.4658   18.9147   20.9340 C   0  0  0  0  0  0  0  0  0  0  0  0
   20.3095   18.2261   20.0930 H   0  0  0  0  0  0  0  0  0  0  0  0
   21.5506   18.9767   21.0927 H   0  0  0  0  0  0  0  0  0  0  0  0
   19.7906   18.3363   22.1929 C   0  0  0  0  0  0  0  0  0  0  0  0
   18.7112   18.2725   22.0339 H   0  0  0  0  0  0  0  0  0  0  0  0
   19.9741   18.9952   23.0450 H   0  0  0  0  0  0  0  0  0  0  0  0
   20.2896   16.9531   22.5619 N   0  3  0  0  0  0  0  0  0  0  0  0
   21.3101   16.9704   22.7113 H   0  0  0  0  0  0  0  0  0  0  0  0
   20.1395   16.2990   21.7785 H   0  0  0  0  0  0  0  0  0  0  0  0
   19.5753   16.4599   23.8132 C   0  0  0  0  0  0  0  0  0  0  0  0
   18.5011   16.4170   23.6211 H   0  0  0  0  0  0  0  0  0  0  0  0
   19.9438   15.4636   24.0674 H   0  0  0  0  0  0  0  0  0  0  0  0
   19.7763   17.1479   24.6372 H   0  0  0  0  0  0  0  0  0  0  0  0
  1  2  1  0  0  0  0
  1  3  1  0  0  0  0
  1  4  1  0  0  0  0
  1  5  1  0  0  0  0
  5  6  1  0  0  0  0
  5  7  1  0  0  0  0
  5  8  1  0  0  0  0
  8  9  1  0  0  0  0
  8 10  1  0  0  0  0
  8 11  1  0  0  0  0
 11 12  1  0  0  0  0
 11 13  1  0  0  0  0
 11 14  1  0  0  0  0
 14 15  1  0  0  0  0
 14 16  1  0  0  0  0
 14 17  1  0  0  0  0
 17 18  1  0  0  0  0
 17 19  1  0  0  0  0
 17 20  1  0  0  0  0
M  END
> <VConfSearch Rank>
441

> <Conf_Id>
34

> <Delta U+W>
0.276

> <U+W>
15.615

> <U>
69.798

> <W>
-54.184

> <W(PB)>
-56.116

> <W(SA)>
1.933

> <Valence>
1.134

> <Coulomb>
68.735

> <VdW>
-0.070

> <VdW6>
-3.565

> <VdW12>
3.494

> <Bond>
0.108

> <Angle>
0.456

> <Pdih>
0.569

> <Idih>
0.000

> <Tether>
0.000

$$$$
VeraChem MOL file


 20 19  0  0  0  0  0  0  0  0999 V2000     
   18.9414   17.8335   19.3399 C   0  0  0  0  0  0  0  0  0  0  0  0
   18.1206   17.1282   19.5242 H   0  0  0  0  0  0  0  0  0  0  0  0
   18.6437   18.4852   18.5082 H   0  0  0  0  0  0  0  0  0  0  0  0
   19.8199   17.2588   19.0187 H   0  0  0  0  0  0  0  0  0  0  0  0
   19.2531   18.6670   20.6017 C   0  0  0  0  0  0  0  0  0  0  0  0
   18.3659   19.2539   20.8788 H   0  0  0  0  0  0  0  0  0  0  0  0
   20.0492   19.3868   20.3684 H   0  0  0  0  0  0  0  0  0  0  0  0
   19.6761   17.7707   21.7896 C   0  0  0  0  0  0  0  0  0  0  0  0
   18.8877   17.0319   21.9853 H   0  0  0  0  0  0  0  0  0  0  0  0
   20.5789   17.2020   21.5298 H   0  0  0  0  0  0  0  0  0  0  0  0
   19.9254   18.5711   23.0837 C   0  0  0  0  0  0  0  0  0  0  0  0
   20.1317   17.8777   23.9031 H   0  0  0  0  0  0  0  0  0  0  0  0
   19.0302   19.1433   23.3399 H   0  0  0  0  0  0  0  0  0  0  0  0
   21.0915   19.5379   22.9986 N   0  3  0  0  0  0  0  0  0  0  0  0
   20.9375   20.2143   22.2362 H   0  0  0  0  0  0  0  0  0  0  0  0
   21.9548   19.0323   22.7473 H   0  0  0  0  0  0  0  0  0  0  0  0
   21.2641   20.2622   24.3269 C   0  0  0  0  0  0  0  0  0  0  0  0
   20.3513   20.8164   24.5559 H   0  0  0  0  0  0  0  0  0  0  0  0
   21.4589   19.5299   25.1133 H   0  0  0  0  0  0  0  0  0  0  0  0
   22.1058   20.9542   24.2516 H   0  0  0  0  0  0  0  0  0  0  0  0
  1  2  1  0  0  0  0
  1  3  1  0  0  0  0
  1  4  1  0  0  0  0
  1  5  1  0  0  0  0
  5  6  1  0  0  0  0
  5  7  1  0  0  0  0
  5  8  1  0  0  0  0
  8  9  1  0  0  0  0
  8 10  1  0  0  0  0
  8 11  1  0  0  0  0
 11 12  1  0  0  0  0
 11 13  1  0  0  0  0
 11 14  1  0  0  0  0
 14 15  1  0  0  0  0
 14 16  1  0  0  0  0
 14 17  1  0  0  0  0
 17 18  1  0  0  0  0
 17 19  1  0  0  0  0
 17 20  1  0  0  0  0
M  END
> <VConfSearch Rank>
442

> <Conf_Id>
50

> <Delta U+W>
0.319

> <U+W>
15.657

> <U>
69.962

> <W>
-54.305

> <W(PB)>
-56.223

> <W(SA)>
1.918

> <Valence>
0.982

> <Coulomb>
69.058

> <VdW>
-0.078

> <VdW6>
-3.548

> <VdW12>
3.471

> <Bond>
0.105

> <Angle>
0.408

> <Pdih>
0.469

> <Idih>
0.000

> <Tether>
0.000

$$$$
VeraChem MOL file


 20 19  0  0  0  0  0  0  0  0999 V2000     
   17.7704   18.1581   20.1462 C   0  0  0  0  0  0  0  0  0  0  0  0
   17.6869   18.4860   19.1020 H   0  0  0  0  0  0  0  0  0  0  0  0
   17.5997   17.0740   20.1724 H   0  0  0  0  0  0  0  0  0  0  0  0
   16.9679   18.6441   20.7163 H   0  0  0  0  0  0  0  0  0  0  0  0
   19.1575   18.5173   20.7217 C   0  0  0  0  0  0  0  0  0  0  0  0
   19.3086   19.6023   20.6422 H   0  0  0  0  0  0  0  0  0  0  0  0
   19.9389   18.0425   20.1116 H   0  0  0  0  0  0  0  0  0  0  0  0
   19.3006   18.0657   22.1944 C   0  0  0  0  0  0  0  0  0  0  0  0
   18.5403   18.5582   22.8152 H   0  0  0  0  0  0  0  0  0  0  0  0
   19.1083   16.9867   22.2632 H   0  0  0  0  0  0  0  0  0  0  0  0
   20.7014   18.3484   22.7734 C   0  0  0  0  0  0  0  0  0  0  0  0
   21.4599   17.8648   22.1527 H   0  0  0  0  0  0  0  0  0  0  0  0
   20.7676   17.9283   23.7802 H   0  0  0  0  0  0  0  0  0  0  0  0
   21.0450   19.8230   22.8700 N   0  3  0  0  0  0  0  0  0  0  0  0
   20.3419   20.3152   23.4423 H   0  0  0  0  0  0  0  0  0  0  0  0
   20.9964   20.2611   21.9382 H   0  0  0  0  0  0  0  0  0  0  0  0
   22.4351   19.9946   23.4676 C   0  0  0  0  0  0  0  0  0  0  0  0
   22.6695   21.0595   23.5311 H   0  0  0  0  0  0  0  0  0  0  0  0
   22.4543   19.5533   24.4664 H   0  0  0  0  0  0  0  0  0  0  0  0
   23.1659   19.4943   22.8284 H   0  0  0  0  0  0  0  0  0  0  0  0
  1  2  1  0  0  0  0
  1  3  1  0  0  0  0
  1  4  1  0  0  0  0
  1  5  1  0  0  0  0
  5  6  1  0  0  0  0
  5  7  1  0  0  0  0
  5  8  1  0  0  0  0
  8  9  1  0  0  0  0
  8 10  1  0  0  0  0
  8 11  1  0  0  0  0
 11 12  1  0  0  0  0
 11 13  1  0  0  0  0
 11 14  1  0  0  0  0
 14 15  1  0  0  0  0
 14 16  1  0  0  0  0
 14 17  1  0  0  0  0
 17 18  1  0  0  0  0
 17 19  1  0  0  0  0
 17 20  1  0  0  0  0
M  END
> <VConfSearch Rank>
443

> <Conf_Id>
35

> <Delta U+W>
0.360

> <U+W>
15.698

> <U>
69.962

> <W>
-54.264

> <W(PB)>
-56.166

> <W(SA)>
1.902

> <Valence>
0.982

> <Coulomb>
69.058

> <VdW>
-0.078

> <VdW6>
-3.548

> <VdW12>
3.471

> <Bond>
0.105

> <Angle>
0.408

> <Pdih>
0.469

> <Idih>
0.000

> <Tether>
0.000

$$$$
VeraChem MOL file


 20 19  0  0  0  0  0  0  0  0999 V2000     
   20.9995   17.0254   23.6647 C   0  0  0  0  0  0  0  0  0  0  0  0
   21.8888   17.5220   23.2566 H   0  0  0  0  0  0  0  0  0  0  0  0
   21.2928   16.5433   24.6063 H   0  0  0  0  0  0  0  0  0  0  0  0
   20.6962   16.2359   22.9648 H   0  0  0  0  0  0  0  0  0  0  0  0
   19.8480   18.0286   23.9050 C   0  0  0  0  0  0  0  0  0  0  0  0
   20.1788   18.8099   24.6038 H   0  0  0  0  0  0  0  0  0  0  0  0
   19.0149   17.5072   24.3969 H   0  0  0  0  0  0  0  0  0  0  0  0
   19.3330   18.6801   22.6003 C   0  0  0  0  0  0  0  0  0  0  0  0
   18.9695   17.8976   21.9217 H   0  0  0  0  0  0  0  0  0  0  0  0
   18.4709   19.3180   22.8353 H   0  0  0  0  0  0  0  0  0  0  0  0
   20.4127   19.5293   21.8957 C   0  0  0  0  0  0  0  0  0  0  0  0
   21.2490   18.8934   21.5957 H   0  0  0  0  0  0  0  0  0  0  0  0
   20.7905   20.2763   22.5985 H   0  0  0  0  0  0  0  0  0  0  0  0
   19.9271   20.2729   20.6622 N   0  3  0  0  0  0  0  0  0  0  0  0
   20.6532   20.9371   20.3511 H   0  0  0  0  0  0  0  0  0  0  0  0
   19.1138   20.8620   20.8970 H   0  0  0  0  0  0  0  0  0  0  0  0
   19.5898   19.3078   19.5308 C   0  0  0  0  0  0  0  0  0  0  0  0
   18.7757   18.6515   19.8446 H   0  0  0  0  0  0  0  0  0  0  0  0
   19.2813   19.8796   18.6529 H   0  0  0  0  0  0  0  0  0  0  0  0
   20.4735   18.7129   19.2903 H   0  0  0  0  0  0  0  0  0  0  0  0
  1  2  1  0  0  0  0
  1  3  1  0  0  0  0
  1  4  1  0  0  0  0
  1  5  1  0  0  0  0
  5  6  1  0  0  0  0
  5  7  1  0  0  0  0
  5  8  1  0  0  0  0
  8  9  1  0  0  0  0
  8 10  1  0  0  0  0
  8 11  1  0  0  0  0
 11 12  1  0  0  0  0
 11 13  1  0  0  0  0
 11 14  1  0  0  0  0
 14 15  1  0  0  0  0
 14 16  1  0  0  0  0
 14 17  1  0  0  0  0
 17 18  1  0  0  0  0
 17 19  1  0  0  0  0
 17 20  1  0  0  0  0
M  END
> <VConfSearch Rank>
444

> <Conf_Id>
33

> <Delta U+W>
0.372

> <U+W>
15.711

> <U>
70.163

> <W>
-54.452

> <W(PB)>
-56.363

> <W(SA)>
1.911

> <Valence>
1.420

> <Coulomb>
68.566

> <VdW>
0.177

> <VdW6>
-4.267

> <VdW12>
4.445

> <Bond>
0.146

> <Angle>
0.581

> <Pdih>
0.693

> <Idih>
0.000

> <Tether>
0.000

$$$$
VeraChem MOL file


 20 19  0  0  0  0  0  0  0  0999 V2000     
   20.2963   21.2448   21.1651 C   0  0  0  0  0  0  0  0  0  0  0  0
   20.1577   22.3313   21.0929 H   0  0  0  0  0  0  0  0  0  0  0  0
   21.2578   21.0666   21.6630 H   0  0  0  0  0  0  0  0  0  0  0  0
   20.3602   20.8471   20.1439 H   0  0  0  0  0  0  0  0  0  0  0  0
   19.1257   20.5991   21.9416 C   0  0  0  0  0  0  0  0  0  0  0  0
   18.1782   20.8790   21.4599 H   0  0  0  0  0  0  0  0  0  0  0  0
   19.0872   21.0101   22.9603 H   0  0  0  0  0  0  0  0  0  0  0  0
   19.2211   19.0568   22.0048 C   0  0  0  0  0  0  0  0  0  0  0  0
   18.3239   18.6631   22.5002 H   0  0  0  0  0  0  0  0  0  0  0  0
   19.2215   18.6502   20.9853 H   0  0  0  0  0  0  0  0  0  0  0  0
   20.4730   18.5713   22.7666 C   0  0  0  0  0  0  0  0  0  0  0  0
   20.4758   19.0173   23.7645 H   0  0  0  0  0  0  0  0  0  0  0  0
   21.3758   18.9001   22.2464 H   0  0  0  0  0  0  0  0  0  0  0  0
   20.5604   17.0642   22.9440 N   0  3  0  0  0  0  0  0  0  0  0  0
   19.7085   16.7084   23.4038 H   0  0  0  0  0  0  0  0  0  0  0  0
   21.3272   16.8372   23.5965 H   0  0  0  0  0  0  0  0  0  0  0  0
   20.7911   16.3621   21.6102 C   0  0  0  0  0  0  0  0  0  0  0  0
   20.8852   15.2878   21.7831 H   0  0  0  0  0  0  0  0  0  0  0  0
   19.9441   16.5534   20.9484 H   0  0  0  0  0  0  0  0  0  0  0  0
   21.7087   16.7435   21.1571 H   0  0  0  0  0  0  0  0  0  0  0  0
  1  2  1  0  0  0  0
  1  3  1  0  0  0  0
  1  4  1  0  0  0  0
  1  5  1  0  0  0  0
  5  6  1  0  0  0  0
  5  7  1  0  0  0  0
  5  8  1  0  0  0  0
  8  9  1  0  0  0  0
  8 10  1  0  0  0  0
  8 11  1  0  0  0  0
 11 12  1  0  0  0  0
 11 13  1  0  0  0  0
 11 14  1  0  0  0  0
 14 15  1  0  0  0  0
 14 16  1  0  0  0  0
 14 17  1  0  0  0  0
 17 18  1  0  0  0  0
 17 19  1  0  0  0  0
 17 20  1  0  0  0  0
M  END
> <VConfSearch Rank>
445

> <Conf_Id>
53

> <Delta U+W>
0.379

> <U+W>
15.717

> <U>
70.163

> <W>
-54.446

> <W(PB)>
-56.322

> <W(SA)>
1.876

> <Valence>
1.420

> <Coulomb>
68.566

> <VdW>
0.177

> <VdW6>
-4.267

> <VdW12>
4.445

> <Bond>
0.146

> <Angle>
0.581

> <Pdih>
0.693

> <Idih>
0.000

> <Tether>
0.000

$$$$
VeraChem MOL file


 20 19  0  0  0  0  0  0  0  0999 V2000     
   19.7559   16.1137   21.5050 C   0  0  0  0  0  0  0  0  0  0  0  0
   19.5180   15.6216   20.5530 H   0  0  0  0  0  0  0  0  0  0  0  0
   20.5141   15.5067   22.0167 H   0  0  0  0  0  0  0  0  0  0  0  0
   18.8464   16.1138   22.1198 H   0  0  0  0  0  0  0  0  0  0  0  0
   20.2639   17.5517   21.2638 C   0  0  0  0  0  0  0  0  0  0  0  0
   19.4962   18.1161   20.7172 H   0  0  0  0  0  0  0  0  0  0  0  0
   21.1545   17.5206   20.6203 H   0  0  0  0  0  0  0  0  0  0  0  0
   20.6046   18.2688   22.5913 C   0  0  0  0  0  0  0  0  0  0  0  0
   19.7116   18.3269   23.2268 H   0  0  0  0  0  0  0  0  0  0  0  0
   21.3397   17.6723   23.1476 H   0  0  0  0  0  0  0  0  0  0  0  0
   21.1894   19.6827   22.3774 C   0  0  0  0  0  0  0  0  0  0  0  0
   22.1088   19.6013   21.7919 H   0  0  0  0  0  0  0  0  0  0  0  0
   21.4467   20.1207   23.3451 H   0  0  0  0  0  0  0  0  0  0  0  0
   20.2768   20.6636   21.6567 N   0  3  0  0  0  0  0  0  0  0  0  0
   20.0059   20.2872   20.7363 H   0  0  0  0  0  0  0  0  0  0  0  0
   20.7982   21.5291   21.4464 H   0  0  0  0  0  0  0  0  0  0  0  0
   19.0442   20.9912   22.4924 C   0  0  0  0  0  0  0  0  0  0  0  0
   19.3605   21.4055   23.4521 H   0  0  0  0  0  0  0  0  0  0  0  0
   18.4342   21.7232   21.9587 H   0  0  0  0  0  0  0  0  0  0  0  0
   18.4647   20.0803   22.6550 H   0  0  0  0  0  0  0  0  0  0  0  0
  1  2  1  0  0  0  0
  1  3  1  0  0  0  0
  1  4  1  0  0  0  0
  1  5  1  0  0  0  0
  5  6  1  0  0  0  0
  5  7  1  0  0  0  0
  5  8  1  0  0  0  0
  8  9  1  0  0  0  0
  8 10  1  0  0  0  0
  8 11  1  0  0  0  0
 11 12  1  0  0  0  0
 11 13  1  0  0  0  0
 11 14  1  0  0  0  0
 14 15  1  0  0  0  0
 14 16  1  0  0  0  0
 14 17  1  0  0  0  0
 17 18  1  0  0  0  0
 17 19  1  0  0  0  0
 17 20  1  0  0  0  0
M  END
> <VConfSearch Rank>
446

> <Conf_Id>
49

> <Delta U+W>
0.268

> <U+W>
15.607

> <U>
70.298

> <W>
-54.692

> <W(PB)>
-56.576

> <W(SA)>
1.885

> <Valence>
1.245

> <Coulomb>
68.933

> <VdW>
0.120

> <VdW6>
-4.430

> <VdW12>
4.550

> <Bond>
0.148

> <Angle>
0.587

> <Pdih>
0.509

> <Idih>
0.000

> <Tether>
0.000

$$$$
VeraChem MOL file


 20 19  0  0  0  0  0  0  0  0999 V2000     
   19.6227   19.6873   24.5493 C   0  0  0  0  0  0  0  0  0  0  0  0
   20.4839   19.2650   25.0834 H   0  0  0  0  0  0  0  0  0  0  0  0
   19.7044   20.7816   24.5806 H   0  0  0  0  0  0  0  0  0  0  0  0
   18.7150   19.4027   25.0971 H   0  0  0  0  0  0  0  0  0  0  0  0
   19.5651   19.1743   23.0941 C   0  0  0  0  0  0  0  0  0  0  0  0
   18.6791   19.5910   22.5947 H   0  0  0  0  0  0  0  0  0  0  0  0
   19.4439   18.0831   23.1078 H   0  0  0  0  0  0  0  0  0  0  0  0
   20.8386   19.5528   22.3025 C   0  0  0  0  0  0  0  0  0  0  0  0
   21.0103   20.6334   22.3957 H   0  0  0  0  0  0  0  0  0  0  0  0
   21.7133   19.0626   22.7497 H   0  0  0  0  0  0  0  0  0  0  0  0
   20.7721   19.2103   20.7968 C   0  0  0  0  0  0  0  0  0  0  0  0
   21.6887   19.5767   20.3274 H   0  0  0  0  0  0  0  0  0  0  0  0
   19.9308   19.7254   20.3266 H   0  0  0  0  0  0  0  0  0  0  0  0
   20.6717   17.7298   20.4630 N   0  3  0  0  0  0  0  0  0  0  0  0
   21.1782   17.1679   21.1633 H   0  0  0  0  0  0  0  0  0  0  0  0
   21.1624   17.5475   19.5736 H   0  0  0  0  0  0  0  0  0  0  0  0
   19.2184   17.2846   20.3341 C   0  0  0  0  0  0  0  0  0  0  0  0
   19.1918   16.2246   20.0720 H   0  0  0  0  0  0  0  0  0  0  0  0
   18.6989   17.4403   21.2802 H   0  0  0  0  0  0  0  0  0  0  0  0
   18.7339   17.8682   19.5484 H   0  0  0  0  0  0  0  0  0  0  0  0
  1  2  1  0  0  0  0
  1  3  1  0  0  0  0
  1  4  1  0  0  0  0
  1  5  1  0  0  0  0
  5  6  1  0  0  0  0
  5  7  1  0  0  0  0
  5  8  1  0  0  0  0
  8  9  1  0  0  0  0
  8 10  1  0  0  0  0
  8 11  1  0  0  0  0
 11 12  1  0  0  0  0
 11 13  1  0  0  0  0
 11 14  1  0  0  0  0
 14 15  1  0  0  0  0
 14 16  1  0  0  0  0
 14 17  1  0  0  0  0
 17 18  1  0  0  0  0
 17 19  1  0  0  0  0
 17 20  1  0  0  0  0
M  END
> <VConfSearch Rank>
447

> <Conf_Id>
65

> <Delta U+W>
1.775

> <U+W>
17.114

> <U>
71.726

> <W>
-54.613

> <W(PB)>
-56.495

> <W(SA)>
1.883

> <Valence>
2.885

> <Coulomb>
68.822

> <VdW>
0.019

> <VdW6>
-4.600

> <VdW12>
4.619

> <Bond>
0.152

> <Angle>
0.862

> <Pdih>
1.871

> <Idih>
0.000

> <Tether>
0.000

$$$$
VeraChem MOL file


 20 19  0  0  0  0  0  0  0  0999 V2000     
   19.6688   19.5578   24.2233 C   0  0  0  0  0  0  0  0  0  0  0  0
   19.6999   18.4691   24.0900 H   0  0  0  0  0  0  0  0  0  0  0  0
   20.1869   19.7908   25.1626 H   0  0  0  0  0  0  0  0  0  0  0  0
   18.6194   19.8593   24.3367 H   0  0  0  0  0  0  0  0  0  0  0  0
   20.3345   20.2963   23.0393 C   0  0  0  0  0  0  0  0  0  0  0  0
   21.3820   19.9788   22.9473 H   0  0  0  0  0  0  0  0  0  0  0  0
   20.3631   21.3725   23.2605 H   0  0  0  0  0  0  0  0  0  0  0  0
   19.5924   20.0832   21.6962 C   0  0  0  0  0  0  0  0  0  0  0  0
   18.5794   20.4999   21.7736 H   0  0  0  0  0  0  0  0  0  0  0  0
   20.0976   20.6539   20.9058 H   0  0  0  0  0  0  0  0  0  0  0  0
   19.4854   18.6053   21.2657 C   0  0  0  0  0  0  0  0  0  0  0  0
   18.9241   18.5403   20.3302 H   0  0  0  0  0  0  0  0  0  0  0  0
   18.9427   18.0389   22.0262 H   0  0  0  0  0  0  0  0  0  0  0  0
   20.8252   17.9290   21.0460 N   0  3  0  0  0  0  0  0  0  0  0  0
   21.3892   17.9762   21.9075 H   0  0  0  0  0  0  0  0  0  0  0  0
   21.3681   18.4389   20.3325 H   0  0  0  0  0  0  0  0  0  0  0  0
   20.6141   16.4811   20.6245 C   0  0  0  0  0  0  0  0  0  0  0  0
   20.0420   16.4570   19.6945 H   0  0  0  0  0  0  0  0  0  0  0  0
   21.5859   16.0067   20.4712 H   0  0  0  0  0  0  0  0  0  0  0  0
   20.0667   15.9541   21.4089 H   0  0  0  0  0  0  0  0  0  0  0  0
  1  2  1  0  0  0  0
  1  3  1  0  0  0  0
  1  4  1  0  0  0  0
  1  5  1  0  0  0  0
  5  6  1  0  0  0  0
  5  7  1  0  0  0  0
  5  8  1  0  0  0  0
  8  9  1  0  0  0  0
  8 10  1  0  0  0  0
  8 11  1  0  0  0  0
 11 12  1  0  0  0  0
 11 13  1  0  0  0  0
 11 14  1  0  0  0  0
 14 15  1  0  0  0  0
 14 16  1  0  0  0  0
 14 17  1  0  0  0  0
 17 18  1  0  0  0  0
 17 19  1  0  0  0  0
 17 20  1  0  0  0  0
M  END
> <VConfSearch Rank>
448

> <Conf_Id>
23

> <Delta U+W>
0.896

> <U+W>
16.234

> <U>
70.374

> <W>
-54.140

> <W(PB)>
-56.046

> <W(SA)>
1.907

> <Valence>
1.257

> <Coulomb>
69.240

> <VdW>
-0.123

> <VdW6>
-4.336

> <VdW12>
4.213

> <Bond>
0.128

> <Angle>
0.603

> <Pdih>
0.526

> <Idih>
0.000

> <Tether>
0.000

$$$$
VeraChem MOL file


 20 19  0  0  0  0  0  0  0  0999 V2000     
   18.9405   18.0483   20.0961 C   0  0  0  0  0  0  0  0  0  0  0  0
   18.1726   18.7771   19.8058 H   0  0  0  0  0  0  0  0  0  0  0  0
   18.9394   17.2454   19.3476 H   0  0  0  0  0  0  0  0  0  0  0  0
   18.6467   17.6055   21.0561 H   0  0  0  0  0  0  0  0  0  0  0  0
   20.3344   18.7121   20.1773 C   0  0  0  0  0  0  0  0  0  0  0  0
   20.6246   19.0567   19.1748 H   0  0  0  0  0  0  0  0  0  0  0  0
   21.0840   17.9636   20.4682 H   0  0  0  0  0  0  0  0  0  0  0  0
   20.3776   19.9168   21.1502 C   0  0  0  0  0  0  0  0  0  0  0  0
   21.3832   20.3578   21.1403 H   0  0  0  0  0  0  0  0  0  0  0  0
   19.6977   20.6987   20.7868 H   0  0  0  0  0  0  0  0  0  0  0  0
   19.9922   19.5651   22.6024 C   0  0  0  0  0  0  0  0  0  0  0  0
   18.9745   19.1684   22.6271 H   0  0  0  0  0  0  0  0  0  0  0  0
   20.0174   20.4710   23.2134 H   0  0  0  0  0  0  0  0  0  0  0  0
   20.9076   18.5459   23.2533 N   0  3  0  0  0  0  0  0  0  0  0  0
   21.8810   18.8870   23.2470 H   0  0  0  0  0  0  0  0  0  0  0  0
   20.9166   17.6762   22.7000 H   0  0  0  0  0  0  0  0  0  0  0  0
   20.4471   18.2678   24.6778 C   0  0  0  0  0  0  0  0  0  0  0  0
   19.4274   17.8773   24.6566 H   0  0  0  0  0  0  0  0  0  0  0  0
   21.1137   17.5322   25.1333 H   0  0  0  0  0  0  0  0  0  0  0  0
   20.4755   19.1960   25.2526 H   0  0  0  0  0  0  0  0  0  0  0  0
  1  2  1  0  0  0  0
  1  3  1  0  0  0  0
  1  4  1  0  0  0  0
  1  5  1  0  0  0  0
  5  6  1  0  0  0  0
  5  7  1  0  0  0  0
  5  8  1  0  0  0  0
  8  9  1  0  0  0  0
  8 10  1  0  0  0  0
  8 11  1  0  0  0  0
 11 12  1  0  0  0  0
 11 13  1  0  0  0  0
 11 14  1  0  0  0  0
 14 15  1  0  0  0  0
 14 16  1  0  0  0  0
 14 17  1  0  0  0  0
 17 18  1  0  0  0  0
 17 19  1  0  0  0  0
 17 20  1  0  0  0  0
M  END
> <VConfSearch Rank>
449

> <Conf_Id>
24

> <Delta U+W>
0.792

> <U+W>
16.130

> <U>
70.374

> <W>
-54.243

> <W(PB)>
-56.130

> <W(SA)>
1.887

> <Valence>
1.257

> <Coulomb>
69.240

> <VdW>
-0.123

> <VdW6>
-4.336

> <VdW12>
4.213

> <Bond>
0.128

> <Angle>
0.603

> <Pdih>
0.526

> <Idih>
0.000

> <Tether>
0.000

$$$$
VeraChem MOL file


 20 19  0  0  0  0  0  0  0  0999 V2000     
   21.9769   19.3352   21.3956 C   0  0  0  0  0  0  0  0  0  0  0  0
   23.0369   19.6207   21.4033 H   0  0  0  0  0  0  0  0  0  0  0  0
   21.8994   18.3756   21.9201 H   0  0  0  0  0  0  0  0  0  0  0  0
   21.6788   19.1939   20.3485 H   0  0  0  0  0  0  0  0  0  0  0  0
   21.1239   20.4275   22.0804 C   0  0  0  0  0  0  0  0  0  0  0  0
   21.3981   21.4037   21.6562 H   0  0  0  0  0  0  0  0  0  0  0  0
   21.3821   20.4772   23.1476 H   0  0  0  0  0  0  0  0  0  0  0  0
   19.5933   20.2394   21.9232 C   0  0  0  0  0  0  0  0  0  0  0  0
   19.0975   21.1033   22.3853 H   0  0  0  0  0  0  0  0  0  0  0  0
   19.3123   20.2632   20.8620 H   0  0  0  0  0  0  0  0  0  0  0  0
   19.0351   18.9637   22.5890 C   0  0  0  0  0  0  0  0  0  0  0  0
   17.9631   19.0900   22.7601 H   0  0  0  0  0  0  0  0  0  0  0  0
   19.5173   18.8116   23.5579 H   0  0  0  0  0  0  0  0  0  0  0  0
   19.2051   17.7020   21.7643 N   0  3  0  0  0  0  0  0  0  0  0  0
   20.1985   17.5655   21.5296 H   0  0  0  0  0  0  0  0  0  0  0  0
   18.7206   17.8021   20.8592 H   0  0  0  0  0  0  0  0  0  0  0  0
   18.6647   16.5020   22.5302 C   0  0  0  0  0  0  0  0  0  0  0  0
   19.2139   16.3967   23.4683 H   0  0  0  0  0  0  0  0  0  0  0  0
   17.6038   16.6565   22.7386 H   0  0  0  0  0  0  0  0  0  0  0  0
   18.7936   15.6020   21.9249 H   0  0  0  0  0  0  0  0  0  0  0  0
  1  2  1  0  0  0  0
  1  3  1  0  0  0  0
  1  4  1  0  0  0  0
  1  5  1  0  0  0  0
  5  6  1  0  0  0  0
  5  7  1  0  0  0  0
  5  8  1  0  0  0  0
  8  9  1  0  0  0  0
  8 10  1  0  0  0  0
  8 11  1  0  0  0  0
 11 12  1  0  0  0  0
 11 13  1  0  0  0  0
 11 14  1  0  0  0  0
 14 15  1  0  0  0  0
 14 16  1  0  0  0  0
 14 17  1  0  0  0  0
 17 18  1  0  0  0  0
 17 19  1  0  0  0  0
 17 20  1  0  0  0  0
M  END
> <VConfSearch Rank>
450

> <Conf_Id>
26

> <Delta U+W>
2.888

> <U+W>
18.226

> <U>
72.042

> <W>
-53.816

> <W(PB)>
-55.689

> <W(SA)>
1.873

> <Valence>
2.428

> <Coulomb>
69.829

> <VdW>
-0.215

> <VdW6>
-4.563

> <VdW12>
4.348

> <Bond>
0.137

> <Angle>
0.936

> <Pdih>
1.356

> <Idih>
0.000

> <Tether>
0.000

$$$$
VeraChem MOL file


 20 19  0  0  0  0  0  0  0  0999 V2000     
   20.6032   20.2437   23.6828 C   0  0  0  0  0  0  0  0  0  0  0  0
   20.9828   21.1038   24.2498 H   0  0  0  0  0  0  0  0  0  0  0  0
   20.2404   19.5028   24.4071 H   0  0  0  0  0  0  0  0  0  0  0  0
   21.4536   19.8196   23.1359 H   0  0  0  0  0  0  0  0  0  0  0  0
   19.4767   20.6907   22.7234 C   0  0  0  0  0  0  0  0  0  0  0  0
   19.8938   21.3571   21.9552 H   0  0  0  0  0  0  0  0  0  0  0  0
   18.7537   21.2951   23.2892 H   0  0  0  0  0  0  0  0  0  0  0  0
   18.7129   19.5260   22.0431 C   0  0  0  0  0  0  0  0  0  0  0  0
   18.2277   18.8941   22.7988 H   0  0  0  0  0  0  0  0  0  0  0  0
   17.8996   19.9586   21.4455 H   0  0  0  0  0  0  0  0  0  0  0  0
   19.5774   18.6577   21.1044 C   0  0  0  0  0  0  0  0  0  0  0  0
   20.2483   19.2963   20.5245 H   0  0  0  0  0  0  0  0  0  0  0  0
   18.9246   18.1287   20.4054 H   0  0  0  0  0  0  0  0  0  0  0  0
   20.4089   17.6062   21.8142 N   0  3  0  0  0  0  0  0  0  0  0  0
   19.7953   16.9615   22.3356 H   0  0  0  0  0  0  0  0  0  0  0  0
   21.0067   18.0506   22.5254 H   0  0  0  0  0  0  0  0  0  0  0  0
   21.2539   16.8411   20.8047 C   0  0  0  0  0  0  0  0  0  0  0  0
   21.9176   17.5384   20.2888 H   0  0  0  0  0  0  0  0  0  0  0  0
   21.8464   16.0885   21.3295 H   0  0  0  0  0  0  0  0  0  0  0  0
   20.5964   16.3534   20.0817 H   0  0  0  0  0  0  0  0  0  0  0  0
  1  2  1  0  0  0  0
  1  3  1  0  0  0  0
  1  4  1  0  0  0  0
  1  5  1  0  0  0  0
  5  6  1  0  0  0  0
  5  7  1  0  0  0  0
  5  8  1  0  0  0  0
  8  9  1  0  0  0  0
  8 10  1  0  0  0  0
  8 11  1  0  0  0  0
 11 12  1  0  0  0  0
 11 13  1  0  0  0  0
 11 14  1  0  0  0  0
 14 15  1  0  0  0  0
 14 16  1  0  0  0  0
 14 17  1  0  0  0  0
 17 18  1  0  0  0  0
 17 19  1  0  0  0  0
 17 20  1  0  0  0  0
M  END
> <VConfSearch Rank>
451

> <Conf_Id>
5

> <Delta U+W>
2.950

> <U+W>
18.289

> <U>
72.042

> <W>
-53.753

> <W(PB)>
-55.644

> <W(SA)>
1.891

> <Valence>
2.428

> <Coulomb>
69.829

> <VdW>
-0.215

> <VdW6>
-4.563

> <VdW12>
4.348

> <Bond>
0.137

> <Angle>
0.936

> <Pdih>
1.356

> <Idih>
0.000

> <Tether>
0.000

$$$$
VeraChem MOL file


 20 19  0  0  0  0  0  0  0  0999 V2000     
   19.5949   18.8569   19.6132 C   0  0  0  0  0  0  0  0  0  0  0  0
   18.5606   19.1434   19.3824 H   0  0  0  0  0  0  0  0  0  0  0  0
   20.1624   19.7704   19.8308 H   0  0  0  0  0  0  0  0  0  0  0  0
   20.0264   18.4067   18.7098 H   0  0  0  0  0  0  0  0  0  0  0  0
   19.6449   17.8594   20.7932 C   0  0  0  0  0  0  0  0  0  0  0  0
   20.6877   17.5848   21.0029 H   0  0  0  0  0  0  0  0  0  0  0  0
   19.1410   16.9290   20.4959 H   0  0  0  0  0  0  0  0  0  0  0  0
   18.9705   18.4034   22.0771 C   0  0  0  0  0  0  0  0  0  0  0  0
   17.9060   18.5831   21.8771 H   0  0  0  0  0  0  0  0  0  0  0  0
   19.0044   17.6347   22.8600 H   0  0  0  0  0  0  0  0  0  0  0  0
   19.5979   19.7113   22.6111 C   0  0  0  0  0  0  0  0  0  0  0  0
   19.0708   20.0270   23.5149 H   0  0  0  0  0  0  0  0  0  0  0  0
   19.4745   20.4968   21.8615 H   0  0  0  0  0  0  0  0  0  0  0  0
   21.0795   19.6297   22.9449 N   0  3  0  0  0  0  0  0  0  0  0  0
   21.4390   20.5736   23.1568 H   0  0  0  0  0  0  0  0  0  0  0  0
   21.6108   19.3208   22.1176 H   0  0  0  0  0  0  0  0  0  0  0  0
   21.3301   18.7010   24.1278 C   0  0  0  0  0  0  0  0  0  0  0  0
   21.0030   17.6916   23.8709 H   0  0  0  0  0  0  0  0  0  0  0  0
   22.3980   18.6932   24.3569 H   0  0  0  0  0  0  0  0  0  0  0  0
   20.7708   19.0627   24.9933 H   0  0  0  0  0  0  0  0  0  0  0  0
  1  2  1  0  0  0  0
  1  3  1  0  0  0  0
  1  4  1  0  0  0  0
  1  5  1  0  0  0  0
  5  6  1  0  0  0  0
  5  7  1  0  0  0  0
  5  8  1  0  0  0  0
  8  9  1  0  0  0  0
  8 10  1  0  0  0  0
  8 11  1  0  0  0  0
 11 12  1  0  0  0  0
 11 13  1  0  0  0  0
 11 14  1  0  0  0  0
 14 15  1  0  0  0  0
 14 16  1  0  0  0  0
 14 17  1  0  0  0  0
 17 18  1  0  0  0  0
 17 19  1  0  0  0  0
 17 20  1  0  0  0  0
M  END
> <VConfSearch Rank>
452

> <Conf_Id>
52

> <Delta U+W>
0.784

> <U+W>
16.122

> <U>
70.777

> <W>
-54.655

> <W(PB)>
-56.491

> <W(SA)>
1.836

> <Valence>
1.529

> <Coulomb>
69.166

> <VdW>
0.082

> <VdW6>
-5.166

> <VdW12>
5.248

> <Bond>
0.171

> <Angle>
0.752

> <Pdih>
0.605

> <Idih>
0.000

> <Tether>
0.000

$$$$
VeraChem MOL file


 20 19  0  0  0  0  0  0  0  0999 V2000     
   18.1280   19.2463   22.8402 C   0  0  0  0  0  0  0  0  0  0  0  0
   17.0961   19.2489   23.2149 H   0  0  0  0  0  0  0  0  0  0  0  0
   18.7814   19.0739   23.7029 H   0  0  0  0  0  0  0  0  0  0  0  0
   18.3358   20.2436   22.4308 H   0  0  0  0  0  0  0  0  0  0  0  0
   18.3040   18.1497   21.7650 C   0  0  0  0  0  0  0  0  0  0  0  0
   17.4780   18.2319   21.0446 H   0  0  0  0  0  0  0  0  0  0  0  0
   18.2029   17.1592   22.2305 H   0  0  0  0  0  0  0  0  0  0  0  0
   19.6402   18.2264   20.9830 C   0  0  0  0  0  0  0  0  0  0  0  0
   19.6109   17.4653   20.1922 H   0  0  0  0  0  0  0  0  0  0  0  0
   19.7218   19.1899   20.4644 H   0  0  0  0  0  0  0  0  0  0  0  0
   20.9018   17.9629   21.8376 C   0  0  0  0  0  0  0  0  0  0  0  0
   21.7351   17.7061   21.1789 H   0  0  0  0  0  0  0  0  0  0  0  0
   20.7174   17.1063   22.4908 H   0  0  0  0  0  0  0  0  0  0  0  0
   21.3649   19.1216   22.7068 N   0  3  0  0  0  0  0  0  0  0  0  0
   22.0833   18.7904   23.3698 H   0  0  0  0  0  0  0  0  0  0  0  0
   20.5879   19.4550   23.2942 H   0  0  0  0  0  0  0  0  0  0  0  0
   21.9276   20.2577   21.8600 C   0  0  0  0  0  0  0  0  0  0  0  0
   22.7583   19.8808   21.2595 H   0  0  0  0  0  0  0  0  0  0  0  0
   21.1444   20.6458   21.2061 H   0  0  0  0  0  0  0  0  0  0  0  0
   22.2818   21.0535   22.5190 H   0  0  0  0  0  0  0  0  0  0  0  0
  1  2  1  0  0  0  0
  1  3  1  0  0  0  0
  1  4  1  0  0  0  0
  1  5  1  0  0  0  0
  5  6  1  0  0  0  0
  5  7  1  0  0  0  0
  5  8  1  0  0  0  0
  8  9  1  0  0  0  0
  8 10  1  0  0  0  0
  8 11  1  0  0  0  0
 11 12  1  0  0  0  0
 11 13  1  0  0  0  0
 11 14  1  0  0  0  0
 14 15  1  0  0  0  0
 14 16  1  0  0  0  0
 14 17  1  0  0  0  0
 17 18  1  0  0  0  0
 17 19  1  0  0  0  0
 17 20  1  0  0  0  0
M  END
> <VConfSearch Rank>
453

> <Conf_Id>
55

> <Delta U+W>
2.745

> <U+W>
18.083

> <U>
72.490

> <W>
-54.407

> <W(PB)>
-56.269

> <W(SA)>
1.861

> <Valence>
2.738

> <Coulomb>
69.795

> <VdW>
-0.043

> <VdW6>
-5.333

> <VdW12>
5.290

> <Bond>
0.182

> <Angle>
1.135

> <Pdih>
1.422

> <Idih>
0.000

> <Tether>
0.000

$$$$
VeraChem MOL file


 20 19  0  0  0  0  0  0  0  0999 V2000     
   21.8280   19.3461   21.2161 C   0  0  0  0  0  0  0  0  0  0  0  0
   22.8305   19.4366   20.7779 H   0  0  0  0  0  0  0  0  0  0  0  0
   21.2215   20.1775   20.8337 H   0  0  0  0  0  0  0  0  0  0  0  0
   21.9412   19.4592   22.3003 H   0  0  0  0  0  0  0  0  0  0  0  0
   21.2046   17.9802   20.8485 C   0  0  0  0  0  0  0  0  0  0  0  0
   21.7677   17.1749   21.3409 H   0  0  0  0  0  0  0  0  0  0  0  0
   21.3282   17.8200   19.7682 H   0  0  0  0  0  0  0  0  0  0  0  0
   19.6982   17.8497   21.1899 C   0  0  0  0  0  0  0  0  0  0  0  0
   19.1200   18.6129   20.6541 H   0  0  0  0  0  0  0  0  0  0  0  0
   19.3479   16.8845   20.8010 H   0  0  0  0  0  0  0  0  0  0  0  0
   19.3755   17.8883   22.7018 C   0  0  0  0  0  0  0  0  0  0  0  0
   20.0968   17.2649   23.2363 H   0  0  0  0  0  0  0  0  0  0  0  0
   18.3817   17.4651   22.8683 H   0  0  0  0  0  0  0  0  0  0  0  0
   19.3835   19.2666   23.3442 N   0  3  0  0  0  0  0  0  0  0  0  0
   20.2750   19.7425   23.1479 H   0  0  0  0  0  0  0  0  0  0  0  0
   19.3484   19.1693   24.3711 H   0  0  0  0  0  0  0  0  0  0  0  0
   18.2056   20.1073   22.8641 C   0  0  0  0  0  0  0  0  0  0  0  0
   18.2837   20.2600   21.7861 H   0  0  0  0  0  0  0  0  0  0  0  0
   17.2742   19.5873   23.0979 H   0  0  0  0  0  0  0  0  0  0  0  0
   18.2249   21.0735   23.3730 H   0  0  0  0  0  0  0  0  0  0  0  0
  1  2  1  0  0  0  0
  1  3  1  0  0  0  0
  1  4  1  0  0  0  0
  1  5  1  0  0  0  0
  5  6  1  0  0  0  0
  5  7  1  0  0  0  0
  5  8  1  0  0  0  0
  8  9  1  0  0  0  0
  8 10  1  0  0  0  0
  8 11  1  0  0  0  0
 11 12  1  0  0  0  0
 11 13  1  0  0  0  0
 11 14  1  0  0  0  0
 14 15  1  0  0  0  0
 14 16  1  0  0  0  0
 14 17  1  0  0  0  0
 17 18  1  0  0  0  0
 17 19  1  0  0  0  0
 17 20  1  0  0  0  0
M  END
> <VConfSearch Rank>
454

> <Conf_Id>
76

> <Delta U+W>
2.799

> <U+W>
18.137

> <U>
72.490

> <W>
-54.353

> <W(PB)>
-56.201

> <W(SA)>
1.848

> <Valence>
2.738

> <Coulomb>
69.795

> <VdW>
-0.043

> <VdW6>
-5.334

> <VdW12>
5.290

> <Bond>
0.182

> <Angle>
1.135

> <Pdih>
1.421

> <Idih>
0.000

> <Tether>
0.000

$$$$
VeraChem MOL file


 20 19  0  0  0  0  0  0  0  0999 V2000     
   20.2221   20.5952   20.9616 C   0  0  0  0  0  0  0  0  0  0  0  0
   20.3639   19.7060   20.3352 H   0  0  0  0  0  0  0  0  0  0  0  0
   19.2725   21.0657   20.6756 H   0  0  0  0  0  0  0  0  0  0  0  0
   21.0293   21.3001   20.7244 H   0  0  0  0  0  0  0  0  0  0  0  0
   20.2349   20.2423   22.4669 C   0  0  0  0  0  0  0  0  0  0  0  0
   20.1621   21.1717   23.0489 H   0  0  0  0  0  0  0  0  0  0  0  0
   21.1984   19.7940   22.7417 H   0  0  0  0  0  0  0  0  0  0  0  0
   19.0731   19.3065   22.8813 C   0  0  0  0  0  0  0  0  0  0  0  0
   19.1158   19.1319   23.9644 H   0  0  0  0  0  0  0  0  0  0  0  0
   18.1226   19.8248   22.6978 H   0  0  0  0  0  0  0  0  0  0  0  0
   19.0279   17.9435   22.1513 C   0  0  0  0  0  0  0  0  0  0  0  0
   18.9943   18.0884   21.0689 H   0  0  0  0  0  0  0  0  0  0  0  0
   18.1043   17.4382   22.4448 H   0  0  0  0  0  0  0  0  0  0  0  0
   20.1654   16.9861   22.4748 N   0  3  0  0  0  0  0  0  0  0  0  0
   19.8209   16.0157   22.4089 H   0  0  0  0  0  0  0  0  0  0  0  0
   20.4576   17.0949   23.4574 H   0  0  0  0  0  0  0  0  0  0  0  0
   21.3421   17.1648   21.5216 C   0  0  0  0  0  0  0  0  0  0  0  0
   22.1183   16.4386   21.7730 H   0  0  0  0  0  0  0  0  0  0  0  0
   21.0017   16.9973   20.4976 H   0  0  0  0  0  0  0  0  0  0  0  0
   21.7428   18.1746   21.6153 H   0  0  0  0  0  0  0  0  0  0  0  0
  1  2  1  0  0  0  0
  1  3  1  0  0  0  0
  1  4  1  0  0  0  0
  1  5  1  0  0  0  0
  5  6  1  0  0  0  0
  5  7  1  0  0  0  0
  5  8  1  0  0  0  0
  8  9  1  0  0  0  0
  8 10  1  0  0  0  0
  8 11  1  0  0  0  0
 11 12  1  0  0  0  0
 11 13  1  0  0  0  0
 11 14  1  0  0  0  0
 14 15  1  0  0  0  0
 14 16  1  0  0  0  0
 14 17  1  0  0  0  0
 17 18  1  0  0  0  0
 17 19  1  0  0  0  0
 17 20  1  0  0  0  0
M  END
> <VConfSearch Rank>
455

> <Conf_Id>
60

> <Delta U+W>
1.788

> <U+W>
17.127

> <U>
72.122

> <W>
-54.995

> <W(PB)>
-56.810

> <W(SA)>
1.815

> <Valence>
3.197

> <Coulomb>
69.115

> <VdW>
-0.190

> <VdW6>
-5.585

> <VdW12>
5.395

> <Bond>
0.177

> <Angle>
1.207

> <Pdih>
1.813

> <Idih>
0.000

> <Tether>
0.000

$$$$
VeraChem MOL file


 20 19  0  0  0  0  0  0  0  0999 V2000     
   20.2959   18.2024   24.0534 C   0  0  0  0  0  0  0  0  0  0  0  0
   20.7846   17.3870   24.6021 H   0  0  0  0  0  0  0  0  0  0  0  0
   19.9031   18.9138   24.7914 H   0  0  0  0  0  0  0  0  0  0  0  0
   19.4463   17.7728   23.5088 H   0  0  0  0  0  0  0  0  0  0  0  0
   21.2984   18.8908   23.0985 C   0  0  0  0  0  0  0  0  0  0  0  0
   21.6987   18.1623   22.3818 H   0  0  0  0  0  0  0  0  0  0  0  0
   22.1616   19.2392   23.6828 H   0  0  0  0  0  0  0  0  0  0  0  0
   20.6890   20.0997   22.3469 C   0  0  0  0  0  0  0  0  0  0  0  0
   20.3981   20.8603   23.0835 H   0  0  0  0  0  0  0  0  0  0  0  0
   21.4620   20.5664   21.7224 H   0  0  0  0  0  0  0  0  0  0  0  0
   19.4554   19.7808   21.4699 C   0  0  0  0  0  0  0  0  0  0  0  0
   19.0570   20.7281   21.0975 H   0  0  0  0  0  0  0  0  0  0  0  0
   18.6726   19.3060   22.0660 H   0  0  0  0  0  0  0  0  0  0  0  0
   19.7233   18.9149   20.2479 N   0  3  0  0  0  0  0  0  0  0  0  0
   20.6575   19.1177   19.8620 H   0  0  0  0  0  0  0  0  0  0  0  0
   19.0662   19.1763   19.4964 H   0  0  0  0  0  0  0  0  0  0  0  0
   19.5608   17.4314   20.5605 C   0  0  0  0  0  0  0  0  0  0  0  0
   18.5465   17.2510   20.9227 H   0  0  0  0  0  0  0  0  0  0  0  0
   19.7326   16.8538   19.6495 H   0  0  0  0  0  0  0  0  0  0  0  0
   20.2816   17.1339   21.3227 H   0  0  0  0  0  0  0  0  0  0  0  0
  1  2  1  0  0  0  0
  1  3  1  0  0  0  0
  1  4  1  0  0  0  0
  1  5  1  0  0  0  0
  5  6  1  0  0  0  0
  5  7  1  0  0  0  0
  5  8  1  0  0  0  0
  8  9  1  0  0  0  0
  8 10  1  0  0  0  0
  8 11  1  0  0  0  0
 11 12  1  0  0  0  0
 11 13  1  0  0  0  0
 11 14  1  0  0  0  0
 14 15  1  0  0  0  0
 14 16  1  0  0  0  0
 14 17  1  0  0  0  0
 17 18  1  0  0  0  0
 17 19  1  0  0  0  0
 17 20  1  0  0  0  0
M  END
> <VConfSearch Rank>
456

> <Conf_Id>
54

> <Delta U+W>
1.880

> <U+W>
17.218

> <U>
72.122

> <W>
-54.903

> <W(PB)>
-56.724

> <W(SA)>
1.821

> <Valence>
3.197

> <Coulomb>
69.115

> <VdW>
-0.190

> <VdW6>
-5.585

> <VdW12>
5.395

> <Bond>
0.177

> <Angle>
1.207

> <Pdih>
1.813

> <Idih>
0.000

> <Tether>
0.000

$$$$
VeraChem MOL file


 20 19  0  0  0  0  0  0  0  0999 V2000     
   16.9976   18.1447   21.2641 C   0  0  0  0  0  0  0  0  0  0  0  0
   16.7085   17.7319   22.2394 H   0  0  0  0  0  0  0  0  0  0  0  0
   16.1368   18.6960   20.8640 H   0  0  0  0  0  0  0  0  0  0  0  0
   17.2044   17.3064   20.5862 H   0  0  0  0  0  0  0  0  0  0  0  0
   18.2262   19.0710   21.3941 C   0  0  0  0  0  0  0  0  0  0  0  0
   17.9774   19.9175   22.0499 H   0  0  0  0  0  0  0  0  0  0  0  0
   18.4695   19.4952   20.4096 H   0  0  0  0  0  0  0  0  0  0  0  0
   19.4543   18.3211   21.9556 C   0  0  0  0  0  0  0  0  0  0  0  0
   19.2115   17.9007   22.9406 H   0  0  0  0  0  0  0  0  0  0  0  0
   19.7041   17.4777   21.2982 H   0  0  0  0  0  0  0  0  0  0  0  0
   20.6750   19.2514   22.0821 C   0  0  0  0  0  0  0  0  0  0  0  0
   20.4347   20.0839   22.7483 H   0  0  0  0  0  0  0  0  0  0  0  0
   20.9290   19.6594   21.1006 H   0  0  0  0  0  0  0  0  0  0  0  0
   21.9065   18.5574   22.6304 N   0  3  0  0  0  0  0  0  0  0  0  0
   22.1617   17.7576   22.0309 H   0  0  0  0  0  0  0  0  0  0  0  0
   21.7041   18.1507   23.5565 H   0  0  0  0  0  0  0  0  0  0  0  0
   23.0619   19.5453   22.7224 C   0  0  0  0  0  0  0  0  0  0  0  0
   22.7826   20.3647   23.3882 H   0  0  0  0  0  0  0  0  0  0  0  0
   23.9414   19.0328   23.1184 H   0  0  0  0  0  0  0  0  0  0  0  0
   23.2811   19.9365   21.7266 H   0  0  0  0  0  0  0  0  0  0  0  0
  1  2  1  0  0  0  0
  1  3  1  0  0  0  0
  1  4  1  0  0  0  0
  1  5  1  0  0  0  0
  5  6  1  0  0  0  0
  5  7  1  0  0  0  0
  5  8  1  0  0  0  0
  8  9  1  0  0  0  0
  8 10  1  0  0  0  0
  8 11  1  0  0  0  0
 11 12  1  0  0  0  0
 11 13  1  0  0  0  0
 11 14  1  0  0  0  0
 14 15  1  0  0  0  0
 14 16  1  0  0  0  0
 14 17  1  0  0  0  0
 17 18  1  0  0  0  0
 17 19  1  0  0  0  0
 17 20  1  0  0  0  0
M  END
> <VConfSearch Rank>
457

> <Conf_Id>
67

> <Delta U+W>
0.000

> <U+W>
15.338

> <U>
69.277

> <W>
-53.939

> <W(PB)>
-55.889

> <W(SA)>
1.950

> <Valence>
0.846

> <Coulomb>
68.557

> <VdW>
-0.127

> <VdW6>
-3.008

> <VdW12>
2.882

> <Bond>
0.088

> <Angle>
0.332

> <Pdih>
0.426

> <Idih>
0.000

> <Tether>
0.000

$$$$
VeraChem MOL file


 20 19  0  0  0  0  0  0  0  0999 V2000     
   19.8613   21.8350   21.4864 C   0  0  0  0  0  0  0  0  0  0  0  0
   18.8753   21.8482   21.9688 H   0  0  0  0  0  0  0  0  0  0  0  0
   20.3571   22.7888   21.7089 H   0  0  0  0  0  0  0  0  0  0  0  0
   19.7096   21.7804   20.4005 H   0  0  0  0  0  0  0  0  0  0  0  0
   20.7111   20.6480   21.9897 C   0  0  0  0  0  0  0  0  0  0  0  0
   20.8745   20.7489   23.0721 H   0  0  0  0  0  0  0  0  0  0  0  0
   21.7026   20.6822   21.5162 H   0  0  0  0  0  0  0  0  0  0  0  0
   20.0374   19.2909   21.6897 C   0  0  0  0  0  0  0  0  0  0  0  0
   19.0481   19.2615   22.1642 H   0  0  0  0  0  0  0  0  0  0  0  0
   19.8785   19.1890   20.6080 H   0  0  0  0  0  0  0  0  0  0  0  0
   20.8943   18.1117   22.1948 C   0  0  0  0  0  0  0  0  0  0  0  0
   21.0166   18.1792   23.2787 H   0  0  0  0  0  0  0  0  0  0  0  0
   21.8856   18.1727   21.7384 H   0  0  0  0  0  0  0  0  0  0  0  0
   20.3323   16.7367   21.8716 N   0  3  0  0  0  0  0  0  0  0  0  0
   21.0363   16.0154   22.0935 H   0  0  0  0  0  0  0  0  0  0  0  0
   20.1721   16.6456   20.8568 H   0  0  0  0  0  0  0  0  0  0  0  0
   19.0497   16.4646   22.6504 C   0  0  0  0  0  0  0  0  0  0  0  0
   18.2884   17.1915   22.3609 H   0  0  0  0  0  0  0  0  0  0  0  0
   18.6990   15.4560   22.4205 H   0  0  0  0  0  0  0  0  0  0  0  0
   19.2540   16.5480   23.7199 H   0  0  0  0  0  0  0  0  0  0  0  0
  1  2  1  0  0  0  0
  1  3  1  0  0  0  0
  1  4  1  0  0  0  0
  1  5  1  0  0  0  0
  5  6  1  0  0  0  0
  5  7  1  0  0  0  0
  5  8  1  0  0  0  0
  8  9  1  0  0  0  0
  8 10  1  0  0  0  0
  8 11  1  0  0  0  0
 11 12  1  0  0  0  0
 11 13  1  0  0  0  0
 11 14  1  0  0  0  0
 14 15  1  0  0  0  0
 14 16  1  0  0  0  0
 14 17  1  0  0  0  0
 17 18  1  0  0  0  0
 17 19  1  0  0  0  0
 17 20  1  0  0  0  0
M  END
> <VConfSearch Rank>
458

> <Conf_Id>
37

> <Delta U+W>
-0.021

> <U+W>
15.318

> <U>
69.657

> <W>
-54.340

> <W(PB)>
-56.238

> <W(SA)>
1.899

> <Valence>
1.137

> <Coulomb>
68.383

> <VdW>
0.138

> <VdW6>
-3.703

> <VdW12>
3.841

> <Bond>
0.125

> <Angle>
0.468

> <Pdih>
0.543

> <Idih>
0.000

> <Tether>
0.000

$$$$
VeraChem MOL file


 20 19  0  0  0  0  0  0  0  0999 V2000     
   17.9521   18.2255   24.1239 C   0  0  0  0  0  0  0  0  0  0  0  0
   17.6636   17.4689   24.8651 H   0  0  0  0  0  0  0  0  0  0  0  0
   18.2676   19.1255   24.6677 H   0  0  0  0  0  0  0  0  0  0  0  0
   17.0600   18.4771   23.5357 H   0  0  0  0  0  0  0  0  0  0  0  0
   19.0852   17.6973   23.2176 C   0  0  0  0  0  0  0  0  0  0  0  0
   18.7520   16.7783   22.7148 H   0  0  0  0  0  0  0  0  0  0  0  0
   19.9503   17.4222   23.8375 H   0  0  0  0  0  0  0  0  0  0  0  0
   19.5120   18.7421   22.1632 C   0  0  0  0  0  0  0  0  0  0  0  0
   18.6484   19.0132   21.5417 H   0  0  0  0  0  0  0  0  0  0  0  0
   19.8437   19.6576   22.6698 H   0  0  0  0  0  0  0  0  0  0  0  0
   20.6430   18.2047   21.2620 C   0  0  0  0  0  0  0  0  0  0  0  0
   20.3095   17.2771   20.7898 H   0  0  0  0  0  0  0  0  0  0  0  0
   21.5241   17.9779   21.8676 H   0  0  0  0  0  0  0  0  0  0  0  0
   21.0694   19.1495   20.1502 N   0  3  0  0  0  0  0  0  0  0  0  0
   20.2558   19.4134   19.5737 H   0  0  0  0  0  0  0  0  0  0  0  0
   21.7031   18.6559   19.5021 H   0  0  0  0  0  0  0  0  0  0  0  0
   21.7629   20.3872   20.7093 C   0  0  0  0  0  0  0  0  0  0  0  0
   22.6301   20.0787   21.2971 H   0  0  0  0  0  0  0  0  0  0  0  0
   22.0868   21.0207   19.8806 H   0  0  0  0  0  0  0  0  0  0  0  0
   21.0648   20.9399   21.3411 H   0  0  0  0  0  0  0  0  0  0  0  0
  1  2  1  0  0  0  0
  1  3  1  0  0  0  0
  1  4  1  0  0  0  0
  1  5  1  0  0  0  0
  5  6  1  0  0  0  0
  5  7  1  0  0  0  0
  5  8  1  0  0  0  0
  8  9  1  0  0  0  0
  8 10  1  0  0  0  0
  8 11  1  0  0  0  0
 11 12  1  0  0  0  0
 11 13  1  0  0  0  0
 11 14  1  0  0  0  0
 14 15  1  0  0  0  0
 14 16  1  0  0  0  0
 14 17  1  0  0  0  0
 17 18  1  0  0  0  0
 17 19  1  0  0  0  0
 17 20  1  0  0  0  0
M  END
> <VConfSearch Rank>
459

> <Conf_Id>
2

> <Delta U+W>
0.069

> <U+W>
15.407

> <U>
69.657

> <W>
-54.250

> <W(PB)>
-56.176

> <W(SA)>
1.926

> <Valence>
1.137

> <Coulomb>
68.383

> <VdW>
0.138

> <VdW6>
-3.703

> <VdW12>
3.841

> <Bond>
0.125

> <Angle>
0.468

> <Pdih>
0.543

> <Idih>
0.000

> <Tether>
0.000

$$$$
VeraChem MOL file


 20 19  0  0  0  0  0  0  0  0999 V2000     
   21.7886   18.2130   20.0982 C   0  0  0  0  0  0  0  0  0  0  0  0
   20.9360   18.7825   19.7075 H   0  0  0  0  0  0  0  0  0  0  0  0
   22.5506   18.9263   20.4384 H   0  0  0  0  0  0  0  0  0  0  0  0
   22.2146   17.6414   19.2635 H   0  0  0  0  0  0  0  0  0  0  0  0
   21.3629   17.2650   21.2430 C   0  0  0  0  0  0  0  0  0  0  0  0
   22.2248   16.6503   21.5385 H   0  0  0  0  0  0  0  0  0  0  0  0
   20.5965   16.5667   20.8781 H   0  0  0  0  0  0  0  0  0  0  0  0
   20.8329   18.0177   22.4859 C   0  0  0  0  0  0  0  0  0  0  0  0
   20.6241   17.2905   23.2817 H   0  0  0  0  0  0  0  0  0  0  0  0
   21.6125   18.6892   22.8696 H   0  0  0  0  0  0  0  0  0  0  0  0
   19.5538   18.8250   22.1905 C   0  0  0  0  0  0  0  0  0  0  0  0
   18.7773   18.1562   21.8108 H   0  0  0  0  0  0  0  0  0  0  0  0
   19.7618   19.5785   21.4271 H   0  0  0  0  0  0  0  0  0  0  0  0
   18.9989   19.5398   23.4068 N   0  3  0  0  0  0  0  0  0  0  0  0
   19.7087   20.1760   23.8012 H   0  0  0  0  0  0  0  0  0  0  0  0
   18.7937   18.8615   24.1564 H   0  0  0  0  0  0  0  0  0  0  0  0
   17.7423   20.3119   23.0273 C   0  0  0  0  0  0  0  0  0  0  0  0
   16.9934   19.6150   22.6450 H   0  0  0  0  0  0  0  0  0  0  0  0
   17.3535   20.8214   23.9117 H   0  0  0  0  0  0  0  0  0  0  0  0
   17.9900   21.0469   22.2583 H   0  0  0  0  0  0  0  0  0  0  0  0
  1  2  1  0  0  0  0
  1  3  1  0  0  0  0
  1  4  1  0  0  0  0
  1  5  1  0  0  0  0
  5  6  1  0  0  0  0
  5  7  1  0  0  0  0
  5  8  1  0  0  0  0
  8  9  1  0  0  0  0
  8 10  1  0  0  0  0
  8 11  1  0  0  0  0
 11 12  1  0  0  0  0
 11 13  1  0  0  0  0
 11 14  1  0  0  0  0
 14 15  1  0  0  0  0
 14 16  1  0  0  0  0
 14 17  1  0  0  0  0
 17 18  1  0  0  0  0
 17 19  1  0  0  0  0
 17 20  1  0  0  0  0
M  END
> <VConfSearch Rank>
460

> <Conf_Id>
34

> <Delta U+W>
0.276

> <U+W>
15.615

> <U>
69.798

> <W>
-54.184

> <W(PB)>
-56.116

> <W(SA)>
1.933

> <Valence>
1.134

> <Coulomb>
68.735

> <VdW>
-0.070

> <VdW6>
-3.565

> <VdW12>
3.494

> <Bond>
0.108

> <Angle>
0.456

> <Pdih>
0.569

> <Idih>
0.000

> <Tether>
0.000

$$$$
VeraChem MOL file


 20 19  0  0  0  0  0  0  0  0999 V2000     
   19.5978   21.6613   21.0934 C   0  0  0  0  0  0  0  0  0  0  0  0
   18.9701   21.6579   20.1928 H   0  0  0  0  0  0  0  0  0  0  0  0
   19.2570   22.4826   21.7371 H   0  0  0  0  0  0  0  0  0  0  0  0
   20.6300   21.8788   20.7893 H   0  0  0  0  0  0  0  0  0  0  0  0
   19.5102   20.3117   21.8383 C   0  0  0  0  0  0  0  0  0  0  0  0
   18.4725   20.1383   22.1567 H   0  0  0  0  0  0  0  0  0  0  0  0
   20.1172   20.3664   22.7521 H   0  0  0  0  0  0  0  0  0  0  0  0
   19.9860   19.1367   20.9517 C   0  0  0  0  0  0  0  0  0  0  0  0
   19.3963   19.1192   20.0255 H   0  0  0  0  0  0  0  0  0  0  0  0
   21.0316   19.2893   20.6528 H   0  0  0  0  0  0  0  0  0  0  0  0
   19.8428   17.7673   21.6459 C   0  0  0  0  0  0  0  0  0  0  0  0
   20.1086   16.9755   20.9410 H   0  0  0  0  0  0  0  0  0  0  0  0
   18.8041   17.6167   21.9504 H   0  0  0  0  0  0  0  0  0  0  0  0
   20.7200   17.6006   22.8726 N   0  3  0  0  0  0  0  0  0  0  0  0
   20.5008   18.3292   23.5680 H   0  0  0  0  0  0  0  0  0  0  0  0
   21.7103   17.7469   22.6239 H   0  0  0  0  0  0  0  0  0  0  0  0
   20.5185   16.2150   23.4711 C   0  0  0  0  0  0  0  0  0  0  0  0
   19.4712   16.0952   23.7568 H   0  0  0  0  0  0  0  0  0  0  0  0
   20.7878   15.4600   22.7293 H   0  0  0  0  0  0  0  0  0  0  0  0
   21.1550   16.1087   24.3523 H   0  0  0  0  0  0  0  0  0  0  0  0
  1  2  1  0  0  0  0
  1  3  1  0  0  0  0
  1  4  1  0  0  0  0
  1  5  1  0  0  0  0
  5  6  1  0  0  0  0
  5  7  1  0  0  0  0
  5  8  1  0  0  0  0
  8  9  1  0  0  0  0
  8 10  1  0  0  0  0
  8 11  1  0  0  0  0
 11 12  1  0  0  0  0
 11 13  1  0  0  0  0
 11 14  1  0  0  0  0
 14 15  1  0  0  0  0
 14 16  1  0  0  0  0
 14 17  1  0  0  0  0
 17 18  1  0  0  0  0
 17 19  1  0  0  0  0
 17 20  1  0  0  0  0
M  END
> <VConfSearch Rank>
461

> <Conf_Id>
50

> <Delta U+W>
0.319

> <U+W>
15.657

> <U>
69.962

> <W>
-54.305

> <W(PB)>
-56.223

> <W(SA)>
1.918

> <Valence>
0.982

> <Coulomb>
69.058

> <VdW>
-0.078

> <VdW6>
-3.548

> <VdW12>
3.471

> <Bond>
0.105

> <Angle>
0.408

> <Pdih>
0.469

> <Idih>
0.000

> <Tether>
0.000

$$$$
VeraChem MOL file


 20 19  0  0  0  0  0  0  0  0999 V2000     
   20.2669   16.9492   24.3748 C   0  0  0  0  0  0  0  0  0  0  0  0
   19.6856   17.0388   25.3017 H   0  0  0  0  0  0  0  0  0  0  0  0
   20.1692   15.9164   24.0157 H   0  0  0  0  0  0  0  0  0  0  0  0
   21.3218   17.1268   24.6211 H   0  0  0  0  0  0  0  0  0  0  0  0
   19.7657   17.9562   23.3170 C   0  0  0  0  0  0  0  0  0  0  0  0
   19.8409   18.9729   23.7258 H   0  0  0  0  0  0  0  0  0  0  0  0
   18.7006   17.7731   23.1159 H   0  0  0  0  0  0  0  0  0  0  0  0
   20.5700   17.8504   21.9998 C   0  0  0  0  0  0  0  0  0  0  0  0
   21.6313   18.0600   22.1884 H   0  0  0  0  0  0  0  0  0  0  0  0
   20.5175   16.8197   21.6246 H   0  0  0  0  0  0  0  0  0  0  0  0
   20.0450   18.7959   20.9007 C   0  0  0  0  0  0  0  0  0  0  0  0
   18.9869   18.5934   20.7166 H   0  0  0  0  0  0  0  0  0  0  0  0
   20.5929   18.6110   19.9732 H   0  0  0  0  0  0  0  0  0  0  0  0
   20.1898   20.2696   21.2311 N   0  3  0  0  0  0  0  0  0  0  0  0
   21.1781   20.4957   21.4216 H   0  0  0  0  0  0  0  0  0  0  0  0
   19.6846   20.4899   22.1021 H   0  0  0  0  0  0  0  0  0  0  0  0
   19.6609   21.1146   20.0800 C   0  0  0  0  0  0  0  0  0  0  0  0
   19.7709   22.1719   20.3308 H   0  0  0  0  0  0  0  0  0  0  0  0
   20.2316   20.8894   19.1765 H   0  0  0  0  0  0  0  0  0  0  0  0
   18.6060   20.8825   19.9182 H   0  0  0  0  0  0  0  0  0  0  0  0
  1  2  1  0  0  0  0
  1  3  1  0  0  0  0
  1  4  1  0  0  0  0
  1  5  1  0  0  0  0
  5  6  1  0  0  0  0
  5  7  1  0  0  0  0
  5  8  1  0  0  0  0
  8  9  1  0  0  0  0
  8 10  1  0  0  0  0
  8 11  1  0  0  0  0
 11 12  1  0  0  0  0
 11 13  1  0  0  0  0
 11 14  1  0  0  0  0
 14 15  1  0  0  0  0
 14 16  1  0  0  0  0
 14 17  1  0  0  0  0
 17 18  1  0  0  0  0
 17 19  1  0  0  0  0
 17 20  1  0  0  0  0
M  END
> <VConfSearch Rank>
462

> <Conf_Id>
35

> <Delta U+W>
0.360

> <U+W>
15.698

> <U>
69.962

> <W>
-54.264

> <W(PB)>
-56.166

> <W(SA)>
1.902

> <Valence>
0.982

> <Coulomb>
69.058

> <VdW>
-0.078

> <VdW6>
-3.548

> <VdW12>
3.471

> <Bond>
0.105

> <Angle>
0.408

> <Pdih>
0.469

> <Idih>
0.000

> <Tether>
0.000

$$$$
VeraChem MOL file


 20 19  0  0  0  0  0  0  0  0999 V2000     
   18.5207   20.4496   23.1785 C   0  0  0  0  0  0  0  0  0  0  0  0
   19.4914   20.5755   23.6743 H   0  0  0  0  0  0  0  0  0  0  0  0
   17.9306   21.3548   23.3720 H   0  0  0  0  0  0  0  0  0  0  0  0
   18.0019   19.6049   23.6502 H   0  0  0  0  0  0  0  0  0  0  0  0
   18.6840   20.2235   21.6579 C   0  0  0  0  0  0  0  0  0  0  0  0
   19.2097   21.0794   21.2117 H   0  0  0  0  0  0  0  0  0  0  0  0
   17.6895   20.1945   21.1908 H   0  0  0  0  0  0  0  0  0  0  0  0
   19.4365   18.9154   21.3195 C   0  0  0  0  0  0  0  0  0  0  0  0
   18.8868   18.0613   21.7357 H   0  0  0  0  0  0  0  0  0  0  0  0
   19.4482   18.7812   20.2299 H   0  0  0  0  0  0  0  0  0  0  0  0
   20.8884   18.9143   21.8443 C   0  0  0  0  0  0  0  0  0  0  0  0
   20.8899   18.9798   22.9349 H   0  0  0  0  0  0  0  0  0  0  0  0
   21.4077   19.7923   21.4517 H   0  0  0  0  0  0  0  0  0  0  0  0
   21.7025   17.6928   21.4498 N   0  3  0  0  0  0  0  0  0  0  0  0
   22.6936   17.8445   21.6945 H   0  0  0  0  0  0  0  0  0  0  0  0
   21.6985   17.5762   20.4251 H   0  0  0  0  0  0  0  0  0  0  0  0
   21.1853   16.4359   22.1413 C   0  0  0  0  0  0  0  0  0  0  0  0
   20.1575   16.2454   21.8262 H   0  0  0  0  0  0  0  0  0  0  0  0
   21.8164   15.5891   21.8628 H   0  0  0  0  0  0  0  0  0  0  0  0
   21.2203   16.5805   23.2232 H   0  0  0  0  0  0  0  0  0  0  0  0
  1  2  1  0  0  0  0
  1  3  1  0  0  0  0
  1  4  1  0  0  0  0
  1  5  1  0  0  0  0
  5  6  1  0  0  0  0
  5  7  1  0  0  0  0
  5  8  1  0  0  0  0
  8  9  1  0  0  0  0
  8 10  1  0  0  0  0
  8 11  1  0  0  0  0
 11 12  1  0  0  0  0
 11 13  1  0  0  0  0
 11 14  1  0  0  0  0
 14 15  1  0  0  0  0
 14 16  1  0  0  0  0
 14 17  1  0  0  0  0
 17 18  1  0  0  0  0
 17 19  1  0  0  0  0
 17 20  1  0  0  0  0
M  END
> <VConfSearch Rank>
463

> <Conf_Id>
33

> <Delta U+W>
0.372

> <U+W>
15.711

> <U>
70.163

> <W>
-54.452

> <W(PB)>
-56.363

> <W(SA)>
1.911

> <Valence>
1.420

> <Coulomb>
68.566

> <VdW>
0.177

> <VdW6>
-4.267

> <VdW12>
4.445

> <Bond>
0.146

> <Angle>
0.581

> <Pdih>
0.693

> <Idih>
0.000

> <Tether>
0.000

$$$$
VeraChem MOL file


 20 19  0  0  0  0  0  0  0  0999 V2000     
   20.5245   17.8938   19.6400 C   0  0  0  0  0  0  0  0  0  0  0  0
   20.5841   17.1972   18.7938 H   0  0  0  0  0  0  0  0  0  0  0  0
   19.5728   18.4336   19.5575 H   0  0  0  0  0  0  0  0  0  0  0  0
   21.3408   18.6200   19.5338 H   0  0  0  0  0  0  0  0  0  0  0  0
   20.6304   17.1297   20.9799 C   0  0  0  0  0  0  0  0  0  0  0  0
   21.5534   16.5330   20.9805 H   0  0  0  0  0  0  0  0  0  0  0  0
   19.8002   16.4141   21.0634 H   0  0  0  0  0  0  0  0  0  0  0  0
   20.6368   18.0667   22.2102 C   0  0  0  0  0  0  0  0  0  0  0  0
   20.7910   17.4660   23.1163 H   0  0  0  0  0  0  0  0  0  0  0  0
   21.4896   18.7540   22.1397 H   0  0  0  0  0  0  0  0  0  0  0  0
   19.3245   18.8673   22.3522 C   0  0  0  0  0  0  0  0  0  0  0  0
   18.4845   18.1686   22.3811 H   0  0  0  0  0  0  0  0  0  0  0  0
   19.1918   19.5206   21.4866 H   0  0  0  0  0  0  0  0  0  0  0  0
   19.2408   19.7278   23.6024 N   0  3  0  0  0  0  0  0  0  0  0  0
   19.3945   19.1517   24.4439 H   0  0  0  0  0  0  0  0  0  0  0  0
   18.2818   20.0952   23.7053 H   0  0  0  0  0  0  0  0  0  0  0  0
   20.2343   20.8834   23.5467 C   0  0  0  0  0  0  0  0  0  0  0  0
   20.1185   21.4980   24.4421 H   0  0  0  0  0  0  0  0  0  0  0  0
   21.2504   20.4863   23.5042 H   0  0  0  0  0  0  0  0  0  0  0  0
   20.0348   21.4864   22.6583 H   0  0  0  0  0  0  0  0  0  0  0  0
  1  2  1  0  0  0  0
  1  3  1  0  0  0  0
  1  4  1  0  0  0  0
  1  5  1  0  0  0  0
  5  6  1  0  0  0  0
  5  7  1  0  0  0  0
  5  8  1  0  0  0  0
  8  9  1  0  0  0  0
  8 10  1  0  0  0  0
  8 11  1  0  0  0  0
 11 12  1  0  0  0  0
 11 13  1  0  0  0  0
 11 14  1  0  0  0  0
 14 15  1  0  0  0  0
 14 16  1  0  0  0  0
 14 17  1  0  0  0  0
 17 18  1  0  0  0  0
 17 19  1  0  0  0  0
 17 20  1  0  0  0  0
M  END
> <VConfSearch Rank>
464

> <Conf_Id>
53

> <Delta U+W>
0.379

> <U+W>
15.717

> <U>
70.163

> <W>
-54.446

> <W(PB)>
-56.322

> <W(SA)>
1.876

> <Valence>
1.420

> <Coulomb>
68.566

> <VdW>
0.177

> <VdW6>
-4.267

> <VdW12>
4.445

> <Bond>
0.146

> <Angle>
0.581

> <Pdih>
0.693

> <Idih>
0.000

> <Tether>
0.000

$$$$
VeraChem MOL file


 20 19  0  0  0  0  0  0  0  0999 V2000     
   17.9562   17.6266   23.2746 C   0  0  0  0  0  0  0  0  0  0  0  0
   17.1270   17.0685   22.8208 H   0  0  0  0  0  0  0  0  0  0  0  0
   18.2726   17.0848   24.1754 H   0  0  0  0  0  0  0  0  0  0  0  0
   17.5720   18.6076   23.5833 H   0  0  0  0  0  0  0  0  0  0  0  0
   19.1242   17.7763   22.2759 C   0  0  0  0  0  0  0  0  0  0  0  0
   18.7613   18.2873   21.3738 H   0  0  0  0  0  0  0  0  0  0  0  0
   19.4653   16.7798   21.9618 H   0  0  0  0  0  0  0  0  0  0  0  0
   20.3062   18.5620   22.8910 C   0  0  0  0  0  0  0  0  0  0  0  0
   19.9777   19.5681   23.1817 H   0  0  0  0  0  0  0  0  0  0  0  0
   20.6304   18.0652   23.8150 H   0  0  0  0  0  0  0  0  0  0  0  0
   21.5209   18.6604   21.9415 C   0  0  0  0  0  0  0  0  0  0  0  0
   21.8710   17.6518   21.7078 H   0  0  0  0  0  0  0  0  0  0  0  0
   22.3347   19.1888   22.4445 H   0  0  0  0  0  0  0  0  0  0  0  0
   21.2602   19.3686   20.6204 N   0  3  0  0  0  0  0  0  0  0  0  0
   20.4942   18.9028   20.1121 H   0  0  0  0  0  0  0  0  0  0  0  0
   22.0845   19.2692   20.0073 H   0  0  0  0  0  0  0  0  0  0  0  0
   20.9489   20.8457   20.8349 C   0  0  0  0  0  0  0  0  0  0  0  0
   21.7843   21.3170   21.3571 H   0  0  0  0  0  0  0  0  0  0  0  0
   20.8038   21.3255   19.8645 H   0  0  0  0  0  0  0  0  0  0  0  0
   20.0387   20.9410   21.4303 H   0  0  0  0  0  0  0  0  0  0  0  0
  1  2  1  0  0  0  0
  1  3  1  0  0  0  0
  1  4  1  0  0  0  0
  1  5  1  0  0  0  0
  5  6  1  0  0  0  0
  5  7  1  0  0  0  0
  5  8  1  0  0  0  0
  8  9  1  0  0  0  0
  8 10  1  0  0  0  0
  8 11  1  0  0  0  0
 11 12  1  0  0  0  0
 11 13  1  0  0  0  0
 11 14  1  0  0  0  0
 14 15  1  0  0  0  0
 14 16  1  0  0  0  0
 14 17  1  0  0  0  0
 17 18  1  0  0  0  0
 17 19  1  0  0  0  0
 17 20  1  0  0  0  0
M  END
> <VConfSearch Rank>
465

> <Conf_Id>
49

> <Delta U+W>
0.268

> <U+W>
15.607

> <U>
70.298

> <W>
-54.692

> <W(PB)>
-56.576

> <W(SA)>
1.885

> <Valence>
1.245

> <Coulomb>
68.933

> <VdW>
0.120

> <VdW6>
-4.430

> <VdW12>
4.550

> <Bond>
0.148

> <Angle>
0.587

> <Pdih>
0.509

> <Idih>
0.000

> <Tether>
0.000

$$$$
VeraChem MOL file


 20 19  0  0  0  0  0  0  0  0999 V2000     
   19.3595   20.6599   23.8639 C   0  0  0  0  0  0  0  0  0  0  0  0
   20.1037   21.4431   23.6690 H   0  0  0  0  0  0  0  0  0  0  0  0
   18.3651   21.0727   23.6497 H   0  0  0  0  0  0  0  0  0  0  0  0
   19.3989   20.4175   24.9338 H   0  0  0  0  0  0  0  0  0  0  0  0
   19.6373   19.4041   23.0095 C   0  0  0  0  0  0  0  0  0  0  0  0
   18.8945   18.6294   23.2465 H   0  0  0  0  0  0  0  0  0  0  0  0
   20.6215   19.0010   23.2820 H   0  0  0  0  0  0  0  0  0  0  0  0
   19.5984   19.7209   21.4963 C   0  0  0  0  0  0  0  0  0  0  0  0
   18.6542   20.2295   21.2608 H   0  0  0  0  0  0  0  0  0  0  0  0
   20.3998   20.4279   21.2442 H   0  0  0  0  0  0  0  0  0  0  0  0
   19.7073   18.4759   20.5868 C   0  0  0  0  0  0  0  0  0  0  0  0
   19.6040   18.8063   19.5501 H   0  0  0  0  0  0  0  0  0  0  0  0
   18.8907   17.7803   20.7953 H   0  0  0  0  0  0  0  0  0  0  0  0
   21.0191   17.7110   20.6733 N   0  3  0  0  0  0  0  0  0  0  0  0
   21.7994   18.3557   20.8689 H   0  0  0  0  0  0  0  0  0  0  0  0
   21.2377   17.3050   19.7501 H   0  0  0  0  0  0  0  0  0  0  0  0
   20.9453   16.5927   21.7081 C   0  0  0  0  0  0  0  0  0  0  0  0
   21.8963   16.0558   21.7217 H   0  0  0  0  0  0  0  0  0  0  0  0
   20.7494   17.0144   22.6946 H   0  0  0  0  0  0  0  0  0  0  0  0
   20.1411   15.9059   21.4357 H   0  0  0  0  0  0  0  0  0  0  0  0
  1  2  1  0  0  0  0
  1  3  1  0  0  0  0
  1  4  1  0  0  0  0
  1  5  1  0  0  0  0
  5  6  1  0  0  0  0
  5  7  1  0  0  0  0
  5  8  1  0  0  0  0
  8  9  1  0  0  0  0
  8 10  1  0  0  0  0
  8 11  1  0  0  0  0
 11 12  1  0  0  0  0
 11 13  1  0  0  0  0
 11 14  1  0  0  0  0
 14 15  1  0  0  0  0
 14 16  1  0  0  0  0
 14 17  1  0  0  0  0
 17 18  1  0  0  0  0
 17 19  1  0  0  0  0
 17 20  1  0  0  0  0
M  END
> <VConfSearch Rank>
466

> <Conf_Id>
65

> <Delta U+W>
1.775

> <U+W>
17.114

> <U>
71.726

> <W>
-54.613

> <W(PB)>
-56.495

> <W(SA)>
1.883

> <Valence>
2.885

> <Coulomb>
68.822

> <VdW>
0.019

> <VdW6>
-4.600

> <VdW12>
4.619

> <Bond>
0.152

> <Angle>
0.862

> <Pdih>
1.871

> <Idih>
0.000

> <Tether>
0.000

$$$$
VeraChem MOL file


 20 19  0  0  0  0  0  0  0  0999 V2000     
   20.8590   19.0500   24.2561 C   0  0  0  0  0  0  0  0  0  0  0  0
   21.5657   18.6146   23.5384 H   0  0  0  0  0  0  0  0  0  0  0  0
   21.4168   19.7604   24.8799 H   0  0  0  0  0  0  0  0  0  0  0  0
   20.4949   18.2461   24.9090 H   0  0  0  0  0  0  0  0  0  0  0  0
   19.6861   19.7602   23.5419 C   0  0  0  0  0  0  0  0  0  0  0  0
   20.0756   20.5593   22.8965 H   0  0  0  0  0  0  0  0  0  0  0  0
   19.0588   20.2582   24.2945 H   0  0  0  0  0  0  0  0  0  0  0  0
   18.8014   18.7920   22.7174 C   0  0  0  0  0  0  0  0  0  0  0  0
   18.3379   18.0619   23.3941 H   0  0  0  0  0  0  0  0  0  0  0  0
   17.9750   19.3524   22.2605 H   0  0  0  0  0  0  0  0  0  0  0  0
   19.5654   18.0271   21.6163 C   0  0  0  0  0  0  0  0  0  0  0  0
   18.8795   17.3465   21.1055 H   0  0  0  0  0  0  0  0  0  0  0  0
   20.3612   17.4298   22.0677 H   0  0  0  0  0  0  0  0  0  0  0  0
   20.1919   18.9231   20.5650 N   0  3  0  0  0  0  0  0  0  0  0  0
   20.8426   19.5870   21.0103 H   0  0  0  0  0  0  0  0  0  0  0  0
   19.4680   19.5050   20.1166 H   0  0  0  0  0  0  0  0  0  0  0  0
   20.9182   18.0781   19.5272 C   0  0  0  0  0  0  0  0  0  0  0  0
   20.2041   17.4054   19.0474 H   0  0  0  0  0  0  0  0  0  0  0  0
   21.3650   18.7356   18.7781 H   0  0  0  0  0  0  0  0  0  0  0  0
   21.7002   17.4964   20.0199 H   0  0  0  0  0  0  0  0  0  0  0  0
  1  2  1  0  0  0  0
  1  3  1  0  0  0  0
  1  4  1  0  0  0  0
  1  5  1  0  0  0  0
  5  6  1  0  0  0  0
  5  7  1  0  0  0  0
  5  8  1  0  0  0  0
  8  9  1  0  0  0  0
  8 10  1  0  0  0  0
  8 11  1  0  0  0  0
 11 12  1  0  0  0  0
 11 13  1  0  0  0  0
 11 14  1  0  0  0  0
 14 15  1  0  0  0  0
 14 16  1  0  0  0  0
 14 17  1  0  0  0  0
 17 18  1  0  0  0  0
 17 19  1  0  0  0  0
 17 20  1  0  0  0  0
M  END
> <VConfSearch Rank>
467

> <Conf_Id>
23

> <Delta U+W>
0.896

> <U+W>
16.234

> <U>
70.374

> <W>
-54.140

> <W(PB)>
-56.046

> <W(SA)>
1.907

> <Valence>
1.257

> <Coulomb>
69.240

> <VdW>
-0.123

> <VdW6>
-4.336

> <VdW12>
4.213

> <Bond>
0.128

> <Angle>
0.603

> <Pdih>
0.526

> <Idih>
0.000

> <Tether>
0.000

$$$$
VeraChem MOL file


 20 19  0  0  0  0  0  0  0  0999 V2000     
   22.1458   19.9955   22.2688 C   0  0  0  0  0  0  0  0  0  0  0  0
   22.6598   19.7216   23.1993 H   0  0  0  0  0  0  0  0  0  0  0  0
   22.7847   20.7082   21.7313 H   0  0  0  0  0  0  0  0  0  0  0  0
   21.2170   20.5172   22.5314 H   0  0  0  0  0  0  0  0  0  0  0  0
   21.8722   18.7483   21.3971 C   0  0  0  0  0  0  0  0  0  0  0  0
   22.8321   18.3149   21.0827 H   0  0  0  0  0  0  0  0  0  0  0  0
   21.3590   19.0481   20.4733 H   0  0  0  0  0  0  0  0  0  0  0  0
   21.0520   17.6602   22.1342 C   0  0  0  0  0  0  0  0  0  0  0  0
   20.9170   16.7943   21.4726 H   0  0  0  0  0  0  0  0  0  0  0  0
   21.6262   17.2984   22.9974 H   0  0  0  0  0  0  0  0  0  0  0  0
   19.6715   18.1416   22.6279 C   0  0  0  0  0  0  0  0  0  0  0  0
   19.7994   18.9742   23.3237 H   0  0  0  0  0  0  0  0  0  0  0  0
   19.1737   17.3279   23.1614 H   0  0  0  0  0  0  0  0  0  0  0  0
   18.7447   18.5980   21.5173 N   0  3  0  0  0  0  0  0  0  0  0  0
   18.6012   17.8353   20.8380 H   0  0  0  0  0  0  0  0  0  0  0  0
   19.1838   19.3631   20.9841 H   0  0  0  0  0  0  0  0  0  0  0  0
   17.4141   19.0505   22.1032 C   0  0  0  0  0  0  0  0  0  0  0  0
   17.5878   19.8789   22.7933 H   0  0  0  0  0  0  0  0  0  0  0  0
   16.7580   19.3771   21.2934 H   0  0  0  0  0  0  0  0  0  0  0  0
   16.9534   18.2159   22.6362 H   0  0  0  0  0  0  0  0  0  0  0  0
  1  2  1  0  0  0  0
  1  3  1  0  0  0  0
  1  4  1  0  0  0  0
  1  5  1  0  0  0  0
  5  6  1  0  0  0  0
  5  7  1  0  0  0  0
  5  8  1  0  0  0  0
  8  9  1  0  0  0  0
  8 10  1  0  0  0  0
  8 11  1  0  0  0  0
 11 12  1  0  0  0  0
 11 13  1  0  0  0  0
 11 14  1  0  0  0  0
 14 15  1  0  0  0  0
 14 16  1  0  0  0  0
 14 17  1  0  0  0  0
 17 18  1  0  0  0  0
 17 19  1  0  0  0  0
 17 20  1  0  0  0  0
M  END
> <VConfSearch Rank>
468

> <Conf_Id>
24

> <Delta U+W>
0.792

> <U+W>
16.130

> <U>
70.374

> <W>
-54.243

> <W(PB)>
-56.130

> <W(SA)>
1.887

> <Valence>
1.257

> <Coulomb>
69.240

> <VdW>
-0.123

> <VdW6>
-4.336

> <VdW12>
4.213

> <Bond>
0.128

> <Angle>
0.603

> <Pdih>
0.526

> <Idih>
0.000

> <Tether>
0.000

$$$$
VeraChem MOL file


 20 19  0  0  0  0  0  0  0  0999 V2000     
   18.1766   19.7684   22.7853 C   0  0  0  0  0  0  0  0  0  0  0  0
   17.2616   20.3726   22.8394 H   0  0  0  0  0  0  0  0  0  0  0  0
   18.0102   19.0020   22.0192 H   0  0  0  0  0  0  0  0  0  0  0  0
   18.3077   19.2769   23.7581 H   0  0  0  0  0  0  0  0  0  0  0  0
   19.3887   20.6634   22.4397 C   0  0  0  0  0  0  0  0  0  0  0  0
   19.3844   21.5338   23.1107 H   0  0  0  0  0  0  0  0  0  0  0  0
   19.2694   21.0636   21.4229 H   0  0  0  0  0  0  0  0  0  0  0  0
   20.7635   19.9582   22.5635 C   0  0  0  0  0  0  0  0  0  0  0  0
   21.5448   20.7035   22.3638 H   0  0  0  0  0  0  0  0  0  0  0  0
   20.9276   19.6191   23.5950 H   0  0  0  0  0  0  0  0  0  0  0  0
   20.9698   18.7846   21.5825 C   0  0  0  0  0  0  0  0  0  0  0  0
   22.0406   18.5974   21.4696 H   0  0  0  0  0  0  0  0  0  0  0  0
   20.5665   19.0480   20.6016 H   0  0  0  0  0  0  0  0  0  0  0  0
   20.3378   17.4792   22.0270 N   0  3  0  0  0  0  0  0  0  0  0  0
   19.3317   17.6155   22.1996 H   0  0  0  0  0  0  0  0  0  0  0  0
   20.7340   17.1838   22.9325 H   0  0  0  0  0  0  0  0  0  0  0  0
   20.5607   16.4058   20.9703 C   0  0  0  0  0  0  0  0  0  0  0  0
   20.1052   16.7257   20.0307 H   0  0  0  0  0  0  0  0  0  0  0  0
   21.6335   16.2575   20.8291 H   0  0  0  0  0  0  0  0  0  0  0  0
   20.1010   15.4728   21.3037 H   0  0  0  0  0  0  0  0  0  0  0  0
  1  2  1  0  0  0  0
  1  3  1  0  0  0  0
  1  4  1  0  0  0  0
  1  5  1  0  0  0  0
  5  6  1  0  0  0  0
  5  7  1  0  0  0  0
  5  8  1  0  0  0  0
  8  9  1  0  0  0  0
  8 10  1  0  0  0  0
  8 11  1  0  0  0  0
 11 12  1  0  0  0  0
 11 13  1  0  0  0  0
 11 14  1  0  0  0  0
 14 15  1  0  0  0  0
 14 16  1  0  0  0  0
 14 17  1  0  0  0  0
 17 18  1  0  0  0  0
 17 19  1  0  0  0  0
 17 20  1  0  0  0  0
M  END
> <VConfSearch Rank>
469

> <Conf_Id>
26

> <Delta U+W>
2.888

> <U+W>
18.226

> <U>
72.042

> <W>
-53.816

> <W(PB)>
-55.689

> <W(SA)>
1.873

> <Valence>
2.428

> <Coulomb>
69.829

> <VdW>
-0.215

> <VdW6>
-4.563

> <VdW12>
4.348

> <Bond>
0.137

> <Angle>
0.936

> <Pdih>
1.356

> <Idih>
0.000

> <Tether>
0.000

$$$$
VeraChem MOL file


 20 19  0  0  0  0  0  0  0  0999 V2000     
   19.8060   20.2753   20.3829 C   0  0  0  0  0  0  0  0  0  0  0  0
   19.6191   20.6796   19.3795 H   0  0  0  0  0  0  0  0  0  0  0  0
   20.0561   21.1188   21.0393 H   0  0  0  0  0  0  0  0  0  0  0  0
   20.6774   19.6145   20.3051 H   0  0  0  0  0  0  0  0  0  0  0  0
   18.5606   19.5153   20.8937 C   0  0  0  0  0  0  0  0  0  0  0  0
   18.3948   18.6250   20.2709 H   0  0  0  0  0  0  0  0  0  0  0  0
   17.6774   20.1539   20.7513 H   0  0  0  0  0  0  0  0  0  0  0  0
   18.6284   19.1015   22.3860 C   0  0  0  0  0  0  0  0  0  0  0  0
   18.7187   19.9897   23.0252 H   0  0  0  0  0  0  0  0  0  0  0  0
   17.6699   18.6359   22.6514 H   0  0  0  0  0  0  0  0  0  0  0  0
   19.7498   18.0946   22.7190 C   0  0  0  0  0  0  0  0  0  0  0  0
   19.8165   17.3417   21.9297 H   0  0  0  0  0  0  0  0  0  0  0  0
   19.5057   17.5845   23.6543 H   0  0  0  0  0  0  0  0  0  0  0  0
   21.1190   18.7213   22.9022 N   0  3  0  0  0  0  0  0  0  0  0  0
   21.0951   19.4064   23.6729 H   0  0  0  0  0  0  0  0  0  0  0  0
   21.3745   19.2614   22.0633 H   0  0  0  0  0  0  0  0  0  0  0  0
   22.1542   17.6398   23.1802 C   0  0  0  0  0  0  0  0  0  0  0  0
   22.1848   16.9457   22.3375 H   0  0  0  0  0  0  0  0  0  0  0  0
   23.1338   18.1052   23.3098 H   0  0  0  0  0  0  0  0  0  0  0  0
   21.8783   17.1035   24.0907 H   0  0  0  0  0  0  0  0  0  0  0  0
  1  2  1  0  0  0  0
  1  3  1  0  0  0  0
  1  4  1  0  0  0  0
  1  5  1  0  0  0  0
  5  6  1  0  0  0  0
  5  7  1  0  0  0  0
  5  8  1  0  0  0  0
  8  9  1  0  0  0  0
  8 10  1  0  0  0  0
  8 11  1  0  0  0  0
 11 12  1  0  0  0  0
 11 13  1  0  0  0  0
 11 14  1  0  0  0  0
 14 15  1  0  0  0  0
 14 16  1  0  0  0  0
 14 17  1  0  0  0  0
 17 18  1  0  0  0  0
 17 19  1  0  0  0  0
 17 20  1  0  0  0  0
M  END
> <VConfSearch Rank>
470

> <Conf_Id>
5

> <Delta U+W>
2.950

> <U+W>
18.289

> <U>
72.042

> <W>
-53.753

> <W(PB)>
-55.644

> <W(SA)>
1.891

> <Valence>
2.428

> <Coulomb>
69.829

> <VdW>
-0.215

> <VdW6>
-4.563

> <VdW12>
4.348

> <Bond>
0.137

> <Angle>
0.936

> <Pdih>
1.356

> <Idih>
0.000

> <Tether>
0.000

$$$$
VeraChem MOL file


 20 19  0  0  0  0  0  0  0  0999 V2000     
   21.1164   20.2934   20.3323 C   0  0  0  0  0  0  0  0  0  0  0  0
   21.9993   19.8382   19.8652 H   0  0  0  0  0  0  0  0  0  0  0  0
   20.2219   19.8556   19.8719 H   0  0  0  0  0  0  0  0  0  0  0  0
   21.1238   21.3637   20.0886 H   0  0  0  0  0  0  0  0  0  0  0  0
   21.1293   20.0860   21.8643 C   0  0  0  0  0  0  0  0  0  0  0  0
   20.2398   20.5524   22.3092 H   0  0  0  0  0  0  0  0  0  0  0  0
   21.9934   20.6159   22.2891 H   0  0  0  0  0  0  0  0  0  0  0  0
   21.2082   18.5944   22.2744 C   0  0  0  0  0  0  0  0  0  0  0  0
   22.1490   18.1673   21.9028 H   0  0  0  0  0  0  0  0  0  0  0  0
   21.2547   18.5195   23.3685 H   0  0  0  0  0  0  0  0  0  0  0  0
   20.0364   17.7347   21.7479 C   0  0  0  0  0  0  0  0  0  0  0  0
   20.1632   16.7013   22.0804 H   0  0  0  0  0  0  0  0  0  0  0  0
   20.0555   17.7383   20.6554 H   0  0  0  0  0  0  0  0  0  0  0  0
   18.6519   18.1927   22.1802 N   0  3  0  0  0  0  0  0  0  0  0  0
   17.9344   17.6511   21.6733 H   0  0  0  0  0  0  0  0  0  0  0  0
   18.4993   19.1712   21.8953 H   0  0  0  0  0  0  0  0  0  0  0  0
   18.4594   18.0296   23.6839 C   0  0  0  0  0  0  0  0  0  0  0  0
   19.1831   18.6543   24.2111 H   0  0  0  0  0  0  0  0  0  0  0  0
   17.4461   18.3379   23.9505 H   0  0  0  0  0  0  0  0  0  0  0  0
   18.6083   16.9819   23.9537 H   0  0  0  0  0  0  0  0  0  0  0  0
  1  2  1  0  0  0  0
  1  3  1  0  0  0  0
  1  4  1  0  0  0  0
  1  5  1  0  0  0  0
  5  6  1  0  0  0  0
  5  7  1  0  0  0  0
  5  8  1  0  0  0  0
  8  9  1  0  0  0  0
  8 10  1  0  0  0  0
  8 11  1  0  0  0  0
 11 12  1  0  0  0  0
 11 13  1  0  0  0  0
 11 14  1  0  0  0  0
 14 15  1  0  0  0  0
 14 16  1  0  0  0  0
 14 17  1  0  0  0  0
 17 18  1  0  0  0  0
 17 19  1  0  0  0  0
 17 20  1  0  0  0  0
M  END
> <VConfSearch Rank>
471

> <Conf_Id>
52

> <Delta U+W>
0.784

> <U+W>
16.122

> <U>
70.777

> <W>
-54.655

> <W(PB)>
-56.491

> <W(SA)>
1.836

> <Valence>
1.529

> <Coulomb>
69.166

> <VdW>
0.082

> <VdW6>
-5.166

> <VdW12>
5.248

> <Bond>
0.171

> <Angle>
0.752

> <Pdih>
0.605

> <Idih>
0.000

> <Tether>
0.000

$$$$
VeraChem MOL file


 20 19  0  0  0  0  0  0  0  0999 V2000     
   19.0233   18.4783   23.8198 C   0  0  0  0  0  0  0  0  0  0  0  0
   18.6460   18.3071   24.8364 H   0  0  0  0  0  0  0  0  0  0  0  0
   18.6320   19.4482   23.4922 H   0  0  0  0  0  0  0  0  0  0  0  0
   18.6098   17.6922   23.1746 H   0  0  0  0  0  0  0  0  0  0  0  0
   20.5689   18.4564   23.8120 C   0  0  0  0  0  0  0  0  0  0  0  0
   20.9078   17.5665   24.3609 H   0  0  0  0  0  0  0  0  0  0  0  0
   20.9515   19.3217   24.3713 H   0  0  0  0  0  0  0  0  0  0  0  0
   21.2031   18.4255   22.3979 C   0  0  0  0  0  0  0  0  0  0  0  0
   22.2889   18.3166   22.5188 H   0  0  0  0  0  0  0  0  0  0  0  0
   20.8740   17.5314   21.8536 H   0  0  0  0  0  0  0  0  0  0  0  0
   20.9530   19.6964   21.5529 C   0  0  0  0  0  0  0  0  0  0  0  0
   21.6848   19.7391   20.7424 H   0  0  0  0  0  0  0  0  0  0  0  0
   21.1010   20.5777   22.1820 H   0  0  0  0  0  0  0  0  0  0  0  0
   19.5773   19.8049   20.9139 N   0  3  0  0  0  0  0  0  0  0  0  0
   19.4446   20.7574   20.5394 H   0  0  0  0  0  0  0  0  0  0  0  0
   18.8457   19.6910   21.6292 H   0  0  0  0  0  0  0  0  0  0  0  0
   19.4042   18.7816   19.7969 C   0  0  0  0  0  0  0  0  0  0  0  0
   20.1823   18.9345   19.0460 H   0  0  0  0  0  0  0  0  0  0  0  0
   19.4823   17.7747   20.2112 H   0  0  0  0  0  0  0  0  0  0  0  0
   18.4211   18.9140   19.3397 H   0  0  0  0  0  0  0  0  0  0  0  0
  1  2  1  0  0  0  0
  1  3  1  0  0  0  0
  1  4  1  0  0  0  0
  1  5  1  0  0  0  0
  5  6  1  0  0  0  0
  5  7  1  0  0  0  0
  5  8  1  0  0  0  0
  8  9  1  0  0  0  0
  8 10  1  0  0  0  0
  8 11  1  0  0  0  0
 11 12  1  0  0  0  0
 11 13  1  0  0  0  0
 11 14  1  0  0  0  0
 14 15  1  0  0  0  0
 14 16  1  0  0  0  0
 14 17  1  0  0  0  0
 17 18  1  0  0  0  0
 17 19  1  0  0  0  0
 17 20  1  0  0  0  0
M  END
> <VConfSearch Rank>
472

> <Conf_Id>
55

> <Delta U+W>
2.745

> <U+W>
18.083

> <U>
72.490

> <W>
-54.407

> <W(PB)>
-56.269

> <W(SA)>
1.861

> <Valence>
2.738

> <Coulomb>
69.795

> <VdW>
-0.043

> <VdW6>
-5.333

> <VdW12>
5.290

> <Bond>
0.182

> <Angle>
1.135

> <Pdih>
1.422

> <Idih>
0.000

> <Tether>
0.000

$$$$
VeraChem MOL file


 20 19  0  0  0  0  0  0  0  0999 V2000     
   19.6300   17.0131   23.0378 C   0  0  0  0  0  0  0  0  0  0  0  0
   19.5443   16.1461   23.7057 H   0  0  0  0  0  0  0  0  0  0  0  0
   18.7174   17.0556   22.4290 H   0  0  0  0  0  0  0  0  0  0  0  0
   20.4867   16.8271   22.3800 H   0  0  0  0  0  0  0  0  0  0  0  0
   19.8162   18.3073   23.8622 C   0  0  0  0  0  0  0  0  0  0  0  0
   20.7912   18.2831   24.3690 H   0  0  0  0  0  0  0  0  0  0  0  0
   19.0602   18.3244   24.6599 H   0  0  0  0  0  0  0  0  0  0  0  0
   19.6855   19.6156   23.0411 C   0  0  0  0  0  0  0  0  0  0  0  0
   18.6915   19.6772   22.5806 H   0  0  0  0  0  0  0  0  0  0  0  0
   19.7408   20.4591   23.7419 H   0  0  0  0  0  0  0  0  0  0  0  0
   20.7889   19.8201   21.9770 C   0  0  0  0  0  0  0  0  0  0  0  0
   21.7571   19.5617   22.4131 H   0  0  0  0  0  0  0  0  0  0  0  0
   20.8227   20.8747   21.6922 H   0  0  0  0  0  0  0  0  0  0  0  0
   20.6262   19.0197   20.6943 N   0  3  0  0  0  0  0  0  0  0  0  0
   20.5100   18.0206   20.9138 H   0  0  0  0  0  0  0  0  0  0  0  0
   21.4946   19.0762   20.1394 H   0  0  0  0  0  0  0  0  0  0  0  0
   19.4510   19.5312   19.8685 C   0  0  0  0  0  0  0  0  0  0  0  0
   18.5271   19.4093   20.4370 H   0  0  0  0  0  0  0  0  0  0  0  0
   19.6070   20.5871   19.6373 H   0  0  0  0  0  0  0  0  0  0  0  0
   19.3886   18.9573   18.9413 H   0  0  0  0  0  0  0  0  0  0  0  0
  1  2  1  0  0  0  0
  1  3  1  0  0  0  0
  1  4  1  0  0  0  0
  1  5  1  0  0  0  0
  5  6  1  0  0  0  0
  5  7  1  0  0  0  0
  5  8  1  0  0  0  0
  8  9  1  0  0  0  0
  8 10  1  0  0  0  0
  8 11  1  0  0  0  0
 11 12  1  0  0  0  0
 11 13  1  0  0  0  0
 11 14  1  0  0  0  0
 14 15  1  0  0  0  0
 14 16  1  0  0  0  0
 14 17  1  0  0  0  0
 17 18  1  0  0  0  0
 17 19  1  0  0  0  0
 17 20  1  0  0  0  0
M  END
> <VConfSearch Rank>
473

> <Conf_Id>
76

> <Delta U+W>
2.799

> <U+W>
18.137

> <U>
72.490

> <W>
-54.353

> <W(PB)>
-56.201

> <W(SA)>
1.848

> <Valence>
2.738

> <Coulomb>
69.795

> <VdW>
-0.043

> <VdW6>
-5.334

> <VdW12>
5.290

> <Bond>
0.182

> <Angle>
1.135

> <Pdih>
1.421

> <Idih>
0.000

> <Tether>
0.000

$$$$
VeraChem MOL file


 20 19  0  0  0  0  0  0  0  0999 V2000     
   18.0120   18.4663   21.4917 C   0  0  0  0  0  0  0  0  0  0  0  0
   18.5408   19.2300   20.9084 H   0  0  0  0  0  0  0  0  0  0  0  0
   17.7765   17.6287   20.8224 H   0  0  0  0  0  0  0  0  0  0  0  0
   17.0626   18.9035   21.8269 H   0  0  0  0  0  0  0  0  0  0  0  0
   18.8478   17.9907   22.7024 C   0  0  0  0  0  0  0  0  0  0  0  0
   18.2472   17.2833   23.2911 H   0  0  0  0  0  0  0  0  0  0  0  0
   19.0555   18.8346   23.3729 H   0  0  0  0  0  0  0  0  0  0  0  0
   20.1697   17.2964   22.2927 C   0  0  0  0  0  0  0  0  0  0  0  0
   20.6907   16.9465   23.1936 H   0  0  0  0  0  0  0  0  0  0  0  0
   19.9278   16.3939   21.7159 H   0  0  0  0  0  0  0  0  0  0  0  0
   21.1389   18.1606   21.4522 C   0  0  0  0  0  0  0  0  0  0  0  0
   20.6419   18.5303   20.5522 H   0  0  0  0  0  0  0  0  0  0  0  0
   21.9652   17.5204   21.1327 H   0  0  0  0  0  0  0  0  0  0  0  0
   21.7642   19.3426   22.1781 N   0  3  0  0  0  0  0  0  0  0  0  0
   22.7058   19.5170   21.7938 H   0  0  0  0  0  0  0  0  0  0  0  0
   21.9241   19.1110   23.1698 H   0  0  0  0  0  0  0  0  0  0  0  0
   20.9222   20.6053   22.0306 C   0  0  0  0  0  0  0  0  0  0  0  0
   21.4244   21.4305   22.5405 H   0  0  0  0  0  0  0  0  0  0  0  0
   20.8143   20.8416   20.9699 H   0  0  0  0  0  0  0  0  0  0  0  0
   19.9386   20.4468   22.4738 H   0  0  0  0  0  0  0  0  0  0  0  0
  1  2  1  0  0  0  0
  1  3  1  0  0  0  0
  1  4  1  0  0  0  0
  1  5  1  0  0  0  0
  5  6  1  0  0  0  0
  5  7  1  0  0  0  0
  5  8  1  0  0  0  0
  8  9  1  0  0  0  0
  8 10  1  0  0  0  0
  8 11  1  0  0  0  0
 11 12  1  0  0  0  0
 11 13  1  0  0  0  0
 11 14  1  0  0  0  0
 14 15  1  0  0  0  0
 14 16  1  0  0  0  0
 14 17  1  0  0  0  0
 17 18  1  0  0  0  0
 17 19  1  0  0  0  0
 17 20  1  0  0  0  0
M  END
> <VConfSearch Rank>
474

> <Conf_Id>
60

> <Delta U+W>
1.788

> <U+W>
17.127

> <U>
72.122

> <W>
-54.995

> <W(PB)>
-56.810

> <W(SA)>
1.815

> <Valence>
3.197

> <Coulomb>
69.115

> <VdW>
-0.190

> <VdW6>
-5.585

> <VdW12>
5.395

> <Bond>
0.177

> <Angle>
1.207

> <Pdih>
1.813

> <Idih>
0.000

> <Tether>
0.000

$$$$
VeraChem MOL file


 20 19  0  0  0  0  0  0  0  0999 V2000     
   18.2437   19.6026   21.4359 C   0  0  0  0  0  0  0  0  0  0  0  0
   17.9008   20.4992   20.9036 H   0  0  0  0  0  0  0  0  0  0  0  0
   17.3725   18.9538   21.5938 H   0  0  0  0  0  0  0  0  0  0  0  0
   18.6133   19.9215   22.4181 H   0  0  0  0  0  0  0  0  0  0  0  0
   19.3378   18.8737   20.6221 C   0  0  0  0  0  0  0  0  0  0  0  0
   20.1917   19.5424   20.4535 H   0  0  0  0  0  0  0  0  0  0  0  0
   18.9405   18.6406   19.6243 H   0  0  0  0  0  0  0  0  0  0  0  0
   19.8130   17.5579   21.2856 C   0  0  0  0  0  0  0  0  0  0  0  0
   18.9623   16.8658   21.3409 H   0  0  0  0  0  0  0  0  0  0  0  0
   20.5543   17.0715   20.6380 H   0  0  0  0  0  0  0  0  0  0  0  0
   20.4051   17.7089   22.7066 C   0  0  0  0  0  0  0  0  0  0  0  0
   20.5861   16.7057   23.1010 H   0  0  0  0  0  0  0  0  0  0  0  0
   19.6897   18.1996   23.3707 H   0  0  0  0  0  0  0  0  0  0  0  0
   21.7302   18.4517   22.7914 N   0  3  0  0  0  0  0  0  0  0  0  0
   22.3021   18.2624   21.9549 H   0  0  0  0  0  0  0  0  0  0  0  0
   22.2813   18.0735   23.5776 H   0  0  0  0  0  0  0  0  0  0  0  0
   21.5261   19.9486   22.9984 C   0  0  0  0  0  0  0  0  0  0  0  0
   20.9564   20.1085   23.9163 H   0  0  0  0  0  0  0  0  0  0  0  0
   22.5012   20.4333   23.0833 H   0  0  0  0  0  0  0  0  0  0  0  0
   20.9828   20.3675   22.1509 H   0  0  0  0  0  0  0  0  0  0  0  0
  1  2  1  0  0  0  0
  1  3  1  0  0  0  0
  1  4  1  0  0  0  0
  1  5  1  0  0  0  0
  5  6  1  0  0  0  0
  5  7  1  0  0  0  0
  5  8  1  0  0  0  0
  8  9  1  0  0  0  0
  8 10  1  0  0  0  0
  8 11  1  0  0  0  0
 11 12  1  0  0  0  0
 11 13  1  0  0  0  0
 11 14  1  0  0  0  0
 14 15  1  0  0  0  0
 14 16  1  0  0  0  0
 14 17  1  0  0  0  0
 17 18  1  0  0  0  0
 17 19  1  0  0  0  0
 17 20  1  0  0  0  0
M  END
> <VConfSearch Rank>
475

> <Conf_Id>
54

> <Delta U+W>
1.880

> <U+W>
17.218

> <U>
72.122

> <W>
-54.903

> <W(PB)>
-56.724

> <W(SA)>
1.821

> <Valence>
3.197

> <Coulomb>
69.115

> <VdW>
-0.190

> <VdW6>
-5.585

> <VdW12>
5.395

> <Bond>
0.177

> <Angle>
1.207

> <Pdih>
1.813

> <Idih>
0.000

> <Tether>
0.000

$$$$
VeraChem MOL file


 20 19  0  0  0  0  0  0  0  0999 V2000     
   21.1475   16.1061   20.6866 C   0  0  0  0  0  0  0  0  0  0  0  0
   21.7915   15.7999   21.5213 H   0  0  0  0  0  0  0  0  0  0  0  0
   20.7073   15.1994   20.2517 H   0  0  0  0  0  0  0  0  0  0  0  0
   21.7803   16.5732   19.9206 H   0  0  0  0  0  0  0  0  0  0  0  0
   20.0431   17.0748   21.1622 C   0  0  0  0  0  0  0  0  0  0  0  0
   19.4064   16.5679   21.9012 H   0  0  0  0  0  0  0  0  0  0  0  0
   19.3954   17.3352   20.3131 H   0  0  0  0  0  0  0  0  0  0  0  0
   20.6341   18.3613   21.7796 C   0  0  0  0  0  0  0  0  0  0  0  0
   21.2783   18.1005   22.6299 H   0  0  0  0  0  0  0  0  0  0  0  0
   21.2674   18.8687   21.0397 H   0  0  0  0  0  0  0  0  0  0  0  0
   19.5268   19.3219   22.2513 C   0  0  0  0  0  0  0  0  0  0  0  0
   18.9039   18.8251   22.9994 H   0  0  0  0  0  0  0  0  0  0  0  0
   18.8930   19.5959   21.4041 H   0  0  0  0  0  0  0  0  0  0  0  0
   20.0607   20.6010   22.8657 N   0  3  0  0  0  0  0  0  0  0  0  0
   20.6623   21.0970   22.1902 H   0  0  0  0  0  0  0  0  0  0  0  0
   20.6723   20.3834   23.6674 H   0  0  0  0  0  0  0  0  0  0  0  0
   18.9040   21.4898   23.3029 C   0  0  0  0  0  0  0  0  0  0  0  0
   18.3012   20.9582   24.0424 H   0  0  0  0  0  0  0  0  0  0  0  0
   19.3025   22.4066   23.7432 H   0  0  0  0  0  0  0  0  0  0  0  0
   18.2903   21.7356   22.4335 H   0  0  0  0  0  0  0  0  0  0  0  0
  1  2  1  0  0  0  0
  1  3  1  0  0  0  0
  1  4  1  0  0  0  0
  1  5  1  0  0  0  0
  5  6  1  0  0  0  0
  5  7  1  0  0  0  0
  5  8  1  0  0  0  0
  8  9  1  0  0  0  0
  8 10  1  0  0  0  0
  8 11  1  0  0  0  0
 11 12  1  0  0  0  0
 11 13  1  0  0  0  0
 11 14  1  0  0  0  0
 14 15  1  0  0  0  0
 14 16  1  0  0  0  0
 14 17  1  0  0  0  0
 17 18  1  0  0  0  0
 17 19  1  0  0  0  0
 17 20  1  0  0  0  0
M  END
> <VConfSearch Rank>
476

> <Conf_Id>
67

> <Delta U+W>
0.000

> <U+W>
15.338

> <U>
69.277

> <W>
-53.939

> <W(PB)>
-55.889

> <W(SA)>
1.950

> <Valence>
0.846

> <Coulomb>
68.557

> <VdW>
-0.127

> <VdW6>
-3.008

> <VdW12>
2.882

> <Bond>
0.088

> <Angle>
0.332

> <Pdih>
0.426

> <Idih>
0.000

> <Tether>
0.000

$$$$
VeraChem MOL file


 20 19  0  0  0  0  0  0  0  0999 V2000     
   22.3139   18.2420   23.9022 C   0  0  0  0  0  0  0  0  0  0  0  0
   21.6503   17.5680   24.4595 H   0  0  0  0  0  0  0  0  0  0  0  0
   23.3272   17.8214   23.9382 H   0  0  0  0  0  0  0  0  0  0  0  0
   22.3327   19.2091   24.4215 H   0  0  0  0  0  0  0  0  0  0  0  0
   21.8421   18.4044   22.4409 C   0  0  0  0  0  0  0  0  0  0  0  0
   21.8667   17.4271   21.9385 H   0  0  0  0  0  0  0  0  0  0  0  0
   22.5446   19.0549   21.9007 H   0  0  0  0  0  0  0  0  0  0  0  0
   20.4174   18.9954   22.3593 C   0  0  0  0  0  0  0  0  0  0  0  0
   19.7198   18.3428   22.8999 H   0  0  0  0  0  0  0  0  0  0  0  0
   20.3946   19.9736   22.8575 H   0  0  0  0  0  0  0  0  0  0  0  0
   19.9559   19.1552   20.8959 C   0  0  0  0  0  0  0  0  0  0  0  0
   19.9292   18.1785   20.4064 H   0  0  0  0  0  0  0  0  0  0  0  0
   20.6766   19.7807   20.3631 H   0  0  0  0  0  0  0  0  0  0  0  0
   18.5892   19.7997   20.7300 N   0  3  0  0  0  0  0  0  0  0  0  0
   18.4295   20.0187   19.7341 H   0  0  0  0  0  0  0  0  0  0  0  0
   18.5644   20.7132   21.2082 H   0  0  0  0  0  0  0  0  0  0  0  0
   17.4798   18.8880   21.2434 C   0  0  0  0  0  0  0  0  0  0  0  0
   17.6181   18.7147   22.3123 H   0  0  0  0  0  0  0  0  0  0  0  0
   16.5141   19.3687   21.0725 H   0  0  0  0  0  0  0  0  0  0  0  0
   17.5178   17.9379   20.7061 H   0  0  0  0  0  0  0  0  0  0  0  0
  1  2  1  0  0  0  0
  1  3  1  0  0  0  0
  1  4  1  0  0  0  0
  1  5  1  0  0  0  0
  5  6  1  0  0  0  0
  5  7  1  0  0  0  0
  5  8  1  0  0  0  0
  8  9  1  0  0  0  0
  8 10  1  0  0  0  0
  8 11  1  0  0  0  0
 11 12  1  0  0  0  0
 11 13  1  0  0  0  0
 11 14  1  0  0  0  0
 14 15  1  0  0  0  0
 14 16  1  0  0  0  0
 14 17  1  0  0  0  0
 17 18  1  0  0  0  0
 17 19  1  0  0  0  0
 17 20  1  0  0  0  0
M  END
> <VConfSearch Rank>
477

> <Conf_Id>
37

> <Delta U+W>
-0.021

> <U+W>
15.318

> <U>
69.657

> <W>
-54.340

> <W(PB)>
-56.238

> <W(SA)>
1.899

> <Valence>
1.137

> <Coulomb>
68.383

> <VdW>
0.138

> <VdW6>
-3.703

> <VdW12>
3.841

> <Bond>
0.125

> <Angle>
0.468

> <Pdih>
0.543

> <Idih>
0.000

> <Tether>
0.000

$$$$
VeraChem MOL file


 20 19  0  0  0  0  0  0  0  0999 V2000     
   22.6219   18.2118   20.6528 C   0  0  0  0  0  0  0  0  0  0  0  0
   23.0902   18.1345   19.6630 H   0  0  0  0  0  0  0  0  0  0  0  0
   23.0778   19.0632   21.1747 H   0  0  0  0  0  0  0  0  0  0  0  0
   22.8648   17.2987   21.2117 H   0  0  0  0  0  0  0  0  0  0  0  0
   21.0942   18.3933   20.5209 C   0  0  0  0  0  0  0  0  0  0  0  0
   20.6723   17.5443   19.9645 H   0  0  0  0  0  0  0  0  0  0  0  0
   20.8834   19.2950   19.9285 H   0  0  0  0  0  0  0  0  0  0  0  0
   20.4075   18.5048   21.8999 C   0  0  0  0  0  0  0  0  0  0  0  0
   20.6149   17.6019   22.4894 H   0  0  0  0  0  0  0  0  0  0  0  0
   20.8318   19.3535   22.4516 H   0  0  0  0  0  0  0  0  0  0  0  0
   18.8819   18.6843   21.7578 C   0  0  0  0  0  0  0  0  0  0  0  0
   18.4789   17.8488   21.1797 H   0  0  0  0  0  0  0  0  0  0  0  0
   18.6659   19.6071   21.2135 H   0  0  0  0  0  0  0  0  0  0  0  0
   18.1243   18.7291   23.0749 N   0  3  0  0  0  0  0  0  0  0  0  0
   18.3286   17.8865   23.6336 H   0  0  0  0  0  0  0  0  0  0  0  0
   17.1097   18.6843   22.8911 H   0  0  0  0  0  0  0  0  0  0  0  0
   18.4522   19.9942   23.8608 C   0  0  0  0  0  0  0  0  0  0  0  0
   18.2073   20.8682   23.2535 H   0  0  0  0  0  0  0  0  0  0  0  0
   17.8616   20.0075   24.7795 H   0  0  0  0  0  0  0  0  0  0  0  0
   19.5153   20.0018   24.1091 H   0  0  0  0  0  0  0  0  0  0  0  0
  1  2  1  0  0  0  0
  1  3  1  0  0  0  0
  1  4  1  0  0  0  0
  1  5  1  0  0  0  0
  5  6  1  0  0  0  0
  5  7  1  0  0  0  0
  5  8  1  0  0  0  0
  8  9  1  0  0  0  0
  8 10  1  0  0  0  0
  8 11  1  0  0  0  0
 11 12  1  0  0  0  0
 11 13  1  0  0  0  0
 11 14  1  0  0  0  0
 14 15  1  0  0  0  0
 14 16  1  0  0  0  0
 14 17  1  0  0  0  0
 17 18  1  0  0  0  0
 17 19  1  0  0  0  0
 17 20  1  0  0  0  0
M  END
> <VConfSearch Rank>
478

> <Conf_Id>
2

> <Delta U+W>
0.069

> <U+W>
15.407

> <U>
69.657

> <W>
-54.250

> <W(PB)>
-56.176

> <W(SA)>
1.926

> <Valence>
1.137

> <Coulomb>
68.383

> <VdW>
0.138

> <VdW6>
-3.703

> <VdW12>
3.841

> <Bond>
0.125

> <Angle>
0.468

> <Pdih>
0.543

> <Idih>
0.000

> <Tether>
0.000

$$$$
VeraChem MOL file


 20 19  0  0  0  0  0  0  0  0999 V2000     
   21.5391   17.6509   23.9200 C   0  0  0  0  0  0  0  0  0  0  0  0
   22.1510   18.1731   23.1736 H   0  0  0  0  0  0  0  0  0  0  0  0
   21.2752   18.3672   24.7090 H   0  0  0  0  0  0  0  0  0  0  0  0
   22.1645   16.8704   24.3725 H   0  0  0  0  0  0  0  0  0  0  0  0
   20.2733   17.0309   23.2849 C   0  0  0  0  0  0  0  0  0  0  0  0
   19.7421   16.4421   24.0459 H   0  0  0  0  0  0  0  0  0  0  0  0
   20.5649   16.3237   22.4956 H   0  0  0  0  0  0  0  0  0  0  0  0
   19.3071   18.0902   22.7046 C   0  0  0  0  0  0  0  0  0  0  0  0
   18.4008   17.5868   22.3424 H   0  0  0  0  0  0  0  0  0  0  0  0
   18.9895   18.7748   23.5022 H   0  0  0  0  0  0  0  0  0  0  0  0
   19.9335   18.8959   21.5497 C   0  0  0  0  0  0  0  0  0  0  0  0
   20.2473   18.2145   20.7549 H   0  0  0  0  0  0  0  0  0  0  0  0
   20.8143   19.4324   21.9102 H   0  0  0  0  0  0  0  0  0  0  0  0
   18.9875   19.9140   20.9437 N   0  3  0  0  0  0  0  0  0  0  0  0
   18.6605   20.5719   21.6678 H   0  0  0  0  0  0  0  0  0  0  0  0
   18.1365   19.4469   20.5950 H   0  0  0  0  0  0  0  0  0  0  0  0
   19.6845   20.6642   19.8166 C   0  0  0  0  0  0  0  0  0  0  0  0
   19.9912   19.9529   19.0466 H   0  0  0  0  0  0  0  0  0  0  0  0
   18.9926   21.3934   19.3894 H   0  0  0  0  0  0  0  0  0  0  0  0
   20.5617   21.1786   20.2150 H   0  0  0  0  0  0  0  0  0  0  0  0
  1  2  1  0  0  0  0
  1  3  1  0  0  0  0
  1  4  1  0  0  0  0
  1  5  1  0  0  0  0
  5  6  1  0  0  0  0
  5  7  1  0  0  0  0
  5  8  1  0  0  0  0
  8  9  1  0  0  0  0
  8 10  1  0  0  0  0
  8 11  1  0  0  0  0
 11 12  1  0  0  0  0
 11 13  1  0  0  0  0
 11 14  1  0  0  0  0
 14 15  1  0  0  0  0
 14 16  1  0  0  0  0
 14 17  1  0  0  0  0
 17 18  1  0  0  0  0
 17 19  1  0  0  0  0
 17 20  1  0  0  0  0
M  END
> <VConfSearch Rank>
479

> <Conf_Id>
34

> <Delta U+W>
0.276

> <U+W>
15.615

> <U>
69.798

> <W>
-54.184

> <W(PB)>
-56.116

> <W(SA)>
1.933

> <Valence>
1.134

> <Coulomb>
68.735

> <VdW>
-0.070

> <VdW6>
-3.565

> <VdW12>
3.494

> <Bond>
0.108

> <Angle>
0.456

> <Pdih>
0.569

> <Idih>
0.000

> <Tether>
0.000

$$$$
VeraChem MOL file


 20 19  0  0  0  0  0  0  0  0999 V2000     
   17.7805   16.7585   22.0212 C   0  0  0  0  0  0  0  0  0  0  0  0
   16.8233   17.2825   21.9018 H   0  0  0  0  0  0  0  0  0  0  0  0
   17.7471   15.8529   21.4017 H   0  0  0  0  0  0  0  0  0  0  0  0
   17.8699   16.4454   23.0697 H   0  0  0  0  0  0  0  0  0  0  0  0
   18.9639   17.6596   21.6072 C   0  0  0  0  0  0  0  0  0  0  0  0
   18.8624   17.9294   20.5464 H   0  0  0  0  0  0  0  0  0  0  0  0
   19.8984   17.0900   21.7013 H   0  0  0  0  0  0  0  0  0  0  0  0
   19.0335   18.9440   22.4667 C   0  0  0  0  0  0  0  0  0  0  0  0
   18.0789   19.4818   22.3931 H   0  0  0  0  0  0  0  0  0  0  0  0
   19.1633   18.6825   23.5253 H   0  0  0  0  0  0  0  0  0  0  0  0
   20.1640   19.8966   22.0284 C   0  0  0  0  0  0  0  0  0  0  0  0
   20.1048   20.8195   22.6110 H   0  0  0  0  0  0  0  0  0  0  0  0
   20.0404   20.1523   20.9731 H   0  0  0  0  0  0  0  0  0  0  0  0
   21.5586   19.3282   22.2130 N   0  3  0  0  0  0  0  0  0  0  0  0
   21.6598   18.4537   21.6768 H   0  0  0  0  0  0  0  0  0  0  0  0
   21.7075   19.0649   23.1992 H   0  0  0  0  0  0  0  0  0  0  0  0
   22.5984   20.3485   21.7696 C   0  0  0  0  0  0  0  0  0  0  0  0
   22.4420   20.5869   20.7154 H   0  0  0  0  0  0  0  0  0  0  0  0
   22.4946   21.2532   22.3725 H   0  0  0  0  0  0  0  0  0  0  0  0
   23.5965   19.9268   21.9076 H   0  0  0  0  0  0  0  0  0  0  0  0
  1  2  1  0  0  0  0
  1  3  1  0  0  0  0
  1  4  1  0  0  0  0
  1  5  1  0  0  0  0
  5  6  1  0  0  0  0
  5  7  1  0  0  0  0
  5  8  1  0  0  0  0
  8  9  1  0  0  0  0
  8 10  1  0  0  0  0
  8 11  1  0  0  0  0
 11 12  1  0  0  0  0
 11 13  1  0  0  0  0
 11 14  1  0  0  0  0
 14 15  1  0  0  0  0
 14 16  1  0  0  0  0
 14 17  1  0  0  0  0
 17 18  1  0  0  0  0
 17 19  1  0  0  0  0
 17 20  1  0  0  0  0
M  END
> <VConfSearch Rank>
480

> <Conf_Id>
50

> <Delta U+W>
0.319

> <U+W>
15.657

> <U>
69.962

> <W>
-54.305

> <W(PB)>
-56.223

> <W(SA)>
1.918

> <Valence>
0.982

> <Coulomb>
69.058

> <VdW>
-0.078

> <VdW6>
-3.548

> <VdW12>
3.471

> <Bond>
0.105

> <Angle>
0.408

> <Pdih>
0.469

> <Idih>
0.000

> <Tether>
0.000

$$$$
VeraChem MOL file


 20 19  0  0  0  0  0  0  0  0999 V2000     
   17.3840   20.1782   21.5552 C   0  0  0  0  0  0  0  0  0  0  0  0
   16.4083   19.7123   21.7448 H   0  0  0  0  0  0  0  0  0  0  0  0
   17.3883   21.1602   22.0461 H   0  0  0  0  0  0  0  0  0  0  0  0
   17.4759   20.3371   20.4729 H   0  0  0  0  0  0  0  0  0  0  0  0
   18.5271   19.2859   22.0853 C   0  0  0  0  0  0  0  0  0  0  0  0
   18.4666   18.3012   21.6025 H   0  0  0  0  0  0  0  0  0  0  0  0
   18.3894   19.1197   23.1632 H   0  0  0  0  0  0  0  0  0  0  0  0
   19.9145   19.9207   21.8295 C   0  0  0  0  0  0  0  0  0  0  0  0
   20.0706   20.0637   20.7520 H   0  0  0  0  0  0  0  0  0  0  0  0
   19.9456   20.9197   22.2845 H   0  0  0  0  0  0  0  0  0  0  0  0
   21.0716   19.0844   22.4118 C   0  0  0  0  0  0  0  0  0  0  0  0
   20.9142   18.9351   23.4829 H   0  0  0  0  0  0  0  0  0  0  0  0
   22.0115   19.6261   22.2786 H   0  0  0  0  0  0  0  0  0  0  0  0
   21.2348   17.7206   21.7673 N   0  3  0  0  0  0  0  0  0  0  0  0
   21.3755   17.8225   20.7505 H   0  0  0  0  0  0  0  0  0  0  0  0
   20.3682   17.1723   21.8713 H   0  0  0  0  0  0  0  0  0  0  0  0
   22.4095   16.9850   22.3980 C   0  0  0  0  0  0  0  0  0  0  0  0
   22.5155   16.0060   21.9255 H   0  0  0  0  0  0  0  0  0  0  0  0
   23.3213   17.5670   22.2472 H   0  0  0  0  0  0  0  0  0  0  0  0
   22.2238   16.8597   23.4669 H   0  0  0  0  0  0  0  0  0  0  0  0
  1  2  1  0  0  0  0
  1  3  1  0  0  0  0
  1  4  1  0  0  0  0
  1  5  1  0  0  0  0
  5  6  1  0  0  0  0
  5  7  1  0  0  0  0
  5  8  1  0  0  0  0
  8  9  1  0  0  0  0
  8 10  1  0  0  0  0
  8 11  1  0  0  0  0
 11 12  1  0  0  0  0
 11 13  1  0  0  0  0
 11 14  1  0  0  0  0
 14 15  1  0  0  0  0
 14 16  1  0  0  0  0
 14 17  1  0  0  0  0
 17 18  1  0  0  0  0
 17 19  1  0  0  0  0
 17 20  1  0  0  0  0
M  END
> <VConfSearch Rank>
481

> <Conf_Id>
35

> <Delta U+W>
0.360

> <U+W>
15.698

> <U>
69.962

> <W>
-54.264

> <W(PB)>
-56.166

> <W(SA)>
1.902

> <Valence>
0.982

> <Coulomb>
69.058

> <VdW>
-0.078

> <VdW6>
-3.548

> <VdW12>
3.471

> <Bond>
0.105

> <Angle>
0.408

> <Pdih>
0.469

> <Idih>
0.000

> <Tether>
0.000

$$$$
VeraChem MOL file


 20 19  0  0  0  0  0  0  0  0999 V2000     
   22.1648   19.0107   20.5656 C   0  0  0  0  0  0  0  0  0  0  0  0
   22.0768   17.9268   20.7122 H   0  0  0  0  0  0  0  0  0  0  0  0
   22.8169   19.1752   19.6981 H   0  0  0  0  0  0  0  0  0  0  0  0
   22.6647   19.4362   21.4455 H   0  0  0  0  0  0  0  0  0  0  0  0
   20.7839   19.6676   20.3382 C   0  0  0  0  0  0  0  0  0  0  0  0
   20.3033   19.2211   19.4563 H   0  0  0  0  0  0  0  0  0  0  0  0
   20.9270   20.7322   20.1058 H   0  0  0  0  0  0  0  0  0  0  0  0
   19.8468   19.5419   21.5622 C   0  0  0  0  0  0  0  0  0  0  0  0
   20.3159   20.0225   22.4304 H   0  0  0  0  0  0  0  0  0  0  0  0
   18.9191   20.0934   21.3604 H   0  0  0  0  0  0  0  0  0  0  0  0
   19.5001   18.0748   21.8948 C   0  0  0  0  0  0  0  0  0  0  0  0
   20.4081   17.5296   22.1635 H   0  0  0  0  0  0  0  0  0  0  0  0
   19.0714   17.6020   21.0076 H   0  0  0  0  0  0  0  0  0  0  0  0
   18.5010   17.9022   23.0273 N   0  3  0  0  0  0  0  0  0  0  0  0
   18.2009   16.9159   23.0759 H   0  0  0  0  0  0  0  0  0  0  0  0
   17.6385   18.4309   22.8267 H   0  0  0  0  0  0  0  0  0  0  0  0
   19.0999   18.3273   24.3637 C   0  0  0  0  0  0  0  0  0  0  0  0
   19.3542   19.3884   24.3260 H   0  0  0  0  0  0  0  0  0  0  0  0
   18.3674   18.1543   25.1551 H   0  0  0  0  0  0  0  0  0  0  0  0
   19.9983   17.7378   24.5588 H   0  0  0  0  0  0  0  0  0  0  0  0
  1  2  1  0  0  0  0
  1  3  1  0  0  0  0
  1  4  1  0  0  0  0
  1  5  1  0  0  0  0
  5  6  1  0  0  0  0
  5  7  1  0  0  0  0
  5  8  1  0  0  0  0
  8  9  1  0  0  0  0
  8 10  1  0  0  0  0
  8 11  1  0  0  0  0
 11 12  1  0  0  0  0
 11 13  1  0  0  0  0
 11 14  1  0  0  0  0
 14 15  1  0  0  0  0
 14 16  1  0  0  0  0
 14 17  1  0  0  0  0
 17 18  1  0  0  0  0
 17 19  1  0  0  0  0
 17 20  1  0  0  0  0
M  END
> <VConfSearch Rank>
482

> <Conf_Id>
33

> <Delta U+W>
0.372

> <U+W>
15.711

> <U>
70.163

> <W>
-54.452

> <W(PB)>
-56.363

> <W(SA)>
1.911

> <Valence>
1.420

> <Coulomb>
68.566

> <VdW>
0.177

> <VdW6>
-4.267

> <VdW12>
4.445

> <Bond>
0.146

> <Angle>
0.581

> <Pdih>
0.693

> <Idih>
0.000

> <Tether>
0.000

$$$$
VeraChem MOL file


 20 19  0  0  0  0  0  0  0  0999 V2000     
   19.7619   20.0220   24.2525 C   0  0  0  0  0  0  0  0  0  0  0  0
   19.7587   20.2302   25.3303 H   0  0  0  0  0  0  0  0  0  0  0  0
   20.6400   20.5198   23.8222 H   0  0  0  0  0  0  0  0  0  0  0  0
   18.8624   20.4797   23.8206 H   0  0  0  0  0  0  0  0  0  0  0  0
   19.7893   18.4978   23.9948 C   0  0  0  0  0  0  0  0  0  0  0  0
   18.9439   18.0303   24.5188 H   0  0  0  0  0  0  0  0  0  0  0  0
   20.7005   18.0657   24.4320 H   0  0  0  0  0  0  0  0  0  0  0  0
   19.7105   18.1382   22.4927 C   0  0  0  0  0  0  0  0  0  0  0  0
   19.6569   17.0465   22.3888 H   0  0  0  0  0  0  0  0  0  0  0  0
   18.7805   18.5403   22.0705 H   0  0  0  0  0  0  0  0  0  0  0  0
   20.9226   18.6628   21.6934 C   0  0  0  0  0  0  0  0  0  0  0  0
   21.8399   18.2845   22.1516 H   0  0  0  0  0  0  0  0  0  0  0  0
   20.9499   19.7544   21.7327 H   0  0  0  0  0  0  0  0  0  0  0  0
   20.9430   18.2488   20.2310 N   0  3  0  0  0  0  0  0  0  0  0  0
   20.8850   17.2223   20.1493 H   0  0  0  0  0  0  0  0  0  0  0  0
   21.8545   18.4959   19.8148 H   0  0  0  0  0  0  0  0  0  0  0  0
   19.8184   18.9200   19.4498 C   0  0  0  0  0  0  0  0  0  0  0  0
   19.8886   18.6280   18.3997 H   0  0  0  0  0  0  0  0  0  0  0  0
   18.8556   18.6020   19.8545 H   0  0  0  0  0  0  0  0  0  0  0  0
   19.9172   20.0041   19.5374 H   0  0  0  0  0  0  0  0  0  0  0  0
  1  2  1  0  0  0  0
  1  3  1  0  0  0  0
  1  4  1  0  0  0  0
  1  5  1  0  0  0  0
  5  6  1  0  0  0  0
  5  7  1  0  0  0  0
  5  8  1  0  0  0  0
  8  9  1  0  0  0  0
  8 10  1  0  0  0  0
  8 11  1  0  0  0  0
 11 12  1  0  0  0  0
 11 13  1  0  0  0  0
 11 14  1  0  0  0  0
 14 15  1  0  0  0  0
 14 16  1  0  0  0  0
 14 17  1  0  0  0  0
 17 18  1  0  0  0  0
 17 19  1  0  0  0  0
 17 20  1  0  0  0  0
M  END
> <VConfSearch Rank>
483

> <Conf_Id>
53

> <Delta U+W>
0.379

> <U+W>
15.717

> <U>
70.163

> <W>
-54.446

> <W(PB)>
-56.322

> <W(SA)>
1.876

> <Valence>
1.420

> <Coulomb>
68.566

> <VdW>
0.177

> <VdW6>
-4.267

> <VdW12>
4.445

> <Bond>
0.146

> <Angle>
0.581

> <Pdih>
0.693

> <Idih>
0.000

> <Tether>
0.000

$$$$
VeraChem MOL file


 20 19  0  0  0  0  0  0  0  0999 V2000     
   18.6098   16.5166   22.3394 C   0  0  0  0  0  0  0  0  0  0  0  0
   18.9463   15.4754   22.2514 H   0  0  0  0  0  0  0  0  0  0  0  0
   17.9555   16.5849   23.2182 H   0  0  0  0  0  0  0  0  0  0  0  0
   18.0121   16.7530   21.4494 H   0  0  0  0  0  0  0  0  0  0  0  0
   19.8166   17.4710   22.4681 C   0  0  0  0  0  0  0  0  0  0  0  0
   20.4668   17.3470   21.5916 H   0  0  0  0  0  0  0  0  0  0  0  0
   20.4117   17.1895   23.3483 H   0  0  0  0  0  0  0  0  0  0  0  0
   19.3690   18.9465   22.5917 C   0  0  0  0  0  0  0  0  0  0  0  0
   18.7970   19.2413   21.7024 H   0  0  0  0  0  0  0  0  0  0  0  0
   18.6852   19.0480   23.4448 H   0  0  0  0  0  0  0  0  0  0  0  0
   20.5522   19.9177   22.8003 C   0  0  0  0  0  0  0  0  0  0  0  0
   21.0763   19.6457   23.7201 H   0  0  0  0  0  0  0  0  0  0  0  0
   20.1715   20.9351   22.9206 H   0  0  0  0  0  0  0  0  0  0  0  0
   21.5817   19.9413   21.6805 N   0  3  0  0  0  0  0  0  0  0  0  0
   21.9660   18.9970   21.5305 H   0  0  0  0  0  0  0  0  0  0  0  0
   22.3906   20.5145   21.9676 H   0  0  0  0  0  0  0  0  0  0  0  0
   20.9858   20.4951   20.3908 C   0  0  0  0  0  0  0  0  0  0  0  0
   20.6048   21.5020   20.5743 H   0  0  0  0  0  0  0  0  0  0  0  0
   21.7624   20.5297   19.6237 H   0  0  0  0  0  0  0  0  0  0  0  0
   20.1727   19.8459   20.0599 H   0  0  0  0  0  0  0  0  0  0  0  0
  1  2  1  0  0  0  0
  1  3  1  0  0  0  0
  1  4  1  0  0  0  0
  1  5  1  0  0  0  0
  5  6  1  0  0  0  0
  5  7  1  0  0  0  0
  5  8  1  0  0  0  0
  8  9  1  0  0  0  0
  8 10  1  0  0  0  0
  8 11  1  0  0  0  0
 11 12  1  0  0  0  0
 11 13  1  0  0  0  0
 11 14  1  0  0  0  0
 14 15  1  0  0  0  0
 14 16  1  0  0  0  0
 14 17  1  0  0  0  0
 17 18  1  0  0  0  0
 17 19  1  0  0  0  0
 17 20  1  0  0  0  0
M  END
> <VConfSearch Rank>
484

> <Conf_Id>
49

> <Delta U+W>
0.268

> <U+W>
15.607

> <U>
70.298

> <W>
-54.692

> <W(PB)>
-56.576

> <W(SA)>
1.885

> <Valence>
1.245

> <Coulomb>
68.933

> <VdW>
0.120

> <VdW6>
-4.430

> <VdW12>
4.550

> <Bond>
0.148

> <Angle>
0.587

> <Pdih>
0.509

> <Idih>
0.000

> <Tether>
0.000

$$$$
VeraChem MOL file


 20 19  0  0  0  0  0  0  0  0999 V2000     
   20.6121   21.3411   22.7950 C   0  0  0  0  0  0  0  0  0  0  0  0
   19.7588   21.5534   23.4523 H   0  0  0  0  0  0  0  0  0  0  0  0
   21.5257   21.3634   23.4034 H   0  0  0  0  0  0  0  0  0  0  0  0
   20.6794   22.1526   22.0588 H   0  0  0  0  0  0  0  0  0  0  0  0
   20.4453   19.9775   22.0901 C   0  0  0  0  0  0  0  0  0  0  0  0
   21.2990   19.8061   21.4195 H   0  0  0  0  0  0  0  0  0  0  0  0
   19.5446   20.0109   21.4632 H   0  0  0  0  0  0  0  0  0  0  0  0
   20.3369   18.8169   23.1065 C   0  0  0  0  0  0  0  0  0  0  0  0
   21.1867   18.8676   23.8001 H   0  0  0  0  0  0  0  0  0  0  0  0
   19.4332   18.9415   23.7175 H   0  0  0  0  0  0  0  0  0  0  0  0
   20.3318   17.4116   22.4630 C   0  0  0  0  0  0  0  0  0  0  0  0
   20.3183   16.6727   23.2683 H   0  0  0  0  0  0  0  0  0  0  0  0
   21.2461   17.2548   21.8853 H   0  0  0  0  0  0  0  0  0  0  0  0
   19.1425   17.1031   21.5666 N   0  3  0  0  0  0  0  0  0  0  0  0
   18.2988   17.5868   21.9088 H   0  0  0  0  0  0  0  0  0  0  0  0
   18.9164   16.0985   21.6349 H   0  0  0  0  0  0  0  0  0  0  0  0
   19.4356   17.4531   20.1111 C   0  0  0  0  0  0  0  0  0  0  0  0
   18.5675   17.1955   19.5003 H   0  0  0  0  0  0  0  0  0  0  0  0
   19.6414   18.5203   20.0219 H   0  0  0  0  0  0  0  0  0  0  0  0
   20.3031   16.8821   19.7736 H   0  0  0  0  0  0  0  0  0  0  0  0
  1  2  1  0  0  0  0
  1  3  1  0  0  0  0
  1  4  1  0  0  0  0
  1  5  1  0  0  0  0
  5  6  1  0  0  0  0
  5  7  1  0  0  0  0
  5  8  1  0  0  0  0
  8  9  1  0  0  0  0
  8 10  1  0  0  0  0
  8 11  1  0  0  0  0
 11 12  1  0  0  0  0
 11 13  1  0  0  0  0
 11 14  1  0  0  0  0
 14 15  1  0  0  0  0
 14 16  1  0  0  0  0
 14 17  1  0  0  0  0
 17 18  1  0  0  0  0
 17 19  1  0  0  0  0
 17 20  1  0  0  0  0
M  END
> <VConfSearch Rank>
485

> <Conf_Id>
65

> <Delta U+W>
1.775

> <U+W>
17.114

> <U>
71.726

> <W>
-54.613

> <W(PB)>
-56.495

> <W(SA)>
1.883

> <Valence>
2.885

> <Coulomb>
68.822

> <VdW>
0.019

> <VdW6>
-4.600

> <VdW12>
4.619

> <Bond>
0.152

> <Angle>
0.862

> <Pdih>
1.871

> <Idih>
0.000

> <Tether>
0.000

$$$$
VeraChem MOL file


 20 19  0  0  0  0  0  0  0  0999 V2000     
   19.0757   19.3143   24.1027 C   0  0  0  0  0  0  0  0  0  0  0  0
   20.1708   19.3608   24.0530 H   0  0  0  0  0  0  0  0  0  0  0  0
   18.7336   20.1835   24.6791 H   0  0  0  0  0  0  0  0  0  0  0  0
   18.7962   18.4116   24.6614 H   0  0  0  0  0  0  0  0  0  0  0  0
   18.4406   19.3144   22.6931 C   0  0  0  0  0  0  0  0  0  0  0  0
   18.7340   20.2262   22.1554 H   0  0  0  0  0  0  0  0  0  0  0  0
   17.3472   19.3616   22.7943 H   0  0  0  0  0  0  0  0  0  0  0  0
   18.8104   18.0615   21.8604 C   0  0  0  0  0  0  0  0  0  0  0  0
   18.4188   17.1665   22.3618 H   0  0  0  0  0  0  0  0  0  0  0  0
   18.3073   18.1099   20.8855 H   0  0  0  0  0  0  0  0  0  0  0  0
   20.3267   17.8790   21.6403 C   0  0  0  0  0  0  0  0  0  0  0  0
   20.5027   16.9607   21.0743 H   0  0  0  0  0  0  0  0  0  0  0  0
   20.8297   17.7833   22.6055 H   0  0  0  0  0  0  0  0  0  0  0  0
   20.9809   19.0186   20.8828 N   0  3  0  0  0  0  0  0  0  0  0  0
   20.8301   19.9070   21.3833 H   0  0  0  0  0  0  0  0  0  0  0  0
   20.5294   19.1399   19.9634 H   0  0  0  0  0  0  0  0  0  0  0  0
   22.4696   18.7456   20.7162 C   0  0  0  0  0  0  0  0  0  0  0  0
   22.6047   17.8173   20.1569 H   0  0  0  0  0  0  0  0  0  0  0  0
   22.9276   19.5738   20.1709 H   0  0  0  0  0  0  0  0  0  0  0  0
   22.9312   18.6537   21.7017 H   0  0  0  0  0  0  0  0  0  0  0  0
  1  2  1  0  0  0  0
  1  3  1  0  0  0  0
  1  4  1  0  0  0  0
  1  5  1  0  0  0  0
  5  6  1  0  0  0  0
  5  7  1  0  0  0  0
  5  8  1  0  0  0  0
  8  9  1  0  0  0  0
  8 10  1  0  0  0  0
  8 11  1  0  0  0  0
 11 12  1  0  0  0  0
 11 13  1  0  0  0  0
 11 14  1  0  0  0  0
 14 15  1  0  0  0  0
 14 16  1  0  0  0  0
 14 17  1  0  0  0  0
 17 18  1  0  0  0  0
 17 19  1  0  0  0  0
 17 20  1  0  0  0  0
M  END
> <VConfSearch Rank>
486

> <Conf_Id>
23

> <Delta U+W>
0.896

> <U+W>
16.234

> <U>
70.374

> <W>
-54.140

> <W(PB)>
-56.046

> <W(SA)>
1.907

> <Valence>
1.257

> <Coulomb>
69.240

> <VdW>
-0.123

> <VdW6>
-4.336

> <VdW12>
4.213

> <Bond>
0.128

> <Angle>
0.603

> <Pdih>
0.526

> <Idih>
0.000

> <Tether>
0.000

$$$$
VeraChem MOL file


 20 19  0  0  0  0  0  0  0  0999 V2000     
   18.2989   18.8305   20.4981 C   0  0  0  0  0  0  0  0  0  0  0  0
   18.5702   18.3490   19.5496 H   0  0  0  0  0  0  0  0  0  0  0  0
   17.2434   19.1252   20.4335 H   0  0  0  0  0  0  0  0  0  0  0  0
   18.8926   19.7478   20.5986 H   0  0  0  0  0  0  0  0  0  0  0  0
   18.5224   17.8732   21.6913 C   0  0  0  0  0  0  0  0  0  0  0  0
   17.8406   17.0166   21.5944 H   0  0  0  0  0  0  0  0  0  0  0  0
   18.2436   18.3769   22.6268 H   0  0  0  0  0  0  0  0  0  0  0  0
   19.9760   17.3453   21.7823 C   0  0  0  0  0  0  0  0  0  0  0  0
   20.0602   16.6527   22.6302 H   0  0  0  0  0  0  0  0  0  0  0  0
   20.2030   16.7567   20.8835 H   0  0  0  0  0  0  0  0  0  0  0  0
   21.0390   18.4546   21.9259 C   0  0  0  0  0  0  0  0  0  0  0  0
   20.9930   19.1223   21.0623 H   0  0  0  0  0  0  0  0  0  0  0  0
   22.0335   18.0022   21.9515 H   0  0  0  0  0  0  0  0  0  0  0  0
   20.8849   19.2973   23.1776 N   0  3  0  0  0  0  0  0  0  0  0  0
   20.9222   18.6983   24.0164 H   0  0  0  0  0  0  0  0  0  0  0  0
   19.9526   19.7367   23.1940 H   0  0  0  0  0  0  0  0  0  0  0  0
   21.9762   20.3580   23.2283 C   0  0  0  0  0  0  0  0  0  0  0  0
   21.8961   20.9992   22.3479 H   0  0  0  0  0  0  0  0  0  0  0  0
   21.8524   20.9574   24.1329 H   0  0  0  0  0  0  0  0  0  0  0  0
   22.9527   19.8690   23.2416 H   0  0  0  0  0  0  0  0  0  0  0  0
  1  2  1  0  0  0  0
  1  3  1  0  0  0  0
  1  4  1  0  0  0  0
  1  5  1  0  0  0  0
  5  6  1  0  0  0  0
  5  7  1  0  0  0  0
  5  8  1  0  0  0  0
  8  9  1  0  0  0  0
  8 10  1  0  0  0  0
  8 11  1  0  0  0  0
 11 12  1  0  0  0  0
 11 13  1  0  0  0  0
 11 14  1  0  0  0  0
 14 15  1  0  0  0  0
 14 16  1  0  0  0  0
 14 17  1  0  0  0  0
 17 18  1  0  0  0  0
 17 19  1  0  0  0  0
 17 20  1  0  0  0  0
M  END
> <VConfSearch Rank>
487

> <Conf_Id>
24

> <Delta U+W>
0.792

> <U+W>
16.130

> <U>
70.374

> <W>
-54.243

> <W(PB)>
-56.130

> <W(SA)>
1.887

> <Valence>
1.257

> <Coulomb>
69.240

> <VdW>
-0.123

> <VdW6>
-4.336

> <VdW12>
4.213

> <Bond>
0.128

> <Angle>
0.603

> <Pdih>
0.526

> <Idih>
0.000

> <Tether>
0.000

$$$$
VeraChem MOL file


 20 19  0  0  0  0  0  0  0  0999 V2000     
   18.5308   18.4590   23.6487 C   0  0  0  0  0  0  0  0  0  0  0  0
   17.6107   18.4759   24.2472 H   0  0  0  0  0  0  0  0  0  0  0  0
   18.2817   17.9879   22.6905 H   0  0  0  0  0  0  0  0  0  0  0  0
   19.2586   17.8291   24.1766 H   0  0  0  0  0  0  0  0  0  0  0  0
   19.0678   19.8953   23.4529 C   0  0  0  0  0  0  0  0  0  0  0  0
   19.0984   20.3946   24.4316 H   0  0  0  0  0  0  0  0  0  0  0  0
   18.3587   20.4704   22.8409 H   0  0  0  0  0  0  0  0  0  0  0  0
   20.4815   19.9717   22.8215 C   0  0  0  0  0  0  0  0  0  0  0  0
   20.7837   21.0271   22.7962 H   0  0  0  0  0  0  0  0  0  0  0  0
   21.2143   19.4641   23.4626 H   0  0  0  0  0  0  0  0  0  0  0  0
   20.5683   19.4218   21.3819 C   0  0  0  0  0  0  0  0  0  0  0  0
   21.4523   19.8389   20.8930 H   0  0  0  0  0  0  0  0  0  0  0  0
   19.6882   19.7334   20.8139 H   0  0  0  0  0  0  0  0  0  0  0  0
   20.6866   17.9121   21.2950 N   0  3  0  0  0  0  0  0  0  0  0  0
   19.9004   17.4679   21.7901 H   0  0  0  0  0  0  0  0  0  0  0  0
   21.5355   17.5941   21.7871 H   0  0  0  0  0  0  0  0  0  0  0  0
   20.7186   17.4749   19.8368 C   0  0  0  0  0  0  0  0  0  0  0  0
   19.7969   17.7935   19.3452 H   0  0  0  0  0  0  0  0  0  0  0  0
   21.5781   17.9331   19.3428 H   0  0  0  0  0  0  0  0  0  0  0  0
   20.8039   16.3870   19.7899 H   0  0  0  0  0  0  0  0  0  0  0  0
  1  2  1  0  0  0  0
  1  3  1  0  0  0  0
  1  4  1  0  0  0  0
  1  5  1  0  0  0  0
  5  6  1  0  0  0  0
  5  7  1  0  0  0  0
  5  8  1  0  0  0  0
  8  9  1  0  0  0  0
  8 10  1  0  0  0  0
  8 11  1  0  0  0  0
 11 12  1  0  0  0  0
 11 13  1  0  0  0  0
 11 14  1  0  0  0  0
 14 15  1  0  0  0  0
 14 16  1  0  0  0  0
 14 17  1  0  0  0  0
 17 18  1  0  0  0  0
 17 19  1  0  0  0  0
 17 20  1  0  0  0  0
M  END
> <VConfSearch Rank>
488

> <Conf_Id>
26

> <Delta U+W>
2.888

> <U+W>
18.226

> <U>
72.042

> <W>
-53.816

> <W(PB)>
-55.689

> <W(SA)>
1.873

> <Valence>
2.428

> <Coulomb>
69.829

> <VdW>
-0.215

> <VdW6>
-4.563

> <VdW12>
4.348

> <Bond>
0.137

> <Angle>
0.936

> <Pdih>
1.356

> <Idih>
0.000

> <Tether>
0.000

$$$$
VeraChem MOL file


 20 19  0  0  0  0  0  0  0  0999 V2000     
   21.1697   20.1998   20.6723 C   0  0  0  0  0  0  0  0  0  0  0  0
   21.6848   20.5849   19.7826 H   0  0  0  0  0  0  0  0  0  0  0  0
   21.2532   20.9605   21.4595 H   0  0  0  0  0  0  0  0  0  0  0  0
   21.7080   19.2990   20.9898 H   0  0  0  0  0  0  0  0  0  0  0  0
   19.6913   19.8916   20.3428 C   0  0  0  0  0  0  0  0  0  0  0  0
   19.6424   19.0623   19.6230 H   0  0  0  0  0  0  0  0  0  0  0  0
   19.2570   20.7626   19.8320 H   0  0  0  0  0  0  0  0  0  0  0  0
   18.8136   19.5618   21.5772 C   0  0  0  0  0  0  0  0  0  0  0  0
   18.7934   20.4132   22.2703 H   0  0  0  0  0  0  0  0  0  0  0  0
   17.7797   19.4306   21.2314 H   0  0  0  0  0  0  0  0  0  0  0  0
   19.2256   18.2783   22.3290 C   0  0  0  0  0  0  0  0  0  0  0  0
   19.4902   17.4984   21.6106 H   0  0  0  0  0  0  0  0  0  0  0  0
   18.3774   17.9220   22.9190 H   0  0  0  0  0  0  0  0  0  0  0  0
   20.3858   18.4608   23.2891 N   0  3  0  0  0  0  0  0  0  0  0  0
   20.1454   19.1622   24.0063 H   0  0  0  0  0  0  0  0  0  0  0  0
   21.1991   18.8475   22.7896 H   0  0  0  0  0  0  0  0  0  0  0  0
   20.7382   17.1300   23.9397 C   0  0  0  0  0  0  0  0  0  0  0  0
   21.0204   16.4141   23.1647 H   0  0  0  0  0  0  0  0  0  0  0  0
   21.5739   17.2768   24.6274 H   0  0  0  0  0  0  0  0  0  0  0  0
   19.8708   16.7573   24.4888 H   0  0  0  0  0  0  0  0  0  0  0  0
  1  2  1  0  0  0  0
  1  3  1  0  0  0  0
  1  4  1  0  0  0  0
  1  5  1  0  0  0  0
  5  6  1  0  0  0  0
  5  7  1  0  0  0  0
  5  8  1  0  0  0  0
  8  9  1  0  0  0  0
  8 10  1  0  0  0  0
  8 11  1  0  0  0  0
 11 12  1  0  0  0  0
 11 13  1  0  0  0  0
 11 14  1  0  0  0  0
 14 15  1  0  0  0  0
 14 16  1  0  0  0  0
 14 17  1  0  0  0  0
 17 18  1  0  0  0  0
 17 19  1  0  0  0  0
 17 20  1  0  0  0  0
M  END
> <VConfSearch Rank>
489

> <Conf_Id>
5

> <Delta U+W>
2.950

> <U+W>
18.289

> <U>
72.042

> <W>
-53.753

> <W(PB)>
-55.644

> <W(SA)>
1.891

> <Valence>
2.428

> <Coulomb>
69.829

> <VdW>
-0.215

> <VdW6>
-4.563

> <VdW12>
4.348

> <Bond>
0.137

> <Angle>
0.936

> <Pdih>
1.356

> <Idih>
0.000

> <Tether>
0.000

$$$$
VeraChem MOL file


 20 19  0  0  0  0  0  0  0  0999 V2000     
   19.1789   17.6936   20.0538 C   0  0  0  0  0  0  0  0  0  0  0  0
   19.3758   16.6137   20.0681 H   0  0  0  0  0  0  0  0  0  0  0  0
   18.3343   17.8961   20.7241 H   0  0  0  0  0  0  0  0  0  0  0  0
   18.8660   17.9628   19.0366 H   0  0  0  0  0  0  0  0  0  0  0  0
   20.4370   18.4930   20.4636 C   0  0  0  0  0  0  0  0  0  0  0  0
   20.2173   19.5691   20.4383 H   0  0  0  0  0  0  0  0  0  0  0  0
   21.2248   18.3273   19.7153 H   0  0  0  0  0  0  0  0  0  0  0  0
   20.9820   18.0949   21.8578 C   0  0  0  0  0  0  0  0  0  0  0  0
   21.2862   17.0401   21.8385 H   0  0  0  0  0  0  0  0  0  0  0  0
   21.8941   18.6676   22.0694 H   0  0  0  0  0  0  0  0  0  0  0  0
   19.9696   18.2935   23.0089 C   0  0  0  0  0  0  0  0  0  0  0  0
   20.4283   17.9941   23.9546 H   0  0  0  0  0  0  0  0  0  0  0  0
   19.1054   17.6470   22.8378 H   0  0  0  0  0  0  0  0  0  0  0  0
   19.4497   19.7130   23.1763 N   0  3  0  0  0  0  0  0  0  0  0  0
   18.6837   19.7217   23.8678 H   0  0  0  0  0  0  0  0  0  0  0  0
   19.0202   20.0372   22.2973 H   0  0  0  0  0  0  0  0  0  0  0  0
   20.5594   20.6603   23.6189 C   0  0  0  0  0  0  0  0  0  0  0  0
   21.3359   20.6914   22.8520 H   0  0  0  0  0  0  0  0  0  0  0  0
   20.1421   21.6599   23.7588 H   0  0  0  0  0  0  0  0  0  0  0  0
   20.9825   20.3032   24.5602 H   0  0  0  0  0  0  0  0  0  0  0  0
  1  2  1  0  0  0  0
  1  3  1  0  0  0  0
  1  4  1  0  0  0  0
  1  5  1  0  0  0  0
  5  6  1  0  0  0  0
  5  7  1  0  0  0  0
  5  8  1  0  0  0  0
  8  9  1  0  0  0  0
  8 10  1  0  0  0  0
  8 11  1  0  0  0  0
 11 12  1  0  0  0  0
 11 13  1  0  0  0  0
 11 14  1  0  0  0  0
 14 15  1  0  0  0  0
 14 16  1  0  0  0  0
 14 17  1  0  0  0  0
 17 18  1  0  0  0  0
 17 19  1  0  0  0  0
 17 20  1  0  0  0  0
M  END
> <VConfSearch Rank>
490

> <Conf_Id>
52

> <Delta U+W>
0.784

> <U+W>
16.122

> <U>
70.777

> <W>
-54.655

> <W(PB)>
-56.491

> <W(SA)>
1.836

> <Valence>
1.529

> <Coulomb>
69.166

> <VdW>
0.082

> <VdW6>
-5.166

> <VdW12>
5.248

> <Bond>
0.171

> <Angle>
0.752

> <Pdih>
0.605

> <Idih>
0.000

> <Tether>
0.000

$$$$
VeraChem MOL file


 20 19  0  0  0  0  0  0  0  0999 V2000     
   19.5954   20.8234   21.2747 C   0  0  0  0  0  0  0  0  0  0  0  0
   19.5019   21.7917   20.7660 H   0  0  0  0  0  0  0  0  0  0  0  0
   18.8426   20.1579   20.8372 H   0  0  0  0  0  0  0  0  0  0  0  0
   19.3577   20.9803   22.3349 H   0  0  0  0  0  0  0  0  0  0  0  0
   21.0243   20.2612   21.0965 C   0  0  0  0  0  0  0  0  0  0  0  0
   21.7442   21.0571   21.3337 H   0  0  0  0  0  0  0  0  0  0  0  0
   21.1901   20.0074   20.0400 H   0  0  0  0  0  0  0  0  0  0  0  0
   21.3465   19.0336   21.9864 C   0  0  0  0  0  0  0  0  0  0  0  0
   22.4064   18.7847   21.8445 H   0  0  0  0  0  0  0  0  0  0  0  0
   21.2426   19.2956   23.0468 H   0  0  0  0  0  0  0  0  0  0  0  0
   20.5218   17.7672   21.6583 C   0  0  0  0  0  0  0  0  0  0  0  0
   21.0252   16.8920   22.0767 H   0  0  0  0  0  0  0  0  0  0  0  0
   20.4798   17.6402   20.5736 H   0  0  0  0  0  0  0  0  0  0  0  0
   19.0956   17.7524   22.1856 N   0  3  0  0  0  0  0  0  0  0  0  0
   18.5777   16.9683   21.7589 H   0  0  0  0  0  0  0  0  0  0  0  0
   18.5984   18.6015   21.8830 H   0  0  0  0  0  0  0  0  0  0  0  0
   19.0690   17.6235   23.7046 C   0  0  0  0  0  0  0  0  0  0  0  0
   19.5889   16.7086   23.9967 H   0  0  0  0  0  0  0  0  0  0  0  0
   19.5627   18.4886   24.1513 H   0  0  0  0  0  0  0  0  0  0  0  0
   18.0310   17.5800   24.0417 H   0  0  0  0  0  0  0  0  0  0  0  0
  1  2  1  0  0  0  0
  1  3  1  0  0  0  0
  1  4  1  0  0  0  0
  1  5  1  0  0  0  0
  5  6  1  0  0  0  0
  5  7  1  0  0  0  0
  5  8  1  0  0  0  0
  8  9  1  0  0  0  0
  8 10  1  0  0  0  0
  8 11  1  0  0  0  0
 11 12  1  0  0  0  0
 11 13  1  0  0  0  0
 11 14  1  0  0  0  0
 14 15  1  0  0  0  0
 14 16  1  0  0  0  0
 14 17  1  0  0  0  0
 17 18  1  0  0  0  0
 17 19  1  0  0  0  0
 17 20  1  0  0  0  0
M  END
> <VConfSearch Rank>
491

> <Conf_Id>
55

> <Delta U+W>
2.745

> <U+W>
18.083

> <U>
72.490

> <W>
-54.407

> <W(PB)>
-56.269

> <W(SA)>
1.861

> <Valence>
2.738

> <Coulomb>
69.795

> <VdW>
-0.043

> <VdW6>
-5.333

> <VdW12>
5.290

> <Bond>
0.182

> <Angle>
1.135

> <Pdih>
1.422

> <Idih>
0.000

> <Tether>
0.000

$$$$
VeraChem MOL file


 20 19  0  0  0  0  0  0  0  0999 V2000     
   18.4114   19.8799   22.9910 C   0  0  0  0  0  0  0  0  0  0  0  0
   17.6698   20.5745   23.4067 H   0  0  0  0  0  0  0  0  0  0  0  0
   17.9116   18.9153   22.8326 H   0  0  0  0  0  0  0  0  0  0  0  0
   19.1926   19.7541   23.7494 H   0  0  0  0  0  0  0  0  0  0  0  0
   18.9861   20.4386   21.6694 C   0  0  0  0  0  0  0  0  0  0  0  0
   19.5769   21.3416   21.8783 H   0  0  0  0  0  0  0  0  0  0  0  0
   18.1493   20.7638   21.0352 H   0  0  0  0  0  0  0  0  0  0  0  0
   19.8420   19.4281   20.8638 C   0  0  0  0  0  0  0  0  0  0  0  0
   19.2415   18.5490   20.5980 H   0  0  0  0  0  0  0  0  0  0  0  0
   20.1129   19.9016   19.9109 H   0  0  0  0  0  0  0  0  0  0  0  0
   21.1538   18.9972   21.5602 C   0  0  0  0  0  0  0  0  0  0  0  0
   21.6368   19.8795   21.9878 H   0  0  0  0  0  0  0  0  0  0  0  0
   21.8332   18.5732   20.8166 H   0  0  0  0  0  0  0  0  0  0  0  0
   21.0063   17.9638   22.6660 N   0  3  0  0  0  0  0  0  0  0  0  0
   20.3127   18.2823   23.3568 H   0  0  0  0  0  0  0  0  0  0  0  0
   21.8934   17.8873   23.1879 H   0  0  0  0  0  0  0  0  0  0  0  0
   20.6197   16.6012   22.1015 C   0  0  0  0  0  0  0  0  0  0  0  0
   19.6498   16.6752   21.6059 H   0  0  0  0  0  0  0  0  0  0  0  0
   21.3785   16.2810   21.3844 H   0  0  0  0  0  0  0  0  0  0  0  0
   20.5588   15.8796   22.9191 H   0  0  0  0  0  0  0  0  0  0  0  0
  1  2  1  0  0  0  0
  1  3  1  0  0  0  0
  1  4  1  0  0  0  0
  1  5  1  0  0  0  0
  5  6  1  0  0  0  0
  5  7  1  0  0  0  0
  5  8  1  0  0  0  0
  8  9  1  0  0  0  0
  8 10  1  0  0  0  0
  8 11  1  0  0  0  0
 11 12  1  0  0  0  0
 11 13  1  0  0  0  0
 11 14  1  0  0  0  0
 14 15  1  0  0  0  0
 14 16  1  0  0  0  0
 14 17  1  0  0  0  0
 17 18  1  0  0  0  0
 17 19  1  0  0  0  0
 17 20  1  0  0  0  0
M  END
> <VConfSearch Rank>
492

> <Conf_Id>
76

> <Delta U+W>
2.799

> <U+W>
18.137

> <U>
72.490

> <W>
-54.353

> <W(PB)>
-56.201

> <W(SA)>
1.848

> <Valence>
2.738

> <Coulomb>
69.795

> <VdW>
-0.043

> <VdW6>
-5.334

> <VdW12>
5.290

> <Bond>
0.182

> <Angle>
1.135

> <Pdih>
1.421

> <Idih>
0.000

> <Tether>
0.000

$$$$
VeraChem MOL file


 20 19  0  0  0  0  0  0  0  0999 V2000     
   22.0864   19.2542   21.4682 C   0  0  0  0  0  0  0  0  0  0  0  0
   21.5914   18.5623   20.7759 H   0  0  0  0  0  0  0  0  0  0  0  0
   22.2155   20.2159   20.9549 H   0  0  0  0  0  0  0  0  0  0  0  0
   23.0853   18.8521   21.6812 H   0  0  0  0  0  0  0  0  0  0  0  0
   21.2812   19.4277   22.7767 C   0  0  0  0  0  0  0  0  0  0  0  0
   21.8526   20.0700   23.4614 H   0  0  0  0  0  0  0  0  0  0  0  0
   21.1803   18.4623   23.2891 H   0  0  0  0  0  0  0  0  0  0  0  0
   19.8863   20.0612   22.5520 C   0  0  0  0  0  0  0  0  0  0  0  0
   19.3879   20.1956   23.5210 H   0  0  0  0  0  0  0  0  0  0  0  0
   20.0215   21.0704   22.1411 H   0  0  0  0  0  0  0  0  0  0  0  0
   18.9474   19.2768   21.6055 C   0  0  0  0  0  0  0  0  0  0  0  0
   19.4236   19.1207   20.6347 H   0  0  0  0  0  0  0  0  0  0  0  0
   18.0551   19.8861   21.4405 H   0  0  0  0  0  0  0  0  0  0  0  0
   18.4619   17.9323   22.1266 N   0  3  0  0  0  0  0  0  0  0  0  0
   17.5183   17.7447   21.7533 H   0  0  0  0  0  0  0  0  0  0  0  0
   18.3375   17.9673   23.1493 H   0  0  0  0  0  0  0  0  0  0  0  0
   19.3957   16.7980   21.7184 C   0  0  0  0  0  0  0  0  0  0  0  0
   18.9916   15.8529   22.0877 H   0  0  0  0  0  0  0  0  0  0  0  0
   19.4650   16.7660   20.6290 H   0  0  0  0  0  0  0  0  0  0  0  0
   20.3854   16.9634   22.1450 H   0  0  0  0  0  0  0  0  0  0  0  0
  1  2  1  0  0  0  0
  1  3  1  0  0  0  0
  1  4  1  0  0  0  0
  1  5  1  0  0  0  0
  5  6  1  0  0  0  0
  5  7  1  0  0  0  0
  5  8  1  0  0  0  0
  8  9  1  0  0  0  0
  8 10  1  0  0  0  0
  8 11  1  0  0  0  0
 11 12  1  0  0  0  0
 11 13  1  0  0  0  0
 11 14  1  0  0  0  0
 14 15  1  0  0  0  0
 14 16  1  0  0  0  0
 14 17  1  0  0  0  0
 17 18  1  0  0  0  0
 17 19  1  0  0  0  0
 17 20  1  0  0  0  0
M  END
> <VConfSearch Rank>
493

> <Conf_Id>
60

> <Delta U+W>
1.788

> <U+W>
17.127

> <U>
72.122

> <W>
-54.995

> <W(PB)>
-56.810

> <W(SA)>
1.815

> <Valence>
3.197

> <Coulomb>
69.115

> <VdW>
-0.190

> <VdW6>
-5.585

> <VdW12>
5.395

> <Bond>
0.177

> <Angle>
1.207

> <Pdih>
1.813

> <Idih>
0.000

> <Tether>
0.000

$$$$
VeraChem MOL file


 20 19  0  0  0  0  0  0  0  0999 V2000     
   18.1333   18.5990   22.7119 C   0  0  0  0  0  0  0  0  0  0  0  0
   17.1462   18.4685   22.2497 H   0  0  0  0  0  0  0  0  0  0  0  0
   18.0120   18.4856   23.7969 H   0  0  0  0  0  0  0  0  0  0  0  0
   18.4598   19.6267   22.5112 H   0  0  0  0  0  0  0  0  0  0  0  0
   19.1348   17.5614   22.1543 C   0  0  0  0  0  0  0  0  0  0  0  0
   19.2278   17.6729   21.0664 H   0  0  0  0  0  0  0  0  0  0  0  0
   18.7276   16.5536   22.3168 H   0  0  0  0  0  0  0  0  0  0  0  0
   20.5299   17.6450   22.8207 C   0  0  0  0  0  0  0  0  0  0  0  0
   20.4219   17.4203   23.8901 H   0  0  0  0  0  0  0  0  0  0  0  0
   21.1757   16.8567   22.4119 H   0  0  0  0  0  0  0  0  0  0  0  0
   21.2484   19.0080   22.6845 C   0  0  0  0  0  0  0  0  0  0  0  0
   22.1551   18.9696   23.2937 H   0  0  0  0  0  0  0  0  0  0  0  0
   20.6224   19.8131   23.0762 H   0  0  0  0  0  0  0  0  0  0  0  0
   21.6895   19.3811   21.2770 N   0  3  0  0  0  0  0  0  0  0  0  0
   21.9662   18.5381   20.7521 H   0  0  0  0  0  0  0  0  0  0  0  0
   22.5481   19.9510   21.3305 H   0  0  0  0  0  0  0  0  0  0  0  0
   20.6126   20.1679   20.5378 C   0  0  0  0  0  0  0  0  0  0  0  0
   20.3805   21.0738   21.1018 H   0  0  0  0  0  0  0  0  0  0  0  0
   20.9849   20.4384   19.5472 H   0  0  0  0  0  0  0  0  0  0  0  0
   19.7144   19.5580   20.4361 H   0  0  0  0  0  0  0  0  0  0  0  0
  1  2  1  0  0  0  0
  1  3  1  0  0  0  0
  1  4  1  0  0  0  0
  1  5  1  0  0  0  0
  5  6  1  0  0  0  0
  5  7  1  0  0  0  0
  5  8  1  0  0  0  0
  8  9  1  0  0  0  0
  8 10  1  0  0  0  0
  8 11  1  0  0  0  0
 11 12  1  0  0  0  0
 11 13  1  0  0  0  0
 11 14  1  0  0  0  0
 14 15  1  0  0  0  0
 14 16  1  0  0  0  0
 14 17  1  0  0  0  0
 17 18  1  0  0  0  0
 17 19  1  0  0  0  0
 17 20  1  0  0  0  0
M  END
> <VConfSearch Rank>
494

> <Conf_Id>
54

> <Delta U+W>
1.880

> <U+W>
17.218

> <U>
72.122

> <W>
-54.903

> <W(PB)>
-56.724

> <W(SA)>
1.821

> <Valence>
3.197

> <Coulomb>
69.115

> <VdW>
-0.190

> <VdW6>
-5.585

> <VdW12>
5.395

> <Bond>
0.177

> <Angle>
1.207

> <Pdih>
1.813

> <Idih>
0.000

> <Tether>
0.000

$$$$
VeraChem MOL file


 20 19  0  0  0  0  0  0  0  0999 V2000     
   18.4882   20.7906   24.0042 C   0  0  0  0  0  0  0  0  0  0  0  0
   18.2343   21.5616   23.2651 H   0  0  0  0  0  0  0  0  0  0  0  0
   17.6479   20.7079   24.7058 H   0  0  0  0  0  0  0  0  0  0  0  0
   19.3648   21.1342   24.5688 H   0  0  0  0  0  0  0  0  0  0  0  0
   18.7637   19.4338   23.3205 C   0  0  0  0  0  0  0  0  0  0  0  0
   17.8586   19.1001   22.7935 H   0  0  0  0  0  0  0  0  0  0  0  0
   18.9802   18.6760   24.0869 H   0  0  0  0  0  0  0  0  0  0  0  0
   19.9427   19.5202   22.3264 C   0  0  0  0  0  0  0  0  0  0  0  0
   19.7241   20.2749   21.5592 H   0  0  0  0  0  0  0  0  0  0  0  0
   20.8472   19.8504   22.8544 H   0  0  0  0  0  0  0  0  0  0  0  0
   20.2111   18.1635   21.6490 C   0  0  0  0  0  0  0  0  0  0  0  0
   19.3176   17.8392   21.1097 H   0  0  0  0  0  0  0  0  0  0  0  0
   20.4445   17.4135   22.4090 H   0  0  0  0  0  0  0  0  0  0  0  0
   21.3621   18.2002   20.6628 N   0  3  0  0  0  0  0  0  0  0  0  0
   22.2257   18.5106   21.1340 H   0  0  0  0  0  0  0  0  0  0  0  0
   21.1823   18.9047   19.9310 H   0  0  0  0  0  0  0  0  0  0  0  0
   21.5583   16.8237   20.0417 C   0  0  0  0  0  0  0  0  0  0  0  0
   20.6447   16.5308   19.5198 H   0  0  0  0  0  0  0  0  0  0  0  0
   22.3894   16.8645   19.3341 H   0  0  0  0  0  0  0  0  0  0  0  0
   21.7812   16.1015   20.8300 H   0  0  0  0  0  0  0  0  0  0  0  0
  1  2  1  0  0  0  0
  1  3  1  0  0  0  0
  1  4  1  0  0  0  0
  1  5  1  0  0  0  0
  5  6  1  0  0  0  0
  5  7  1  0  0  0  0
  5  8  1  0  0  0  0
  8  9  1  0  0  0  0
  8 10  1  0  0  0  0
  8 11  1  0  0  0  0
 11 12  1  0  0  0  0
 11 13  1  0  0  0  0
 11 14  1  0  0  0  0
 14 15  1  0  0  0  0
 14 16  1  0  0  0  0
 14 17  1  0  0  0  0
 17 18  1  0  0  0  0
 17 19  1  0  0  0  0
 17 20  1  0  0  0  0
M  END
> <VConfSearch Rank>
495

> <Conf_Id>
67

> <Delta U+W>
0.000

> <U+W>
15.338

> <U>
69.277

> <W>
-53.939

> <W(PB)>
-55.889

> <W(SA)>
1.950

> <Valence>
0.846

> <Coulomb>
68.557

> <VdW>
-0.127

> <VdW6>
-3.008

> <VdW12>
2.882

> <Bond>
0.088

> <Angle>
0.332

> <Pdih>
0.426

> <Idih>
0.000

> <Tether>
0.000

$$$$
VeraChem MOL file


 20 19  0  0  0  0  0  0  0  0999 V2000     
   19.9194   16.9183   19.7174 C   0  0  0  0  0  0  0  0  0  0  0  0
   20.4212   16.1582   20.3302 H   0  0  0  0  0  0  0  0  0  0  0  0
   19.1965   16.4048   19.0704 H   0  0  0  0  0  0  0  0  0  0  0  0
   20.6728   17.3889   19.0723 H   0  0  0  0  0  0  0  0  0  0  0  0
   19.2112   17.9673   20.6020 C   0  0  0  0  0  0  0  0  0  0  0  0
   18.4408   17.4720   21.2099 H   0  0  0  0  0  0  0  0  0  0  0  0
   18.6899   18.6928   19.9615 H   0  0  0  0  0  0  0  0  0  0  0  0
   20.2053   18.7069   21.5241 C   0  0  0  0  0  0  0  0  0  0  0  0
   20.7233   17.9787   22.1614 H   0  0  0  0  0  0  0  0  0  0  0  0
   20.9720   19.2049   20.9160 H   0  0  0  0  0  0  0  0  0  0  0  0
   19.4887   19.7534   22.4024 C   0  0  0  0  0  0  0  0  0  0  0  0
   18.7571   19.2590   23.0463 H   0  0  0  0  0  0  0  0  0  0  0  0
   18.9521   20.4518   21.7552 H   0  0  0  0  0  0  0  0  0  0  0  0
   20.4115   20.5757   23.2873 N   0  3  0  0  0  0  0  0  0  0  0  0
   19.8806   21.3524   23.7118 H   0  0  0  0  0  0  0  0  0  0  0  0
   21.1387   21.0339   22.7171 H   0  0  0  0  0  0  0  0  0  0  0  0
   21.0392   19.7193   24.3817 C   0  0  0  0  0  0  0  0  0  0  0  0
   21.6530   18.9402   23.9255 H   0  0  0  0  0  0  0  0  0  0  0  0
   21.6633   20.3517   25.0170 H   0  0  0  0  0  0  0  0  0  0  0  0
   20.2475   19.2640   24.9805 H   0  0  0  0  0  0  0  0  0  0  0  0
  1  2  1  0  0  0  0
  1  3  1  0  0  0  0
  1  4  1  0  0  0  0
  1  5  1  0  0  0  0
  5  6  1  0  0  0  0
  5  7  1  0  0  0  0
  5  8  1  0  0  0  0
  8  9  1  0  0  0  0
  8 10  1  0  0  0  0
  8 11  1  0  0  0  0
 11 12  1  0  0  0  0
 11 13  1  0  0  0  0
 11 14  1  0  0  0  0
 14 15  1  0  0  0  0
 14 16  1  0  0  0  0
 14 17  1  0  0  0  0
 17 18  1  0  0  0  0
 17 19  1  0  0  0  0
 17 20  1  0  0  0  0
M  END
> <VConfSearch Rank>
496

> <Conf_Id>
37

> <Delta U+W>
-0.021

> <U+W>
15.318

> <U>
69.657

> <W>
-54.340

> <W(PB)>
-56.238

> <W(SA)>
1.899

> <Valence>
1.137

> <Coulomb>
68.383

> <VdW>
0.138

> <VdW6>
-3.703

> <VdW12>
3.841

> <Bond>
0.125

> <Angle>
0.468

> <Pdih>
0.543

> <Idih>
0.000

> <Tether>
0.000

$$$$
VeraChem MOL file


 20 19  0  0  0  0  0  0  0  0999 V2000     
   22.9464   19.2017   22.3292 C   0  0  0  0  0  0  0  0  0  0  0  0
   23.8823   19.2620   21.7586 H   0  0  0  0  0  0  0  0  0  0  0  0
   22.7613   20.1871   22.7762 H   0  0  0  0  0  0  0  0  0  0  0  0
   23.0949   18.4800   23.1431 H   0  0  0  0  0  0  0  0  0  0  0  0
   21.7766   18.7766   21.4154 C   0  0  0  0  0  0  0  0  0  0  0  0
   22.0067   17.8047   20.9562 H   0  0  0  0  0  0  0  0  0  0  0  0
   21.6750   19.4985   20.5926 H   0  0  0  0  0  0  0  0  0  0  0  0
   20.4451   18.6830   22.1925 C   0  0  0  0  0  0  0  0  0  0  0  0
   20.5460   17.9586   23.0114 H   0  0  0  0  0  0  0  0  0  0  0  0
   20.2196   19.6553   22.6491 H   0  0  0  0  0  0  0  0  0  0  0  0
   19.2832   18.2563   21.2716 C   0  0  0  0  0  0  0  0  0  0  0  0
   19.5360   17.3031   20.8003 H   0  0  0  0  0  0  0  0  0  0  0  0
   19.1446   18.9980   20.4810 H   0  0  0  0  0  0  0  0  0  0  0  0
   17.9504   18.0709   21.9788 N   0  3  0  0  0  0  0  0  0  0  0  0
   18.0482   17.3995   22.7555 H   0  0  0  0  0  0  0  0  0  0  0  0
   17.2755   17.6314   21.3333 H   0  0  0  0  0  0  0  0  0  0  0  0
   17.3973   19.4016   22.4779 C   0  0  0  0  0  0  0  0  0  0  0  0
   17.2856   20.0841   21.6327 H   0  0  0  0  0  0  0  0  0  0  0  0
   16.4246   19.2320   22.9447 H   0  0  0  0  0  0  0  0  0  0  0  0
   18.0852   19.8285   23.2103 H   0  0  0  0  0  0  0  0  0  0  0  0
  1  2  1  0  0  0  0
  1  3  1  0  0  0  0
  1  4  1  0  0  0  0
  1  5  1  0  0  0  0
  5  6  1  0  0  0  0
  5  7  1  0  0  0  0
  5  8  1  0  0  0  0
  8  9  1  0  0  0  0
  8 10  1  0  0  0  0
  8 11  1  0  0  0  0
 11 12  1  0  0  0  0
 11 13  1  0  0  0  0
 11 14  1  0  0  0  0
 14 15  1  0  0  0  0
 14 16  1  0  0  0  0
 14 17  1  0  0  0  0
 17 18  1  0  0  0  0
 17 19  1  0  0  0  0
 17 20  1  0  0  0  0
M  END
> <VConfSearch Rank>
497

> <Conf_Id>
2

> <Delta U+W>
0.069

> <U+W>
15.407

> <U>
69.657

> <W>
-54.250

> <W(PB)>
-56.176

> <W(SA)>
1.926

> <Valence>
1.137

> <Coulomb>
68.383

> <VdW>
0.138

> <VdW6>
-3.703

> <VdW12>
3.841

> <Bond>
0.125

> <Angle>
0.468

> <Pdih>
0.543

> <Idih>
0.000

> <Tether>
0.000

$$$$
VeraChem MOL file


 20 19  0  0  0  0  0  0  0  0999 V2000     
   20.7561   18.0461   19.5565 C   0  0  0  0  0  0  0  0  0  0  0  0
   20.6702   19.1360   19.6506 H   0  0  0  0  0  0  0  0  0  0  0  0
   21.7828   17.7591   19.8186 H   0  0  0  0  0  0  0  0  0  0  0  0
   20.5970   17.7920   18.5005 H   0  0  0  0  0  0  0  0  0  0  0  0
   19.7283   17.3152   20.4507 C   0  0  0  0  0  0  0  0  0  0  0  0
   19.7869   16.2352   20.2550 H   0  0  0  0  0  0  0  0  0  0  0  0
   18.7110   17.6245   20.1723 H   0  0  0  0  0  0  0  0  0  0  0  0
   19.9543   17.5652   21.9602 C   0  0  0  0  0  0  0  0  0  0  0  0
   19.2415   16.9576   22.5336 H   0  0  0  0  0  0  0  0  0  0  0  0
   20.9586   17.2233   22.2436 H   0  0  0  0  0  0  0  0  0  0  0  0
   19.7828   19.0466   22.3490 C   0  0  0  0  0  0  0  0  0  0  0  0
   18.7824   19.3860   22.0691 H   0  0  0  0  0  0  0  0  0  0  0  0
   20.5148   19.6553   21.8128 H   0  0  0  0  0  0  0  0  0  0  0  0
   19.9642   19.3046   23.8319 N   0  3  0  0  0  0  0  0  0  0  0  0
   20.8971   18.9875   24.1375 H   0  0  0  0  0  0  0  0  0  0  0  0
   19.2928   18.7420   24.3766 H   0  0  0  0  0  0  0  0  0  0  0  0
   19.7813   20.7873   24.1274 C   0  0  0  0  0  0  0  0  0  0  0  0
   18.7764   21.0927   23.8279 H   0  0  0  0  0  0  0  0  0  0  0  0
   19.9144   20.9588   25.1979 H   0  0  0  0  0  0  0  0  0  0  0  0
   20.5239   21.3601   23.5677 H   0  0  0  0  0  0  0  0  0  0  0  0
  1  2  1  0  0  0  0
  1  3  1  0  0  0  0
  1  4  1  0  0  0  0
  1  5  1  0  0  0  0
  5  6  1  0  0  0  0
  5  7  1  0  0  0  0
  5  8  1  0  0  0  0
  8  9  1  0  0  0  0
  8 10  1  0  0  0  0
  8 11  1  0  0  0  0
 11 12  1  0  0  0  0
 11 13  1  0  0  0  0
 11 14  1  0  0  0  0
 14 15  1  0  0  0  0
 14 16  1  0  0  0  0
 14 17  1  0  0  0  0
 17 18  1  0  0  0  0
 17 19  1  0  0  0  0
 17 20  1  0  0  0  0
M  END
> <VConfSearch Rank>
498

> <Conf_Id>
34

> <Delta U+W>
0.276

> <U+W>
15.615

> <U>
69.798

> <W>
-54.184

> <W(PB)>
-56.116

> <W(SA)>
1.933

> <Valence>
1.134

> <Coulomb>
68.735

> <VdW>
-0.070

> <VdW6>
-3.565

> <VdW12>
3.494

> <Bond>
0.108

> <Angle>
0.456

> <Pdih>
0.569

> <Idih>
0.000

> <Tether>
0.000

$$$$
VeraChem MOL file


 20 19  0  0  0  0  0  0  0  0999 V2000     
   22.2453   19.9990   23.6974 C   0  0  0  0  0  0  0  0  0  0  0  0
   22.8614   20.6526   23.0662 H   0  0  0  0  0  0  0  0  0  0  0  0
   22.0985   20.5040   24.6610 H   0  0  0  0  0  0  0  0  0  0  0  0
   22.8083   19.0753   23.8843 H   0  0  0  0  0  0  0  0  0  0  0  0
   20.8875   19.6967   23.0273 C   0  0  0  0  0  0  0  0  0  0  0  0
   20.3355   20.6363   22.8827 H   0  0  0  0  0  0  0  0  0  0  0  0
   20.2844   19.0755   23.7033 H   0  0  0  0  0  0  0  0  0  0  0  0
   21.0671   18.9837   21.6661 C   0  0  0  0  0  0  0  0  0  0  0  0
   21.7037   19.5984   21.0160 H   0  0  0  0  0  0  0  0  0  0  0  0
   21.5933   18.0302   21.8067 H   0  0  0  0  0  0  0  0  0  0  0  0
   19.7296   18.7326   20.9413 C   0  0  0  0  0  0  0  0  0  0  0  0
   19.9281   18.3109   19.9526 H   0  0  0  0  0  0  0  0  0  0  0  0
   19.2011   19.6798   20.8068 H   0  0  0  0  0  0  0  0  0  0  0  0
   18.8017   17.7771   21.6679 N   0  3  0  0  0  0  0  0  0  0  0  0
   18.5856   18.1381   22.6088 H   0  0  0  0  0  0  0  0  0  0  0  0
   19.2728   16.8724   21.8219 H   0  0  0  0  0  0  0  0  0  0  0  0
   17.5226   17.5833   20.8647 C   0  0  0  0  0  0  0  0  0  0  0  0
   17.0247   18.5476   20.7426 H   0  0  0  0  0  0  0  0  0  0  0  0
   17.7720   17.1696   19.8852 H   0  0  0  0  0  0  0  0  0  0  0  0
   16.8646   16.8941   21.3985 H   0  0  0  0  0  0  0  0  0  0  0  0
  1  2  1  0  0  0  0
  1  3  1  0  0  0  0
  1  4  1  0  0  0  0
  1  5  1  0  0  0  0
  5  6  1  0  0  0  0
  5  7  1  0  0  0  0
  5  8  1  0  0  0  0
  8  9  1  0  0  0  0
  8 10  1  0  0  0  0
  8 11  1  0  0  0  0
 11 12  1  0  0  0  0
 11 13  1  0  0  0  0
 11 14  1  0  0  0  0
 14 15  1  0  0  0  0
 14 16  1  0  0  0  0
 14 17  1  0  0  0  0
 17 18  1  0  0  0  0
 17 19  1  0  0  0  0
 17 20  1  0  0  0  0
M  END
> <VConfSearch Rank>
499

> <Conf_Id>
50

> <Delta U+W>
0.319

> <U+W>
15.657

> <U>
69.962

> <W>
-54.305

> <W(PB)>
-56.223

> <W(SA)>
1.918

> <Valence>
0.982

> <Coulomb>
69.058

> <VdW>
-0.078

> <VdW6>
-3.548

> <VdW12>
3.471

> <Bond>
0.105

> <Angle>
0.408

> <Pdih>
0.469

> <Idih>
0.000

> <Tether>
0.000

$$$$
VeraChem MOL file


 20 19  0  0  0  0  0  0  0  0999 V2000     
   21.9554   20.9085   23.1822 C   0  0  0  0  0  0  0  0  0  0  0  0
   23.0507   20.8702   23.1201 H   0  0  0  0  0  0  0  0  0  0  0  0
   21.6354   21.9072   22.8574 H   0  0  0  0  0  0  0  0  0  0  0  0
   21.6740   20.7858   24.2362 H   0  0  0  0  0  0  0  0  0  0  0  0
   21.3202   19.8078   22.3053 C   0  0  0  0  0  0  0  0  0  0  0  0
   21.6937   18.8282   22.6330 H   0  0  0  0  0  0  0  0  0  0  0  0
   21.6457   19.9392   21.2636 H   0  0  0  0  0  0  0  0  0  0  0  0
   19.7752   19.8402   22.3760 C   0  0  0  0  0  0  0  0  0  0  0  0
   19.4418   19.6813   23.4101 H   0  0  0  0  0  0  0  0  0  0  0  0
   19.4195   20.8370   22.0833 H   0  0  0  0  0  0  0  0  0  0  0  0
   19.1122   18.7968   21.4544 C   0  0  0  0  0  0  0  0  0  0  0  0
   19.4483   18.9490   20.4257 H   0  0  0  0  0  0  0  0  0  0  0  0
   18.0275   18.9290   21.4807 H   0  0  0  0  0  0  0  0  0  0  0  0
   19.4067   17.3582   21.8359 N   0  3  0  0  0  0  0  0  0  0  0  0
   19.1109   17.1805   22.8081 H   0  0  0  0  0  0  0  0  0  0  0  0
   20.4231   17.1878   21.8224 H   0  0  0  0  0  0  0  0  0  0  0  0
   18.6949   16.4108   20.8795 C   0  0  0  0  0  0  0  0  0  0  0  0
   18.9153   15.3799   21.1652 H   0  0  0  0  0  0  0  0  0  0  0  0
   17.6182   16.5857   20.9346 H   0  0  0  0  0  0  0  0  0  0  0  0
   19.0474   16.5944   19.8623 H   0  0  0  0  0  0  0  0  0  0  0  0
  1  2  1  0  0  0  0
  1  3  1  0  0  0  0
  1  4  1  0  0  0  0
  1  5  1  0  0  0  0
  5  6  1  0  0  0  0
  5  7  1  0  0  0  0
  5  8  1  0  0  0  0
  8  9  1  0  0  0  0
  8 10  1  0  0  0  0
  8 11  1  0  0  0  0
 11 12  1  0  0  0  0
 11 13  1  0  0  0  0
 11 14  1  0  0  0  0
 14 15  1  0  0  0  0
 14 16  1  0  0  0  0
 14 17  1  0  0  0  0
 17 18  1  0  0  0  0
 17 19  1  0  0  0  0
 17 20  1  0  0  0  0
M  END
> <VConfSearch Rank>
500

> <Conf_Id>
35

> <Delta U+W>
0.360

> <U+W>
15.698

> <U>
69.962

> <W>
-54.264

> <W(PB)>
-56.166

> <W(SA)>
1.902

> <Valence>
0.982

> <Coulomb>
69.058

> <VdW>
-0.078

> <VdW6>
-3.548

> <VdW12>
3.471

> <Bond>
0.105

> <Angle>
0.408

> <Pdih>
0.469

> <Idih>
0.000

> <Tether>
0.000

$$$$
VeraChem MOL file


 20 19  0  0  0  0  0  0  0  0999 V2000     
   21.9077   18.5288   20.2388 C   0  0  0  0  0  0  0  0  0  0  0  0
   21.0732   17.9536   19.8182 H   0  0  0  0  0  0  0  0  0  0  0  0
   22.5901   18.7725   19.4142 H   0  0  0  0  0  0  0  0  0  0  0  0
   22.4495   17.8828   20.9418 H   0  0  0  0  0  0  0  0  0  0  0  0
   21.4154   19.8188   20.9344 C   0  0  0  0  0  0  0  0  0  0  0  0
   20.8730   20.4442   20.2115 H   0  0  0  0  0  0  0  0  0  0  0  0
   22.2861   20.4061   21.2584 H   0  0  0  0  0  0  0  0  0  0  0  0
   20.5147   19.5376   22.1598 C   0  0  0  0  0  0  0  0  0  0  0  0
   21.0744   18.9446   22.8945 H   0  0  0  0  0  0  0  0  0  0  0  0
   20.2667   20.4897   22.6472 H   0  0  0  0  0  0  0  0  0  0  0  0
   19.2076   18.8093   21.7797 C   0  0  0  0  0  0  0  0  0  0  0  0
   19.4378   17.8297   21.3541 H   0  0  0  0  0  0  0  0  0  0  0  0
   18.6841   19.3943   21.0192 H   0  0  0  0  0  0  0  0  0  0  0  0
   18.2415   18.6001   22.9344 N   0  3  0  0  0  0  0  0  0  0  0  0
   17.3369   18.2613   22.5708 H   0  0  0  0  0  0  0  0  0  0  0  0
   18.0237   19.5013   23.3860 H   0  0  0  0  0  0  0  0  0  0  0  0
   18.7971   17.6053   23.9478 C   0  0  0  0  0  0  0  0  0  0  0  0
   19.7199   18.0011   24.3762 H   0  0  0  0  0  0  0  0  0  0  0  0
   18.0611   17.4536   24.7405 H   0  0  0  0  0  0  0  0  0  0  0  0
   18.9986   16.6561   23.4466 H   0  0  0  0  0  0  0  0  0  0  0  0
  1  2  1  0  0  0  0
  1  3  1  0  0  0  0
  1  4  1  0  0  0  0
  1  5  1  0  0  0  0
  5  6  1  0  0  0  0
  5  7  1  0  0  0  0
  5  8  1  0  0  0  0
  8  9  1  0  0  0  0
  8 10  1  0  0  0  0
  8 11  1  0  0  0  0
 11 12  1  0  0  0  0
 11 13  1  0  0  0  0
 11 14  1  0  0  0  0
 14 15  1  0  0  0  0
 14 16  1  0  0  0  0
 14 17  1  0  0  0  0
 17 18  1  0  0  0  0
 17 19  1  0  0  0  0
 17 20  1  0  0  0  0
M  END
> <VConfSearch Rank>
501

> <Conf_Id>
33

> <Delta U+W>
0.372

> <U+W>
15.711

> <U>
70.163

> <W>
-54.452

> <W(PB)>
-56.363

> <W(SA)>
1.911

> <Valence>
1.420

> <Coulomb>
68.566

> <VdW>
0.177

> <VdW6>
-4.267

> <VdW12>
4.445

> <Bond>
0.146

> <Angle>
0.581

> <Pdih>
0.693

> <Idih>
0.000

> <Tether>
0.000

$$$$
VeraChem MOL file


 20 19  0  0  0  0  0  0  0  0999 V2000     
   18.4961   18.2123   23.9045 C   0  0  0  0  0  0  0  0  0  0  0  0
   17.5819   18.1528   24.5092 H   0  0  0  0  0  0  0  0  0  0  0  0
   18.5519   17.2991   23.2987 H   0  0  0  0  0  0  0  0  0  0  0  0
   19.3520   18.2205   24.5918 H   0  0  0  0  0  0  0  0  0  0  0  0
   18.4800   19.4807   23.0207 C   0  0  0  0  0  0  0  0  0  0  0  0
   18.3316   20.3619   23.6606 H   0  0  0  0  0  0  0  0  0  0  0  0
   17.6180   19.4452   22.3396 H   0  0  0  0  0  0  0  0  0  0  0  0
   19.7813   19.6650   22.2055 C   0  0  0  0  0  0  0  0  0  0  0  0
   19.7320   20.6188   21.6640 H   0  0  0  0  0  0  0  0  0  0  0  0
   20.6341   19.7373   22.8928 H   0  0  0  0  0  0  0  0  0  0  0  0
   20.0142   18.5216   21.1946 C   0  0  0  0  0  0  0  0  0  0  0  0
   19.1390   18.4392   20.5450 H   0  0  0  0  0  0  0  0  0  0  0  0
   20.1322   17.5740   21.7254 H   0  0  0  0  0  0  0  0  0  0  0  0
   21.2275   18.7075   20.2981 N   0  3  0  0  0  0  0  0  0  0  0  0
   21.1705   19.6099   19.8020 H   0  0  0  0  0  0  0  0  0  0  0  0
   21.2179   17.9947   19.5518 H   0  0  0  0  0  0  0  0  0  0  0  0
   22.5245   18.6063   21.0937 C   0  0  0  0  0  0  0  0  0  0  0  0
   23.3714   18.7075   20.4114 H   0  0  0  0  0  0  0  0  0  0  0  0
   22.5567   19.4044   21.8379 H   0  0  0  0  0  0  0  0  0  0  0  0
   22.5666   17.6347   21.5905 H   0  0  0  0  0  0  0  0  0  0  0  0
  1  2  1  0  0  0  0
  1  3  1  0  0  0  0
  1  4  1  0  0  0  0
  1  5  1  0  0  0  0
  5  6  1  0  0  0  0
  5  7  1  0  0  0  0
  5  8  1  0  0  0  0
  8  9  1  0  0  0  0
  8 10  1  0  0  0  0
  8 11  1  0  0  0  0
 11 12  1  0  0  0  0
 11 13  1  0  0  0  0
 11 14  1  0  0  0  0
 14 15  1  0  0  0  0
 14 16  1  0  0  0  0
 14 17  1  0  0  0  0
 17 18  1  0  0  0  0
 17 19  1  0  0  0  0
 17 20  1  0  0  0  0
M  END
> <VConfSearch Rank>
502

> <Conf_Id>
53

> <Delta U+W>
0.379

> <U+W>
15.717

> <U>
70.163

> <W>
-54.446

> <W(PB)>
-56.322

> <W(SA)>
1.876

> <Valence>
1.420

> <Coulomb>
68.566

> <VdW>
0.177

> <VdW6>
-4.267

> <VdW12>
4.445

> <Bond>
0.146

> <Angle>
0.581

> <Pdih>
0.693

> <Idih>
0.000

> <Tether>
0.000

$$$$
VeraChem MOL file


 20 19  0  0  0  0  0  0  0  0999 V2000     
   22.0519   20.8126   22.4325 C   0  0  0  0  0  0  0  0  0  0  0  0
   22.1953   21.4246   23.3324 H   0  0  0  0  0  0  0  0  0  0  0  0
   23.0424   20.4982   22.0787 H   0  0  0  0  0  0  0  0  0  0  0  0
   21.6001   21.4499   21.6611 H   0  0  0  0  0  0  0  0  0  0  0  0
   21.1571   19.5923   22.7394 C   0  0  0  0  0  0  0  0  0  0  0  0
   20.1912   19.9442   23.1264 H   0  0  0  0  0  0  0  0  0  0  0  0
   21.6196   18.9923   23.5358 H   0  0  0  0  0  0  0  0  0  0  0  0
   20.9375   18.7135   21.4855 C   0  0  0  0  0  0  0  0  0  0  0  0
   20.4509   19.3006   20.6959 H   0  0  0  0  0  0  0  0  0  0  0  0
   21.9116   18.4051   21.0835 H   0  0  0  0  0  0  0  0  0  0  0  0
   20.1099   17.4427   21.7800 C   0  0  0  0  0  0  0  0  0  0  0  0
   20.6365   16.8415   22.5256 H   0  0  0  0  0  0  0  0  0  0  0  0
   20.0232   16.8451   20.8691 H   0  0  0  0  0  0  0  0  0  0  0  0
   18.7031   17.6877   22.3048 N   0  3  0  0  0  0  0  0  0  0  0  0
   18.7379   18.2531   23.1657 H   0  0  0  0  0  0  0  0  0  0  0  0
   18.2814   16.7909   22.5931 H   0  0  0  0  0  0  0  0  0  0  0  0
   17.8271   18.3575   21.2517 C   0  0  0  0  0  0  0  0  0  0  0  0
   17.7927   17.7282   20.3597 H   0  0  0  0  0  0  0  0  0  0  0  0
   16.8188   18.4833   21.6522 H   0  0  0  0  0  0  0  0  0  0  0  0
   18.2459   19.3339   21.0003 H   0  0  0  0  0  0  0  0  0  0  0  0
  1  2  1  0  0  0  0
  1  3  1  0  0  0  0
  1  4  1  0  0  0  0
  1  5  1  0  0  0  0
  5  6  1  0  0  0  0
  5  7  1  0  0  0  0
  5  8  1  0  0  0  0
  8  9  1  0  0  0  0
  8 10  1  0  0  0  0
  8 11  1  0  0  0  0
 11 12  1  0  0  0  0
 11 13  1  0  0  0  0
 11 14  1  0  0  0  0
 14 15  1  0  0  0  0
 14 16  1  0  0  0  0
 14 17  1  0  0  0  0
 17 18  1  0  0  0  0
 17 19  1  0  0  0  0
 17 20  1  0  0  0  0
M  END
> <VConfSearch Rank>
503

> <Conf_Id>
49

> <Delta U+W>
0.268

> <U+W>
15.607

> <U>
70.298

> <W>
-54.692

> <W(PB)>
-56.576

> <W(SA)>
1.885

> <Valence>
1.245

> <Coulomb>
68.933

> <VdW>
0.120

> <VdW6>
-4.430

> <VdW12>
4.550

> <Bond>
0.148

> <Angle>
0.587

> <Pdih>
0.509

> <Idih>
0.000

> <Tether>
0.000

$$$$
VeraChem MOL file


 20 19  0  0  0  0  0  0  0  0999 V2000     
   21.1467   19.1897   19.4599 C   0  0  0  0  0  0  0  0  0  0  0  0
   20.5671   18.4919   18.8415 H   0  0  0  0  0  0  0  0  0  0  0  0
   20.9304   20.2101   19.1177 H   0  0  0  0  0  0  0  0  0  0  0  0
   22.2116   18.9939   19.2794 H   0  0  0  0  0  0  0  0  0  0  0  0
   20.8069   19.0202   20.9566 C   0  0  0  0  0  0  0  0  0  0  0  0
   21.4216   19.7105   21.5512 H   0  0  0  0  0  0  0  0  0  0  0  0
   21.0742   18.0015   21.2672 H   0  0  0  0  0  0  0  0  0  0  0  0
   19.3083   19.2800   21.2366 C   0  0  0  0  0  0  0  0  0  0  0  0
   19.0291   20.2552   20.8161 H   0  0  0  0  0  0  0  0  0  0  0  0
   18.6976   18.5329   20.7128 H   0  0  0  0  0  0  0  0  0  0  0  0
   18.9374   19.2857   22.7370 C   0  0  0  0  0  0  0  0  0  0  0  0
   17.8779   19.5412   22.8210 H   0  0  0  0  0  0  0  0  0  0  0  0
   19.5060   20.0544   23.2663 H   0  0  0  0  0  0  0  0  0  0  0  0
   19.1276   17.9647   23.4665 N   0  3  0  0  0  0  0  0  0  0  0  0
   18.9527   17.1734   22.8294 H   0  0  0  0  0  0  0  0  0  0  0  0
   18.4087   17.8753   24.2015 H   0  0  0  0  0  0  0  0  0  0  0  0
   20.5103   17.8739   24.1041 C   0  0  0  0  0  0  0  0  0  0  0  0
   20.5967   16.9234   24.6352 H   0  0  0  0  0  0  0  0  0  0  0  0
   21.2780   17.9320   23.3317 H   0  0  0  0  0  0  0  0  0  0  0  0
   20.6344   18.6994   24.8083 H   0  0  0  0  0  0  0  0  0  0  0  0
  1  2  1  0  0  0  0
  1  3  1  0  0  0  0
  1  4  1  0  0  0  0
  1  5  1  0  0  0  0
  5  6  1  0  0  0  0
  5  7  1  0  0  0  0
  5  8  1  0  0  0  0
  8  9  1  0  0  0  0
  8 10  1  0  0  0  0
  8 11  1  0  0  0  0
 11 12  1  0  0  0  0
 11 13  1  0  0  0  0
 11 14  1  0  0  0  0
 14 15  1  0  0  0  0
 14 16  1  0  0  0  0
 14 17  1  0  0  0  0
 17 18  1  0  0  0  0
 17 19  1  0  0  0  0
 17 20  1  0  0  0  0
M  END
> <VConfSearch Rank>
504

> <Conf_Id>
65

> <Delta U+W>
1.775

> <U+W>
17.114

> <U>
71.726

> <W>
-54.613

> <W(PB)>
-56.495

> <W(SA)>
1.883

> <Valence>
2.885

> <Coulomb>
68.822

> <VdW>
0.019

> <VdW6>
-4.600

> <VdW12>
4.619

> <Bond>
0.152

> <Angle>
0.862

> <Pdih>
1.871

> <Idih>
0.000

> <Tether>
0.000

$$$$
VeraChem MOL file


 20 19  0  0  0  0  0  0  0  0999 V2000     
   18.4622   19.4734   23.6032 C   0  0  0  0  0  0  0  0  0  0  0  0
   19.5066   19.4501   23.9391 H   0  0  0  0  0  0  0  0  0  0  0  0
   18.0067   20.3885   24.0033 H   0  0  0  0  0  0  0  0  0  0  0  0
   17.9397   18.6173   24.0493 H   0  0  0  0  0  0  0  0  0  0  0  0
   18.3586   19.4457   22.0609 C   0  0  0  0  0  0  0  0  0  0  0  0
   18.8875   20.3112   21.6392 H   0  0  0  0  0  0  0  0  0  0  0  0
   17.3050   19.5649   21.7717 H   0  0  0  0  0  0  0  0  0  0  0  0
   18.9007   18.1343   21.4394 C   0  0  0  0  0  0  0  0  0  0  0  0
   18.2939   17.2899   21.7924 H   0  0  0  0  0  0  0  0  0  0  0  0
   18.7730   18.1673   20.3492 H   0  0  0  0  0  0  0  0  0  0  0  0
   20.3809   17.8486   21.7684 C   0  0  0  0  0  0  0  0  0  0  0  0
   20.6740   16.8954   21.3211 H   0  0  0  0  0  0  0  0  0  0  0  0
   20.5084   17.7681   22.8505 H   0  0  0  0  0  0  0  0  0  0  0  0
   21.3404   18.9085   21.2619 N   0  3  0  0  0  0  0  0  0  0  0  0
   21.0914   19.8272   21.6573 H   0  0  0  0  0  0  0  0  0  0  0  0
   21.2470   19.0136   20.2400 H   0  0  0  0  0  0  0  0  0  0  0  0
   22.7695   18.5368   21.6333 C   0  0  0  0  0  0  0  0  0  0  0  0
   23.0213   17.5764   21.1782 H   0  0  0  0  0  0  0  0  0  0  0  0
   23.4486   19.3084   21.2639 H   0  0  0  0  0  0  0  0  0  0  0  0
   22.8516   18.4636   22.7199 H   0  0  0  0  0  0  0  0  0  0  0  0
  1  2  1  0  0  0  0
  1  3  1  0  0  0  0
  1  4  1  0  0  0  0
  1  5  1  0  0  0  0
  5  6  1  0  0  0  0
  5  7  1  0  0  0  0
  5  8  1  0  0  0  0
  8  9  1  0  0  0  0
  8 10  1  0  0  0  0
  8 11  1  0  0  0  0
 11 12  1  0  0  0  0
 11 13  1  0  0  0  0
 11 14  1  0  0  0  0
 14 15  1  0  0  0  0
 14 16  1  0  0  0  0
 14 17  1  0  0  0  0
 17 18  1  0  0  0  0
 17 19  1  0  0  0  0
 17 20  1  0  0  0  0
M  END
> <VConfSearch Rank>
505

> <Conf_Id>
23

> <Delta U+W>
0.896

> <U+W>
16.234

> <U>
70.374

> <W>
-54.140

> <W(PB)>
-56.046

> <W(SA)>
1.907

> <Valence>
1.257

> <Coulomb>
69.240

> <VdW>
-0.123

> <VdW6>
-4.336

> <VdW12>
4.213

> <Bond>
0.128

> <Angle>
0.603

> <Pdih>
0.526

> <Idih>
0.000

> <Tether>
0.000

$$$$
VeraChem MOL file


 20 19  0  0  0  0  0  0  0  0999 V2000     
   18.9951   17.4676   20.3931 C   0  0  0  0  0  0  0  0  0  0  0  0
   19.0409   17.9472   19.4067 H   0  0  0  0  0  0  0  0  0  0  0  0
   18.4868   16.5022   20.2721 H   0  0  0  0  0  0  0  0  0  0  0  0
   18.3717   18.0896   21.0477 H   0  0  0  0  0  0  0  0  0  0  0  0
   20.4114   17.2650   20.9790 C   0  0  0  0  0  0  0  0  0  0  0  0
   20.9652   16.5632   20.3396 H   0  0  0  0  0  0  0  0  0  0  0  0
   20.3388   16.7838   21.9638 H   0  0  0  0  0  0  0  0  0  0  0  0
   21.2180   18.5832   21.0873 C   0  0  0  0  0  0  0  0  0  0  0  0
   22.2194   18.3667   21.4826 H   0  0  0  0  0  0  0  0  0  0  0  0
   21.3697   18.9970   20.0816 H   0  0  0  0  0  0  0  0  0  0  0  0
   20.5473   19.6592   21.9666 C   0  0  0  0  0  0  0  0  0  0  0  0
   19.5685   19.9144   21.5534 H   0  0  0  0  0  0  0  0  0  0  0  0
   21.1617   20.5631   21.9648 H   0  0  0  0  0  0  0  0  0  0  0  0
   20.3504   19.2400   23.4109 N   0  3  0  0  0  0  0  0  0  0  0  0
   21.2566   18.9895   23.8351 H   0  0  0  0  0  0  0  0  0  0  0  0
   19.7795   18.3828   23.4543 H   0  0  0  0  0  0  0  0  0  0  0  0
   19.6858   20.3646   24.1931 C   0  0  0  0  0  0  0  0  0  0  0  0
   18.7151   20.5894   23.7458 H   0  0  0  0  0  0  0  0  0  0  0  0
   19.5492   20.0488   25.2298 H   0  0  0  0  0  0  0  0  0  0  0  0
   20.3225   21.2513   24.1594 H   0  0  0  0  0  0  0  0  0  0  0  0
  1  2  1  0  0  0  0
  1  3  1  0  0  0  0
  1  4  1  0  0  0  0
  1  5  1  0  0  0  0
  5  6  1  0  0  0  0
  5  7  1  0  0  0  0
  5  8  1  0  0  0  0
  8  9  1  0  0  0  0
  8 10  1  0  0  0  0
  8 11  1  0  0  0  0
 11 12  1  0  0  0  0
 11 13  1  0  0  0  0
 11 14  1  0  0  0  0
 14 15  1  0  0  0  0
 14 16  1  0  0  0  0
 14 17  1  0  0  0  0
 17 18  1  0  0  0  0
 17 19  1  0  0  0  0
 17 20  1  0  0  0  0
M  END
> <VConfSearch Rank>
506

> <Conf_Id>
24

> <Delta U+W>
0.792

> <U+W>
16.130

> <U>
70.374

> <W>
-54.243

> <W(PB)>
-56.130

> <W(SA)>
1.887

> <Valence>
1.257

> <Coulomb>
69.240

> <VdW>
-0.123

> <VdW6>
-4.336

> <VdW12>
4.213

> <Bond>
0.128

> <Angle>
0.603

> <Pdih>
0.526

> <Idih>
0.000

> <Tether>
0.000

$$$$
VeraChem MOL file


 20 19  0  0  0  0  0  0  0  0999 V2000     
   20.7733   19.5149   23.9305 C   0  0  0  0  0  0  0  0  0  0  0  0
   21.4555   19.9134   24.6928 H   0  0  0  0  0  0  0  0  0  0  0  0
   20.7478   20.2427   23.1109 H   0  0  0  0  0  0  0  0  0  0  0  0
   19.7741   19.4502   24.3806 H   0  0  0  0  0  0  0  0  0  0  0  0
   21.2625   18.1308   23.4462 C   0  0  0  0  0  0  0  0  0  0  0  0
   21.4744   17.5065   24.3256 H   0  0  0  0  0  0  0  0  0  0  0  0
   22.2195   18.2457   22.9180 H   0  0  0  0  0  0  0  0  0  0  0  0
   20.2561   17.3746   22.5416 C   0  0  0  0  0  0  0  0  0  0  0  0
   20.6785   16.3857   22.3193 H   0  0  0  0  0  0  0  0  0  0  0  0
   19.3203   17.1870   23.0846 H   0  0  0  0  0  0  0  0  0  0  0  0
   19.9564   18.0722   21.1978 C   0  0  0  0  0  0  0  0  0  0  0  0
   19.5639   17.3352   20.4926 H   0  0  0  0  0  0  0  0  0  0  0  0
   20.8795   18.4822   20.7807 H   0  0  0  0  0  0  0  0  0  0  0  0
   18.9323   19.1876   21.2867 N   0  3  0  0  0  0  0  0  0  0  0  0
   19.2313   19.8860   21.9820 H   0  0  0  0  0  0  0  0  0  0  0  0
   18.0353   18.8181   21.6372 H   0  0  0  0  0  0  0  0  0  0  0  0
   18.7468   19.8349   19.9210 C   0  0  0  0  0  0  0  0  0  0  0  0
   19.7009   20.2470   19.5855 H   0  0  0  0  0  0  0  0  0  0  0  0
   18.3993   19.0819   19.2104 H   0  0  0  0  0  0  0  0  0  0  0  0
   18.0076   20.6350   20.0003 H   0  0  0  0  0  0  0  0  0  0  0  0
  1  2  1  0  0  0  0
  1  3  1  0  0  0  0
  1  4  1  0  0  0  0
  1  5  1  0  0  0  0
  5  6  1  0  0  0  0
  5  7  1  0  0  0  0
  5  8  1  0  0  0  0
  8  9  1  0  0  0  0
  8 10  1  0  0  0  0
  8 11  1  0  0  0  0
 11 12  1  0  0  0  0
 11 13  1  0  0  0  0
 11 14  1  0  0  0  0
 14 15  1  0  0  0  0
 14 16  1  0  0  0  0
 14 17  1  0  0  0  0
 17 18  1  0  0  0  0
 17 19  1  0  0  0  0
 17 20  1  0  0  0  0
M  END
> <VConfSearch Rank>
507

> <Conf_Id>
26

> <Delta U+W>
2.888

> <U+W>
18.226

> <U>
72.042

> <W>
-53.816

> <W(PB)>
-55.689

> <W(SA)>
1.873

> <Valence>
2.428

> <Coulomb>
69.829

> <VdW>
-0.215

> <VdW6>
-4.563

> <VdW12>
4.348

> <Bond>
0.137

> <Angle>
0.936

> <Pdih>
1.356

> <Idih>
0.000

> <Tether>
0.000

$$$$
VeraChem MOL file


 20 19  0  0  0  0  0  0  0  0999 V2000     
   18.1320   18.6486   22.9724 C   0  0  0  0  0  0  0  0  0  0  0  0
   17.0470   18.5679   23.1191 H   0  0  0  0  0  0  0  0  0  0  0  0
   18.6045   18.6100   23.9625 H   0  0  0  0  0  0  0  0  0  0  0  0
   18.3230   19.6313   22.5252 H   0  0  0  0  0  0  0  0  0  0  0  0
   18.6354   17.5037   22.0641 C   0  0  0  0  0  0  0  0  0  0  0  0
   18.2171   17.6267   21.0551 H   0  0  0  0  0  0  0  0  0  0  0  0
   18.2357   16.5530   22.4444 H   0  0  0  0  0  0  0  0  0  0  0  0
   20.1785   17.3845   21.9770 C   0  0  0  0  0  0  0  0  0  0  0  0
   20.6032   17.1861   22.9700 H   0  0  0  0  0  0  0  0  0  0  0  0
   20.4154   16.5029   21.3667 H   0  0  0  0  0  0  0  0  0  0  0  0
   20.8778   18.6025   21.3370 C   0  0  0  0  0  0  0  0  0  0  0  0
   20.2980   18.9528   20.4795 H   0  0  0  0  0  0  0  0  0  0  0  0
   21.8647   18.2999   20.9780 H   0  0  0  0  0  0  0  0  0  0  0  0
   21.0905   19.7697   22.2823 N   0  3  0  0  0  0  0  0  0  0  0  0
   21.6736   19.4771   23.0813 H   0  0  0  0  0  0  0  0  0  0  0  0
   20.1912   20.0603   22.6913 H   0  0  0  0  0  0  0  0  0  0  0  0
   21.7425   20.9288   21.5407 C   0  0  0  0  0  0  0  0  0  0  0  0
   21.0930   21.2423   20.7206 H   0  0  0  0  0  0  0  0  0  0  0  0
   21.8894   21.7607   22.2330 H   0  0  0  0  0  0  0  0  0  0  0  0
   22.7074   20.6049   21.1447 H   0  0  0  0  0  0  0  0  0  0  0  0
  1  2  1  0  0  0  0
  1  3  1  0  0  0  0
  1  4  1  0  0  0  0
  1  5  1  0  0  0  0
  5  6  1  0  0  0  0
  5  7  1  0  0  0  0
  5  8  1  0  0  0  0
  8  9  1  0  0  0  0
  8 10  1  0  0  0  0
  8 11  1  0  0  0  0
 11 12  1  0  0  0  0
 11 13  1  0  0  0  0
 11 14  1  0  0  0  0
 14 15  1  0  0  0  0
 14 16  1  0  0  0  0
 14 17  1  0  0  0  0
 17 18  1  0  0  0  0
 17 19  1  0  0  0  0
 17 20  1  0  0  0  0
M  END
> <VConfSearch Rank>
508

> <Conf_Id>
5

> <Delta U+W>
2.950

> <U+W>
18.289

> <U>
72.042

> <W>
-53.753

> <W(PB)>
-55.644

> <W(SA)>
1.891

> <Valence>
2.428

> <Coulomb>
69.829

> <VdW>
-0.215

> <VdW6>
-4.563

> <VdW12>
4.348

> <Bond>
0.137

> <Angle>
0.936

> <Pdih>
1.356

> <Idih>
0.000

> <Tether>
0.000

$$$$
VeraChem MOL file


 20 19  0  0  0  0  0  0  0  0999 V2000     
   19.1596   19.7762   24.0806 C   0  0  0  0  0  0  0  0  0  0  0  0
   18.1096   19.5019   24.2458 H   0  0  0  0  0  0  0  0  0  0  0  0
   19.7849   18.9180   24.3569 H   0  0  0  0  0  0  0  0  0  0  0  0
   19.4025   20.5974   24.7673 H   0  0  0  0  0  0  0  0  0  0  0  0
   19.3971   20.2067   22.6148 C   0  0  0  0  0  0  0  0  0  0  0  0
   20.4520   20.4796   22.4748 H   0  0  0  0  0  0  0  0  0  0  0  0
   18.8190   21.1192   22.4125 H   0  0  0  0  0  0  0  0  0  0  0  0
   18.9889   19.1202   21.5891 C   0  0  0  0  0  0  0  0  0  0  0  0
   17.9117   18.9271   21.6775 H   0  0  0  0  0  0  0  0  0  0  0  0
   19.1440   19.5028   20.5721 H   0  0  0  0  0  0  0  0  0  0  0  0
   19.7436   17.7816   21.7572 C   0  0  0  0  0  0  0  0  0  0  0  0
   19.4028   17.0723   20.9987 H   0  0  0  0  0  0  0  0  0  0  0  0
   19.5073   17.3608   22.7376 H   0  0  0  0  0  0  0  0  0  0  0  0
   21.2583   17.8749   21.6552 N   0  3  0  0  0  0  0  0  0  0  0  0
   21.6791   16.9697   21.9171 H   0  0  0  0  0  0  0  0  0  0  0  0
   21.6176   18.5473   22.3486 H   0  0  0  0  0  0  0  0  0  0  0  0
   21.6954   18.2627   20.2470 C   0  0  0  0  0  0  0  0  0  0  0  0
   21.2961   19.2491   20.0029 H   0  0  0  0  0  0  0  0  0  0  0  0
   22.7865   18.2883   20.2052 H   0  0  0  0  0  0  0  0  0  0  0  0
   21.3173   17.5239   19.5372 H   0  0  0  0  0  0  0  0  0  0  0  0
  1  2  1  0  0  0  0
  1  3  1  0  0  0  0
  1  4  1  0  0  0  0
  1  5  1  0  0  0  0
  5  6  1  0  0  0  0
  5  7  1  0  0  0  0
  5  8  1  0  0  0  0
  8  9  1  0  0  0  0
  8 10  1  0  0  0  0
  8 11  1  0  0  0  0
 11 12  1  0  0  0  0
 11 13  1  0  0  0  0
 11 14  1  0  0  0  0
 14 15  1  0  0  0  0
 14 16  1  0  0  0  0
 14 17  1  0  0  0  0
 17 18  1  0  0  0  0
 17 19  1  0  0  0  0
 17 20  1  0  0  0  0
M  END
> <VConfSearch Rank>
509

> <Conf_Id>
52

> <Delta U+W>
0.784

> <U+W>
16.122

> <U>
70.777

> <W>
-54.655

> <W(PB)>
-56.491

> <W(SA)>
1.836

> <Valence>
1.529

> <Coulomb>
69.166

> <VdW>
0.082

> <VdW6>
-5.166

> <VdW12>
5.248

> <Bond>
0.171

> <Angle>
0.752

> <Pdih>
0.605

> <Idih>
0.000

> <Tether>
0.000

$$$$
VeraChem MOL file


 20 19  0  0  0  0  0  0  0  0999 V2000     
   18.0996   18.5108   21.3221 C   0  0  0  0  0  0  0  0  0  0  0  0
   17.1643   18.1624   20.8650 H   0  0  0  0  0  0  0  0  0  0  0  0
   18.1197   18.1218   22.3465 H   0  0  0  0  0  0  0  0  0  0  0  0
   18.0634   19.6074   21.3593 H   0  0  0  0  0  0  0  0  0  0  0  0
   19.3128   18.0161   20.5019 C   0  0  0  0  0  0  0  0  0  0  0  0
   19.1279   18.2331   19.4404 H   0  0  0  0  0  0  0  0  0  0  0  0
   19.3873   16.9223   20.5792 H   0  0  0  0  0  0  0  0  0  0  0  0
   20.6640   18.6622   20.9015 C   0  0  0  0  0  0  0  0  0  0  0  0
   21.4273   18.3088   20.1957 H   0  0  0  0  0  0  0  0  0  0  0  0
   20.6185   19.7504   20.7688 H   0  0  0  0  0  0  0  0  0  0  0  0
   21.1485   18.3103   22.3274 C   0  0  0  0  0  0  0  0  0  0  0  0
   22.2196   18.5133   22.4035 H   0  0  0  0  0  0  0  0  0  0  0  0
   20.9989   17.2417   22.5011 H   0  0  0  0  0  0  0  0  0  0  0  0
   20.4725   19.0665   23.4603 N   0  3  0  0  0  0  0  0  0  0  0  0
   20.7213   18.6317   24.3627 H   0  0  0  0  0  0  0  0  0  0  0  0
   19.4499   18.9719   23.3873 H   0  0  0  0  0  0  0  0  0  0  0  0
   20.8798   20.5358   23.4649 C   0  0  0  0  0  0  0  0  0  0  0  0
   21.9655   20.6073   23.5584 H   0  0  0  0  0  0  0  0  0  0  0  0
   20.5567   21.0052   22.5338 H   0  0  0  0  0  0  0  0  0  0  0  0
   20.4042   21.0362   24.3113 H   0  0  0  0  0  0  0  0  0  0  0  0
  1  2  1  0  0  0  0
  1  3  1  0  0  0  0
  1  4  1  0  0  0  0
  1  5  1  0  0  0  0
  5  6  1  0  0  0  0
  5  7  1  0  0  0  0
  5  8  1  0  0  0  0
  8  9  1  0  0  0  0
  8 10  1  0  0  0  0
  8 11  1  0  0  0  0
 11 12  1  0  0  0  0
 11 13  1  0  0  0  0
 11 14  1  0  0  0  0
 14 15  1  0  0  0  0
 14 16  1  0  0  0  0
 14 17  1  0  0  0  0
 17 18  1  0  0  0  0
 17 19  1  0  0  0  0
 17 20  1  0  0  0  0
M  END
> <VConfSearch Rank>
510

> <Conf_Id>
55

> <Delta U+W>
2.745

> <U+W>
18.083

> <U>
72.490

> <W>
-54.407

> <W(PB)>
-56.269

> <W(SA)>
1.861

> <Valence>
2.738

> <Coulomb>
69.795

> <VdW>
-0.043

> <VdW6>
-5.333

> <VdW12>
5.290

> <Bond>
0.182

> <Angle>
1.135

> <Pdih>
1.422

> <Idih>
0.000

> <Tether>
0.000

$$$$
VeraChem MOL file


 20 19  0  0  0  0  0  0  0  0999 V2000     
   18.4001   20.1119   21.4308 C   0  0  0  0  0  0  0  0  0  0  0  0
   17.6555   20.7613   20.9523 H   0  0  0  0  0  0  0  0  0  0  0  0
   17.8965   19.5697   22.2418 H   0  0  0  0  0  0  0  0  0  0  0  0
   19.1650   20.7667   21.8636 H   0  0  0  0  0  0  0  0  0  0  0  0
   19.0053   19.1376   20.3946 C   0  0  0  0  0  0  0  0  0  0  0  0
   19.5985   19.7025   19.6618 H   0  0  0  0  0  0  0  0  0  0  0  0
   18.1839   18.6761   19.8287 H   0  0  0  0  0  0  0  0  0  0  0  0
   19.8697   18.0057   21.0065 C   0  0  0  0  0  0  0  0  0  0  0  0
   19.2683   17.3983   21.6944 H   0  0  0  0  0  0  0  0  0  0  0  0
   20.1632   17.3296   20.1926 H   0  0  0  0  0  0  0  0  0  0  0  0
   21.1641   18.4889   21.7012 C   0  0  0  0  0  0  0  0  0  0  0  0
   21.6449   19.2438   21.0740 H   0  0  0  0  0  0  0  0  0  0  0  0
   21.8552   17.6478   21.7990 H   0  0  0  0  0  0  0  0  0  0  0  0
   20.9869   19.0805   23.0908 N   0  3  0  0  0  0  0  0  0  0  0  0
   20.2819   19.8304   23.0681 H   0  0  0  0  0  0  0  0  0  0  0  0
   21.8628   19.5406   23.3847 H   0  0  0  0  0  0  0  0  0  0  0  0
   20.6016   18.0079   24.1036 C   0  0  0  0  0  0  0  0  0  0  0  0
   19.6425   17.5696   23.8215 H   0  0  0  0  0  0  0  0  0  0  0  0
   21.3723   17.2343   24.1182 H   0  0  0  0  0  0  0  0  0  0  0  0
   20.5191   18.4633   25.0929 H   0  0  0  0  0  0  0  0  0  0  0  0
  1  2  1  0  0  0  0
  1  3  1  0  0  0  0
  1  4  1  0  0  0  0
  1  5  1  0  0  0  0
  5  6  1  0  0  0  0
  5  7  1  0  0  0  0
  5  8  1  0  0  0  0
  8  9  1  0  0  0  0
  8 10  1  0  0  0  0
  8 11  1  0  0  0  0
 11 12  1  0  0  0  0
 11 13  1  0  0  0  0
 11 14  1  0  0  0  0
 14 15  1  0  0  0  0
 14 16  1  0  0  0  0
 14 17  1  0  0  0  0
 17 18  1  0  0  0  0
 17 19  1  0  0  0  0
 17 20  1  0  0  0  0
M  END
> <VConfSearch Rank>
511

> <Conf_Id>
76

> <Delta U+W>
2.799

> <U+W>
18.137

> <U>
72.490

> <W>
-54.353

> <W(PB)>
-56.201

> <W(SA)>
1.848

> <Valence>
2.738

> <Coulomb>
69.795

> <VdW>
-0.043

> <VdW6>
-5.334

> <VdW12>
5.290

> <Bond>
0.182

> <Angle>
1.135

> <Pdih>
1.421

> <Idih>
0.000

> <Tether>
0.000

$$$$
VeraChem MOL file


 20 19  0  0  0  0  0  0  0  0999 V2000     
   21.3855   19.9654   23.1538 C   0  0  0  0  0  0  0  0  0  0  0  0
   21.4106   20.1461   22.0723 H   0  0  0  0  0  0  0  0  0  0  0  0
   20.9257   20.8384   23.6347 H   0  0  0  0  0  0  0  0  0  0  0  0
   22.4240   19.8995   23.5031 H   0  0  0  0  0  0  0  0  0  0  0  0
   20.6137   18.6711   23.4998 C   0  0  0  0  0  0  0  0  0  0  0  0
   20.6797   18.4985   24.5832 H   0  0  0  0  0  0  0  0  0  0  0  0
   21.0985   17.8053   23.0306 H   0  0  0  0  0  0  0  0  0  0  0  0
   19.1196   18.7291   23.0979 C   0  0  0  0  0  0  0  0  0  0  0  0
   18.6231   17.8007   23.4094 H   0  0  0  0  0  0  0  0  0  0  0  0
   18.6346   19.5342   23.6656 H   0  0  0  0  0  0  0  0  0  0  0  0
   18.8470   18.9676   21.5940 C   0  0  0  0  0  0  0  0  0  0  0  0
   19.3386   19.8825   21.2549 H   0  0  0  0  0  0  0  0  0  0  0  0
   17.7702   19.1061   21.4680 H   0  0  0  0  0  0  0  0  0  0  0  0
   19.2479   17.8315   20.6648 N   0  3  0  0  0  0  0  0  0  0  0  0
   18.6074   17.8129   19.8560 H   0  0  0  0  0  0  0  0  0  0  0  0
   19.1104   16.9218   21.1297 H   0  0  0  0  0  0  0  0  0  0  0  0
   20.6798   17.9897   20.1648 C   0  0  0  0  0  0  0  0  0  0  0  0
   20.9112   17.1707   19.4802 H   0  0  0  0  0  0  0  0  0  0  0  0
   20.7725   18.9429   19.6401 H   0  0  0  0  0  0  0  0  0  0  0  0
   21.3700   17.9661   21.0087 H   0  0  0  0  0  0  0  0  0  0  0  0
  1  2  1  0  0  0  0
  1  3  1  0  0  0  0
  1  4  1  0  0  0  0
  1  5  1  0  0  0  0
  5  6  1  0  0  0  0
  5  7  1  0  0  0  0
  5  8  1  0  0  0  0
  8  9  1  0  0  0  0
  8 10  1  0  0  0  0
  8 11  1  0  0  0  0
 11 12  1  0  0  0  0
 11 13  1  0  0  0  0
 11 14  1  0  0  0  0
 14 15  1  0  0  0  0
 14 16  1  0  0  0  0
 14 17  1  0  0  0  0
 17 18  1  0  0  0  0
 17 19  1  0  0  0  0
 17 20  1  0  0  0  0
M  END
> <VConfSearch Rank>
512

> <Conf_Id>
60

> <Delta U+W>
1.788

> <U+W>
17.127

> <U>
72.122

> <W>
-54.995

> <W(PB)>
-56.810

> <W(SA)>
1.815

> <Valence>
3.197

> <Coulomb>
69.115

> <VdW>
-0.190

> <VdW6>
-5.585

> <VdW12>
5.395

> <Bond>
0.177

> <Angle>
1.207

> <Pdih>
1.813

> <Idih>
0.000

> <Tether>
0.000

$$$$
VeraChem MOL file


 20 19  0  0  0  0  0  0  0  0999 V2000     
   20.1644   16.6727   21.6671 C   0  0  0  0  0  0  0  0  0  0  0  0
   20.6357   15.9968   20.9419 H   0  0  0  0  0  0  0  0  0  0  0  0
   19.6991   16.0552   22.4463 H   0  0  0  0  0  0  0  0  0  0  0  0
   19.3690   17.2174   21.1440 H   0  0  0  0  0  0  0  0  0  0  0  0
   21.2127   17.6339   22.2735 C   0  0  0  0  0  0  0  0  0  0  0  0
   21.6845   18.2276   21.4800 H   0  0  0  0  0  0  0  0  0  0  0  0
   22.0212   17.0391   22.7212 H   0  0  0  0  0  0  0  0  0  0  0  0
   20.6244   18.5668   23.3603 C   0  0  0  0  0  0  0  0  0  0  0  0
   20.2593   17.9499   24.1920 H   0  0  0  0  0  0  0  0  0  0  0  0
   21.4266   19.1895   23.7777 H   0  0  0  0  0  0  0  0  0  0  0  0
   19.4669   19.4803   22.8931 C   0  0  0  0  0  0  0  0  0  0  0  0
   19.0691   19.9915   23.7735 H   0  0  0  0  0  0  0  0  0  0  0  0
   18.6572   18.8854   22.4639 H   0  0  0  0  0  0  0  0  0  0  0  0
   19.8471   20.5667   21.8980 N   0  3  0  0  0  0  0  0  0  0  0  0
   20.8003   20.9100   22.0880 H   0  0  0  0  0  0  0  0  0  0  0  0
   19.2385   21.3874   22.0429 H   0  0  0  0  0  0  0  0  0  0  0  0
   19.7054   20.0875   20.4574 C   0  0  0  0  0  0  0  0  0  0  0  0
   18.6732   19.7758   20.2838 H   0  0  0  0  0  0  0  0  0  0  0  0
   19.9589   20.9075   19.7820 H   0  0  0  0  0  0  0  0  0  0  0  0
   20.3777   19.2475   20.2802 H   0  0  0  0  0  0  0  0  0  0  0  0
  1  2  1  0  0  0  0
  1  3  1  0  0  0  0
  1  4  1  0  0  0  0
  1  5  1  0  0  0  0
  5  6  1  0  0  0  0
  5  7  1  0  0  0  0
  5  8  1  0  0  0  0
  8  9  1  0  0  0  0
  8 10  1  0  0  0  0
  8 11  1  0  0  0  0
 11 12  1  0  0  0  0
 11 13  1  0  0  0  0
 11 14  1  0  0  0  0
 14 15  1  0  0  0  0
 14 16  1  0  0  0  0
 14 17  1  0  0  0  0
 17 18  1  0  0  0  0
 17 19  1  0  0  0  0
 17 20  1  0  0  0  0
M  END
> <VConfSearch Rank>
513

> <Conf_Id>
54

> <Delta U+W>
1.880

> <U+W>
17.218

> <U>
72.122

> <W>
-54.903

> <W(PB)>
-56.724

> <W(SA)>
1.821

> <Valence>
3.197

> <Coulomb>
69.115

> <VdW>
-0.190

> <VdW6>
-5.585

> <VdW12>
5.395

> <Bond>
0.177

> <Angle>
1.207

> <Pdih>
1.813

> <Idih>
0.000

> <Tether>
0.000

$$$$
VeraChem MOL file


 20 19  0  0  0  0  0  0  0  0999 V2000     
   21.2383   16.7951   19.8153 C   0  0  0  0  0  0  0  0  0  0  0  0
   21.6565   16.0635   20.5189 H   0  0  0  0  0  0  0  0  0  0  0  0
   20.8497   16.2440   18.9491 H   0  0  0  0  0  0  0  0  0  0  0  0
   22.0562   17.4382   19.4650 H   0  0  0  0  0  0  0  0  0  0  0  0
   20.1202   17.6284   20.4783 C   0  0  0  0  0  0  0  0  0  0  0  0
   19.3020   16.9621   20.7863 H   0  0  0  0  0  0  0  0  0  0  0  0
   19.6986   18.3260   19.7407 H   0  0  0  0  0  0  0  0  0  0  0  0
   20.6390   18.4156   21.7018 C   0  0  0  0  0  0  0  0  0  0  0  0
   21.0568   17.7178   22.4396 H   0  0  0  0  0  0  0  0  0  0  0  0
   21.4540   19.0835   21.3926 H   0  0  0  0  0  0  0  0  0  0  0  0
   19.5183   19.2440   22.3571 C   0  0  0  0  0  0  0  0  0  0  0  0
   18.7122   18.5805   22.6801 H   0  0  0  0  0  0  0  0  0  0  0  0
   19.1108   19.9507   21.6298 H   0  0  0  0  0  0  0  0  0  0  0  0
   19.9818   20.0349   23.5648 N   0  3  0  0  0  0  0  0  0  0  0  0
   20.7509   20.6700   23.3014 H   0  0  0  0  0  0  0  0  0  0  0  0
   20.3818   19.4014   24.2739 H   0  0  0  0  0  0  0  0  0  0  0  0
   18.8164   20.8220   24.1490 C   0  0  0  0  0  0  0  0  0  0  0  0
   18.0294   20.1280   24.4522 H   0  0  0  0  0  0  0  0  0  0  0  0
   19.1639   21.3863   25.0172 H   0  0  0  0  0  0  0  0  0  0  0  0
   18.4315   21.5098   23.3930 H   0  0  0  0  0  0  0  0  0  0  0  0
  1  2  1  0  0  0  0
  1  3  1  0  0  0  0
  1  4  1  0  0  0  0
  1  5  1  0  0  0  0
  5  6  1  0  0  0  0
  5  7  1  0  0  0  0
  5  8  1  0  0  0  0
  8  9  1  0  0  0  0
  8 10  1  0  0  0  0
  8 11  1  0  0  0  0
 11 12  1  0  0  0  0
 11 13  1  0  0  0  0
 11 14  1  0  0  0  0
 14 15  1  0  0  0  0
 14 16  1  0  0  0  0
 14 17  1  0  0  0  0
 17 18  1  0  0  0  0
 17 19  1  0  0  0  0
 17 20  1  0  0  0  0
M  END
> <VConfSearch Rank>
514

> <Conf_Id>
67

> <Delta U+W>
0.000

> <U+W>
15.338

> <U>
69.277

> <W>
-53.939

> <W(PB)>
-55.889

> <W(SA)>
1.950

> <Valence>
0.846

> <Coulomb>
68.557

> <VdW>
-0.127

> <VdW6>
-3.008

> <VdW12>
2.882

> <Bond>
0.088

> <Angle>
0.332

> <Pdih>
0.426

> <Idih>
0.000

> <Tether>
0.000

$$$$
VeraChem MOL file


 20 19  0  0  0  0  0  0  0  0999 V2000     
   18.3433   16.5084   21.3709 C   0  0  0  0  0  0  0  0  0  0  0  0
   18.9449   16.2929   20.4783 H   0  0  0  0  0  0  0  0  0  0  0  0
   18.0078   15.5506   21.7893 H   0  0  0  0  0  0  0  0  0  0  0  0
   17.4528   17.0678   21.0558 H   0  0  0  0  0  0  0  0  0  0  0  0
   19.1595   17.3032   22.4132 C   0  0  0  0  0  0  0  0  0  0  0  0
   20.0236   16.7044   22.7341 H   0  0  0  0  0  0  0  0  0  0  0  0
   18.5431   17.4726   23.3075 H   0  0  0  0  0  0  0  0  0  0  0  0
   19.6451   18.6576   21.8515 C   0  0  0  0  0  0  0  0  0  0  0  0
   20.2599   18.4835   20.9590 H   0  0  0  0  0  0  0  0  0  0  0  0
   18.7812   19.2569   21.5352 H   0  0  0  0  0  0  0  0  0  0  0  0
   20.4580   19.4445   22.9003 C   0  0  0  0  0  0  0  0  0  0  0  0
   21.3465   18.8753   23.1848 H   0  0  0  0  0  0  0  0  0  0  0  0
   19.8442   19.5822   23.7942 H   0  0  0  0  0  0  0  0  0  0  0  0
   20.9103   20.8230   22.4465 N   0  3  0  0  0  0  0  0  0  0  0  0
   21.2976   21.3412   23.2507 H   0  0  0  0  0  0  0  0  0  0  0  0
   20.0999   21.3816   22.1383 H   0  0  0  0  0  0  0  0  0  0  0  0
   21.9561   20.7276   21.3407 C   0  0  0  0  0  0  0  0  0  0  0  0
   21.5185   20.2374   20.4688 H   0  0  0  0  0  0  0  0  0  0  0  0
   22.2824   21.7341   21.0693 H   0  0  0  0  0  0  0  0  0  0  0  0
   22.8093   20.1493   21.7016 H   0  0  0  0  0  0  0  0  0  0  0  0
  1  2  1  0  0  0  0
  1  3  1  0  0  0  0
  1  4  1  0  0  0  0
  1  5  1  0  0  0  0
  5  6  1  0  0  0  0
  5  7  1  0  0  0  0
  5  8  1  0  0  0  0
  8  9  1  0  0  0  0
  8 10  1  0  0  0  0
  8 11  1  0  0  0  0
 11 12  1  0  0  0  0
 11 13  1  0  0  0  0
 11 14  1  0  0  0  0
 14 15  1  0  0  0  0
 14 16  1  0  0  0  0
 14 17  1  0  0  0  0
 17 18  1  0  0  0  0
 17 19  1  0  0  0  0
 17 20  1  0  0  0  0
M  END
> <VConfSearch Rank>
515

> <Conf_Id>
37

> <Delta U+W>
-0.021

> <U+W>
15.318

> <U>
69.657

> <W>
-54.340

> <W(PB)>
-56.238

> <W(SA)>
1.899

> <Valence>
1.137

> <Coulomb>
68.383

> <VdW>
0.138

> <VdW6>
-3.703

> <VdW12>
3.841

> <Bond>
0.125

> <Angle>
0.468

> <Pdih>
0.543

> <Idih>
0.000

> <Tether>
0.000

$$$$
VeraChem MOL file


 20 19  0  0  0  0  0  0  0  0999 V2000     
   21.6517   17.9015   24.3288 C   0  0  0  0  0  0  0  0  0  0  0  0
   22.0970   18.2727   25.2609 H   0  0  0  0  0  0  0  0  0  0  0  0
   20.8913   17.1552   24.5935 H   0  0  0  0  0  0  0  0  0  0  0  0
   22.4411   17.3966   23.7569 H   0  0  0  0  0  0  0  0  0  0  0  0
   21.0339   19.0622   23.5192 C   0  0  0  0  0  0  0  0  0  0  0  0
   21.8107   19.8084   23.3001 H   0  0  0  0  0  0  0  0  0  0  0  0
   20.2727   19.5686   24.1296 H   0  0  0  0  0  0  0  0  0  0  0  0
   20.3992   18.5689   22.2003 C   0  0  0  0  0  0  0  0  0  0  0  0
   21.1610   18.0670   21.5893 H   0  0  0  0  0  0  0  0  0  0  0  0
   19.6245   17.8242   22.4240 H   0  0  0  0  0  0  0  0  0  0  0  0
   19.7863   19.7354   21.3982 C   0  0  0  0  0  0  0  0  0  0  0  0
   20.5615   20.4828   21.2108 H   0  0  0  0  0  0  0  0  0  0  0  0
   18.9930   20.2102   21.9809 H   0  0  0  0  0  0  0  0  0  0  0  0
   19.2048   19.3403   20.0504 N   0  3  0  0  0  0  0  0  0  0  0  0
   19.9173   18.8583   19.4812 H   0  0  0  0  0  0  0  0  0  0  0  0
   18.9689   20.1899   19.5139 H   0  0  0  0  0  0  0  0  0  0  0  0
   17.9626   18.4712   20.2153 C   0  0  0  0  0  0  0  0  0  0  0  0
   17.2196   19.0141   20.8034 H   0  0  0  0  0  0  0  0  0  0  0  0
   17.5540   18.2407   19.2289 H   0  0  0  0  0  0  0  0  0  0  0  0
   18.2333   17.5444   20.7248 H   0  0  0  0  0  0  0  0  0  0  0  0
  1  2  1  0  0  0  0
  1  3  1  0  0  0  0
  1  4  1  0  0  0  0
  1  5  1  0  0  0  0
  5  6  1  0  0  0  0
  5  7  1  0  0  0  0
  5  8  1  0  0  0  0
  8  9  1  0  0  0  0
  8 10  1  0  0  0  0
  8 11  1  0  0  0  0
 11 12  1  0  0  0  0
 11 13  1  0  0  0  0
 11 14  1  0  0  0  0
 14 15  1  0  0  0  0
 14 16  1  0  0  0  0
 14 17  1  0  0  0  0
 17 18  1  0  0  0  0
 17 19  1  0  0  0  0
 17 20  1  0  0  0  0
M  END
> <VConfSearch Rank>
516

> <Conf_Id>
2

> <Delta U+W>
0.069

> <U+W>
15.407

> <U>
69.657

> <W>
-54.250

> <W(PB)>
-56.176

> <W(SA)>
1.926

> <Valence>
1.137

> <Coulomb>
68.383

> <VdW>
0.138

> <VdW6>
-3.703

> <VdW12>
3.841

> <Bond>
0.125

> <Angle>
0.468

> <Pdih>
0.543

> <Idih>
0.000

> <Tether>
0.000

$$$$
VeraChem MOL file


 20 19  0  0  0  0  0  0  0  0999 V2000     
   22.3874   19.3430   20.9453 C   0  0  0  0  0  0  0  0  0  0  0  0
   21.8398   18.6199   20.3278 H   0  0  0  0  0  0  0  0  0  0  0  0
   22.1141   20.3533   20.6140 H   0  0  0  0  0  0  0  0  0  0  0  0
   23.4579   19.2039   20.7462 H   0  0  0  0  0  0  0  0  0  0  0  0
   22.0862   19.1500   22.4494 C   0  0  0  0  0  0  0  0  0  0  0  0
   22.7237   19.8292   23.0327 H   0  0  0  0  0  0  0  0  0  0  0  0
   22.3626   18.1304   22.7532 H   0  0  0  0  0  0  0  0  0  0  0  0
   20.6059   19.4177   22.8089 C   0  0  0  0  0  0  0  0  0  0  0  0
   20.4826   19.3382   23.8972 H   0  0  0  0  0  0  0  0  0  0  0  0
   20.3416   20.4481   22.5366 H   0  0  0  0  0  0  0  0  0  0  0  0
   19.6400   18.4355   22.1179 C   0  0  0  0  0  0  0  0  0  0  0  0
   19.9018   17.4102   22.3910 H   0  0  0  0  0  0  0  0  0  0  0  0
   19.7269   18.5352   21.0333 H   0  0  0  0  0  0  0  0  0  0  0  0
   18.1870   18.6596   22.4880 N   0  3  0  0  0  0  0  0  0  0  0  0
   17.9039   19.6234   22.2533 H   0  0  0  0  0  0  0  0  0  0  0  0
   18.0626   18.5795   23.5089 H   0  0  0  0  0  0  0  0  0  0  0  0
   17.3048   17.6526   21.7623 C   0  0  0  0  0  0  0  0  0  0  0  0
   17.5995   16.6415   22.0517 H   0  0  0  0  0  0  0  0  0  0  0  0
   16.2620   17.8251   22.0377 H   0  0  0  0  0  0  0  0  0  0  0  0
   17.4264   17.7787   20.6842 H   0  0  0  0  0  0  0  0  0  0  0  0
  1  2  1  0  0  0  0
  1  3  1  0  0  0  0
  1  4  1  0  0  0  0
  1  5  1  0  0  0  0
  5  6  1  0  0  0  0
  5  7  1  0  0  0  0
  5  8  1  0  0  0  0
  8  9  1  0  0  0  0
  8 10  1  0  0  0  0
  8 11  1  0  0  0  0
 11 12  1  0  0  0  0
 11 13  1  0  0  0  0
 11 14  1  0  0  0  0
 14 15  1  0  0  0  0
 14 16  1  0  0  0  0
 14 17  1  0  0  0  0
 17 18  1  0  0  0  0
 17 19  1  0  0  0  0
 17 20  1  0  0  0  0
M  END
> <VConfSearch Rank>
517

> <Conf_Id>
34

> <Delta U+W>
0.276

> <U+W>
15.615

> <U>
69.798

> <W>
-54.184

> <W(PB)>
-56.116

> <W(SA)>
1.933

> <Valence>
1.134

> <Coulomb>
68.735

> <VdW>
-0.070

> <VdW6>
-3.565

> <VdW12>
3.494

> <Bond>
0.108

> <Angle>
0.456

> <Pdih>
0.569

> <Idih>
0.000

> <Tether>
0.000

$$$$
VeraChem MOL file


 20 19  0  0  0  0  0  0  0  0999 V2000     
   22.7070   20.1675   21.5913 C   0  0  0  0  0  0  0  0  0  0  0  0
   22.9706   20.7179   22.5038 H   0  0  0  0  0  0  0  0  0  0  0  0
   23.6159   19.6750   21.2219 H   0  0  0  0  0  0  0  0  0  0  0  0
   22.3875   20.8951   20.8339 H   0  0  0  0  0  0  0  0  0  0  0  0
   21.5979   19.1295   21.8680 C   0  0  0  0  0  0  0  0  0  0  0  0
   21.9592   18.3983   22.6050 H   0  0  0  0  0  0  0  0  0  0  0  0
   21.3898   18.5724   20.9446 H   0  0  0  0  0  0  0  0  0  0  0  0
   20.3046   19.7991   22.3897 C   0  0  0  0  0  0  0  0  0  0  0  0
   20.5366   20.3835   23.2901 H   0  0  0  0  0  0  0  0  0  0  0  0
   19.9222   20.5108   21.6460 H   0  0  0  0  0  0  0  0  0  0  0  0
   19.2030   18.7793   22.7416 C   0  0  0  0  0  0  0  0  0  0  0  0
   18.3536   19.3041   23.1862 H   0  0  0  0  0  0  0  0  0  0  0  0
   19.5841   18.0658   23.4766 H   0  0  0  0  0  0  0  0  0  0  0  0
   18.6834   17.9943   21.5518 N   0  3  0  0  0  0  0  0  0  0  0  0
   19.4546   17.4799   21.1011 H   0  0  0  0  0  0  0  0  0  0  0  0
   18.3239   18.6383   20.8306 H   0  0  0  0  0  0  0  0  0  0  0  0
   17.5918   17.0321   22.0007 C   0  0  0  0  0  0  0  0  0  0  0  0
   18.0033   16.3399   22.7384 H   0  0  0  0  0  0  0  0  0  0  0  0
   16.7715   17.6004   22.4444 H   0  0  0  0  0  0  0  0  0  0  0  0
   17.2272   16.4741   21.1354 H   0  0  0  0  0  0  0  0  0  0  0  0
  1  2  1  0  0  0  0
  1  3  1  0  0  0  0
  1  4  1  0  0  0  0
  1  5  1  0  0  0  0
  5  6  1  0  0  0  0
  5  7  1  0  0  0  0
  5  8  1  0  0  0  0
  8  9  1  0  0  0  0
  8 10  1  0  0  0  0
  8 11  1  0  0  0  0
 11 12  1  0  0  0  0
 11 13  1  0  0  0  0
 11 14  1  0  0  0  0
 14 15  1  0  0  0  0
 14 16  1  0  0  0  0
 14 17  1  0  0  0  0
 17 18  1  0  0  0  0
 17 19  1  0  0  0  0
 17 20  1  0  0  0  0
M  END
> <VConfSearch Rank>
518

> <Conf_Id>
50

> <Delta U+W>
0.319

> <U+W>
15.657

> <U>
69.962

> <W>
-54.305

> <W(PB)>
-56.223

> <W(SA)>
1.918

> <Valence>
0.982

> <Coulomb>
69.058

> <VdW>
-0.078

> <VdW6>
-3.548

> <VdW12>
3.471

> <Bond>
0.105

> <Angle>
0.408

> <Pdih>
0.469

> <Idih>
0.000

> <Tether>
0.000

$$$$
VeraChem MOL file


 20 19  0  0  0  0  0  0  0  0999 V2000     
   21.9201   16.4336   21.8986 C   0  0  0  0  0  0  0  0  0  0  0  0
   21.6038   15.4054   21.6803 H   0  0  0  0  0  0  0  0  0  0  0  0
   22.7722   16.6682   21.2473 H   0  0  0  0  0  0  0  0  0  0  0  0
   22.2673   16.4647   22.9396 H   0  0  0  0  0  0  0  0  0  0  0  0
   20.7565   17.4226   21.6707 C   0  0  0  0  0  0  0  0  0  0  0  0
   19.9099   17.1332   22.3080 H   0  0  0  0  0  0  0  0  0  0  0  0
   20.4111   17.3449   20.6300 H   0  0  0  0  0  0  0  0  0  0  0  0
   21.1769   18.8805   21.9723 C   0  0  0  0  0  0  0  0  0  0  0  0
   21.4966   18.9717   23.0189 H   0  0  0  0  0  0  0  0  0  0  0  0
   22.0477   19.1416   21.3563 H   0  0  0  0  0  0  0  0  0  0  0  0
   20.0547   19.8982   21.6853 C   0  0  0  0  0  0  0  0  0  0  0  0
   19.7304   19.8041   20.6459 H   0  0  0  0  0  0  0  0  0  0  0  0
   20.4396   20.9108   21.8309 H   0  0  0  0  0  0  0  0  0  0  0  0
   18.8346   19.7409   22.5732 N   0  3  0  0  0  0  0  0  0  0  0  0
   19.1055   19.8141   23.5659 H   0  0  0  0  0  0  0  0  0  0  0  0
   18.4363   18.7963   22.4660 H   0  0  0  0  0  0  0  0  0  0  0  0
   17.7973   20.7994   22.2233 C   0  0  0  0  0  0  0  0  0  0  0  0
   16.9252   20.6746   22.8691 H   0  0  0  0  0  0  0  0  0  0  0  0
   18.2293   21.7908   22.3758 H   0  0  0  0  0  0  0  0  0  0  0  0
   17.5015   20.6819   21.1785 H   0  0  0  0  0  0  0  0  0  0  0  0
  1  2  1  0  0  0  0
  1  3  1  0  0  0  0
  1  4  1  0  0  0  0
  1  5  1  0  0  0  0
  5  6  1  0  0  0  0
  5  7  1  0  0  0  0
  5  8  1  0  0  0  0
  8  9  1  0  0  0  0
  8 10  1  0  0  0  0
  8 11  1  0  0  0  0
 11 12  1  0  0  0  0
 11 13  1  0  0  0  0
 11 14  1  0  0  0  0
 14 15  1  0  0  0  0
 14 16  1  0  0  0  0
 14 17  1  0  0  0  0
 17 18  1  0  0  0  0
 17 19  1  0  0  0  0
 17 20  1  0  0  0  0
M  END
> <VConfSearch Rank>
519

> <Conf_Id>
35

> <Delta U+W>
0.360

> <U+W>
15.698

> <U>
69.962

> <W>
-54.264

> <W(PB)>
-56.166

> <W(SA)>
1.902

> <Valence>
0.982

> <Coulomb>
69.058

> <VdW>
-0.078

> <VdW6>
-3.548

> <VdW12>
3.471

> <Bond>
0.105

> <Angle>
0.408

> <Pdih>
0.469

> <Idih>
0.000

> <Tether>
0.000

$$$$
VeraChem MOL file


 20 19  0  0  0  0  0  0  0  0999 V2000     
   18.6555   17.5705   20.1863 C   0  0  0  0  0  0  0  0  0  0  0  0
   17.9437   17.7298   21.0061 H   0  0  0  0  0  0  0  0  0  0  0  0
   18.0735   17.4019   19.2710 H   0  0  0  0  0  0  0  0  0  0  0  0
   19.2212   16.6536   20.3969 H   0  0  0  0  0  0  0  0  0  0  0  0
   19.6019   18.7806   20.0120 C   0  0  0  0  0  0  0  0  0  0  0  0
   19.0113   19.6848   19.8076 H   0  0  0  0  0  0  0  0  0  0  0  0
   20.2330   18.6177   19.1270 H   0  0  0  0  0  0  0  0  0  0  0  0
   20.5107   19.0181   21.2406 C   0  0  0  0  0  0  0  0  0  0  0  0
   21.1248   18.1256   21.4169 H   0  0  0  0  0  0  0  0  0  0  0  0
   21.2051   19.8390   21.0184 H   0  0  0  0  0  0  0  0  0  0  0  0
   19.7081   19.3657   22.5129 C   0  0  0  0  0  0  0  0  0  0  0  0
   19.0606   18.5287   22.7845 H   0  0  0  0  0  0  0  0  0  0  0  0
   19.0738   20.2315   22.3062 H   0  0  0  0  0  0  0  0  0  0  0  0
   20.5602   19.7077   23.7242 N   0  3  0  0  0  0  0  0  0  0  0  0
   19.9592   20.0837   24.4742 H   0  0  0  0  0  0  0  0  0  0  0  0
   21.2114   20.4749   23.4982 H   0  0  0  0  0  0  0  0  0  0  0  0
   21.3171   18.4850   24.2318 C   0  0  0  0  0  0  0  0  0  0  0  0
   21.9991   18.1326   23.4555 H   0  0  0  0  0  0  0  0  0  0  0  0
   21.8868   18.7611   25.1218 H   0  0  0  0  0  0  0  0  0  0  0  0
   20.6024   17.6981   24.4820 H   0  0  0  0  0  0  0  0  0  0  0  0
  1  2  1  0  0  0  0
  1  3  1  0  0  0  0
  1  4  1  0  0  0  0
  1  5  1  0  0  0  0
  5  6  1  0  0  0  0
  5  7  1  0  0  0  0
  5  8  1  0  0  0  0
  8  9  1  0  0  0  0
  8 10  1  0  0  0  0
  8 11  1  0  0  0  0
 11 12  1  0  0  0  0
 11 13  1  0  0  0  0
 11 14  1  0  0  0  0
 14 15  1  0  0  0  0
 14 16  1  0  0  0  0
 14 17  1  0  0  0  0
 17 18  1  0  0  0  0
 17 19  1  0  0  0  0
 17 20  1  0  0  0  0
M  END
> <VConfSearch Rank>
520

> <Conf_Id>
33

> <Delta U+W>
0.372

> <U+W>
15.711

> <U>
70.163

> <W>
-54.452

> <W(PB)>
-56.363

> <W(SA)>
1.911

> <Valence>
1.420

> <Coulomb>
68.566

> <VdW>
0.177

> <VdW6>
-4.267

> <VdW12>
4.445

> <Bond>
0.146

> <Angle>
0.581

> <Pdih>
0.693

> <Idih>
0.000

> <Tether>
0.000

$$$$
VeraChem MOL file


 20 19  0  0  0  0  0  0  0  0999 V2000     
   20.0391   17.4382   19.8381 C   0  0  0  0  0  0  0  0  0  0  0  0
   19.9078   16.5936   19.1492 H   0  0  0  0  0  0  0  0  0  0  0  0
   19.1174   18.0329   19.8114 H   0  0  0  0  0  0  0  0  0  0  0  0
   20.8589   18.0590   19.4538 H   0  0  0  0  0  0  0  0  0  0  0  0
   20.3473   16.9308   21.2656 C   0  0  0  0  0  0  0  0  0  0  0  0
   21.2230   16.2676   21.2292 H   0  0  0  0  0  0  0  0  0  0  0  0
   19.5104   16.3173   21.6281 H   0  0  0  0  0  0  0  0  0  0  0  0
   20.6257   18.0765   22.2664 C   0  0  0  0  0  0  0  0  0  0  0  0
   20.9109   17.6441   23.2345 H   0  0  0  0  0  0  0  0  0  0  0  0
   21.4858   18.6628   21.9182 H   0  0  0  0  0  0  0  0  0  0  0  0
   19.4041   18.9993   22.4655 C   0  0  0  0  0  0  0  0  0  0  0  0
   18.5485   18.3931   22.7735 H   0  0  0  0  0  0  0  0  0  0  0  0
   19.1501   19.4888   21.5223 H   0  0  0  0  0  0  0  0  0  0  0  0
   19.5937   20.0816   23.5157 N   0  3  0  0  0  0  0  0  0  0  0  0
   19.8679   19.6613   24.4168 H   0  0  0  0  0  0  0  0  0  0  0  0
   18.6897   20.5427   23.7036 H   0  0  0  0  0  0  0  0  0  0  0  0
   20.6188   21.1168   23.0652 C   0  0  0  0  0  0  0  0  0  0  0  0
   20.6996   21.8952   23.8272 H   0  0  0  0  0  0  0  0  0  0  0  0
   21.5884   20.6331   22.9320 H   0  0  0  0  0  0  0  0  0  0  0  0
   20.2925   21.5587   22.1213 H   0  0  0  0  0  0  0  0  0  0  0  0
  1  2  1  0  0  0  0
  1  3  1  0  0  0  0
  1  4  1  0  0  0  0
  1  5  1  0  0  0  0
  5  6  1  0  0  0  0
  5  7  1  0  0  0  0
  5  8  1  0  0  0  0
  8  9  1  0  0  0  0
  8 10  1  0  0  0  0
  8 11  1  0  0  0  0
 11 12  1  0  0  0  0
 11 13  1  0  0  0  0
 11 14  1  0  0  0  0
 14 15  1  0  0  0  0
 14 16  1  0  0  0  0
 14 17  1  0  0  0  0
 17 18  1  0  0  0  0
 17 19  1  0  0  0  0
 17 20  1  0  0  0  0
M  END
> <VConfSearch Rank>
521

> <Conf_Id>
53

> <Delta U+W>
0.379

> <U+W>
15.717

> <U>
70.163

> <W>
-54.446

> <W(PB)>
-56.322

> <W(SA)>
1.876

> <Valence>
1.420

> <Coulomb>
68.566

> <VdW>
0.177

> <VdW6>
-4.267

> <VdW12>
4.445

> <Bond>
0.146

> <Angle>
0.581

> <Pdih>
0.693

> <Idih>
0.000

> <Tether>
0.000

$$$$
VeraChem MOL file


 20 19  0  0  0  0  0  0  0  0999 V2000     
   19.1010   18.4370   19.4107 C   0  0  0  0  0  0  0  0  0  0  0  0
   18.1559   18.8067   18.9923 H   0  0  0  0  0  0  0  0  0  0  0  0
   19.8769   18.5543   18.6430 H   0  0  0  0  0  0  0  0  0  0  0  0
   18.9816   17.3649   19.6147 H   0  0  0  0  0  0  0  0  0  0  0  0
   19.4681   19.2099   20.6959 C   0  0  0  0  0  0  0  0  0  0  0  0
   18.6533   19.1014   21.4246 H   0  0  0  0  0  0  0  0  0  0  0  0
   19.5491   20.2817   20.4662 H   0  0  0  0  0  0  0  0  0  0  0  0
   20.7966   18.7059   21.3073 C   0  0  0  0  0  0  0  0  0  0  0  0
   20.7124   17.6420   21.5639 H   0  0  0  0  0  0  0  0  0  0  0  0
   21.5929   18.7787   20.5548 H   0  0  0  0  0  0  0  0  0  0  0  0
   21.2297   19.5131   22.5513 C   0  0  0  0  0  0  0  0  0  0  0  0
   21.3649   20.5594   22.2658 H   0  0  0  0  0  0  0  0  0  0  0  0
   22.1907   19.1381   22.9125 H   0  0  0  0  0  0  0  0  0  0  0  0
   20.2558   19.4829   23.7198 N   0  3  0  0  0  0  0  0  0  0  0  0
   19.3314   19.8271   23.4214 H   0  0  0  0  0  0  0  0  0  0  0  0
   20.5658   20.1492   24.4444 H   0  0  0  0  0  0  0  0  0  0  0  0
   20.1469   18.0834   24.3150 C   0  0  0  0  0  0  0  0  0  0  0  0
   21.1358   17.7529   24.6396 H   0  0  0  0  0  0  0  0  0  0  0  0
   19.4686   18.1102   25.1707 H   0  0  0  0  0  0  0  0  0  0  0  0
   19.7567   17.3982   23.5597 H   0  0  0  0  0  0  0  0  0  0  0  0
  1  2  1  0  0  0  0
  1  3  1  0  0  0  0
  1  4  1  0  0  0  0
  1  5  1  0  0  0  0
  5  6  1  0  0  0  0
  5  7  1  0  0  0  0
  5  8  1  0  0  0  0
  8  9  1  0  0  0  0
  8 10  1  0  0  0  0
  8 11  1  0  0  0  0
 11 12  1  0  0  0  0
 11 13  1  0  0  0  0
 11 14  1  0  0  0  0
 14 15  1  0  0  0  0
 14 16  1  0  0  0  0
 14 17  1  0  0  0  0
 17 18  1  0  0  0  0
 17 19  1  0  0  0  0
 17 20  1  0  0  0  0
M  END
> <VConfSearch Rank>
522

> <Conf_Id>
49

> <Delta U+W>
0.268

> <U+W>
15.607

> <U>
70.298

> <W>
-54.692

> <W(PB)>
-56.576

> <W(SA)>
1.885

> <Valence>
1.245

> <Coulomb>
68.933

> <VdW>
0.120

> <VdW6>
-4.430

> <VdW12>
4.550

> <Bond>
0.148

> <Angle>
0.587

> <Pdih>
0.509

> <Idih>
0.000

> <Tether>
0.000

$$$$
VeraChem MOL file


 20 19  0  0  0  0  0  0  0  0999 V2000     
   21.7204   16.7132   21.0964 C   0  0  0  0  0  0  0  0  0  0  0  0
   21.5685   16.7552   20.0100 H   0  0  0  0  0  0  0  0  0  0  0  0
   22.7701   16.9583   21.3042 H   0  0  0  0  0  0  0  0  0  0  0  0
   21.5469   15.6788   21.4203 H   0  0  0  0  0  0  0  0  0  0  0  0
   20.7666   17.6815   21.8290 C   0  0  0  0  0  0  0  0  0  0  0  0
   20.9222   17.5967   22.9137 H   0  0  0  0  0  0  0  0  0  0  0  0
   19.7307   17.3783   21.6274 H   0  0  0  0  0  0  0  0  0  0  0  0
   20.9831   19.1461   21.3822 C   0  0  0  0  0  0  0  0  0  0  0  0
   22.0476   19.3971   21.4810 H   0  0  0  0  0  0  0  0  0  0  0  0
   20.7405   19.2490   20.3163 H   0  0  0  0  0  0  0  0  0  0  0  0
   20.1732   20.1814   22.1952 C   0  0  0  0  0  0  0  0  0  0  0  0
   20.4498   21.1780   21.8418 H   0  0  0  0  0  0  0  0  0  0  0  0
   20.4350   20.1217   23.2546 H   0  0  0  0  0  0  0  0  0  0  0  0
   18.6609   20.0776   22.0711 N   0  3  0  0  0  0  0  0  0  0  0  0
   18.3989   19.7461   21.1307 H   0  0  0  0  0  0  0  0  0  0  0  0
   18.2481   21.0207   22.1427 H   0  0  0  0  0  0  0  0  0  0  0  0
   18.0716   19.1884   23.1614 C   0  0  0  0  0  0  0  0  0  0  0  0
   16.9855   19.1596   23.0502 H   0  0  0  0  0  0  0  0  0  0  0  0
   18.4749   18.1790   23.0732 H   0  0  0  0  0  0  0  0  0  0  0  0
   18.3287   19.6026   24.1387 H   0  0  0  0  0  0  0  0  0  0  0  0
  1  2  1  0  0  0  0
  1  3  1  0  0  0  0
  1  4  1  0  0  0  0
  1  5  1  0  0  0  0
  5  6  1  0  0  0  0
  5  7  1  0  0  0  0
  5  8  1  0  0  0  0
  8  9  1  0  0  0  0
  8 10  1  0  0  0  0
  8 11  1  0  0  0  0
 11 12  1  0  0  0  0
 11 13  1  0  0  0  0
 11 14  1  0  0  0  0
 14 15  1  0  0  0  0
 14 16  1  0  0  0  0
 14 17  1  0  0  0  0
 17 18  1  0  0  0  0
 17 19  1  0  0  0  0
 17 20  1  0  0  0  0
M  END
> <VConfSearch Rank>
523

> <Conf_Id>
65

> <Delta U+W>
1.775

> <U+W>
17.114

> <U>
71.726

> <W>
-54.613

> <W(PB)>
-56.495

> <W(SA)>
1.883

> <Valence>
2.885

> <Coulomb>
68.822

> <VdW>
0.019

> <VdW6>
-4.600

> <VdW12>
4.619

> <Bond>
0.152

> <Angle>
0.862

> <Pdih>
1.871

> <Idih>
0.000

> <Tether>
0.000

$$$$
VeraChem MOL file


 20 19  0  0  0  0  0  0  0  0999 V2000     
   20.3290   19.0471   19.6806 C   0  0  0  0  0  0  0  0  0  0  0  0
   19.7008   18.2122   20.0156 H   0  0  0  0  0  0  0  0  0  0  0  0
   19.8290   19.5132   18.8217 H   0  0  0  0  0  0  0  0  0  0  0  0
   21.2848   18.6371   19.3290 H   0  0  0  0  0  0  0  0  0  0  0  0
   20.5493   20.0826   20.8073 C   0  0  0  0  0  0  0  0  0  0  0  0
   19.5802   20.4780   21.1408 H   0  0  0  0  0  0  0  0  0  0  0  0
   21.1020   20.9410   20.4002 H   0  0  0  0  0  0  0  0  0  0  0  0
   21.3356   19.5102   22.0131 C   0  0  0  0  0  0  0  0  0  0  0  0
   22.3399   19.2148   21.6815 H   0  0  0  0  0  0  0  0  0  0  0  0
   21.4813   20.3001   22.7618 H   0  0  0  0  0  0  0  0  0  0  0  0
   20.6607   18.2947   22.6826 C   0  0  0  0  0  0  0  0  0  0  0  0
   21.2915   17.9345   23.4993 H   0  0  0  0  0  0  0  0  0  0  0  0
   20.5540   17.4863   21.9555 H   0  0  0  0  0  0  0  0  0  0  0  0
   19.2888   18.5910   23.2576 N   0  3  0  0  0  0  0  0  0  0  0  0
   18.6642   18.9416   22.5164 H   0  0  0  0  0  0  0  0  0  0  0  0
   19.3504   19.3532   23.9498 H   0  0  0  0  0  0  0  0  0  0  0  0
   18.7094   17.3351   23.8944 C   0  0  0  0  0  0  0  0  0  0  0  0
   19.3710   17.0003   24.6963 H   0  0  0  0  0  0  0  0  0  0  0  0
   17.7221   17.5624   24.3027 H   0  0  0  0  0  0  0  0  0  0  0  0
   18.6232   16.5539   23.1361 H   0  0  0  0  0  0  0  0  0  0  0  0
  1  2  1  0  0  0  0
  1  3  1  0  0  0  0
  1  4  1  0  0  0  0
  1  5  1  0  0  0  0
  5  6  1  0  0  0  0
  5  7  1  0  0  0  0
  5  8  1  0  0  0  0
  8  9  1  0  0  0  0
  8 10  1  0  0  0  0
  8 11  1  0  0  0  0
 11 12  1  0  0  0  0
 11 13  1  0  0  0  0
 11 14  1  0  0  0  0
 14 15  1  0  0  0  0
 14 16  1  0  0  0  0
 14 17  1  0  0  0  0
 17 18  1  0  0  0  0
 17 19  1  0  0  0  0
 17 20  1  0  0  0  0
M  END
> <VConfSearch Rank>
524

> <Conf_Id>
23

> <Delta U+W>
0.896

> <U+W>
16.234

> <U>
70.374

> <W>
-54.140

> <W(PB)>
-56.046

> <W(SA)>
1.907

> <Valence>
1.257

> <Coulomb>
69.240

> <VdW>
-0.123

> <VdW6>
-4.336

> <VdW12>
4.213

> <Bond>
0.128

> <Angle>
0.603

> <Pdih>
0.526

> <Idih>
0.000

> <Tether>
0.000

$$$$
VeraChem MOL file


 20 19  0  0  0  0  0  0  0  0999 V2000     
   18.4512   20.2359   21.1618 C   0  0  0  0  0  0  0  0  0  0  0  0
   18.4719   21.2055   21.6761 H   0  0  0  0  0  0  0  0  0  0  0  0
   17.6921   20.2933   20.3708 H   0  0  0  0  0  0  0  0  0  0  0  0
   18.1230   19.4742   21.8802 H   0  0  0  0  0  0  0  0  0  0  0  0
   19.8347   19.8952   20.5618 C   0  0  0  0  0  0  0  0  0  0  0  0
   20.0777   20.6323   19.7836 H   0  0  0  0  0  0  0  0  0  0  0  0
   19.7878   18.9228   20.0530 H   0  0  0  0  0  0  0  0  0  0  0  0
   20.9696   19.8915   21.6163 C   0  0  0  0  0  0  0  0  0  0  0  0
   21.9254   19.6709   21.1228 H   0  0  0  0  0  0  0  0  0  0  0  0
   21.0708   20.8990   22.0411 H   0  0  0  0  0  0  0  0  0  0  0  0
   20.7514   18.8903   22.7700 C   0  0  0  0  0  0  0  0  0  0  0  0
   19.8247   19.1314   23.2961 H   0  0  0  0  0  0  0  0  0  0  0  0
   21.5764   18.9728   23.4821 H   0  0  0  0  0  0  0  0  0  0  0  0
   20.6727   17.4429   22.3232 N   0  3  0  0  0  0  0  0  0  0  0  0
   21.5334   17.1790   21.8197 H   0  0  0  0  0  0  0  0  0  0  0  0
   19.9080   17.3254   21.6422 H   0  0  0  0  0  0  0  0  0  0  0  0
   20.4585   16.5373   23.5284 C   0  0  0  0  0  0  0  0  0  0  0  0
   19.5262   16.8141   24.0253 H   0  0  0  0  0  0  0  0  0  0  0  0
   20.4026   15.4997   23.1922 H   0  0  0  0  0  0  0  0  0  0  0  0
   21.2952   16.6554   24.2203 H   0  0  0  0  0  0  0  0  0  0  0  0
  1  2  1  0  0  0  0
  1  3  1  0  0  0  0
  1  4  1  0  0  0  0
  1  5  1  0  0  0  0
  5  6  1  0  0  0  0
  5  7  1  0  0  0  0
  5  8  1  0  0  0  0
  8  9  1  0  0  0  0
  8 10  1  0  0  0  0
  8 11  1  0  0  0  0
 11 12  1  0  0  0  0
 11 13  1  0  0  0  0
 11 14  1  0  0  0  0
 14 15  1  0  0  0  0
 14 16  1  0  0  0  0
 14 17  1  0  0  0  0
 17 18  1  0  0  0  0
 17 19  1  0  0  0  0
 17 20  1  0  0  0  0
M  END
> <VConfSearch Rank>
525

> <Conf_Id>
24

> <Delta U+W>
0.792

> <U+W>
16.130

> <U>
70.374

> <W>
-54.243

> <W(PB)>
-56.130

> <W(SA)>
1.887

> <Valence>
1.257

> <Coulomb>
69.240

> <VdW>
-0.123

> <VdW6>
-4.336

> <VdW12>
4.213

> <Bond>
0.128

> <Angle>
0.603

> <Pdih>
0.526

> <Idih>
0.000

> <Tether>
0.000

$$$$
VeraChem MOL file


 20 19  0  0  0  0  0  0  0  0999 V2000     
   20.6258   18.5055   24.1043 C   0  0  0  0  0  0  0  0  0  0  0  0
   21.2142   18.2200   24.9861 H   0  0  0  0  0  0  0  0  0  0  0  0
   21.2653   19.1458   23.4855 H   0  0  0  0  0  0  0  0  0  0  0  0
   19.7666   19.0923   24.4545 H   0  0  0  0  0  0  0  0  0  0  0  0
   20.1695   17.2448   23.3348 C   0  0  0  0  0  0  0  0  0  0  0  0
   19.7193   16.5416   24.0496 H   0  0  0  0  0  0  0  0  0  0  0  0
   21.0484   16.7328   22.9183 H   0  0  0  0  0  0  0  0  0  0  0  0
   19.1427   17.5181   22.2062 C   0  0  0  0  0  0  0  0  0  0  0  0
   18.8424   16.5511   21.7812 H   0  0  0  0  0  0  0  0  0  0  0  0
   18.2279   17.9617   22.6210 H   0  0  0  0  0  0  0  0  0  0  0  0
   19.6788   18.3935   21.0536 C   0  0  0  0  0  0  0  0  0  0  0  0
   19.0631   18.2308   20.1653 H   0  0  0  0  0  0  0  0  0  0  0  0
   20.7040   18.1007   20.8135 H   0  0  0  0  0  0  0  0  0  0  0  0
   19.6587   19.8834   21.3380 N   0  3  0  0  0  0  0  0  0  0  0  0
   20.1838   20.0846   22.2008 H   0  0  0  0  0  0  0  0  0  0  0  0
   18.6935   20.1955   21.5252 H   0  0  0  0  0  0  0  0  0  0  0  0
   20.2485   20.6469   20.1600 C   0  0  0  0  0  0  0  0  0  0  0  0
   21.2796   20.3237   20.0016 H   0  0  0  0  0  0  0  0  0  0  0  0
   19.6557   20.4423   19.2659 H   0  0  0  0  0  0  0  0  0  0  0  0
   20.2273   21.7167   20.3788 H   0  0  0  0  0  0  0  0  0  0  0  0
  1  2  1  0  0  0  0
  1  3  1  0  0  0  0
  1  4  1  0  0  0  0
  1  5  1  0  0  0  0
  5  6  1  0  0  0  0
  5  7  1  0  0  0  0
  5  8  1  0  0  0  0
  8  9  1  0  0  0  0
  8 10  1  0  0  0  0
  8 11  1  0  0  0  0
 11 12  1  0  0  0  0
 11 13  1  0  0  0  0
 11 14  1  0  0  0  0
 14 15  1  0  0  0  0
 14 16  1  0  0  0  0
 14 17  1  0  0  0  0
 17 18  1  0  0  0  0
 17 19  1  0  0  0  0
 17 20  1  0  0  0  0
M  END
> <VConfSearch Rank>
526

> <Conf_Id>
26

> <Delta U+W>
2.888

> <U+W>
18.226

> <U>
72.042

> <W>
-53.816

> <W(PB)>
-55.689

> <W(SA)>
1.873

> <Valence>
2.428

> <Coulomb>
69.829

> <VdW>
-0.215

> <VdW6>
-4.563

> <VdW12>
4.348

> <Bond>
0.137

> <Angle>
0.936

> <Pdih>
1.356

> <Idih>
0.000

> <Tether>
0.000

$$$$
VeraChem MOL file


 20 19  0  0  0  0  0  0  0  0999 V2000     
   19.0407   20.6781   22.7362 C   0  0  0  0  0  0  0  0  0  0  0  0
   18.3376   21.5188   22.8004 H   0  0  0  0  0  0  0  0  0  0  0  0
   19.7511   20.7753   23.5674 H   0  0  0  0  0  0  0  0  0  0  0  0
   19.5837   20.7856   21.7898 H   0  0  0  0  0  0  0  0  0  0  0  0
   18.2769   19.3358   22.8035 C   0  0  0  0  0  0  0  0  0  0  0  0
   17.6464   19.2288   21.9095 H   0  0  0  0  0  0  0  0  0  0  0  0
   17.5874   19.3674   23.6589 H   0  0  0  0  0  0  0  0  0  0  0  0
   19.1839   18.0878   22.9533 C   0  0  0  0  0  0  0  0  0  0  0  0
   19.7651   18.1471   23.8830 H   0  0  0  0  0  0  0  0  0  0  0  0
   18.5344   17.2088   23.0599 H   0  0  0  0  0  0  0  0  0  0  0  0
   20.1256   17.8356   21.7566 C   0  0  0  0  0  0  0  0  0  0  0  0
   19.5938   18.0273   20.8214 H   0  0  0  0  0  0  0  0  0  0  0  0
   20.4363   16.7878   21.7612 H   0  0  0  0  0  0  0  0  0  0  0  0
   21.3913   18.6715   21.7697 N   0  3  0  0  0  0  0  0  0  0  0  0
   21.9360   18.4768   22.6238 H   0  0  0  0  0  0  0  0  0  0  0  0
   21.1524   19.6721   21.8193 H   0  0  0  0  0  0  0  0  0  0  0  0
   22.2220   18.3789   20.5276 C   0  0  0  0  0  0  0  0  0  0  0  0
   21.6374   18.6231   19.6379 H   0  0  0  0  0  0  0  0  0  0  0  0
   23.1289   18.9871   20.5507 H   0  0  0  0  0  0  0  0  0  0  0  0
   22.4892   17.3200   20.5149 H   0  0  0  0  0  0  0  0  0  0  0  0
  1  2  1  0  0  0  0
  1  3  1  0  0  0  0
  1  4  1  0  0  0  0
  1  5  1  0  0  0  0
  5  6  1  0  0  0  0
  5  7  1  0  0  0  0
  5  8  1  0  0  0  0
  8  9  1  0  0  0  0
  8 10  1  0  0  0  0
  8 11  1  0  0  0  0
 11 12  1  0  0  0  0
 11 13  1  0  0  0  0
 11 14  1  0  0  0  0
 14 15  1  0  0  0  0
 14 16  1  0  0  0  0
 14 17  1  0  0  0  0
 17 18  1  0  0  0  0
 17 19  1  0  0  0  0
 17 20  1  0  0  0  0
M  END
> <VConfSearch Rank>
527

> <Conf_Id>
5

> <Delta U+W>
2.950

> <U+W>
18.289

> <U>
72.042

> <W>
-53.753

> <W(PB)>
-55.644

> <W(SA)>
1.891

> <Valence>
2.428

> <Coulomb>
69.829

> <VdW>
-0.215

> <VdW6>
-4.563

> <VdW12>
4.348

> <Bond>
0.137

> <Angle>
0.936

> <Pdih>
1.356

> <Idih>
0.000

> <Tether>
0.000

$$$$
VeraChem MOL file


 20 19  0  0  0  0  0  0  0  0999 V2000     
   20.9737   18.4201   24.2404 C   0  0  0  0  0  0  0  0  0  0  0  0
   21.0159   17.3509   24.4857 H   0  0  0  0  0  0  0  0  0  0  0  0
   21.8243   18.6552   23.5885 H   0  0  0  0  0  0  0  0  0  0  0  0
   21.1067   18.9826   25.1736 H   0  0  0  0  0  0  0  0  0  0  0  0
   19.6268   18.7846   23.5748 C   0  0  0  0  0  0  0  0  0  0  0  0
   19.6065   19.8581   23.3424 H   0  0  0  0  0  0  0  0  0  0  0  0
   18.8149   18.6156   24.2960 H   0  0  0  0  0  0  0  0  0  0  0  0
   19.3381   17.9588   22.2965 C   0  0  0  0  0  0  0  0  0  0  0  0
   19.2670   16.8958   22.5621 H   0  0  0  0  0  0  0  0  0  0  0  0
   18.3536   18.2363   21.8983 H   0  0  0  0  0  0  0  0  0  0  0  0
   20.4057   18.1187   21.1901 C   0  0  0  0  0  0  0  0  0  0  0  0
   20.1298   17.5100   20.3254 H   0  0  0  0  0  0  0  0  0  0  0  0
   21.3640   17.7509   21.5649 H   0  0  0  0  0  0  0  0  0  0  0  0
   20.6243   19.5426   20.7021 N   0  3  0  0  0  0  0  0  0  0  0  0
   21.4426   19.5713   20.0739 H   0  0  0  0  0  0  0  0  0  0  0  0
   20.8741   20.1525   21.4945 H   0  0  0  0  0  0  0  0  0  0  0  0
   19.3934   20.0740   19.9761 C   0  0  0  0  0  0  0  0  0  0  0  0
   18.5482   20.0978   20.6667 H   0  0  0  0  0  0  0  0  0  0  0  0
   19.5995   21.0836   19.6140 H   0  0  0  0  0  0  0  0  0  0  0  0
   19.1640   19.4201   19.1320 H   0  0  0  0  0  0  0  0  0  0  0  0
  1  2  1  0  0  0  0
  1  3  1  0  0  0  0
  1  4  1  0  0  0  0
  1  5  1  0  0  0  0
  5  6  1  0  0  0  0
  5  7  1  0  0  0  0
  5  8  1  0  0  0  0
  8  9  1  0  0  0  0
  8 10  1  0  0  0  0
  8 11  1  0  0  0  0
 11 12  1  0  0  0  0
 11 13  1  0  0  0  0
 11 14  1  0  0  0  0
 14 15  1  0  0  0  0
 14 16  1  0  0  0  0
 14 17  1  0  0  0  0
 17 18  1  0  0  0  0
 17 19  1  0  0  0  0
 17 20  1  0  0  0  0
M  END
> <VConfSearch Rank>
528

> <Conf_Id>
52

> <Delta U+W>
0.784

> <U+W>
16.122

> <U>
70.777

> <W>
-54.655

> <W(PB)>
-56.491

> <W(SA)>
1.836

> <Valence>
1.529

> <Coulomb>
69.166

> <VdW>
0.082

> <VdW6>
-5.166

> <VdW12>
5.248

> <Bond>
0.171

> <Angle>
0.752

> <Pdih>
0.605

> <Idih>
0.000

> <Tether>
0.000

$$$$
VeraChem MOL file


 20 19  0  0  0  0  0  0  0  0999 V2000     
   19.0941   17.7373   20.5619 C   0  0  0  0  0  0  0  0  0  0  0  0
   18.5575   17.2841   19.7182 H   0  0  0  0  0  0  0  0  0  0  0  0
   20.1627   17.6940   20.3221 H   0  0  0  0  0  0  0  0  0  0  0  0
   18.9037   17.1183   21.4484 H   0  0  0  0  0  0  0  0  0  0  0  0
   18.6183   19.1919   20.7795 C   0  0  0  0  0  0  0  0  0  0  0  0
   17.5193   19.2025   20.7823 H   0  0  0  0  0  0  0  0  0  0  0  0
   18.9254   19.8106   19.9245 H   0  0  0  0  0  0  0  0  0  0  0  0
   19.1138   19.8386   22.0982 C   0  0  0  0  0  0  0  0  0  0  0  0
   18.6401   20.8252   22.1873 H   0  0  0  0  0  0  0  0  0  0  0  0
   18.7598   19.2606   22.9610 H   0  0  0  0  0  0  0  0  0  0  0  0
   20.6441   20.0470   22.1771 C   0  0  0  0  0  0  0  0  0  0  0  0
   20.8670   20.7856   22.9512 H   0  0  0  0  0  0  0  0  0  0  0  0
   20.9992   20.4464   21.2237 H   0  0  0  0  0  0  0  0  0  0  0  0
   21.4642   18.8073   22.4982 N   0  3  0  0  0  0  0  0  0  0  0  0
   22.4649   19.0047   22.3408 H   0  0  0  0  0  0  0  0  0  0  0  0
   21.2312   18.0499   21.8410 H   0  0  0  0  0  0  0  0  0  0  0  0
   21.2464   18.3581   23.9389 C   0  0  0  0  0  0  0  0  0  0  0  0
   21.5149   19.1735   24.6139 H   0  0  0  0  0  0  0  0  0  0  0  0
   20.1979   18.0898   24.0812 H   0  0  0  0  0  0  0  0  0  0  0  0
   21.8772   17.4899   24.1420 H   0  0  0  0  0  0  0  0  0  0  0  0
  1  2  1  0  0  0  0
  1  3  1  0  0  0  0
  1  4  1  0  0  0  0
  1  5  1  0  0  0  0
  5  6  1  0  0  0  0
  5  7  1  0  0  0  0
  5  8  1  0  0  0  0
  8  9  1  0  0  0  0
  8 10  1  0  0  0  0
  8 11  1  0  0  0  0
 11 12  1  0  0  0  0
 11 13  1  0  0  0  0
 11 14  1  0  0  0  0
 14 15  1  0  0  0  0
 14 16  1  0  0  0  0
 14 17  1  0  0  0  0
 17 18  1  0  0  0  0
 17 19  1  0  0  0  0
 17 20  1  0  0  0  0
M  END
> <VConfSearch Rank>
529

> <Conf_Id>
55

> <Delta U+W>
2.745

> <U+W>
18.083

> <U>
72.490

> <W>
-54.407

> <W(PB)>
-56.269

> <W(SA)>
1.861

> <Valence>
2.738

> <Coulomb>
69.795

> <VdW>
-0.043

> <VdW6>
-5.333

> <VdW12>
5.290

> <Bond>
0.182

> <Angle>
1.135

> <Pdih>
1.422

> <Idih>
0.000

> <Tether>
0.000

$$$$
VeraChem MOL file


 20 19  0  0  0  0  0  0  0  0999 V2000     
   19.3421   20.3499   23.3422 C   0  0  0  0  0  0  0  0  0  0  0  0
   19.1631   21.2375   23.9630 H   0  0  0  0  0  0  0  0  0  0  0  0
   18.3642   19.9347   23.0656 H   0  0  0  0  0  0  0  0  0  0  0  0
   19.8717   19.6228   23.9683 H   0  0  0  0  0  0  0  0  0  0  0  0
   20.1658   20.7296   22.0905 C   0  0  0  0  0  0  0  0  0  0  0  0
   21.1778   21.0320   22.3945 H   0  0  0  0  0  0  0  0  0  0  0  0
   19.7099   21.6170   21.6292 H   0  0  0  0  0  0  0  0  0  0  0  0
   20.2530   19.6147   21.0172 C   0  0  0  0  0  0  0  0  0  0  0  0
   19.2489   19.3489   20.6634 H   0  0  0  0  0  0  0  0  0  0  0  0
   20.7754   20.0284   20.1445 H   0  0  0  0  0  0  0  0  0  0  0  0
   21.0217   18.3497   21.4647 C   0  0  0  0  0  0  0  0  0  0  0  0
   21.9308   18.6523   21.9906 H   0  0  0  0  0  0  0  0  0  0  0  0
   21.3219   17.7801   20.5816 H   0  0  0  0  0  0  0  0  0  0  0  0
   20.2557   17.3958   22.3679 N   0  3  0  0  0  0  0  0  0  0  0  0
   19.8814   17.9037   23.1814 H   0  0  0  0  0  0  0  0  0  0  0  0
   20.9044   16.6956   22.7602 H   0  0  0  0  0  0  0  0  0  0  0  0
   19.1357   16.6939   21.6077 C   0  0  0  0  0  0  0  0  0  0  0  0
   18.4190   17.4356   21.2501 H   0  0  0  0  0  0  0  0  0  0  0  0
   19.5614   16.1518   20.7607 H   0  0  0  0  0  0  0  0  0  0  0  0
   18.6333   15.9929   22.2779 H   0  0  0  0  0  0  0  0  0  0  0  0
  1  2  1  0  0  0  0
  1  3  1  0  0  0  0
  1  4  1  0  0  0  0
  1  5  1  0  0  0  0
  5  6  1  0  0  0  0
  5  7  1  0  0  0  0
  5  8  1  0  0  0  0
  8  9  1  0  0  0  0
  8 10  1  0  0  0  0
  8 11  1  0  0  0  0
 11 12  1  0  0  0  0
 11 13  1  0  0  0  0
 11 14  1  0  0  0  0
 14 15  1  0  0  0  0
 14 16  1  0  0  0  0
 14 17  1  0  0  0  0
 17 18  1  0  0  0  0
 17 19  1  0  0  0  0
 17 20  1  0  0  0  0
M  END
> <VConfSearch Rank>
530

> <Conf_Id>
76

> <Delta U+W>
2.799

> <U+W>
18.137

> <U>
72.490

> <W>
-54.353

> <W(PB)>
-56.201

> <W(SA)>
1.848

> <Valence>
2.738

> <Coulomb>
69.795

> <VdW>
-0.043

> <VdW6>
-5.334

> <VdW12>
5.290

> <Bond>
0.182

> <Angle>
1.135

> <Pdih>
1.421

> <Idih>
0.000

> <Tether>
0.000

$$$$
VeraChem MOL file


 20 19  0  0  0  0  0  0  0  0999 V2000     
   19.4527   20.3034   20.6899 C   0  0  0  0  0  0  0  0  0  0  0  0
   19.5603   19.3215   20.2131 H   0  0  0  0  0  0  0  0  0  0  0  0
   18.3848   20.5566   20.7116 H   0  0  0  0  0  0  0  0  0  0  0  0
   19.9579   21.0393   20.0511 H   0  0  0  0  0  0  0  0  0  0  0  0
   20.0549   20.3169   22.1139 C   0  0  0  0  0  0  0  0  0  0  0  0
   19.9866   21.3369   22.5174 H   0  0  0  0  0  0  0  0  0  0  0  0
   21.1269   20.0844   22.0729 H   0  0  0  0  0  0  0  0  0  0  0  0
   19.3358   19.3505   23.0867 C   0  0  0  0  0  0  0  0  0  0  0  0
   19.7826   19.4412   24.0854 H   0  0  0  0  0  0  0  0  0  0  0  0
   18.2919   19.6735   23.1941 H   0  0  0  0  0  0  0  0  0  0  0  0
   19.3392   17.8623   22.6649 C   0  0  0  0  0  0  0  0  0  0  0  0
   18.9074   17.7445   21.6683 H   0  0  0  0  0  0  0  0  0  0  0  0
   18.7037   17.3154   23.3661 H   0  0  0  0  0  0  0  0  0  0  0  0
   20.6968   17.1757   22.6868 N   0  3  0  0  0  0  0  0  0  0  0  0
   20.5686   16.1782   22.9182 H   0  0  0  0  0  0  0  0  0  0  0  0
   21.2764   17.5504   23.4525 H   0  0  0  0  0  0  0  0  0  0  0  0
   21.4089   17.2897   21.3433 C   0  0  0  0  0  0  0  0  0  0  0  0
   22.3615   16.7582   21.3981 H   0  0  0  0  0  0  0  0  0  0  0  0
   20.7838   16.8421   20.5678 H   0  0  0  0  0  0  0  0  0  0  0  0
   21.5895   18.3394   21.1094 H   0  0  0  0  0  0  0  0  0  0  0  0
  1  2  1  0  0  0  0
  1  3  1  0  0  0  0
  1  4  1  0  0  0  0
  1  5  1  0  0  0  0
  5  6  1  0  0  0  0
  5  7  1  0  0  0  0
  5  8  1  0  0  0  0
  8  9  1  0  0  0  0
  8 10  1  0  0  0  0
  8 11  1  0  0  0  0
 11 12  1  0  0  0  0
 11 13  1  0  0  0  0
 11 14  1  0  0  0  0
 14 15  1  0  0  0  0
 14 16  1  0  0  0  0
 14 17  1  0  0  0  0
 17 18  1  0  0  0  0
 17 19  1  0  0  0  0
 17 20  1  0  0  0  0
M  END
> <VConfSearch Rank>
531

> <Conf_Id>
60

> <Delta U+W>
1.788

> <U+W>
17.127

> <U>
72.122

> <W>
-54.995

> <W(PB)>
-56.810

> <W(SA)>
1.815

> <Valence>
3.197

> <Coulomb>
69.115

> <VdW>
-0.190

> <VdW6>
-5.585

> <VdW12>
5.395

> <Bond>
0.177

> <Angle>
1.207

> <Pdih>
1.813

> <Idih>
0.000

> <Tether>
0.000

$$$$
VeraChem MOL file


 20 19  0  0  0  0  0  0  0  0999 V2000     
   22.2655   19.0876   22.0575 C   0  0  0  0  0  0  0  0  0  0  0  0
   22.9738   19.7790   21.5831 H   0  0  0  0  0  0  0  0  0  0  0  0
   22.8156   18.5117   22.8129 H   0  0  0  0  0  0  0  0  0  0  0  0
   21.9155   18.3908   21.2862 H   0  0  0  0  0  0  0  0  0  0  0  0
   21.0939   19.8665   22.6988 C   0  0  0  0  0  0  0  0  0  0  0  0
   20.5683   20.4544   21.9352 H   0  0  0  0  0  0  0  0  0  0  0  0
   21.5024   20.5986   23.4094 H   0  0  0  0  0  0  0  0  0  0  0  0
   20.0952   18.9520   23.4495 C   0  0  0  0  0  0  0  0  0  0  0  0
   20.6236   18.4604   24.2770 H   0  0  0  0  0  0  0  0  0  0  0  0
   19.3162   19.5697   23.9152 H   0  0  0  0  0  0  0  0  0  0  0  0
   19.4236   17.8568   22.5879 C   0  0  0  0  0  0  0  0  0  0  0  0
   18.8437   17.2153   23.2564 H   0  0  0  0  0  0  0  0  0  0  0  0
   20.1781   17.2319   22.1044 H   0  0  0  0  0  0  0  0  0  0  0  0
   18.4577   18.3571   21.5242 N   0  3  0  0  0  0  0  0  0  0  0  0
   17.9665   19.2014   21.8538 H   0  0  0  0  0  0  0  0  0  0  0  0
   17.7126   17.6566   21.3862 H   0  0  0  0  0  0  0  0  0  0  0  0
   19.1616   18.6067   20.1948 C   0  0  0  0  0  0  0  0  0  0  0  0
   19.6299   17.6793   19.8581 H   0  0  0  0  0  0  0  0  0  0  0  0
   18.4256   18.9341   19.4572 H   0  0  0  0  0  0  0  0  0  0  0  0
   19.9220   19.3783   20.3191 H   0  0  0  0  0  0  0  0  0  0  0  0
  1  2  1  0  0  0  0
  1  3  1  0  0  0  0
  1  4  1  0  0  0  0
  1  5  1  0  0  0  0
  5  6  1  0  0  0  0
  5  7  1  0  0  0  0
  5  8  1  0  0  0  0
  8  9  1  0  0  0  0
  8 10  1  0  0  0  0
  8 11  1  0  0  0  0
 11 12  1  0  0  0  0
 11 13  1  0  0  0  0
 11 14  1  0  0  0  0
 14 15  1  0  0  0  0
 14 16  1  0  0  0  0
 14 17  1  0  0  0  0
 17 18  1  0  0  0  0
 17 19  1  0  0  0  0
 17 20  1  0  0  0  0
M  END
> <VConfSearch Rank>
532

> <Conf_Id>
54

> <Delta U+W>
1.880

> <U+W>
17.218

> <U>
72.122

> <W>
-54.903

> <W(PB)>
-56.724

> <W(SA)>
1.821

> <Valence>
3.197

> <Coulomb>
69.115

> <VdW>
-0.190

> <VdW6>
-5.585

> <VdW12>
5.395

> <Bond>
0.177

> <Angle>
1.207

> <Pdih>
1.813

> <Idih>
0.000

> <Tether>
0.000

$$$$
VeraChem MOL file


 20 19  0  0  0  0  0  0  0  0999 V2000     
   21.4889   16.9726   19.8088 C   0  0  0  0  0  0  0  0  0  0  0  0
   20.8719   17.2732   18.9520 H   0  0  0  0  0  0  0  0  0  0  0  0
   22.5144   16.8211   19.4477 H   0  0  0  0  0  0  0  0  0  0  0  0
   21.1160   16.0077   20.1764 H   0  0  0  0  0  0  0  0  0  0  0  0
   21.4548   18.0427   20.9215 C   0  0  0  0  0  0  0  0  0  0  0  0
   21.8657   18.9857   20.5338 H   0  0  0  0  0  0  0  0  0  0  0  0
   22.1078   17.7302   21.7487 H   0  0  0  0  0  0  0  0  0  0  0  0
   20.0223   18.2772   21.4494 C   0  0  0  0  0  0  0  0  0  0  0  0
   19.3714   18.5927   20.6231 H   0  0  0  0  0  0  0  0  0  0  0  0
   19.6138   17.3354   21.8394 H   0  0  0  0  0  0  0  0  0  0  0  0
   19.9967   19.3453   22.5585 C   0  0  0  0  0  0  0  0  0  0  0  0
   20.3884   20.2884   22.1691 H   0  0  0  0  0  0  0  0  0  0  0  0
   20.6314   19.0270   23.3894 H   0  0  0  0  0  0  0  0  0  0  0  0
   18.6086   19.6095   23.1080 N   0  3  0  0  0  0  0  0  0  0  0  0
   18.2003   18.7380   23.4795 H   0  0  0  0  0  0  0  0  0  0  0  0
   17.9753   19.9060   22.3496 H   0  0  0  0  0  0  0  0  0  0  0  0
   18.6741   20.6738   24.1953 C   0  0  0  0  0  0  0  0  0  0  0  0
   19.0765   21.5966   23.7718 H   0  0  0  0  0  0  0  0  0  0  0  0
   17.6685   20.8542   24.5818 H   0  0  0  0  0  0  0  0  0  0  0  0
   19.3215   20.3245   25.0025 H   0  0  0  0  0  0  0  0  0  0  0  0
  1  2  1  0  0  0  0
  1  3  1  0  0  0  0
  1  4  1  0  0  0  0
  1  5  1  0  0  0  0
  5  6  1  0  0  0  0
  5  7  1  0  0  0  0
  5  8  1  0  0  0  0
  8  9  1  0  0  0  0
  8 10  1  0  0  0  0
  8 11  1  0  0  0  0
 11 12  1  0  0  0  0
 11 13  1  0  0  0  0
 11 14  1  0  0  0  0
 14 15  1  0  0  0  0
 14 16  1  0  0  0  0
 14 17  1  0  0  0  0
 17 18  1  0  0  0  0
 17 19  1  0  0  0  0
 17 20  1  0  0  0  0
M  END
> <VConfSearch Rank>
533

> <Conf_Id>
67

> <Delta U+W>
0.000

> <U+W>
15.338

> <U>
69.277

> <W>
-53.939

> <W(PB)>
-55.889

> <W(SA)>
1.950

> <Valence>
0.846

> <Coulomb>
68.557

> <VdW>
-0.127

> <VdW6>
-3.008

> <VdW12>
2.882

> <Bond>
0.088

> <Angle>
0.332

> <Pdih>
0.426

> <Idih>
0.000

> <Tether>
0.000

$$$$
VeraChem MOL file


 20 19  0  0  0  0  0  0  0  0999 V2000     
   18.2448   18.4297   19.6549 C   0  0  0  0  0  0  0  0  0  0  0  0
   17.4023   18.8281   20.2350 H   0  0  0  0  0  0  0  0  0  0  0  0
   18.0952   18.7153   18.6056 H   0  0  0  0  0  0  0  0  0  0  0  0
   18.2116   17.3339   19.7129 H   0  0  0  0  0  0  0  0  0  0  0  0
   19.5901   18.9741   20.1820 C   0  0  0  0  0  0  0  0  0  0  0  0
   19.6067   20.0684   20.0792 H   0  0  0  0  0  0  0  0  0  0  0  0
   20.4096   18.5862   19.5605 H   0  0  0  0  0  0  0  0  0  0  0  0
   19.8280   18.5868   21.6582 C   0  0  0  0  0  0  0  0  0  0  0  0
   19.0076   18.9761   22.2747 H   0  0  0  0  0  0  0  0  0  0  0  0
   19.8157   17.4936   21.7594 H   0  0  0  0  0  0  0  0  0  0  0  0
   21.1747   19.1338   22.1750 C   0  0  0  0  0  0  0  0  0  0  0  0
   21.1765   20.2255   22.1230 H   0  0  0  0  0  0  0  0  0  0  0  0
   21.9778   18.7635   21.5327 H   0  0  0  0  0  0  0  0  0  0  0  0
   21.5157   18.7324   23.6010 N   0  3  0  0  0  0  0  0  0  0  0  0
   22.4917   18.9953   23.8095 H   0  0  0  0  0  0  0  0  0  0  0  0
   21.4924   17.7059   23.6986 H   0  0  0  0  0  0  0  0  0  0  0  0
   20.5763   19.3944   24.6034 C   0  0  0  0  0  0  0  0  0  0  0  0
   19.5538   19.0596   24.4184 H   0  0  0  0  0  0  0  0  0  0  0  0
   20.8764   19.1123   25.6150 H   0  0  0  0  0  0  0  0  0  0  0  0
   20.6370   20.4790   24.4909 H   0  0  0  0  0  0  0  0  0  0  0  0
  1  2  1  0  0  0  0
  1  3  1  0  0  0  0
  1  4  1  0  0  0  0
  1  5  1  0  0  0  0
  5  6  1  0  0  0  0
  5  7  1  0  0  0  0
  5  8  1  0  0  0  0
  8  9  1  0  0  0  0
  8 10  1  0  0  0  0
  8 11  1  0  0  0  0
 11 12  1  0  0  0  0
 11 13  1  0  0  0  0
 11 14  1  0  0  0  0
 14 15  1  0  0  0  0
 14 16  1  0  0  0  0
 14 17  1  0  0  0  0
 17 18  1  0  0  0  0
 17 19  1  0  0  0  0
 17 20  1  0  0  0  0
M  END
> <VConfSearch Rank>
534

> <Conf_Id>
37

> <Delta U+W>
-0.021

> <U+W>
15.318

> <U>
69.657

> <W>
-54.340

> <W(PB)>
-56.238

> <W(SA)>
1.899

> <Valence>
1.137

> <Coulomb>
68.383

> <VdW>
0.138

> <VdW6>
-3.703

> <VdW12>
3.841

> <Bond>
0.125

> <Angle>
0.468

> <Pdih>
0.543

> <Idih>
0.000

> <Tether>
0.000

$$$$
VeraChem MOL file


 20 19  0  0  0  0  0  0  0  0999 V2000     
   22.0965   16.8857   20.9925 C   0  0  0  0  0  0  0  0  0  0  0  0
   22.3309   16.2175   20.1538 H   0  0  0  0  0  0  0  0  0  0  0  0
   22.8357   17.6973   20.9923 H   0  0  0  0  0  0  0  0  0  0  0  0
   22.2174   16.3138   21.9218 H   0  0  0  0  0  0  0  0  0  0  0  0
   20.6612   17.4404   20.8636 C   0  0  0  0  0  0  0  0  0  0  0  0
   19.9483   16.6044   20.8312 H   0  0  0  0  0  0  0  0  0  0  0  0
   20.5616   17.9775   19.9096 H   0  0  0  0  0  0  0  0  0  0  0  0
   20.3031   18.3850   22.0320 C   0  0  0  0  0  0  0  0  0  0  0  0
   20.3987   17.8467   22.9842 H   0  0  0  0  0  0  0  0  0  0  0  0
   21.0174   19.2179   22.0603 H   0  0  0  0  0  0  0  0  0  0  0  0
   18.8674   18.9326   21.8951 C   0  0  0  0  0  0  0  0  0  0  0  0
   18.1714   18.0919   21.8362 H   0  0  0  0  0  0  0  0  0  0  0  0
   18.7772   19.5112   20.9723 H   0  0  0  0  0  0  0  0  0  0  0  0
   18.4138   19.8146   23.0471 N   0  3  0  0  0  0  0  0  0  0  0  0
   18.5148   19.3129   23.9426 H   0  0  0  0  0  0  0  0  0  0  0  0
   17.4022   20.0008   22.9615 H   0  0  0  0  0  0  0  0  0  0  0  0
   19.1817   21.1318   23.0731 C   0  0  0  0  0  0  0  0  0  0  0  0
   19.0401   21.6494   22.1219 H   0  0  0  0  0  0  0  0  0  0  0  0
   18.8019   21.7511   23.8888 H   0  0  0  0  0  0  0  0  0  0  0  0
   20.2430   20.9300   23.2306 H   0  0  0  0  0  0  0  0  0  0  0  0
  1  2  1  0  0  0  0
  1  3  1  0  0  0  0
  1  4  1  0  0  0  0
  1  5  1  0  0  0  0
  5  6  1  0  0  0  0
  5  7  1  0  0  0  0
  5  8  1  0  0  0  0
  8  9  1  0  0  0  0
  8 10  1  0  0  0  0
  8 11  1  0  0  0  0
 11 12  1  0  0  0  0
 11 13  1  0  0  0  0
 11 14  1  0  0  0  0
 14 15  1  0  0  0  0
 14 16  1  0  0  0  0
 14 17  1  0  0  0  0
 17 18  1  0  0  0  0
 17 19  1  0  0  0  0
 17 20  1  0  0  0  0
M  END
> <VConfSearch Rank>
535

> <Conf_Id>
2

> <Delta U+W>
0.069

> <U+W>
15.407

> <U>
69.657

> <W>
-54.250

> <W(PB)>
-56.176

> <W(SA)>
1.926

> <Valence>
1.137

> <Coulomb>
68.383

> <VdW>
0.138

> <VdW6>
-3.703

> <VdW12>
3.841

> <Bond>
0.125

> <Angle>
0.468

> <Pdih>
0.543

> <Idih>
0.000

> <Tether>
0.000

$$$$
VeraChem MOL file


 20 19  0  0  0  0  0  0  0  0999 V2000     
   19.7770   17.0299   19.9973 C   0  0  0  0  0  0  0  0  0  0  0  0
   20.7188   16.8755   20.5390 H   0  0  0  0  0  0  0  0  0  0  0  0
   19.0052   16.4061   20.4666 H   0  0  0  0  0  0  0  0  0  0  0  0
   19.9225   16.6670   18.9716 H   0  0  0  0  0  0  0  0  0  0  0  0
   19.3617   18.5191   19.9917 C   0  0  0  0  0  0  0  0  0  0  0  0
   18.4686   18.6397   19.3624 H   0  0  0  0  0  0  0  0  0  0  0  0
   20.1529   19.1212   19.5230 H   0  0  0  0  0  0  0  0  0  0  0  0
   19.0578   19.0675   21.4055 C   0  0  0  0  0  0  0  0  0  0  0  0
   18.6967   20.1009   21.3179 H   0  0  0  0  0  0  0  0  0  0  0  0
   18.2432   18.4868   21.8583 H   0  0  0  0  0  0  0  0  0  0  0  0
   20.2900   19.0395   22.3308 C   0  0  0  0  0  0  0  0  0  0  0  0
   21.0998   19.6195   21.8812 H   0  0  0  0  0  0  0  0  0  0  0  0
   20.6332   18.0098   22.4561 H   0  0  0  0  0  0  0  0  0  0  0  0
   20.0200   19.6081   23.7101 N   0  3  0  0  0  0  0  0  0  0  0  0
   19.2521   19.0909   24.1649 H   0  0  0  0  0  0  0  0  0  0  0  0
   19.6869   20.5815   23.6356 H   0  0  0  0  0  0  0  0  0  0  0  0
   21.2841   19.5398   24.5566 C   0  0  0  0  0  0  0  0  0  0  0  0
   22.0723   20.1217   24.0739 H   0  0  0  0  0  0  0  0  0  0  0  0
   21.0757   19.9522   25.5463 H   0  0  0  0  0  0  0  0  0  0  0  0
   21.5985   18.4982   24.6506 H   0  0  0  0  0  0  0  0  0  0  0  0
  1  2  1  0  0  0  0
  1  3  1  0  0  0  0
  1  4  1  0  0  0  0
  1  5  1  0  0  0  0
  5  6  1  0  0  0  0
  5  7  1  0  0  0  0
  5  8  1  0  0  0  0
  8  9  1  0  0  0  0
  8 10  1  0  0  0  0
  8 11  1  0  0  0  0
 11 12  1  0  0  0  0
 11 13  1  0  0  0  0
 11 14  1  0  0  0  0
 14 15  1  0  0  0  0
 14 16  1  0  0  0  0
 14 17  1  0  0  0  0
 17 18  1  0  0  0  0
 17 19  1  0  0  0  0
 17 20  1  0  0  0  0
M  END
> <VConfSearch Rank>
536

> <Conf_Id>
34

> <Delta U+W>
0.276

> <U+W>
15.615

> <U>
69.798

> <W>
-54.184

> <W(PB)>
-56.116

> <W(SA)>
1.933

> <Valence>
1.134

> <Coulomb>
68.735

> <VdW>
-0.070

> <VdW6>
-3.565

> <VdW12>
3.494

> <Bond>
0.108

> <Angle>
0.456

> <Pdih>
0.569

> <Idih>
0.000

> <Tether>
0.000

$$$$
VeraChem MOL file


 20 19  0  0  0  0  0  0  0  0999 V2000     
   21.5590   17.7343   24.4021 C   0  0  0  0  0  0  0  0  0  0  0  0
   22.6353   17.8039   24.1976 H   0  0  0  0  0  0  0  0  0  0  0  0
   21.3942   18.0439   25.4423 H   0  0  0  0  0  0  0  0  0  0  0  0
   21.2621   16.6811   24.3138 H   0  0  0  0  0  0  0  0  0  0  0  0
   20.7496   18.6233   23.4333 C   0  0  0  0  0  0  0  0  0  0  0  0
   21.0467   19.6730   23.5680 H   0  0  0  0  0  0  0  0  0  0  0  0
   19.6843   18.5595   23.6933 H   0  0  0  0  0  0  0  0  0  0  0  0
   20.9645   18.2065   21.9591 C   0  0  0  0  0  0  0  0  0  0  0  0
   22.0371   18.2377   21.7260 H   0  0  0  0  0  0  0  0  0  0  0  0
   20.6432   17.1670   21.8107 H   0  0  0  0  0  0  0  0  0  0  0  0
   20.2233   19.1223   20.9644 C   0  0  0  0  0  0  0  0  0  0  0  0
   20.4852   18.8334   19.9433 H   0  0  0  0  0  0  0  0  0  0  0  0
   20.5365   20.1584   21.1155 H   0  0  0  0  0  0  0  0  0  0  0  0
   18.7116   19.0677   21.0813 N   0  3  0  0  0  0  0  0  0  0  0  0
   18.4187   19.3358   22.0325 H   0  0  0  0  0  0  0  0  0  0  0  0
   18.3800   18.0992   20.9541 H   0  0  0  0  0  0  0  0  0  0  0  0
   18.0769   19.9895   20.0487 C   0  0  0  0  0  0  0  0  0  0  0  0
   18.4161   21.0129   20.2231 H   0  0  0  0  0  0  0  0  0  0  0  0
   18.3736   19.6674   19.0482 H   0  0  0  0  0  0  0  0  0  0  0  0
   16.9899   19.9406   20.1439 H   0  0  0  0  0  0  0  0  0  0  0  0
  1  2  1  0  0  0  0
  1  3  1  0  0  0  0
  1  4  1  0  0  0  0
  1  5  1  0  0  0  0
  5  6  1  0  0  0  0
  5  7  1  0  0  0  0
  5  8  1  0  0  0  0
  8  9  1  0  0  0  0
  8 10  1  0  0  0  0
  8 11  1  0  0  0  0
 11 12  1  0  0  0  0
 11 13  1  0  0  0  0
 11 14  1  0  0  0  0
 14 15  1  0  0  0  0
 14 16  1  0  0  0  0
 14 17  1  0  0  0  0
 17 18  1  0  0  0  0
 17 19  1  0  0  0  0
 17 20  1  0  0  0  0
M  END
> <VConfSearch Rank>
537

> <Conf_Id>
50

> <Delta U+W>
0.319

> <U+W>
15.657

> <U>
69.962

> <W>
-54.305

> <W(PB)>
-56.223

> <W(SA)>
1.918

> <Valence>
0.982

> <Coulomb>
69.058

> <VdW>
-0.078

> <VdW6>
-3.548

> <VdW12>
3.471

> <Bond>
0.105

> <Angle>
0.408

> <Pdih>
0.469

> <Idih>
0.000

> <Tether>
0.000

$$$$
VeraChem MOL file


 20 19  0  0  0  0  0  0  0  0999 V2000     
   22.3509   20.7723   22.5360 C   0  0  0  0  0  0  0  0  0  0  0  0
   22.2303   21.8302   22.8030 H   0  0  0  0  0  0  0  0  0  0  0  0
   23.0411   20.3198   23.2599 H   0  0  0  0  0  0  0  0  0  0  0  0
   22.8187   20.7272   21.5439 H   0  0  0  0  0  0  0  0  0  0  0  0
   20.9866   20.0493   22.5408 C   0  0  0  0  0  0  0  0  0  0  0  0
   20.3113   20.5532   21.8361 H   0  0  0  0  0  0  0  0  0  0  0  0
   20.5303   20.1394   23.5368 H   0  0  0  0  0  0  0  0  0  0  0  0
   21.1292   18.5551   22.1666 C   0  0  0  0  0  0  0  0  0  0  0  0
   21.5586   18.4578   21.1606 H   0  0  0  0  0  0  0  0  0  0  0  0
   21.8367   18.0747   22.8555 H   0  0  0  0  0  0  0  0  0  0  0  0
   19.7912   17.7916   22.2323 C   0  0  0  0  0  0  0  0  0  0  0  0
   19.3589   17.8931   23.2309 H   0  0  0  0  0  0  0  0  0  0  0  0
   19.9718   16.7297   22.0464 H   0  0  0  0  0  0  0  0  0  0  0  0
   18.7596   18.2630   21.2246 N   0  3  0  0  0  0  0  0  0  0  0  0
   19.1384   18.1908   20.2678 H   0  0  0  0  0  0  0  0  0  0  0  0
   18.5569   19.2638   21.3651 H   0  0  0  0  0  0  0  0  0  0  0  0
   17.4870   17.4376   21.3589 C   0  0  0  0  0  0  0  0  0  0  0  0
   16.7537   17.7872   20.6288 H   0  0  0  0  0  0  0  0  0  0  0  0
   17.7186   16.3865   21.1736 H   0  0  0  0  0  0  0  0  0  0  0  0
   17.0865   17.5554   22.3682 H   0  0  0  0  0  0  0  0  0  0  0  0
  1  2  1  0  0  0  0
  1  3  1  0  0  0  0
  1  4  1  0  0  0  0
  1  5  1  0  0  0  0
  5  6  1  0  0  0  0
  5  7  1  0  0  0  0
  5  8  1  0  0  0  0
  8  9  1  0  0  0  0
  8 10  1  0  0  0  0
  8 11  1  0  0  0  0
 11 12  1  0  0  0  0
 11 13  1  0  0  0  0
 11 14  1  0  0  0  0
 14 15  1  0  0  0  0
 14 16  1  0  0  0  0
 14 17  1  0  0  0  0
 17 18  1  0  0  0  0
 17 19  1  0  0  0  0
 17 20  1  0  0  0  0
M  END
> <VConfSearch Rank>
538

> <Conf_Id>
35

> <Delta U+W>
0.360

> <U+W>
15.698

> <U>
69.962

> <W>
-54.264

> <W(PB)>
-56.166

> <W(SA)>
1.902

> <Valence>
0.982

> <Coulomb>
69.058

> <VdW>
-0.078

> <VdW6>
-3.548

> <VdW12>
3.471

> <Bond>
0.105

> <Angle>
0.408

> <Pdih>
0.469

> <Idih>
0.000

> <Tether>
0.000

$$$$
VeraChem MOL file


 20 19  0  0  0  0  0  0  0  0999 V2000     
   19.1577   20.6835   20.5658 C   0  0  0  0  0  0  0  0  0  0  0  0
   18.6576   19.7967   20.1563 H   0  0  0  0  0  0  0  0  0  0  0  0
   18.5817   21.5632   20.2504 H   0  0  0  0  0  0  0  0  0  0  0  0
   20.1543   20.7556   20.1111 H   0  0  0  0  0  0  0  0  0  0  0  0
   19.2525   20.6217   22.1076 C   0  0  0  0  0  0  0  0  0  0  0  0
   18.2435   20.5449   22.5368 H   0  0  0  0  0  0  0  0  0  0  0  0
   19.6748   21.5659   22.4791 H   0  0  0  0  0  0  0  0  0  0  0  0
   20.1244   19.4482   22.6122 C   0  0  0  0  0  0  0  0  0  0  0  0
   21.1406   19.5510   22.2104 H   0  0  0  0  0  0  0  0  0  0  0  0
   20.2103   19.5107   23.7050 H   0  0  0  0  0  0  0  0  0  0  0  0
   19.5427   18.0704   22.2291 C   0  0  0  0  0  0  0  0  0  0  0  0
   19.5140   17.9680   21.1417 H   0  0  0  0  0  0  0  0  0  0  0  0
   18.5179   18.0021   22.6028 H   0  0  0  0  0  0  0  0  0  0  0  0
   20.3088   16.8828   22.7887 N   0  3  0  0  0  0  0  0  0  0  0  0
   19.7696   16.0175   22.6286 H   0  0  0  0  0  0  0  0  0  0  0  0
   20.3870   16.9590   23.8143 H   0  0  0  0  0  0  0  0  0  0  0  0
   21.6865   16.7604   22.1467 C   0  0  0  0  0  0  0  0  0  0  0  0
   22.2741   17.6515   22.3762 H   0  0  0  0  0  0  0  0  0  0  0  0
   22.1899   15.8771   22.5460 H   0  0  0  0  0  0  0  0  0  0  0  0
   21.5716   16.6608   21.0653 H   0  0  0  0  0  0  0  0  0  0  0  0
  1  2  1  0  0  0  0
  1  3  1  0  0  0  0
  1  4  1  0  0  0  0
  1  5  1  0  0  0  0
  5  6  1  0  0  0  0
  5  7  1  0  0  0  0
  5  8  1  0  0  0  0
  8  9  1  0  0  0  0
  8 10  1  0  0  0  0
  8 11  1  0  0  0  0
 11 12  1  0  0  0  0
 11 13  1  0  0  0  0
 11 14  1  0  0  0  0
 14 15  1  0  0  0  0
 14 16  1  0  0  0  0
 14 17  1  0  0  0  0
 17 18  1  0  0  0  0
 17 19  1  0  0  0  0
 17 20  1  0  0  0  0
M  END
> <VConfSearch Rank>
539

> <Conf_Id>
33

> <Delta U+W>
0.372

> <U+W>
15.711

> <U>
70.163

> <W>
-54.452

> <W(PB)>
-56.363

> <W(SA)>
1.911

> <Valence>
1.420

> <Coulomb>
68.566

> <VdW>
0.177

> <VdW6>
-4.267

> <VdW12>
4.445

> <Bond>
0.146

> <Angle>
0.581

> <Pdih>
0.693

> <Idih>
0.000

> <Tether>
0.000

$$$$
VeraChem MOL file


 20 19  0  0  0  0  0  0  0  0999 V2000     
   21.9269   20.2402   20.8445 C   0  0  0  0  0  0  0  0  0  0  0  0
   22.4866   20.7724   20.0645 H   0  0  0  0  0  0  0  0  0  0  0  0
   21.3003   20.9769   21.3628 H   0  0  0  0  0  0  0  0  0  0  0  0
   22.6533   19.8411   21.5644 H   0  0  0  0  0  0  0  0  0  0  0  0
   21.0774   19.1068   20.2248 C   0  0  0  0  0  0  0  0  0  0  0  0
   21.7330   18.4453   19.6412 H   0  0  0  0  0  0  0  0  0  0  0  0
   20.3563   19.5329   19.5130 H   0  0  0  0  0  0  0  0  0  0  0  0
   20.3289   18.2651   21.2845 C   0  0  0  0  0  0  0  0  0  0  0  0
   19.8113   17.4369   20.7828 H   0  0  0  0  0  0  0  0  0  0  0  0
   21.0568   17.8120   21.9698 H   0  0  0  0  0  0  0  0  0  0  0  0
   19.2998   19.0951   22.0817 C   0  0  0  0  0  0  0  0  0  0  0  0
   18.6083   19.5698   21.3809 H   0  0  0  0  0  0  0  0  0  0  0  0
   19.8101   19.8834   22.6401 H   0  0  0  0  0  0  0  0  0  0  0  0
   18.4660   18.2917   23.0664 N   0  3  0  0  0  0  0  0  0  0  0  0
   17.9920   17.5140   22.5824 H   0  0  0  0  0  0  0  0  0  0  0  0
   17.7013   18.8804   23.4323 H   0  0  0  0  0  0  0  0  0  0  0  0
   19.3181   17.7742   24.2204 C   0  0  0  0  0  0  0  0  0  0  0  0
   18.6789   17.2356   24.9234 H   0  0  0  0  0  0  0  0  0  0  0  0
   20.0840   17.1002   23.8318 H   0  0  0  0  0  0  0  0  0  0  0  0
   19.7902   18.6194   24.7258 H   0  0  0  0  0  0  0  0  0  0  0  0
  1  2  1  0  0  0  0
  1  3  1  0  0  0  0
  1  4  1  0  0  0  0
  1  5  1  0  0  0  0
  5  6  1  0  0  0  0
  5  7  1  0  0  0  0
  5  8  1  0  0  0  0
  8  9  1  0  0  0  0
  8 10  1  0  0  0  0
  8 11  1  0  0  0  0
 11 12  1  0  0  0  0
 11 13  1  0  0  0  0
 11 14  1  0  0  0  0
 14 15  1  0  0  0  0
 14 16  1  0  0  0  0
 14 17  1  0  0  0  0
 17 18  1  0  0  0  0
 17 19  1  0  0  0  0
 17 20  1  0  0  0  0
M  END
> <VConfSearch Rank>
540

> <Conf_Id>
53

> <Delta U+W>
0.379

> <U+W>
15.717

> <U>
70.163

> <W>
-54.446

> <W(PB)>
-56.322

> <W(SA)>
1.876

> <Valence>
1.420

> <Coulomb>
68.566

> <VdW>
0.177

> <VdW6>
-4.267

> <VdW12>
4.445

> <Bond>
0.146

> <Angle>
0.581

> <Pdih>
0.693

> <Idih>
0.000

> <Tether>
0.000

$$$$
VeraChem MOL file


 20 19  0  0  0  0  0  0  0  0999 V2000     
   22.8305   19.4768   22.2163 C   0  0  0  0  0  0  0  0  0  0  0  0
   23.3676   19.8263   23.1076 H   0  0  0  0  0  0  0  0  0  0  0  0
   23.4657   18.7387   21.7093 H   0  0  0  0  0  0  0  0  0  0  0  0
   22.7007   20.3349   21.5440 H   0  0  0  0  0  0  0  0  0  0  0  0
   21.4676   18.8645   22.6056 C   0  0  0  0  0  0  0  0  0  0  0  0
   20.8765   19.6183   23.1432 H   0  0  0  0  0  0  0  0  0  0  0  0
   21.6287   18.0299   23.3026 H   0  0  0  0  0  0  0  0  0  0  0  0
   20.6889   18.3655   21.3657 C   0  0  0  0  0  0  0  0  0  0  0  0
   20.5015   19.2007   20.6787 H   0  0  0  0  0  0  0  0  0  0  0  0
   21.3082   17.6462   20.8137 H   0  0  0  0  0  0  0  0  0  0  0  0
   19.3551   17.6771   21.7311 C   0  0  0  0  0  0  0  0  0  0  0  0
   19.5643   16.8140   22.3683 H   0  0  0  0  0  0  0  0  0  0  0  0
   18.8724   17.3118   20.8211 H   0  0  0  0  0  0  0  0  0  0  0  0
   18.3498   18.5514   22.4657 N   0  3  0  0  0  0  0  0  0  0  0  0
   18.7665   18.9213   23.3326 H   0  0  0  0  0  0  0  0  0  0  0  0
   17.5543   17.9734   22.7792 H   0  0  0  0  0  0  0  0  0  0  0  0
   17.8485   19.6856   21.5784 C   0  0  0  0  0  0  0  0  0  0  0  0
   17.3955   19.2645   20.6784 H   0  0  0  0  0  0  0  0  0  0  0  0
   17.1046   20.2672   22.1272 H   0  0  0  0  0  0  0  0  0  0  0  0
   18.6872   20.3288   21.3048 H   0  0  0  0  0  0  0  0  0  0  0  0
  1  2  1  0  0  0  0
  1  3  1  0  0  0  0
  1  4  1  0  0  0  0
  1  5  1  0  0  0  0
  5  6  1  0  0  0  0
  5  7  1  0  0  0  0
  5  8  1  0  0  0  0
  8  9  1  0  0  0  0
  8 10  1  0  0  0  0
  8 11  1  0  0  0  0
 11 12  1  0  0  0  0
 11 13  1  0  0  0  0
 11 14  1  0  0  0  0
 14 15  1  0  0  0  0
 14 16  1  0  0  0  0
 14 17  1  0  0  0  0
 17 18  1  0  0  0  0
 17 19  1  0  0  0  0
 17 20  1  0  0  0  0
M  END
> <VConfSearch Rank>
541

> <Conf_Id>
49

> <Delta U+W>
0.268

> <U+W>
15.607

> <U>
70.298

> <W>
-54.692

> <W(PB)>
-56.576

> <W(SA)>
1.885

> <Valence>
1.245

> <Coulomb>
68.933

> <VdW>
0.120

> <VdW6>
-4.430

> <VdW12>
4.550

> <Bond>
0.148

> <Angle>
0.587

> <Pdih>
0.509

> <Idih>
0.000

> <Tether>
0.000

$$$$
VeraChem MOL file


 20 19  0  0  0  0  0  0  0  0999 V2000     
   19.3132   19.7615   19.4947 C   0  0  0  0  0  0  0  0  0  0  0  0
   18.2617   19.4518   19.4345 H   0  0  0  0  0  0  0  0  0  0  0  0
   19.3463   20.8587   19.5004 H   0  0  0  0  0  0  0  0  0  0  0  0
   19.8183   19.4152   18.5837 H   0  0  0  0  0  0  0  0  0  0  0  0
   19.9938   19.1770   20.7515 C   0  0  0  0  0  0  0  0  0  0  0  0
   21.0500   19.4805   20.7694 H   0  0  0  0  0  0  0  0  0  0  0  0
   19.9744   18.0811   20.6874 H   0  0  0  0  0  0  0  0  0  0  0  0
   19.2938   19.6412   22.0501 C   0  0  0  0  0  0  0  0  0  0  0  0
   19.2174   20.7365   22.0440 H   0  0  0  0  0  0  0  0  0  0  0  0
   18.2640   19.2611   22.0731 H   0  0  0  0  0  0  0  0  0  0  0  0
   20.0244   19.2228   23.3462 C   0  0  0  0  0  0  0  0  0  0  0  0
   19.4836   19.6551   24.1920 H   0  0  0  0  0  0  0  0  0  0  0  0
   21.0386   19.6299   23.3592 H   0  0  0  0  0  0  0  0  0  0  0  0
   20.1083   17.7256   23.6000 N   0  3  0  0  0  0  0  0  0  0  0  0
   19.2735   17.2499   23.2260 H   0  0  0  0  0  0  0  0  0  0  0  0
   20.0782   17.5506   24.6166 H   0  0  0  0  0  0  0  0  0  0  0  0
   21.3922   17.1339   23.0272 C   0  0  0  0  0  0  0  0  0  0  0  0
   21.4235   16.0653   23.2506 H   0  0  0  0  0  0  0  0  0  0  0  0
   21.4178   17.2823   21.9471 H   0  0  0  0  0  0  0  0  0  0  0  0
   22.2503   17.6292   23.4865 H   0  0  0  0  0  0  0  0  0  0  0  0
  1  2  1  0  0  0  0
  1  3  1  0  0  0  0
  1  4  1  0  0  0  0
  1  5  1  0  0  0  0
  5  6  1  0  0  0  0
  5  7  1  0  0  0  0
  5  8  1  0  0  0  0
  8  9  1  0  0  0  0
  8 10  1  0  0  0  0
  8 11  1  0  0  0  0
 11 12  1  0  0  0  0
 11 13  1  0  0  0  0
 11 14  1  0  0  0  0
 14 15  1  0  0  0  0
 14 16  1  0  0  0  0
 14 17  1  0  0  0  0
 17 18  1  0  0  0  0
 17 19  1  0  0  0  0
 17 20  1  0  0  0  0
M  END
> <VConfSearch Rank>
542

> <Conf_Id>
65

> <Delta U+W>
1.775

> <U+W>
17.114

> <U>
71.726

> <W>
-54.613

> <W(PB)>
-56.495

> <W(SA)>
1.883

> <Valence>
2.885

> <Coulomb>
68.822

> <VdW>
0.019

> <VdW6>
-4.600

> <VdW12>
4.619

> <Bond>
0.152

> <Angle>
0.862

> <Pdih>
1.871

> <Idih>
0.000

> <Tether>
0.000

$$$$
VeraChem MOL file


 20 19  0  0  0  0  0  0  0  0999 V2000     
   21.7132   17.0348   21.7583 C   0  0  0  0  0  0  0  0  0  0  0  0
   20.9515   16.8830   22.5334 H   0  0  0  0  0  0  0  0  0  0  0  0
   21.8660   16.0728   21.2521 H   0  0  0  0  0  0  0  0  0  0  0  0
   22.6553   17.3059   22.2522 H   0  0  0  0  0  0  0  0  0  0  0  0
   21.2854   18.1196   20.7433 C   0  0  0  0  0  0  0  0  0  0  0  0
   20.3425   17.8253   20.2628 H   0  0  0  0  0  0  0  0  0  0  0  0
   22.0322   18.1697   19.9384 H   0  0  0  0  0  0  0  0  0  0  0  0
   21.1440   19.5249   21.3799 C   0  0  0  0  0  0  0  0  0  0  0  0
   22.1209   19.8470   21.7640 H   0  0  0  0  0  0  0  0  0  0  0  0
   20.8665   20.2506   20.6040 H   0  0  0  0  0  0  0  0  0  0  0  0
   20.1163   19.5929   22.5290 C   0  0  0  0  0  0  0  0  0  0  0  0
   20.1007   20.6050   22.9414 H   0  0  0  0  0  0  0  0  0  0  0  0
   20.4104   18.9068   23.3268 H   0  0  0  0  0  0  0  0  0  0  0  0
   18.7005   19.2448   22.1109 N   0  3  0  0  0  0  0  0  0  0  0  0
   18.6751   18.2963   21.7083 H   0  0  0  0  0  0  0  0  0  0  0  0
   18.3881   19.8736   21.3552 H   0  0  0  0  0  0  0  0  0  0  0  0
   17.7655   19.3419   23.3088 C   0  0  0  0  0  0  0  0  0  0  0  0
   17.7851   20.3619   23.6986 H   0  0  0  0  0  0  0  0  0  0  0  0
   16.7511   19.0877   22.9938 H   0  0  0  0  0  0  0  0  0  0  0  0
   18.0968   18.6446   24.0813 H   0  0  0  0  0  0  0  0  0  0  0  0
  1  2  1  0  0  0  0
  1  3  1  0  0  0  0
  1  4  1  0  0  0  0
  1  5  1  0  0  0  0
  5  6  1  0  0  0  0
  5  7  1  0  0  0  0
  5  8  1  0  0  0  0
  8  9  1  0  0  0  0
  8 10  1  0  0  0  0
  8 11  1  0  0  0  0
 11 12  1  0  0  0  0
 11 13  1  0  0  0  0
 11 14  1  0  0  0  0
 14 15  1  0  0  0  0
 14 16  1  0  0  0  0
 14 17  1  0  0  0  0
 17 18  1  0  0  0  0
 17 19  1  0  0  0  0
 17 20  1  0  0  0  0
M  END
> <VConfSearch Rank>
543

> <Conf_Id>
23

> <Delta U+W>
0.896

> <U+W>
16.234

> <U>
70.374

> <W>
-54.140

> <W(PB)>
-56.046

> <W(SA)>
1.907

> <Valence>
1.257

> <Coulomb>
69.240

> <VdW>
-0.123

> <VdW6>
-4.336

> <VdW12>
4.213

> <Bond>
0.128

> <Angle>
0.603

> <Pdih>
0.526

> <Idih>
0.000

> <Tether>
0.000

$$$$
VeraChem MOL file


 20 19  0  0  0  0  0  0  0  0999 V2000     
   22.2774   18.9474   23.0077 C   0  0  0  0  0  0  0  0  0  0  0  0
   22.2552   18.6421   24.0620 H   0  0  0  0  0  0  0  0  0  0  0  0
   23.3192   19.1755   22.7477 H   0  0  0  0  0  0  0  0  0  0  0  0
   21.7010   19.8757   22.9079 H   0  0  0  0  0  0  0  0  0  0  0  0
   21.7225   17.8307   22.0938 C   0  0  0  0  0  0  0  0  0  0  0  0
   22.3843   16.9556   22.1574 H   0  0  0  0  0  0  0  0  0  0  0  0
   21.7560   18.1595   21.0463 H   0  0  0  0  0  0  0  0  0  0  0  0
   20.2841   17.3961   22.4710 C   0  0  0  0  0  0  0  0  0  0  0  0
   19.9615   16.5853   21.8045 H   0  0  0  0  0  0  0  0  0  0  0  0
   20.2888   16.9744   23.4848 H   0  0  0  0  0  0  0  0  0  0  0  0
   19.2487   18.5389   22.4178 C   0  0  0  0  0  0  0  0  0  0  0  0
   19.5381   19.3303   23.1133 H   0  0  0  0  0  0  0  0  0  0  0  0
   18.2720   18.1575   22.7263 H   0  0  0  0  0  0  0  0  0  0  0  0
   19.0866   19.1601   21.0435 N   0  3  0  0  0  0  0  0  0  0  0  0
   18.8137   18.4396   20.3577 H   0  0  0  0  0  0  0  0  0  0  0  0
   19.9917   19.5263   20.7133 H   0  0  0  0  0  0  0  0  0  0  0  0
   18.0472   20.2716   21.0944 C   0  0  0  0  0  0  0  0  0  0  0  0
   18.3733   21.0373   21.8016 H   0  0  0  0  0  0  0  0  0  0  0  0
   17.9417   20.7101   20.0996 H   0  0  0  0  0  0  0  0  0  0  0  0
   17.0903   19.8549   21.4161 H   0  0  0  0  0  0  0  0  0  0  0  0
  1  2  1  0  0  0  0
  1  3  1  0  0  0  0
  1  4  1  0  0  0  0
  1  5  1  0  0  0  0
  5  6  1  0  0  0  0
  5  7  1  0  0  0  0
  5  8  1  0  0  0  0
  8  9  1  0  0  0  0
  8 10  1  0  0  0  0
  8 11  1  0  0  0  0
 11 12  1  0  0  0  0
 11 13  1  0  0  0  0
 11 14  1  0  0  0  0
 14 15  1  0  0  0  0
 14 16  1  0  0  0  0
 14 17  1  0  0  0  0
 17 18  1  0  0  0  0
 17 19  1  0  0  0  0
 17 20  1  0  0  0  0
M  END
> <VConfSearch Rank>
544

> <Conf_Id>
24

> <Delta U+W>
0.792

> <U+W>
16.130

> <U>
70.374

> <W>
-54.243

> <W(PB)>
-56.130

> <W(SA)>
1.887

> <Valence>
1.257

> <Coulomb>
69.240

> <VdW>
-0.123

> <VdW6>
-4.336

> <VdW12>
4.213

> <Bond>
0.128

> <Angle>
0.603

> <Pdih>
0.526

> <Idih>
0.000

> <Tether>
0.000

$$$$
VeraChem MOL file


 20 19  0  0  0  0  0  0  0  0999 V2000     
   18.5411   17.6281   23.2221 C   0  0  0  0  0  0  0  0  0  0  0  0
   18.1035   16.9650   23.9797 H   0  0  0  0  0  0  0  0  0  0  0  0
   19.0620   18.4294   23.7594 H   0  0  0  0  0  0  0  0  0  0  0  0
   17.7149   18.0644   22.6458 H   0  0  0  0  0  0  0  0  0  0  0  0
   19.5055   16.8354   22.3104 C   0  0  0  0  0  0  0  0  0  0  0  0
   18.9938   15.9257   21.9659 H   0  0  0  0  0  0  0  0  0  0  0  0
   20.3678   16.4936   22.9001 H   0  0  0  0  0  0  0  0  0  0  0  0
   20.0018   17.6170   21.0672 C   0  0  0  0  0  0  0  0  0  0  0  0
   20.6178   16.9367   20.4642 H   0  0  0  0  0  0  0  0  0  0  0  0
   19.1536   17.8997   20.4298 H   0  0  0  0  0  0  0  0  0  0  0  0
   20.8550   18.8610   21.3939 C   0  0  0  0  0  0  0  0  0  0  0  0
   21.4552   19.1223   20.5186 H   0  0  0  0  0  0  0  0  0  0  0  0
   21.5371   18.6351   22.2173 H   0  0  0  0  0  0  0  0  0  0  0  0
   20.0498   20.0930   21.7610 N   0  3  0  0  0  0  0  0  0  0  0  0
   19.4246   19.8826   22.5519 H   0  0  0  0  0  0  0  0  0  0  0  0
   19.4273   20.3549   20.9813 H   0  0  0  0  0  0  0  0  0  0  0  0
   20.9856   21.2430   22.1075 C   0  0  0  0  0  0  0  0  0  0  0  0
   21.6113   20.9551   22.9551 H   0  0  0  0  0  0  0  0  0  0  0  0
   21.6147   21.4676   21.2435 H   0  0  0  0  0  0  0  0  0  0  0  0
   20.3926   22.1221   22.3694 H   0  0  0  0  0  0  0  0  0  0  0  0
  1  2  1  0  0  0  0
  1  3  1  0  0  0  0
  1  4  1  0  0  0  0
  1  5  1  0  0  0  0
  5  6  1  0  0  0  0
  5  7  1  0  0  0  0
  5  8  1  0  0  0  0
  8  9  1  0  0  0  0
  8 10  1  0  0  0  0
  8 11  1  0  0  0  0
 11 12  1  0  0  0  0
 11 13  1  0  0  0  0
 11 14  1  0  0  0  0
 14 15  1  0  0  0  0
 14 16  1  0  0  0  0
 14 17  1  0  0  0  0
 17 18  1  0  0  0  0
 17 19  1  0  0  0  0
 17 20  1  0  0  0  0
M  END
> <VConfSearch Rank>
545

> <Conf_Id>
26

> <Delta U+W>
2.888

> <U+W>
18.226

> <U>
72.042

> <W>
-53.816

> <W(PB)>
-55.689

> <W(SA)>
1.873

> <Valence>
2.428

> <Coulomb>
69.829

> <VdW>
-0.215

> <VdW6>
-4.563

> <VdW12>
4.348

> <Bond>
0.137

> <Angle>
0.936

> <Pdih>
1.356

> <Idih>
0.000

> <Tether>
0.000

$$$$
VeraChem MOL file


 20 19  0  0  0  0  0  0  0  0999 V2000     
   21.5044   17.8473   23.3348 C   0  0  0  0  0  0  0  0  0  0  0  0
   21.9425   17.2983   24.1786 H   0  0  0  0  0  0  0  0  0  0  0  0
   22.3147   18.0738   22.6297 H   0  0  0  0  0  0  0  0  0  0  0  0
   21.1081   18.7878   23.7353 H   0  0  0  0  0  0  0  0  0  0  0  0
   20.3960   17.0031   22.6653 C   0  0  0  0  0  0  0  0  0  0  0  0
   19.5597   16.8753   23.3670 H   0  0  0  0  0  0  0  0  0  0  0  0
   20.7897   15.9946   22.4757 H   0  0  0  0  0  0  0  0  0  0  0  0
   19.8689   17.5811   21.3270 C   0  0  0  0  0  0  0  0  0  0  0  0
   20.6816   17.6436   20.5912 H   0  0  0  0  0  0  0  0  0  0  0  0
   19.1429   16.8683   20.9137 H   0  0  0  0  0  0  0  0  0  0  0  0
   19.1658   18.9491   21.4552 C   0  0  0  0  0  0  0  0  0  0  0  0
   18.5392   18.9598   22.3505 H   0  0  0  0  0  0  0  0  0  0  0  0
   18.5192   19.1011   20.5872 H   0  0  0  0  0  0  0  0  0  0  0  0
   20.1102   20.1346   21.5154 N   0  3  0  0  0  0  0  0  0  0  0  0
   20.6849   20.1738   20.6597 H   0  0  0  0  0  0  0  0  0  0  0  0
   20.7790   20.0135   22.2891 H   0  0  0  0  0  0  0  0  0  0  0  0
   19.3182   21.4237   21.6871 C   0  0  0  0  0  0  0  0  0  0  0  0
   18.7439   21.3724   22.6146 H   0  0  0  0  0  0  0  0  0  0  0  0
   20.0105   22.2675   21.7288 H   0  0  0  0  0  0  0  0  0  0  0  0
   18.6406   21.5451   20.8393 H   0  0  0  0  0  0  0  0  0  0  0  0
  1  2  1  0  0  0  0
  1  3  1  0  0  0  0
  1  4  1  0  0  0  0
  1  5  1  0  0  0  0
  5  6  1  0  0  0  0
  5  7  1  0  0  0  0
  5  8  1  0  0  0  0
  8  9  1  0  0  0  0
  8 10  1  0  0  0  0
  8 11  1  0  0  0  0
 11 12  1  0  0  0  0
 11 13  1  0  0  0  0
 11 14  1  0  0  0  0
 14 15  1  0  0  0  0
 14 16  1  0  0  0  0
 14 17  1  0  0  0  0
 17 18  1  0  0  0  0
 17 19  1  0  0  0  0
 17 20  1  0  0  0  0
M  END
> <VConfSearch Rank>
546

> <Conf_Id>
5

> <Delta U+W>
2.950

> <U+W>
18.289

> <U>
72.042

> <W>
-53.753

> <W(PB)>
-55.644

> <W(SA)>
1.891

> <Valence>
2.428

> <Coulomb>
69.829

> <VdW>
-0.215

> <VdW6>
-4.563

> <VdW12>
4.348

> <Bond>
0.137

> <Angle>
0.936

> <Pdih>
1.356

> <Idih>
0.000

> <Tether>
0.000

$$$$
VeraChem MOL file


 20 19  0  0  0  0  0  0  0  0999 V2000     
   18.7006   16.8674   22.3863 C   0  0  0  0  0  0  0  0  0  0  0  0
   18.4430   16.7175   23.4428 H   0  0  0  0  0  0  0  0  0  0  0  0
   18.0409   17.6444   21.9803 H   0  0  0  0  0  0  0  0  0  0  0  0
   18.4796   15.9338   21.8528 H   0  0  0  0  0  0  0  0  0  0  0  0
   20.1915   17.2437   22.2259 C   0  0  0  0  0  0  0  0  0  0  0  0
   20.4261   17.3847   21.1620 H   0  0  0  0  0  0  0  0  0  0  0  0
   20.8108   16.4008   22.5633 H   0  0  0  0  0  0  0  0  0  0  0  0
   20.5885   18.5072   23.0293 C   0  0  0  0  0  0  0  0  0  0  0  0
   20.4376   18.3161   24.0999 H   0  0  0  0  0  0  0  0  0  0  0  0
   21.6628   18.6949   22.9052 H   0  0  0  0  0  0  0  0  0  0  0  0
   19.7950   19.7752   22.6396 C   0  0  0  0  0  0  0  0  0  0  0  0
   20.1338   20.6189   23.2461 H   0  0  0  0  0  0  0  0  0  0  0  0
   18.7363   19.6127   22.8559 H   0  0  0  0  0  0  0  0  0  0  0  0
   19.9033   20.1834   21.1785 N   0  3  0  0  0  0  0  0  0  0  0  0
   19.2377   20.9473   20.9823 H   0  0  0  0  0  0  0  0  0  0  0  0
   19.6042   19.4057   20.5720 H   0  0  0  0  0  0  0  0  0  0  0  0
   21.3200   20.6274   20.8313 C   0  0  0  0  0  0  0  0  0  0  0  0
   22.0080   19.7934   20.9833 H   0  0  0  0  0  0  0  0  0  0  0  0
   21.3505   20.9420   19.7858 H   0  0  0  0  0  0  0  0  0  0  0  0
   21.6026   21.4629   21.4753 H   0  0  0  0  0  0  0  0  0  0  0  0
  1  2  1  0  0  0  0
  1  3  1  0  0  0  0
  1  4  1  0  0  0  0
  1  5  1  0  0  0  0
  5  6  1  0  0  0  0
  5  7  1  0  0  0  0
  5  8  1  0  0  0  0
  8  9  1  0  0  0  0
  8 10  1  0  0  0  0
  8 11  1  0  0  0  0
 11 12  1  0  0  0  0
 11 13  1  0  0  0  0
 11 14  1  0  0  0  0
 14 15  1  0  0  0  0
 14 16  1  0  0  0  0
 14 17  1  0  0  0  0
 17 18  1  0  0  0  0
 17 19  1  0  0  0  0
 17 20  1  0  0  0  0
M  END
> <VConfSearch Rank>
547

> <Conf_Id>
52

> <Delta U+W>
0.784

> <U+W>
16.122

> <U>
70.777

> <W>
-54.655

> <W(PB)>
-56.491

> <W(SA)>
1.836

> <Valence>
1.529

> <Coulomb>
69.166

> <VdW>
0.082

> <VdW6>
-5.166

> <VdW12>
5.248

> <Bond>
0.171

> <Angle>
0.752

> <Pdih>
0.605

> <Idih>
0.000

> <Tether>
0.000

$$$$
VeraChem MOL file


 20 19  0  0  0  0  0  0  0  0999 V2000     
   20.5306   18.2419   23.9629 C   0  0  0  0  0  0  0  0  0  0  0  0
   20.8887   17.7684   24.8864 H   0  0  0  0  0  0  0  0  0  0  0  0
   21.1470   19.1334   23.8005 H   0  0  0  0  0  0  0  0  0  0  0  0
   19.4915   18.5543   24.1305 H   0  0  0  0  0  0  0  0  0  0  0  0
   20.6363   17.2537   22.7790 C   0  0  0  0  0  0  0  0  0  0  0  0
   20.1997   16.2931   23.0867 H   0  0  0  0  0  0  0  0  0  0  0  0
   21.6947   17.0505   22.5634 H   0  0  0  0  0  0  0  0  0  0  0  0
   19.9195   17.7215   21.4867 C   0  0  0  0  0  0  0  0  0  0  0  0
   19.9811   16.9058   20.7542 H   0  0  0  0  0  0  0  0  0  0  0  0
   18.8491   17.8682   21.6781 H   0  0  0  0  0  0  0  0  0  0  0  0
   20.5305   18.9828   20.8329 C   0  0  0  0  0  0  0  0  0  0  0  0
   20.2013   19.0437   19.7925 H   0  0  0  0  0  0  0  0  0  0  0  0
   21.6196   18.8923   20.8328 H   0  0  0  0  0  0  0  0  0  0  0  0
   20.1721   20.3068   21.4893 N   0  3  0  0  0  0  0  0  0  0  0  0
   20.7707   21.0554   21.1064 H   0  0  0  0  0  0  0  0  0  0  0  0
   20.3909   20.2732   22.4947 H   0  0  0  0  0  0  0  0  0  0  0  0
   18.7042   20.6546   21.2676 C   0  0  0  0  0  0  0  0  0  0  0  0
   18.5036   20.6986   20.1950 H   0  0  0  0  0  0  0  0  0  0  0  0
   18.0761   19.8913   21.7308 H   0  0  0  0  0  0  0  0  0  0  0  0
   18.4944   21.6259   21.7209 H   0  0  0  0  0  0  0  0  0  0  0  0
  1  2  1  0  0  0  0
  1  3  1  0  0  0  0
  1  4  1  0  0  0  0
  1  5  1  0  0  0  0
  5  6  1  0  0  0  0
  5  7  1  0  0  0  0
  5  8  1  0  0  0  0
  8  9  1  0  0  0  0
  8 10  1  0  0  0  0
  8 11  1  0  0  0  0
 11 12  1  0  0  0  0
 11 13  1  0  0  0  0
 11 14  1  0  0  0  0
 14 15  1  0  0  0  0
 14 16  1  0  0  0  0
 14 17  1  0  0  0  0
 17 18  1  0  0  0  0
 17 19  1  0  0  0  0
 17 20  1  0  0  0  0
M  END
> <VConfSearch Rank>
548

> <Conf_Id>
55

> <Delta U+W>
2.745

> <U+W>
18.083

> <U>
72.490

> <W>
-54.407

> <W(PB)>
-56.269

> <W(SA)>
1.861

> <Valence>
2.738

> <Coulomb>
69.795

> <VdW>
-0.043

> <VdW6>
-5.333

> <VdW12>
5.290

> <Bond>
0.182

> <Angle>
1.135

> <Pdih>
1.422

> <Idih>
0.000

> <Tether>
0.000

$$$$
VeraChem MOL file


 20 19  0  0  0  0  0  0  0  0999 V2000     
   17.8697   18.5657   22.0163 C   0  0  0  0  0  0  0  0  0  0  0  0
   16.7998   18.4028   21.8318 H   0  0  0  0  0  0  0  0  0  0  0  0
   18.1095   18.1261   22.9933 H   0  0  0  0  0  0  0  0  0  0  0  0
   18.0243   19.6495   22.0676 H   0  0  0  0  0  0  0  0  0  0  0  0
   18.7108   17.9237   20.8895 C   0  0  0  0  0  0  0  0  0  0  0  0
   18.5337   18.4609   19.9471 H   0  0  0  0  0  0  0  0  0  0  0  0
   18.3504   16.8982   20.7264 H   0  0  0  0  0  0  0  0  0  0  0  0
   20.2324   17.8634   21.1794 C   0  0  0  0  0  0  0  0  0  0  0  0
   20.4231   17.2765   22.0866 H   0  0  0  0  0  0  0  0  0  0  0  0
   20.7087   17.3079   20.3608 H   0  0  0  0  0  0  0  0  0  0  0  0
   20.9248   19.2432   21.2716 C   0  0  0  0  0  0  0  0  0  0  0  0
   20.5642   19.8781   20.4584 H   0  0  0  0  0  0  0  0  0  0  0  0
   22.0022   19.1143   21.1408 H   0  0  0  0  0  0  0  0  0  0  0  0
   20.7240   19.9974   22.5767 N   0  3  0  0  0  0  0  0  0  0  0  0
   19.7195   20.0771   22.7875 H   0  0  0  0  0  0  0  0  0  0  0  0
   21.0564   20.9685   22.4691 H   0  0  0  0  0  0  0  0  0  0  0  0
   21.4647   19.3218   23.7254 C   0  0  0  0  0  0  0  0  0  0  0  0
   21.0641   18.3175   23.8753 H   0  0  0  0  0  0  0  0  0  0  0  0
   22.5279   19.2640   23.4826 H   0  0  0  0  0  0  0  0  0  0  0  0
   21.3269   19.9103   24.6351 H   0  0  0  0  0  0  0  0  0  0  0  0
  1  2  1  0  0  0  0
  1  3  1  0  0  0  0
  1  4  1  0  0  0  0
  1  5  1  0  0  0  0
  5  6  1  0  0  0  0
  5  7  1  0  0  0  0
  5  8  1  0  0  0  0
  8  9  1  0  0  0  0
  8 10  1  0  0  0  0
  8 11  1  0  0  0  0
 11 12  1  0  0  0  0
 11 13  1  0  0  0  0
 11 14  1  0  0  0  0
 14 15  1  0  0  0  0
 14 16  1  0  0  0  0
 14 17  1  0  0  0  0
 17 18  1  0  0  0  0
 17 19  1  0  0  0  0
 17 20  1  0  0  0  0
M  END
> <VConfSearch Rank>
549

> <Conf_Id>
76

> <Delta U+W>
2.799

> <U+W>
18.137

> <U>
72.490

> <W>
-54.353

> <W(PB)>
-56.201

> <W(SA)>
1.848

> <Valence>
2.738

> <Coulomb>
69.795

> <VdW>
-0.043

> <VdW6>
-5.334

> <VdW12>
5.290

> <Bond>
0.182

> <Angle>
1.135

> <Pdih>
1.421

> <Idih>
0.000

> <Tether>
0.000

$$$$
VeraChem MOL file


 20 19  0  0  0  0  0  0  0  0999 V2000     
   20.5051   18.0930   19.9929 C   0  0  0  0  0  0  0  0  0  0  0  0
   20.3424   19.1707   20.1158 H   0  0  0  0  0  0  0  0  0  0  0  0
   21.5635   17.9337   19.7494 H   0  0  0  0  0  0  0  0  0  0  0  0
   19.9105   17.7640   19.1309 H   0  0  0  0  0  0  0  0  0  0  0  0
   20.1033   17.3055   21.2614 C   0  0  0  0  0  0  0  0  0  0  0  0
   20.2168   16.2307   21.0615 H   0  0  0  0  0  0  0  0  0  0  0  0
   19.0381   17.4568   21.4784 H   0  0  0  0  0  0  0  0  0  0  0  0
   20.9577   17.6716   22.4997 C   0  0  0  0  0  0  0  0  0  0  0  0
   20.6510   17.0485   23.3499 H   0  0  0  0  0  0  0  0  0  0  0  0
   22.0035   17.4069   22.2949 H   0  0  0  0  0  0  0  0  0  0  0  0
   20.9104   19.1593   22.9206 C   0  0  0  0  0  0  0  0  0  0  0  0
   21.2028   19.8036   22.0881 H   0  0  0  0  0  0  0  0  0  0  0  0
   21.6409   19.3031   23.7208 H   0  0  0  0  0  0  0  0  0  0  0  0
   19.5750   19.6473   23.4623 N   0  3  0  0  0  0  0  0  0  0  0  0
   19.7427   20.3864   24.1626 H   0  0  0  0  0  0  0  0  0  0  0  0
   19.1022   18.8941   23.9837 H   0  0  0  0  0  0  0  0  0  0  0  0
   18.6846   20.2007   22.3549 C   0  0  0  0  0  0  0  0  0  0  0  0
   17.7535   20.5651   22.7943 H   0  0  0  0  0  0  0  0  0  0  0  0
   19.2018   21.0241   21.8578 H   0  0  0  0  0  0  0  0  0  0  0  0
   18.4641   19.4150   21.6316 H   0  0  0  0  0  0  0  0  0  0  0  0
  1  2  1  0  0  0  0
  1  3  1  0  0  0  0
  1  4  1  0  0  0  0
  1  5  1  0  0  0  0
  5  6  1  0  0  0  0
  5  7  1  0  0  0  0
  5  8  1  0  0  0  0
  8  9  1  0  0  0  0
  8 10  1  0  0  0  0
  8 11  1  0  0  0  0
 11 12  1  0  0  0  0
 11 13  1  0  0  0  0
 11 14  1  0  0  0  0
 14 15  1  0  0  0  0
 14 16  1  0  0  0  0
 14 17  1  0  0  0  0
 17 18  1  0  0  0  0
 17 19  1  0  0  0  0
 17 20  1  0  0  0  0
M  END
> <VConfSearch Rank>
550

> <Conf_Id>
60

> <Delta U+W>
1.788

> <U+W>
17.127

> <U>
72.122

> <W>
-54.995

> <W(PB)>
-56.810

> <W(SA)>
1.815

> <Valence>
3.197

> <Coulomb>
69.115

> <VdW>
-0.190

> <VdW6>
-5.585

> <VdW12>
5.395

> <Bond>
0.177

> <Angle>
1.207

> <Pdih>
1.813

> <Idih>
0.000

> <Tether>
0.000

$$$$
VeraChem MOL file


 20 19  0  0  0  0  0  0  0  0999 V2000     
   21.7873   20.0370   22.5777 C   0  0  0  0  0  0  0  0  0  0  0  0
   22.8212   19.8699   22.9064 H   0  0  0  0  0  0  0  0  0  0  0  0
   21.6567   21.1155   22.4202 H   0  0  0  0  0  0  0  0  0  0  0  0
   21.1256   19.7299   23.3968 H   0  0  0  0  0  0  0  0  0  0  0  0
   21.4961   19.2477   21.2805 C   0  0  0  0  0  0  0  0  0  0  0  0
   21.6528   18.1744   21.4481 H   0  0  0  0  0  0  0  0  0  0  0  0
   22.2296   19.5401   20.5161 H   0  0  0  0  0  0  0  0  0  0  0  0
   20.0735   19.4990   20.7231 C   0  0  0  0  0  0  0  0  0  0  0  0
   19.9822   20.5612   20.4607 H   0  0  0  0  0  0  0  0  0  0  0  0
   19.9486   18.9455   19.7832 H   0  0  0  0  0  0  0  0  0  0  0  0
   18.9137   19.1372   21.6805 C   0  0  0  0  0  0  0  0  0  0  0  0
   17.9820   19.4718   21.2172 H   0  0  0  0  0  0  0  0  0  0  0  0
   19.0189   19.6685   22.6293 H   0  0  0  0  0  0  0  0  0  0  0  0
   18.7416   17.6543   21.9743 N   0  3  0  0  0  0  0  0  0  0  0  0
   18.9908   17.0930   21.1464 H   0  0  0  0  0  0  0  0  0  0  0  0
   17.7423   17.4544   22.1362 H   0  0  0  0  0  0  0  0  0  0  0  0
   19.5421   17.2248   23.1990 C   0  0  0  0  0  0  0  0  0  0  0  0
   19.2175   17.8099   24.0620 H   0  0  0  0  0  0  0  0  0  0  0  0
   19.3638   16.1639   23.3876 H   0  0  0  0  0  0  0  0  0  0  0  0
   20.6052   17.3905   23.0215 H   0  0  0  0  0  0  0  0  0  0  0  0
  1  2  1  0  0  0  0
  1  3  1  0  0  0  0
  1  4  1  0  0  0  0
  1  5  1  0  0  0  0
  5  6  1  0  0  0  0
  5  7  1  0  0  0  0
  5  8  1  0  0  0  0
  8  9  1  0  0  0  0
  8 10  1  0  0  0  0
  8 11  1  0  0  0  0
 11 12  1  0  0  0  0
 11 13  1  0  0  0  0
 11 14  1  0  0  0  0
 14 15  1  0  0  0  0
 14 16  1  0  0  0  0
 14 17  1  0  0  0  0
 17 18  1  0  0  0  0
 17 19  1  0  0  0  0
 17 20  1  0  0  0  0
M  END
> <VConfSearch Rank>
551

> <Conf_Id>
54

> <Delta U+W>
1.880

> <U+W>
17.218

> <U>
72.122

> <W>
-54.903

> <W(PB)>
-56.724

> <W(SA)>
1.821

> <Valence>
3.197

> <Coulomb>
69.115

> <VdW>
-0.190

> <VdW6>
-5.585

> <VdW12>
5.395

> <Bond>
0.177

> <Angle>
1.207

> <Pdih>
1.813

> <Idih>
0.000

> <Tether>
0.000

$$$$
VeraChem MOL file


 20 19  0  0  0  0  0  0  0  0999 V2000     
   22.4462   19.6490   23.9742 C   0  0  0  0  0  0  0  0  0  0  0  0
   22.4193   20.7283   23.7749 H   0  0  0  0  0  0  0  0  0  0  0  0
   22.6861   19.5092   25.0362 H   0  0  0  0  0  0  0  0  0  0  0  0
   23.2634   19.2132   23.3849 H   0  0  0  0  0  0  0  0  0  0  0  0
   21.0955   18.9856   23.6280 C   0  0  0  0  0  0  0  0  0  0  0  0
   20.3046   19.4176   24.2575 H   0  0  0  0  0  0  0  0  0  0  0  0
   21.1421   17.9145   23.8704 H   0  0  0  0  0  0  0  0  0  0  0  0
   20.7316   19.1667   22.1379 C   0  0  0  0  0  0  0  0  0  0  0  0
   20.6819   20.2370   21.8974 H   0  0  0  0  0  0  0  0  0  0  0  0
   21.5206   18.7319   21.5098 H   0  0  0  0  0  0  0  0  0  0  0  0
   19.3838   18.5024   21.8007 C   0  0  0  0  0  0  0  0  0  0  0  0
   18.5936   18.9438   22.4132 H   0  0  0  0  0  0  0  0  0  0  0  0
   19.4350   17.4338   22.0242 H   0  0  0  0  0  0  0  0  0  0  0  0
   18.9847   18.6548   20.3460 N   0  3  0  0  0  0  0  0  0  0  0  0
   19.7120   18.2556   19.7329 H   0  0  0  0  0  0  0  0  0  0  0  0
   18.9328   19.6536   20.0931 H   0  0  0  0  0  0  0  0  0  0  0  0
   17.6459   17.9720   20.1002 C   0  0  0  0  0  0  0  0  0  0  0  0
   16.8850   18.4331   20.7336 H   0  0  0  0  0  0  0  0  0  0  0  0
   17.3707   18.0894   19.0497 H   0  0  0  0  0  0  0  0  0  0  0  0
   17.7336   16.9104   20.3412 H   0  0  0  0  0  0  0  0  0  0  0  0
  1  2  1  0  0  0  0
  1  3  1  0  0  0  0
  1  4  1  0  0  0  0
  1  5  1  0  0  0  0
  5  6  1  0  0  0  0
  5  7  1  0  0  0  0
  5  8  1  0  0  0  0
  8  9  1  0  0  0  0
  8 10  1  0  0  0  0
  8 11  1  0  0  0  0
 11 12  1  0  0  0  0
 11 13  1  0  0  0  0
 11 14  1  0  0  0  0
 14 15  1  0  0  0  0
 14 16  1  0  0  0  0
 14 17  1  0  0  0  0
 17 18  1  0  0  0  0
 17 19  1  0  0  0  0
 17 20  1  0  0  0  0
M  END
> <VConfSearch Rank>
552

> <Conf_Id>
67

> <Delta U+W>
0.000

> <U+W>
15.338

> <U>
69.277

> <W>
-53.939

> <W(PB)>
-55.889

> <W(SA)>
1.950

> <Valence>
0.846

> <Coulomb>
68.557

> <VdW>
-0.127

> <VdW6>
-3.008

> <VdW12>
2.882

> <Bond>
0.088

> <Angle>
0.332

> <Pdih>
0.426

> <Idih>
0.000

> <Tether>
0.000

$$$$
VeraChem MOL file


 20 19  0  0  0  0  0  0  0  0999 V2000     
   17.1858   18.2679   22.5005 C   0  0  0  0  0  0  0  0  0  0  0  0
   17.4415   17.2265   22.7357 H   0  0  0  0  0  0  0  0  0  0  0  0
   16.3410   18.5587   23.1384 H   0  0  0  0  0  0  0  0  0  0  0  0
   16.8485   18.3093   21.4566 H   0  0  0  0  0  0  0  0  0  0  0  0
   18.3922   19.2032   22.7329 C   0  0  0  0  0  0  0  0  0  0  0  0
   18.6844   19.1661   23.7919 H   0  0  0  0  0  0  0  0  0  0  0  0
   18.0955   20.2407   22.5233 H   0  0  0  0  0  0  0  0  0  0  0  0
   19.5973   18.8174   21.8472 C   0  0  0  0  0  0  0  0  0  0  0  0
   19.8899   17.7810   22.0597 H   0  0  0  0  0  0  0  0  0  0  0  0
   19.3060   18.8588   20.7893 H   0  0  0  0  0  0  0  0  0  0  0  0
   20.7967   19.7581   22.0853 C   0  0  0  0  0  0  0  0  0  0  0  0
   21.1239   19.6862   23.1255 H   0  0  0  0  0  0  0  0  0  0  0  0
   20.4814   20.7882   21.9006 H   0  0  0  0  0  0  0  0  0  0  0  0
   21.9996   19.4876   21.1961 N   0  3  0  0  0  0  0  0  0  0  0  0
   22.6848   20.2524   21.3006 H   0  0  0  0  0  0  0  0  0  0  0  0
   21.7232   19.5150   20.2028 H   0  0  0  0  0  0  0  0  0  0  0  0
   22.6557   18.1548   21.5406 C   0  0  0  0  0  0  0  0  0  0  0  0
   21.9457   17.3446   21.3640 H   0  0  0  0  0  0  0  0  0  0  0  0
   23.5351   18.0151   20.9080 H   0  0  0  0  0  0  0  0  0  0  0  0
   22.9556   18.1625   22.5907 H   0  0  0  0  0  0  0  0  0  0  0  0
  1  2  1  0  0  0  0
  1  3  1  0  0  0  0
  1  4  1  0  0  0  0
  1  5  1  0  0  0  0
  5  6  1  0  0  0  0
  5  7  1  0  0  0  0
  5  8  1  0  0  0  0
  8  9  1  0  0  0  0
  8 10  1  0  0  0  0
  8 11  1  0  0  0  0
 11 12  1  0  0  0  0
 11 13  1  0  0  0  0
 11 14  1  0  0  0  0
 14 15  1  0  0  0  0
 14 16  1  0  0  0  0
 14 17  1  0  0  0  0
 17 18  1  0  0  0  0
 17 19  1  0  0  0  0
 17 20  1  0  0  0  0
M  END
> <VConfSearch Rank>
553

> <Conf_Id>
37

> <Delta U+W>
-0.021

> <U+W>
15.318

> <U>
69.657

> <W>
-54.340

> <W(PB)>
-56.238

> <W(SA)>
1.899

> <Valence>
1.137

> <Coulomb>
68.383

> <VdW>
0.138

> <VdW6>
-3.703

> <VdW12>
3.841

> <Bond>
0.125

> <Angle>
0.468

> <Pdih>
0.543

> <Idih>
0.000

> <Tether>
0.000

$$$$
VeraChem MOL file


 20 19  0  0  0  0  0  0  0  0999 V2000     
   17.0563   19.4311   22.1189 C   0  0  0  0  0  0  0  0  0  0  0  0
   16.2519   19.9158   21.5505 H   0  0  0  0  0  0  0  0  0  0  0  0
   16.8189   18.3618   22.1921 H   0  0  0  0  0  0  0  0  0  0  0  0
   17.0523   19.8521   23.1327 H   0  0  0  0  0  0  0  0  0  0  0  0
   18.4205   19.6521   21.4301 C   0  0  0  0  0  0  0  0  0  0  0  0
   18.6135   20.7305   21.3400 H   0  0  0  0  0  0  0  0  0  0  0  0
   18.3823   19.2516   20.4072 H   0  0  0  0  0  0  0  0  0  0  0  0
   19.5729   18.9804   22.2090 C   0  0  0  0  0  0  0  0  0  0  0  0
   19.6132   19.3841   23.2293 H   0  0  0  0  0  0  0  0  0  0  0  0
   19.3760   17.9042   22.2965 H   0  0  0  0  0  0  0  0  0  0  0  0
   20.9314   19.2081   21.5142 C   0  0  0  0  0  0  0  0  0  0  0  0
   21.0985   20.2828   21.4058 H   0  0  0  0  0  0  0  0  0  0  0  0
   20.9159   18.7660   20.5148 H   0  0  0  0  0  0  0  0  0  0  0  0
   22.1271   18.6381   22.2599 N   0  3  0  0  0  0  0  0  0  0  0  0
   22.1579   19.0083   23.2221 H   0  0  0  0  0  0  0  0  0  0  0  0
   22.9992   18.9723   21.8204 H   0  0  0  0  0  0  0  0  0  0  0  0
   22.1022   17.1133   22.2654 C   0  0  0  0  0  0  0  0  0  0  0  0
   22.0904   16.7502   21.2355 H   0  0  0  0  0  0  0  0  0  0  0  0
   22.9941   16.7429   22.7757 H   0  0  0  0  0  0  0  0  0  0  0  0
   21.2099   16.7669   22.7905 H   0  0  0  0  0  0  0  0  0  0  0  0
  1  2  1  0  0  0  0
  1  3  1  0  0  0  0
  1  4  1  0  0  0  0
  1  5  1  0  0  0  0
  5  6  1  0  0  0  0
  5  7  1  0  0  0  0
  5  8  1  0  0  0  0
  8  9  1  0  0  0  0
  8 10  1  0  0  0  0
  8 11  1  0  0  0  0
 11 12  1  0  0  0  0
 11 13  1  0  0  0  0
 11 14  1  0  0  0  0
 14 15  1  0  0  0  0
 14 16  1  0  0  0  0
 14 17  1  0  0  0  0
 17 18  1  0  0  0  0
 17 19  1  0  0  0  0
 17 20  1  0  0  0  0
M  END
> <VConfSearch Rank>
554

> <Conf_Id>
2

> <Delta U+W>
0.069

> <U+W>
15.407

> <U>
69.657

> <W>
-54.250

> <W(PB)>
-56.176

> <W(SA)>
1.926

> <Valence>
1.137

> <Coulomb>
68.383

> <VdW>
0.138

> <VdW6>
-3.703

> <VdW12>
3.841

> <Bond>
0.125

> <Angle>
0.468

> <Pdih>
0.543

> <Idih>
0.000

> <Tether>
0.000

$$$$
VeraChem MOL file


 20 19  0  0  0  0  0  0  0  0999 V2000     
   21.2974   21.0559   21.6212 C   0  0  0  0  0  0  0  0  0  0  0  0
   21.9480   20.3213   22.1122 H   0  0  0  0  0  0  0  0  0  0  0  0
   21.4082   20.9405   20.5352 H   0  0  0  0  0  0  0  0  0  0  0  0
   21.6644   22.0547   21.8906 H   0  0  0  0  0  0  0  0  0  0  0  0
   19.8221   20.8863   22.0514 C   0  0  0  0  0  0  0  0  0  0  0  0
   19.2248   21.6969   21.6108 H   0  0  0  0  0  0  0  0  0  0  0  0
   19.7401   21.0001   23.1416 H   0  0  0  0  0  0  0  0  0  0  0  0
   19.2194   19.5280   21.6224 C   0  0  0  0  0  0  0  0  0  0  0  0
   18.1547   19.5088   21.8907 H   0  0  0  0  0  0  0  0  0  0  0  0
   19.2705   19.4313   20.5298 H   0  0  0  0  0  0  0  0  0  0  0  0
   19.9284   18.3290   22.2820 C   0  0  0  0  0  0  0  0  0  0  0  0
   19.8754   18.4241   23.3694 H   0  0  0  0  0  0  0  0  0  0  0  0
   20.9809   18.3167   21.9890 H   0  0  0  0  0  0  0  0  0  0  0  0
   19.3268   16.9904   21.9017 N   0  3  0  0  0  0  0  0  0  0  0  0
   19.3500   16.8670   20.8778 H   0  0  0  0  0  0  0  0  0  0  0  0
   18.3278   16.9628   22.1573 H   0  0  0  0  0  0  0  0  0  0  0  0
   20.0855   15.8649   22.5921 C   0  0  0  0  0  0  0  0  0  0  0  0
   20.0186   15.9966   23.6742 H   0  0  0  0  0  0  0  0  0  0  0  0
   19.6421   14.9074   22.3098 H   0  0  0  0  0  0  0  0  0  0  0  0
   21.1319   15.8921   22.2804 H   0  0  0  0  0  0  0  0  0  0  0  0
  1  2  1  0  0  0  0
  1  3  1  0  0  0  0
  1  4  1  0  0  0  0
  1  5  1  0  0  0  0
  5  6  1  0  0  0  0
  5  7  1  0  0  0  0
  5  8  1  0  0  0  0
  8  9  1  0  0  0  0
  8 10  1  0  0  0  0
  8 11  1  0  0  0  0
 11 12  1  0  0  0  0
 11 13  1  0  0  0  0
 11 14  1  0  0  0  0
 14 15  1  0  0  0  0
 14 16  1  0  0  0  0
 14 17  1  0  0  0  0
 17 18  1  0  0  0  0
 17 19  1  0  0  0  0
 17 20  1  0  0  0  0
M  END
> <VConfSearch Rank>
555

> <Conf_Id>
34

> <Delta U+W>
0.276

> <U+W>
15.615

> <U>
69.798

> <W>
-54.184

> <W(PB)>
-56.116

> <W(SA)>
1.933

> <Valence>
1.134

> <Coulomb>
68.735

> <VdW>
-0.070

> <VdW6>
-3.565

> <VdW12>
3.494

> <Bond>
0.108

> <Angle>
0.456

> <Pdih>
0.569

> <Idih>
0.000

> <Tether>
0.000

$$$$
VeraChem MOL file


 20 19  0  0  0  0  0  0  0  0999 V2000     
   21.2224   21.1727   20.5375 C   0  0  0  0  0  0  0  0  0  0  0  0
   21.1085   22.0700   21.1596 H   0  0  0  0  0  0  0  0  0  0  0  0
   22.2251   21.1984   20.0915 H   0  0  0  0  0  0  0  0  0  0  0  0
   20.4900   21.2277   19.7215 H   0  0  0  0  0  0  0  0  0  0  0  0
   21.0293   19.8883   21.3724 C   0  0  0  0  0  0  0  0  0  0  0  0
   21.7955   19.8470   22.1594 H   0  0  0  0  0  0  0  0  0  0  0  0
   21.1899   19.0138   20.7273 H   0  0  0  0  0  0  0  0  0  0  0  0
   19.6221   19.8276   22.0120 C   0  0  0  0  0  0  0  0  0  0  0  0
   19.4618   20.7266   22.6219 H   0  0  0  0  0  0  0  0  0  0  0  0
   18.8516   19.8400   21.2297 H   0  0  0  0  0  0  0  0  0  0  0  0
   19.4258   18.5891   22.9095 C   0  0  0  0  0  0  0  0  0  0  0  0
   18.4511   18.6496   23.4004 H   0  0  0  0  0  0  0  0  0  0  0  0
   20.1962   18.5713   23.6845 H   0  0  0  0  0  0  0  0  0  0  0  0
   19.4807   17.2692   22.1633 N   0  3  0  0  0  0  0  0  0  0  0  0
   20.3880   17.1690   21.6845 H   0  0  0  0  0  0  0  0  0  0  0  0
   18.7714   17.2545   21.4144 H   0  0  0  0  0  0  0  0  0  0  0  0
   19.2589   16.1152   23.1318 C   0  0  0  0  0  0  0  0  0  0  0  0
   20.0394   16.1313   23.8955 H   0  0  0  0  0  0  0  0  0  0  0  0
   18.2793   16.2236   23.6023 H   0  0  0  0  0  0  0  0  0  0  0  0
   19.3009   15.1723   22.5821 H   0  0  0  0  0  0  0  0  0  0  0  0
  1  2  1  0  0  0  0
  1  3  1  0  0  0  0
  1  4  1  0  0  0  0
  1  5  1  0  0  0  0
  5  6  1  0  0  0  0
  5  7  1  0  0  0  0
  5  8  1  0  0  0  0
  8  9  1  0  0  0  0
  8 10  1  0  0  0  0
  8 11  1  0  0  0  0
 11 12  1  0  0  0  0
 11 13  1  0  0  0  0
 11 14  1  0  0  0  0
 14 15  1  0  0  0  0
 14 16  1  0  0  0  0
 14 17  1  0  0  0  0
 17 18  1  0  0  0  0
 17 19  1  0  0  0  0
 17 20  1  0  0  0  0
M  END
> <VConfSearch Rank>
556

> <Conf_Id>
50

> <Delta U+W>
0.319

> <U+W>
15.657

> <U>
69.962

> <W>
-54.305

> <W(PB)>
-56.223

> <W(SA)>
1.918

> <Valence>
0.982

> <Coulomb>
69.058

> <VdW>
-0.078

> <VdW6>
-3.548

> <VdW12>
3.471

> <Bond>
0.105

> <Angle>
0.408

> <Pdih>
0.469

> <Idih>
0.000

> <Tether>
0.000

$$$$
VeraChem MOL file


 20 19  0  0  0  0  0  0  0  0999 V2000     
   17.8733   17.2156   20.6829 C   0  0  0  0  0  0  0  0  0  0  0  0
   17.6275   17.2429   19.6134 H   0  0  0  0  0  0  0  0  0  0  0  0
   17.9820   16.1631   20.9756 H   0  0  0  0  0  0  0  0  0  0  0  0
   17.0228   17.6373   21.2342 H   0  0  0  0  0  0  0  0  0  0  0  0
   19.1676   18.0086   20.9657 C   0  0  0  0  0  0  0  0  0  0  0  0
   19.0356   19.0441   20.6240 H   0  0  0  0  0  0  0  0  0  0  0  0
   19.9918   17.5826   20.3762 H   0  0  0  0  0  0  0  0  0  0  0  0
   19.5361   17.9859   22.4680 C   0  0  0  0  0  0  0  0  0  0  0  0
   18.7288   18.4359   23.0609 H   0  0  0  0  0  0  0  0  0  0  0  0
   19.6261   16.9442   22.8037 H   0  0  0  0  0  0  0  0  0  0  0  0
   20.8631   18.7109   22.7695 C   0  0  0  0  0  0  0  0  0  0  0  0
   21.6665   18.2688   22.1750 H   0  0  0  0  0  0  0  0  0  0  0  0
   21.1124   18.5834   23.8261 H   0  0  0  0  0  0  0  0  0  0  0  0
   20.8333   20.2006   22.4835 N   0  3  0  0  0  0  0  0  0  0  0  0
   20.0773   20.6508   23.0218 H   0  0  0  0  0  0  0  0  0  0  0  0
   20.6025   20.3678   21.4929 H   0  0  0  0  0  0  0  0  0  0  0  0
   22.1792   20.8231   22.8294 C   0  0  0  0  0  0  0  0  0  0  0  0
   22.1440   21.8943   22.6188 H   0  0  0  0  0  0  0  0  0  0  0  0
   22.3878   20.6632   23.8895 H   0  0  0  0  0  0  0  0  0  0  0  0
   22.9586   20.3545   22.2247 H   0  0  0  0  0  0  0  0  0  0  0  0
  1  2  1  0  0  0  0
  1  3  1  0  0  0  0
  1  4  1  0  0  0  0
  1  5  1  0  0  0  0
  5  6  1  0  0  0  0
  5  7  1  0  0  0  0
  5  8  1  0  0  0  0
  8  9  1  0  0  0  0
  8 10  1  0  0  0  0
  8 11  1  0  0  0  0
 11 12  1  0  0  0  0
 11 13  1  0  0  0  0
 11 14  1  0  0  0  0
 14 15  1  0  0  0  0
 14 16  1  0  0  0  0
 14 17  1  0  0  0  0
 17 18  1  0  0  0  0
 17 19  1  0  0  0  0
 17 20  1  0  0  0  0
M  END
> <VConfSearch Rank>
557

> <Conf_Id>
35

> <Delta U+W>
0.360

> <U+W>
15.698

> <U>
69.962

> <W>
-54.264

> <W(PB)>
-56.166

> <W(SA)>
1.902

> <Valence>
0.982

> <Coulomb>
69.058

> <VdW>
-0.078

> <VdW6>
-3.548

> <VdW12>
3.471

> <Bond>
0.105

> <Angle>
0.408

> <Pdih>
0.469

> <Idih>
0.000

> <Tether>
0.000

$$$$
VeraChem MOL file


 20 19  0  0  0  0  0  0  0  0999 V2000     
   20.9477   17.5689   19.8993 C   0  0  0  0  0  0  0  0  0  0  0  0
   21.6474   17.2714   20.6905 H   0  0  0  0  0  0  0  0  0  0  0  0
   21.0536   16.8501   19.0765 H   0  0  0  0  0  0  0  0  0  0  0  0
   21.2533   18.5543   19.5241 H   0  0  0  0  0  0  0  0  0  0  0  0
   19.4891   17.5963   20.4111 C   0  0  0  0  0  0  0  0  0  0  0  0
   19.2103   16.6010   20.7851 H   0  0  0  0  0  0  0  0  0  0  0  0
   18.8170   17.8084   19.5677 H   0  0  0  0  0  0  0  0  0  0  0  0
   19.2570   18.6525   21.5167 C   0  0  0  0  0  0  0  0  0  0  0  0
   19.5014   19.6485   21.1256 H   0  0  0  0  0  0  0  0  0  0  0  0
   18.1904   18.6696   21.7767 H   0  0  0  0  0  0  0  0  0  0  0  0
   20.0828   18.3687   22.7899 C   0  0  0  0  0  0  0  0  0  0  0  0
   21.1498   18.4152   22.5594 H   0  0  0  0  0  0  0  0  0  0  0  0
   19.8560   17.3591   23.1418 H   0  0  0  0  0  0  0  0  0  0  0  0
   19.8137   19.3213   23.9435 N   0  3  0  0  0  0  0  0  0  0  0  0
   20.2743   18.9687   24.7972 H   0  0  0  0  0  0  0  0  0  0  0  0
   18.8078   19.3316   24.1714 H   0  0  0  0  0  0  0  0  0  0  0  0
   20.3135   20.7272   23.6288 C   0  0  0  0  0  0  0  0  0  0  0  0
   19.7744   21.1186   22.7639 H   0  0  0  0  0  0  0  0  0  0  0  0
   20.1364   21.3714   24.4929 H   0  0  0  0  0  0  0  0  0  0  0  0
   21.3832   20.6883   23.4121 H   0  0  0  0  0  0  0  0  0  0  0  0
  1  2  1  0  0  0  0
  1  3  1  0  0  0  0
  1  4  1  0  0  0  0
  1  5  1  0  0  0  0
  5  6  1  0  0  0  0
  5  7  1  0  0  0  0
  5  8  1  0  0  0  0
  8  9  1  0  0  0  0
  8 10  1  0  0  0  0
  8 11  1  0  0  0  0
 11 12  1  0  0  0  0
 11 13  1  0  0  0  0
 11 14  1  0  0  0  0
 14 15  1  0  0  0  0
 14 16  1  0  0  0  0
 14 17  1  0  0  0  0
 17 18  1  0  0  0  0
 17 19  1  0  0  0  0
 17 20  1  0  0  0  0
M  END
> <VConfSearch Rank>
558

> <Conf_Id>
33

> <Delta U+W>
0.372

> <U+W>
15.711

> <U>
70.163

> <W>
-54.452

> <W(PB)>
-56.363

> <W(SA)>
1.911

> <Valence>
1.420

> <Coulomb>
68.566

> <VdW>
0.177

> <VdW6>
-4.267

> <VdW12>
4.445

> <Bond>
0.146

> <Angle>
0.581

> <Pdih>
0.693

> <Idih>
0.000

> <Tether>
0.000

$$$$
VeraChem MOL file


 20 19  0  0  0  0  0  0  0  0999 V2000     
   21.5398   19.3148   19.9165 C   0  0  0  0  0  0  0  0  0  0  0  0
   22.1475   19.1655   19.0146 H   0  0  0  0  0  0  0  0  0  0  0  0
   20.5095   19.5086   19.5925 H   0  0  0  0  0  0  0  0  0  0  0  0
   21.9132   20.2121   20.4268 H   0  0  0  0  0  0  0  0  0  0  0  0
   21.6227   18.0757   20.8374 C   0  0  0  0  0  0  0  0  0  0  0  0
   22.6779   17.8656   21.0619 H   0  0  0  0  0  0  0  0  0  0  0  0
   21.2389   17.1938   20.3053 H   0  0  0  0  0  0  0  0  0  0  0  0
   20.8530   18.2588   22.1662 C   0  0  0  0  0  0  0  0  0  0  0  0
   21.0178   17.3770   22.7993 H   0  0  0  0  0  0  0  0  0  0  0  0
   21.2655   19.1181   22.7104 H   0  0  0  0  0  0  0  0  0  0  0  0
   19.3362   18.4496   21.9509 C   0  0  0  0  0  0  0  0  0  0  0  0
   18.9510   17.6049   21.3742 H   0  0  0  0  0  0  0  0  0  0  0  0
   19.1536   19.3619   21.3780 H   0  0  0  0  0  0  0  0  0  0  0  0
   18.5213   18.5328   23.2313 N   0  3  0  0  0  0  0  0  0  0  0  0
   18.6917   17.7020   23.8182 H   0  0  0  0  0  0  0  0  0  0  0  0
   17.5153   18.4935   23.0037 H   0  0  0  0  0  0  0  0  0  0  0  0
   18.8280   19.8132   24.0007 C   0  0  0  0  0  0  0  0  0  0  0  0
   18.1982   19.8544   24.8921 H   0  0  0  0  0  0  0  0  0  0  0  0
   19.8793   19.8164   24.2950 H   0  0  0  0  0  0  0  0  0  0  0  0
   18.6192   20.6747   23.3628 H   0  0  0  0  0  0  0  0  0  0  0  0
  1  2  1  0  0  0  0
  1  3  1  0  0  0  0
  1  4  1  0  0  0  0
  1  5  1  0  0  0  0
  5  6  1  0  0  0  0
  5  7  1  0  0  0  0
  5  8  1  0  0  0  0
  8  9  1  0  0  0  0
  8 10  1  0  0  0  0
  8 11  1  0  0  0  0
 11 12  1  0  0  0  0
 11 13  1  0  0  0  0
 11 14  1  0  0  0  0
 14 15  1  0  0  0  0
 14 16  1  0  0  0  0
 14 17  1  0  0  0  0
 17 18  1  0  0  0  0
 17 19  1  0  0  0  0
 17 20  1  0  0  0  0
M  END
> <VConfSearch Rank>
559

> <Conf_Id>
53

> <Delta U+W>
0.379

> <U+W>
15.717

> <U>
70.163

> <W>
-54.446

> <W(PB)>
-56.322

> <W(SA)>
1.876

> <Valence>
1.420

> <Coulomb>
68.566

> <VdW>
0.177

> <VdW6>
-4.267

> <VdW12>
4.445

> <Bond>
0.146

> <Angle>
0.581

> <Pdih>
0.693

> <Idih>
0.000

> <Tether>
0.000

$$$$
VeraChem MOL file


 20 19  0  0  0  0  0  0  0  0999 V2000     
   18.6477   18.5532   24.3449 C   0  0  0  0  0  0  0  0  0  0  0  0
   18.4826   19.2994   25.1330 H   0  0  0  0  0  0  0  0  0  0  0  0
   17.6974   18.0317   24.1717 H   0  0  0  0  0  0  0  0  0  0  0  0
   19.3749   17.8221   24.7213 H   0  0  0  0  0  0  0  0  0  0  0  0
   19.1559   19.2280   23.0524 C   0  0  0  0  0  0  0  0  0  0  0  0
   20.0852   19.7705   23.2729 H   0  0  0  0  0  0  0  0  0  0  0  0
   18.4224   19.9756   22.7188 H   0  0  0  0  0  0  0  0  0  0  0  0
   19.3987   18.1967   21.9254 C   0  0  0  0  0  0  0  0  0  0  0  0
   20.1508   17.4631   22.2432 H   0  0  0  0  0  0  0  0  0  0  0  0
   18.4746   17.6316   21.7456 H   0  0  0  0  0  0  0  0  0  0  0  0
   19.8334   18.8515   20.5954 C   0  0  0  0  0  0  0  0  0  0  0  0
   19.0482   19.5356   20.2637 H   0  0  0  0  0  0  0  0  0  0  0  0
   19.9498   18.0797   19.8304 H   0  0  0  0  0  0  0  0  0  0  0  0
   21.1316   19.6426   20.6518 N   0  3  0  0  0  0  0  0  0  0  0  0
   21.0666   20.3827   21.3661 H   0  0  0  0  0  0  0  0  0  0  0  0
   21.2682   20.1451   19.7607 H   0  0  0  0  0  0  0  0  0  0  0  0
   22.3247   18.7322   20.9216 C   0  0  0  0  0  0  0  0  0  0  0  0
   22.3802   17.9714   20.1401 H   0  0  0  0  0  0  0  0  0  0  0  0
   23.2388   19.3299   20.9188 H   0  0  0  0  0  0  0  0  0  0  0  0
   22.2024   18.2545   21.8957 H   0  0  0  0  0  0  0  0  0  0  0  0
  1  2  1  0  0  0  0
  1  3  1  0  0  0  0
  1  4  1  0  0  0  0
  1  5  1  0  0  0  0
  5  6  1  0  0  0  0
  5  7  1  0  0  0  0
  5  8  1  0  0  0  0
  8  9  1  0  0  0  0
  8 10  1  0  0  0  0
  8 11  1  0  0  0  0
 11 12  1  0  0  0  0
 11 13  1  0  0  0  0
 11 14  1  0  0  0  0
 14 15  1  0  0  0  0
 14 16  1  0  0  0  0
 14 17  1  0  0  0  0
 17 18  1  0  0  0  0
 17 19  1  0  0  0  0
 17 20  1  0  0  0  0
M  END
> <VConfSearch Rank>
560

> <Conf_Id>
49

> <Delta U+W>
0.268

> <U+W>
15.607

> <U>
70.298

> <W>
-54.692

> <W(PB)>
-56.576

> <W(SA)>
1.885

> <Valence>
1.245

> <Coulomb>
68.933

> <VdW>
0.120

> <VdW6>
-4.430

> <VdW12>
4.550

> <Bond>
0.148

> <Angle>
0.587

> <Pdih>
0.509

> <Idih>
0.000

> <Tether>
0.000

$$$$
VeraChem MOL file


 20 19  0  0  0  0  0  0  0  0999 V2000     
   19.5703   19.0397   24.6902 C   0  0  0  0  0  0  0  0  0  0  0  0
   18.4729   19.0514   24.7200 H   0  0  0  0  0  0  0  0  0  0  0  0
   19.9175   18.1551   25.2398 H   0  0  0  0  0  0  0  0  0  0  0  0
   19.9305   19.9289   25.2237 H   0  0  0  0  0  0  0  0  0  0  0  0
   20.0869   19.0300   23.2351 C   0  0  0  0  0  0  0  0  0  0  0  0
   21.1858   19.0468   23.2375 H   0  0  0  0  0  0  0  0  0  0  0  0
   19.7516   19.9477   22.7342 H   0  0  0  0  0  0  0  0  0  0  0  0
   19.5841   17.7916   22.4572 C   0  0  0  0  0  0  0  0  0  0  0  0
   19.8256   16.8864   23.0300 H   0  0  0  0  0  0  0  0  0  0  0  0
   18.4894   17.8222   22.3775 H   0  0  0  0  0  0  0  0  0  0  0  0
   20.1974   17.6393   21.0467 C   0  0  0  0  0  0  0  0  0  0  0  0
   19.8259   16.7054   20.6171 H   0  0  0  0  0  0  0  0  0  0  0  0
   21.2857   17.5638   21.1115 H   0  0  0  0  0  0  0  0  0  0  0  0
   19.8539   18.7425   20.0576 N   0  3  0  0  0  0  0  0  0  0  0  0
   18.9082   19.1093   20.2418 H   0  0  0  0  0  0  0  0  0  0  0  0
   19.8015   18.3433   19.1074 H   0  0  0  0  0  0  0  0  0  0  0  0
   20.8982   19.8541   20.0774 C   0  0  0  0  0  0  0  0  0  0  0  0
   20.6268   20.6119   19.3392 H   0  0  0  0  0  0  0  0  0  0  0  0
   20.9370   20.3071   21.0687 H   0  0  0  0  0  0  0  0  0  0  0  0
   21.8742   19.4326   19.8276 H   0  0  0  0  0  0  0  0  0  0  0  0
  1  2  1  0  0  0  0
  1  3  1  0  0  0  0
  1  4  1  0  0  0  0
  1  5  1  0  0  0  0
  5  6  1  0  0  0  0
  5  7  1  0  0  0  0
  5  8  1  0  0  0  0
  8  9  1  0  0  0  0
  8 10  1  0  0  0  0
  8 11  1  0  0  0  0
 11 12  1  0  0  0  0
 11 13  1  0  0  0  0
 11 14  1  0  0  0  0
 14 15  1  0  0  0  0
 14 16  1  0  0  0  0
 14 17  1  0  0  0  0
 17 18  1  0  0  0  0
 17 19  1  0  0  0  0
 17 20  1  0  0  0  0
M  END
> <VConfSearch Rank>
561

> <Conf_Id>
65

> <Delta U+W>
1.775

> <U+W>
17.114

> <U>
71.726

> <W>
-54.613

> <W(PB)>
-56.495

> <W(SA)>
1.883

> <Valence>
2.885

> <Coulomb>
68.822

> <VdW>
0.019

> <VdW6>
-4.600

> <VdW12>
4.619

> <Bond>
0.152

> <Angle>
0.862

> <Pdih>
1.871

> <Idih>
0.000

> <Tether>
0.000

$$$$
VeraChem MOL file


 20 19  0  0  0  0  0  0  0  0999 V2000     
   19.9005   20.9866   22.8096 C   0  0  0  0  0  0  0  0  0  0  0  0
   18.9727   20.4060   22.7314 H   0  0  0  0  0  0  0  0  0  0  0  0
   19.8505   21.5659   23.7407 H   0  0  0  0  0  0  0  0  0  0  0  0
   19.9306   21.6983   21.9744 H   0  0  0  0  0  0  0  0  0  0  0  0
   21.1472   20.0723   22.8061 C   0  0  0  0  0  0  0  0  0  0  0  0
   21.0940   19.3712   23.6500 H   0  0  0  0  0  0  0  0  0  0  0  0
   22.0414   20.6873   22.9798 H   0  0  0  0  0  0  0  0  0  0  0  0
   21.3269   19.2958   21.4777 C   0  0  0  0  0  0  0  0  0  0  0  0
   21.4819   20.0115   20.6595 H   0  0  0  0  0  0  0  0  0  0  0  0
   22.2410   18.6896   21.5303 H   0  0  0  0  0  0  0  0  0  0  0  0
   20.1346   18.3854   21.1164 C   0  0  0  0  0  0  0  0  0  0  0  0
   20.3268   17.9010   20.1557 H   0  0  0  0  0  0  0  0  0  0  0  0
   19.2287   18.9879   21.0164 H   0  0  0  0  0  0  0  0  0  0  0  0
   19.8612   17.2950   22.1346 N   0  3  0  0  0  0  0  0  0  0  0  0
   19.6817   17.7134   23.0594 H   0  0  0  0  0  0  0  0  0  0  0  0
   20.6980   16.7046   22.2567 H   0  0  0  0  0  0  0  0  0  0  0  0
   18.6728   16.4536   21.6894 C   0  0  0  0  0  0  0  0  0  0  0  0
   18.8978   15.9959   20.7237 H   0  0  0  0  0  0  0  0  0  0  0  0
   18.4867   15.6742   22.4316 H   0  0  0  0  0  0  0  0  0  0  0  0
   17.7924   17.0935   21.5988 H   0  0  0  0  0  0  0  0  0  0  0  0
  1  2  1  0  0  0  0
  1  3  1  0  0  0  0
  1  4  1  0  0  0  0
  1  5  1  0  0  0  0
  5  6  1  0  0  0  0
  5  7  1  0  0  0  0
  5  8  1  0  0  0  0
  8  9  1  0  0  0  0
  8 10  1  0  0  0  0
  8 11  1  0  0  0  0
 11 12  1  0  0  0  0
 11 13  1  0  0  0  0
 11 14  1  0  0  0  0
 14 15  1  0  0  0  0
 14 16  1  0  0  0  0
 14 17  1  0  0  0  0
 17 18  1  0  0  0  0
 17 19  1  0  0  0  0
 17 20  1  0  0  0  0
M  END
> <VConfSearch Rank>
562

> <Conf_Id>
23

> <Delta U+W>
0.896

> <U+W>
16.234

> <U>
70.374

> <W>
-54.140

> <W(PB)>
-56.046

> <W(SA)>
1.907

> <Valence>
1.257

> <Coulomb>
69.240

> <VdW>
-0.123

> <VdW6>
-4.336

> <VdW12>
4.213

> <Bond>
0.128

> <Angle>
0.603

> <Pdih>
0.526

> <Idih>
0.000

> <Tether>
0.000

$$$$
VeraChem MOL file


 20 19  0  0  0  0  0  0  0  0999 V2000     
   19.6670   20.6583   23.4123 C   0  0  0  0  0  0  0  0  0  0  0  0
   19.2666   20.3428   24.3845 H   0  0  0  0  0  0  0  0  0  0  0  0
   19.7773   21.7503   23.4346 H   0  0  0  0  0  0  0  0  0  0  0  0
   18.9243   20.4169   22.6415 H   0  0  0  0  0  0  0  0  0  0  0  0
   21.0271   19.9817   23.1252 C   0  0  0  0  0  0  0  0  0  0  0  0
   21.7608   20.3259   23.8676 H   0  0  0  0  0  0  0  0  0  0  0  0
   21.4064   20.3134   22.1491 H   0  0  0  0  0  0  0  0  0  0  0  0
   20.9579   18.4348   23.1731 C   0  0  0  0  0  0  0  0  0  0  0  0
   21.9574   18.0191   22.9891 H   0  0  0  0  0  0  0  0  0  0  0  0
   20.6769   18.1174   24.1860 H   0  0  0  0  0  0  0  0  0  0  0  0
   19.9600   17.8196   22.1697 C   0  0  0  0  0  0  0  0  0  0  0  0
   18.9540   18.1929   22.3755 H   0  0  0  0  0  0  0  0  0  0  0  0
   19.9492   16.7333   22.2894 H   0  0  0  0  0  0  0  0  0  0  0  0
   20.2822   18.1191   20.7181 N   0  3  0  0  0  0  0  0  0  0  0  0
   21.2287   17.7807   20.4868 H   0  0  0  0  0  0  0  0  0  0  0  0
   20.3090   19.1382   20.5661 H   0  0  0  0  0  0  0  0  0  0  0  0
   19.2455   17.4708   19.8106 C   0  0  0  0  0  0  0  0  0  0  0  0
   18.2572   17.8684   20.0517 H   0  0  0  0  0  0  0  0  0  0  0  0
   19.4889   17.6954   18.7698 H   0  0  0  0  0  0  0  0  0  0  0  0
   19.2569   16.3899   19.9662 H   0  0  0  0  0  0  0  0  0  0  0  0
  1  2  1  0  0  0  0
  1  3  1  0  0  0  0
  1  4  1  0  0  0  0
  1  5  1  0  0  0  0
  5  6  1  0  0  0  0
  5  7  1  0  0  0  0
  5  8  1  0  0  0  0
  8  9  1  0  0  0  0
  8 10  1  0  0  0  0
  8 11  1  0  0  0  0
 11 12  1  0  0  0  0
 11 13  1  0  0  0  0
 11 14  1  0  0  0  0
 14 15  1  0  0  0  0
 14 16  1  0  0  0  0
 14 17  1  0  0  0  0
 17 18  1  0  0  0  0
 17 19  1  0  0  0  0
 17 20  1  0  0  0  0
M  END
> <VConfSearch Rank>
563

> <Conf_Id>
24

> <Delta U+W>
0.792

> <U+W>
16.130

> <U>
70.374

> <W>
-54.243

> <W(PB)>
-56.130

> <W(SA)>
1.887

> <Valence>
1.257

> <Coulomb>
69.240

> <VdW>
-0.123

> <VdW6>
-4.336

> <VdW12>
4.213

> <Bond>
0.128

> <Angle>
0.603

> <Pdih>
0.526

> <Idih>
0.000

> <Tether>
0.000

$$$$
VeraChem MOL file


 20 19  0  0  0  0  0  0  0  0999 V2000     
   19.4503   18.2833   24.1015 C   0  0  0  0  0  0  0  0  0  0  0  0
   19.0182   17.7898   24.9818 H   0  0  0  0  0  0  0  0  0  0  0  0
   20.0440   17.5299   23.5705 H   0  0  0  0  0  0  0  0  0  0  0  0
   20.1196   19.0760   24.4606 H   0  0  0  0  0  0  0  0  0  0  0  0
   18.3288   18.8574   23.2059 C   0  0  0  0  0  0  0  0  0  0  0  0
   17.6395   19.4373   23.8357 H   0  0  0  0  0  0  0  0  0  0  0  0
   17.7359   18.0316   22.7881 H   0  0  0  0  0  0  0  0  0  0  0  0
   18.8284   19.7722   22.0585 C   0  0  0  0  0  0  0  0  0  0  0  0
   17.9483   20.1730   21.5383 H   0  0  0  0  0  0  0  0  0  0  0  0
   19.3588   20.6425   22.4670 H   0  0  0  0  0  0  0  0  0  0  0  0
   19.7106   19.0592   21.0117 C   0  0  0  0  0  0  0  0  0  0  0  0
   19.7045   19.6388   20.0851 H   0  0  0  0  0  0  0  0  0  0  0  0
   19.3002   18.0697   20.7953 H   0  0  0  0  0  0  0  0  0  0  0  0
   21.1620   18.8981   21.4222 N   0  3  0  0  0  0  0  0  0  0  0  0
   21.2206   18.4016   22.3226 H   0  0  0  0  0  0  0  0  0  0  0  0
   21.5875   19.8226   21.5906 H   0  0  0  0  0  0  0  0  0  0  0  0
   21.9284   18.1454   20.3431 C   0  0  0  0  0  0  0  0  0  0  0  0
   21.4807   17.1588   20.2056 H   0  0  0  0  0  0  0  0  0  0  0  0
   21.8783   18.7074   19.4081 H   0  0  0  0  0  0  0  0  0  0  0  0
   22.9704   18.0372   20.6521 H   0  0  0  0  0  0  0  0  0  0  0  0
  1  2  1  0  0  0  0
  1  3  1  0  0  0  0
  1  4  1  0  0  0  0
  1  5  1  0  0  0  0
  5  6  1  0  0  0  0
  5  7  1  0  0  0  0
  5  8  1  0  0  0  0
  8  9  1  0  0  0  0
  8 10  1  0  0  0  0
  8 11  1  0  0  0  0
 11 12  1  0  0  0  0
 11 13  1  0  0  0  0
 11 14  1  0  0  0  0
 14 15  1  0  0  0  0
 14 16  1  0  0  0  0
 14 17  1  0  0  0  0
 17 18  1  0  0  0  0
 17 19  1  0  0  0  0
 17 20  1  0  0  0  0
M  END
> <VConfSearch Rank>
564

> <Conf_Id>
26

> <Delta U+W>
2.888

> <U+W>
18.226

> <U>
72.042

> <W>
-53.816

> <W(PB)>
-55.689

> <W(SA)>
1.873

> <Valence>
2.428

> <Coulomb>
69.829

> <VdW>
-0.215

> <VdW6>
-4.563

> <VdW12>
4.348

> <Bond>
0.137

> <Angle>
0.936

> <Pdih>
1.356

> <Idih>
0.000

> <Tether>
0.000

$$$$
VeraChem MOL file


 20 19  0  0  0  0  0  0  0  0999 V2000     
   20.9330   18.6255   20.0541 C   0  0  0  0  0  0  0  0  0  0  0  0
   21.5816   18.3103   19.2263 H   0  0  0  0  0  0  0  0  0  0  0  0
   20.1771   19.3069   19.6425 H   0  0  0  0  0  0  0  0  0  0  0  0
   21.5621   19.1779   20.7620 H   0  0  0  0  0  0  0  0  0  0  0  0
   20.2771   17.3935   20.7185 C   0  0  0  0  0  0  0  0  0  0  0  0
   21.0527   16.7824   21.2014 H   0  0  0  0  0  0  0  0  0  0  0  0
   19.8397   16.7624   19.9321 H   0  0  0  0  0  0  0  0  0  0  0  0
   19.1671   17.7330   21.7458 C   0  0  0  0  0  0  0  0  0  0  0  0
   18.3491   18.2795   21.2581 H   0  0  0  0  0  0  0  0  0  0  0  0
   18.7308   16.7882   22.0964 H   0  0  0  0  0  0  0  0  0  0  0  0
   19.6594   18.5128   22.9835 C   0  0  0  0  0  0  0  0  0  0  0  0
   20.6199   18.1106   23.3153 H   0  0  0  0  0  0  0  0  0  0  0  0
   18.9396   18.3849   23.7959 H   0  0  0  0  0  0  0  0  0  0  0  0
   19.8143   20.0054   22.7616 N   0  3  0  0  0  0  0  0  0  0  0  0
   18.9095   20.4190   22.4892 H   0  0  0  0  0  0  0  0  0  0  0  0
   20.4456   20.1798   21.9668 H   0  0  0  0  0  0  0  0  0  0  0  0
   20.3462   20.6677   24.0252 C   0  0  0  0  0  0  0  0  0  0  0  0
   21.3183   20.2373   24.2754 H   0  0  0  0  0  0  0  0  0  0  0  0
   20.4524   21.7407   23.8507 H   0  0  0  0  0  0  0  0  0  0  0  0
   19.6443   20.4957   24.8441 H   0  0  0  0  0  0  0  0  0  0  0  0
  1  2  1  0  0  0  0
  1  3  1  0  0  0  0
  1  4  1  0  0  0  0
  1  5  1  0  0  0  0
  5  6  1  0  0  0  0
  5  7  1  0  0  0  0
  5  8  1  0  0  0  0
  8  9  1  0  0  0  0
  8 10  1  0  0  0  0
  8 11  1  0  0  0  0
 11 12  1  0  0  0  0
 11 13  1  0  0  0  0
 11 14  1  0  0  0  0
 14 15  1  0  0  0  0
 14 16  1  0  0  0  0
 14 17  1  0  0  0  0
 17 18  1  0  0  0  0
 17 19  1  0  0  0  0
 17 20  1  0  0  0  0
M  END
> <VConfSearch Rank>
565

> <Conf_Id>
5

> <Delta U+W>
2.950

> <U+W>
18.289

> <U>
72.042

> <W>
-53.753

> <W(PB)>
-55.644

> <W(SA)>
1.891

> <Valence>
2.428

> <Coulomb>
69.829

> <VdW>
-0.215

> <VdW6>
-4.563

> <VdW12>
4.348

> <Bond>
0.137

> <Angle>
0.936

> <Pdih>
1.356

> <Idih>
0.000

> <Tether>
0.000

$$$$
VeraChem MOL file


 20 19  0  0  0  0  0  0  0  0999 V2000     
   20.8924   16.5612   21.7949 C   0  0  0  0  0  0  0  0  0  0  0  0
   21.9292   16.5073   21.4381 H   0  0  0  0  0  0  0  0  0  0  0  0
   20.9109   16.8125   22.8628 H   0  0  0  0  0  0  0  0  0  0  0  0
   20.4533   15.5598   21.6982 H   0  0  0  0  0  0  0  0  0  0  0  0
   20.0774   17.5917   20.9803 C   0  0  0  0  0  0  0  0  0  0  0  0
   19.0443   17.6252   21.3523 H   0  0  0  0  0  0  0  0  0  0  0  0
   20.0125   17.2516   19.9372 H   0  0  0  0  0  0  0  0  0  0  0  0
   20.6967   19.0113   21.0041 C   0  0  0  0  0  0  0  0  0  0  0  0
   21.6921   18.9785   20.5419 H   0  0  0  0  0  0  0  0  0  0  0  0
   20.0952   19.6817   20.3768 H   0  0  0  0  0  0  0  0  0  0  0  0
   20.8324   19.6144   22.4210 C   0  0  0  0  0  0  0  0  0  0  0  0
   21.2726   20.6124   22.3526 H   0  0  0  0  0  0  0  0  0  0  0  0
   21.5096   18.9906   23.0095 H   0  0  0  0  0  0  0  0  0  0  0  0
   19.5320   19.7353   23.2005 N   0  3  0  0  0  0  0  0  0  0  0  0
   19.7363   20.0124   24.1734 H   0  0  0  0  0  0  0  0  0  0  0  0
   19.0784   18.8129   23.2749 H   0  0  0  0  0  0  0  0  0  0  0  0
   18.5936   20.7505   22.5577 C   0  0  0  0  0  0  0  0  0  0  0  0
   18.3343   20.4168   21.5510 H   0  0  0  0  0  0  0  0  0  0  0  0
   17.6872   20.8327   23.1616 H   0  0  0  0  0  0  0  0  0  0  0  0
   19.0926   21.7207   22.5093 H   0  0  0  0  0  0  0  0  0  0  0  0
  1  2  1  0  0  0  0
  1  3  1  0  0  0  0
  1  4  1  0  0  0  0
  1  5  1  0  0  0  0
  5  6  1  0  0  0  0
  5  7  1  0  0  0  0
  5  8  1  0  0  0  0
  8  9  1  0  0  0  0
  8 10  1  0  0  0  0
  8 11  1  0  0  0  0
 11 12  1  0  0  0  0
 11 13  1  0  0  0  0
 11 14  1  0  0  0  0
 14 15  1  0  0  0  0
 14 16  1  0  0  0  0
 14 17  1  0  0  0  0
 17 18  1  0  0  0  0
 17 19  1  0  0  0  0
 17 20  1  0  0  0  0
M  END
> <VConfSearch Rank>
566

> <Conf_Id>
52

> <Delta U+W>
0.784

> <U+W>
16.122

> <U>
70.777

> <W>
-54.655

> <W(PB)>
-56.491

> <W(SA)>
1.836

> <Valence>
1.529

> <Coulomb>
69.166

> <VdW>
0.082

> <VdW6>
-5.166

> <VdW12>
5.248

> <Bond>
0.171

> <Angle>
0.752

> <Pdih>
0.605

> <Idih>
0.000

> <Tether>
0.000

$$$$
VeraChem MOL file


 20 19  0  0  0  0  0  0  0  0999 V2000     
   18.0936   18.3467   21.4648 C   0  0  0  0  0  0  0  0  0  0  0  0
   17.0432   18.2313   21.1674 H   0  0  0  0  0  0  0  0  0  0  0  0
   18.6959   18.2588   20.5534 H   0  0  0  0  0  0  0  0  0  0  0  0
   18.3425   17.5148   22.1366 H   0  0  0  0  0  0  0  0  0  0  0  0
   18.3066   19.7118   22.1581 C   0  0  0  0  0  0  0  0  0  0  0  0
   17.5226   19.8435   22.9171 H   0  0  0  0  0  0  0  0  0  0  0  0
   18.1614   20.5210   21.4286 H   0  0  0  0  0  0  0  0  0  0  0  0
   19.6845   19.8721   22.8499 C   0  0  0  0  0  0  0  0  0  0  0  0
   19.6835   20.8324   23.3823 H   0  0  0  0  0  0  0  0  0  0  0  0
   19.8126   19.1043   23.6232 H   0  0  0  0  0  0  0  0  0  0  0  0
   20.8925   19.8752   21.8845 C   0  0  0  0  0  0  0  0  0  0  0  0
   21.7553   20.3167   22.3895 H   0  0  0  0  0  0  0  0  0  0  0  0
   20.6565   20.5009   21.0200 H   0  0  0  0  0  0  0  0  0  0  0  0
   21.3300   18.5130   21.3691 N   0  3  0  0  0  0  0  0  0  0  0  0
   22.0049   18.6358   20.5980 H   0  0  0  0  0  0  0  0  0  0  0  0
   20.5289   18.0195   20.9515 H   0  0  0  0  0  0  0  0  0  0  0  0
   21.9596   17.6781   22.4788 C   0  0  0  0  0  0  0  0  0  0  0  0
   22.8142   18.2172   22.8931 H   0  0  0  0  0  0  0  0  0  0  0  0
   21.2206   17.4980   23.2617 H   0  0  0  0  0  0  0  0  0  0  0  0
   22.2928   16.7244   22.0636 H   0  0  0  0  0  0  0  0  0  0  0  0
  1  2  1  0  0  0  0
  1  3  1  0  0  0  0
  1  4  1  0  0  0  0
  1  5  1  0  0  0  0
  5  6  1  0  0  0  0
  5  7  1  0  0  0  0
  5  8  1  0  0  0  0
  8  9  1  0  0  0  0
  8 10  1  0  0  0  0
  8 11  1  0  0  0  0
 11 12  1  0  0  0  0
 11 13  1  0  0  0  0
 11 14  1  0  0  0  0
 14 15  1  0  0  0  0
 14 16  1  0  0  0  0
 14 17  1  0  0  0  0
 17 18  1  0  0  0  0
 17 19  1  0  0  0  0
 17 20  1  0  0  0  0
M  END
> <VConfSearch Rank>
567

> <Conf_Id>
55

> <Delta U+W>
2.745

> <U+W>
18.083

> <U>
72.490

> <W>
-54.407

> <W(PB)>
-56.269

> <W(SA)>
1.861

> <Valence>
2.738

> <Coulomb>
69.795

> <VdW>
-0.043

> <VdW6>
-5.333

> <VdW12>
5.290

> <Bond>
0.182

> <Angle>
1.135

> <Pdih>
1.422

> <Idih>
0.000

> <Tether>
0.000

$$$$
VeraChem MOL file


 20 19  0  0  0  0  0  0  0  0999 V2000     
   19.7741   20.8016   21.3202 C   0  0  0  0  0  0  0  0  0  0  0  0
   19.6830   21.7562   20.7858 H   0  0  0  0  0  0  0  0  0  0  0  0
   19.1663   20.8714   22.2318 H   0  0  0  0  0  0  0  0  0  0  0  0
   20.8271   20.6925   21.6036 H   0  0  0  0  0  0  0  0  0  0  0  0
   19.3037   19.6370   20.4191 C   0  0  0  0  0  0  0  0  0  0  0  0
   19.9994   19.5205   19.5762 H   0  0  0  0  0  0  0  0  0  0  0  0
   18.3345   19.9077   19.9771 H   0  0  0  0  0  0  0  0  0  0  0  0
   19.1410   18.2821   21.1544 C   0  0  0  0  0  0  0  0  0  0  0  0
   18.4018   18.3737   21.9601 H   0  0  0  0  0  0  0  0  0  0  0  0
   18.7163   17.5623   20.4423 H   0  0  0  0  0  0  0  0  0  0  0  0
   20.4594   17.6811   21.6949 C   0  0  0  0  0  0  0  0  0  0  0  0
   21.2359   17.7812   20.9323 H   0  0  0  0  0  0  0  0  0  0  0  0
   20.3165   16.6147   21.8867 H   0  0  0  0  0  0  0  0  0  0  0  0
   20.9871   18.2959   22.9818 N   0  3  0  0  0  0  0  0  0  0  0  0
   21.0654   19.3173   22.8791 H   0  0  0  0  0  0  0  0  0  0  0  0
   21.9499   17.9659   23.1528 H   0  0  0  0  0  0  0  0  0  0  0  0
   20.0999   17.9393   24.1695 C   0  0  0  0  0  0  0  0  0  0  0  0
   19.0997   18.3466   24.0110 H   0  0  0  0  0  0  0  0  0  0  0  0
   20.0466   16.8526   24.2644 H   0  0  0  0  0  0  0  0  0  0  0  0
   20.5296   18.3670   25.0780 H   0  0  0  0  0  0  0  0  0  0  0  0
  1  2  1  0  0  0  0
  1  3  1  0  0  0  0
  1  4  1  0  0  0  0
  1  5  1  0  0  0  0
  5  6  1  0  0  0  0
  5  7  1  0  0  0  0
  5  8  1  0  0  0  0
  8  9  1  0  0  0  0
  8 10  1  0  0  0  0
  8 11  1  0  0  0  0
 11 12  1  0  0  0  0
 11 13  1  0  0  0  0
 11 14  1  0  0  0  0
 14 15  1  0  0  0  0
 14 16  1  0  0  0  0
 14 17  1  0  0  0  0
 17 18  1  0  0  0  0
 17 19  1  0  0  0  0
 17 20  1  0  0  0  0
M  END
> <VConfSearch Rank>
568

> <Conf_Id>
76

> <Delta U+W>
2.799

> <U+W>
18.137

> <U>
72.490

> <W>
-54.353

> <W(PB)>
-56.201

> <W(SA)>
1.848

> <Valence>
2.738

> <Coulomb>
69.795

> <VdW>
-0.043

> <VdW6>
-5.334

> <VdW12>
5.290

> <Bond>
0.182

> <Angle>
1.135

> <Pdih>
1.421

> <Idih>
0.000

> <Tether>
0.000

$$$$
VeraChem MOL file


 20 19  0  0  0  0  0  0  0  0999 V2000     
   18.2043   19.6584   21.5427 C   0  0  0  0  0  0  0  0  0  0  0  0
   18.1300   18.6990   22.0692 H   0  0  0  0  0  0  0  0  0  0  0  0
   17.8783   20.4502   22.2295 H   0  0  0  0  0  0  0  0  0  0  0  0
   17.4972   19.6316   20.7035 H   0  0  0  0  0  0  0  0  0  0  0  0
   19.6403   19.9221   21.0340 C   0  0  0  0  0  0  0  0  0  0  0  0
   19.6446   20.8559   20.4545 H   0  0  0  0  0  0  0  0  0  0  0  0
   19.9428   19.1347   20.3317 H   0  0  0  0  0  0  0  0  0  0  0  0
   20.6769   20.0444   22.1777 C   0  0  0  0  0  0  0  0  0  0  0  0
   21.6626   20.2734   21.7517 H   0  0  0  0  0  0  0  0  0  0  0  0
   20.4110   20.9082   22.8012 H   0  0  0  0  0  0  0  0  0  0  0  0
   20.7989   18.8058   23.0962 C   0  0  0  0  0  0  0  0  0  0  0  0
   19.8281   18.5498   23.5269 H   0  0  0  0  0  0  0  0  0  0  0  0
   21.4669   19.0667   23.9211 H   0  0  0  0  0  0  0  0  0  0  0  0
   21.3820   17.5598   22.4461 N   0  3  0  0  0  0  0  0  0  0  0  0
   21.8991   17.0176   23.1556 H   0  0  0  0  0  0  0  0  0  0  0  0
   22.0919   17.8193   21.7451 H   0  0  0  0  0  0  0  0  0  0  0  0
   20.2957   16.6794   21.8380 C   0  0  0  0  0  0  0  0  0  0  0  0
   20.7575   15.7861   21.4117 H   0  0  0  0  0  0  0  0  0  0  0  0
   19.5905   16.3895   22.6198 H   0  0  0  0  0  0  0  0  0  0  0  0
   19.7713   17.2282   21.0551 H   0  0  0  0  0  0  0  0  0  0  0  0
  1  2  1  0  0  0  0
  1  3  1  0  0  0  0
  1  4  1  0  0  0  0
  1  5  1  0  0  0  0
  5  6  1  0  0  0  0
  5  7  1  0  0  0  0
  5  8  1  0  0  0  0
  8  9  1  0  0  0  0
  8 10  1  0  0  0  0
  8 11  1  0  0  0  0
 11 12  1  0  0  0  0
 11 13  1  0  0  0  0
 11 14  1  0  0  0  0
 14 15  1  0  0  0  0
 14 16  1  0  0  0  0
 14 17  1  0  0  0  0
 17 18  1  0  0  0  0
 17 19  1  0  0  0  0
 17 20  1  0  0  0  0
M  END
> <VConfSearch Rank>
569

> <Conf_Id>
60

> <Delta U+W>
1.788

> <U+W>
17.127

> <U>
72.122

> <W>
-54.995

> <W(PB)>
-56.810

> <W(SA)>
1.815

> <Valence>
3.197

> <Coulomb>
69.115

> <VdW>
-0.190

> <VdW6>
-5.585

> <VdW12>
5.395

> <Bond>
0.177

> <Angle>
1.207

> <Pdih>
1.813

> <Idih>
0.000

> <Tether>
0.000

$$$$
VeraChem MOL file


 20 19  0  0  0  0  0  0  0  0999 V2000     
   21.5593   20.3921   21.8540 C   0  0  0  0  0  0  0  0  0  0  0  0
   21.5005   21.4854   21.7762 H   0  0  0  0  0  0  0  0  0  0  0  0
   22.6134   20.1235   22.0011 H   0  0  0  0  0  0  0  0  0  0  0  0
   21.2318   19.9735   20.8946 H   0  0  0  0  0  0  0  0  0  0  0  0
   20.6888   19.8841   23.0266 C   0  0  0  0  0  0  0  0  0  0  0  0
   19.6426   20.1798   22.8761 H   0  0  0  0  0  0  0  0  0  0  0  0
   21.0105   20.3864   23.9497 H   0  0  0  0  0  0  0  0  0  0  0  0
   20.7860   18.3531   23.2364 C   0  0  0  0  0  0  0  0  0  0  0  0
   21.8228   18.0996   23.4943 H   0  0  0  0  0  0  0  0  0  0  0  0
   20.1813   18.0665   24.1068 H   0  0  0  0  0  0  0  0  0  0  0  0
   20.3660   17.4904   22.0232 C   0  0  0  0  0  0  0  0  0  0  0  0
   20.5943   16.4481   22.2600 H   0  0  0  0  0  0  0  0  0  0  0  0
   20.9472   17.7621   21.1390 H   0  0  0  0  0  0  0  0  0  0  0  0
   18.8885   17.5376   21.6627 N   0  3  0  0  0  0  0  0  0  0  0  0
   18.3146   17.6399   22.5129 H   0  0  0  0  0  0  0  0  0  0  0  0
   18.6076   16.6283   21.2639 H   0  0  0  0  0  0  0  0  0  0  0  0
   18.5887   18.6404   20.6532 C   0  0  0  0  0  0  0  0  0  0  0  0
   19.1811   18.4709   19.7516 H   0  0  0  0  0  0  0  0  0  0  0  0
   17.5257   18.6157   20.4031 H   0  0  0  0  0  0  0  0  0  0  0  0
   18.8405   19.6110   21.0815 H   0  0  0  0  0  0  0  0  0  0  0  0
  1  2  1  0  0  0  0
  1  3  1  0  0  0  0
  1  4  1  0  0  0  0
  1  5  1  0  0  0  0
  5  6  1  0  0  0  0
  5  7  1  0  0  0  0
  5  8  1  0  0  0  0
  8  9  1  0  0  0  0
  8 10  1  0  0  0  0
  8 11  1  0  0  0  0
 11 12  1  0  0  0  0
 11 13  1  0  0  0  0
 11 14  1  0  0  0  0
 14 15  1  0  0  0  0
 14 16  1  0  0  0  0
 14 17  1  0  0  0  0
 17 18  1  0  0  0  0
 17 19  1  0  0  0  0
 17 20  1  0  0  0  0
M  END
> <VConfSearch Rank>
570

> <Conf_Id>
54

> <Delta U+W>
1.880

> <U+W>
17.218

> <U>
72.122

> <W>
-54.903

> <W(PB)>
-56.724

> <W(SA)>
1.821

> <Valence>
3.197

> <Coulomb>
69.115

> <VdW>
-0.190

> <VdW6>
-5.585

> <VdW12>
5.395

> <Bond>
0.177

> <Angle>
1.207

> <Pdih>
1.813

> <Idih>
0.000

> <Tether>
0.000

$$$$
VeraChem MOL file


 20 19  0  0  0  0  0  0  0  0999 V2000     
   19.7010   19.1186   18.8268 C   0  0  0  0  0  0  0  0  0  0  0  0
   20.7637   19.2515   18.5853 H   0  0  0  0  0  0  0  0  0  0  0  0
   19.2437   18.5322   18.0193 H   0  0  0  0  0  0  0  0  0  0  0  0
   19.2261   20.1083   18.8338 H   0  0  0  0  0  0  0  0  0  0  0  0
   19.5240   18.4069   20.1856 C   0  0  0  0  0  0  0  0  0  0  0  0
   19.9784   17.4072   20.1361 H   0  0  0  0  0  0  0  0  0  0  0  0
   18.4530   18.2574   20.3827 H   0  0  0  0  0  0  0  0  0  0  0  0
   20.1588   19.2104   21.3420 C   0  0  0  0  0  0  0  0  0  0  0  0
   21.2294   19.3563   21.1461 H   0  0  0  0  0  0  0  0  0  0  0  0
   19.7019   20.2077   21.3929 H   0  0  0  0  0  0  0  0  0  0  0  0
   19.9780   18.4943   22.6933 C   0  0  0  0  0  0  0  0  0  0  0  0
   20.4452   17.5072   22.6512 H   0  0  0  0  0  0  0  0  0  0  0  0
   18.9128   18.3615   22.8989 H   0  0  0  0  0  0  0  0  0  0  0  0
   20.5865   19.2475   23.8600 N   0  3  0  0  0  0  0  0  0  0  0  0
   20.1753   20.1911   23.9288 H   0  0  0  0  0  0  0  0  0  0  0  0
   21.5941   19.4000   23.6995 H   0  0  0  0  0  0  0  0  0  0  0  0
   20.3634   18.4727   25.1519 C   0  0  0  0  0  0  0  0  0  0  0  0
   20.8360   17.4916   25.0695 H   0  0  0  0  0  0  0  0  0  0  0  0
   20.8062   19.0259   25.9831 H   0  0  0  0  0  0  0  0  0  0  0  0
   19.2907   18.3533   25.3193 H   0  0  0  0  0  0  0  0  0  0  0  0
  1  2  1  0  0  0  0
  1  3  1  0  0  0  0
  1  4  1  0  0  0  0
  1  5  1  0  0  0  0
  5  6  1  0  0  0  0
  5  7  1  0  0  0  0
  5  8  1  0  0  0  0
  8  9  1  0  0  0  0
  8 10  1  0  0  0  0
  8 11  1  0  0  0  0
 11 12  1  0  0  0  0
 11 13  1  0  0  0  0
 11 14  1  0  0  0  0
 14 15  1  0  0  0  0
 14 16  1  0  0  0  0
 14 17  1  0  0  0  0
 17 18  1  0  0  0  0
 17 19  1  0  0  0  0
 17 20  1  0  0  0  0
M  END
> <VConfSearch Rank>
571

> <Conf_Id>
67

> <Delta U+W>
0.000

> <U+W>
15.338

> <U>
69.277

> <W>
-53.939

> <W(PB)>
-55.889

> <W(SA)>
1.950

> <Valence>
0.846

> <Coulomb>
68.557

> <VdW>
-0.127

> <VdW6>
-3.008

> <VdW12>
2.882

> <Bond>
0.088

> <Angle>
0.332

> <Pdih>
0.426

> <Idih>
0.000

> <Tether>
0.000

$$$$
VeraChem MOL file


 20 19  0  0  0  0  0  0  0  0999 V2000     
   21.6732   20.6489   20.1506 C   0  0  0  0  0  0  0  0  0  0  0  0
   20.9421   20.4814   19.3490 H   0  0  0  0  0  0  0  0  0  0  0  0
   22.0508   21.6749   20.0521 H   0  0  0  0  0  0  0  0  0  0  0  0
   22.5163   19.9638   19.9924 H   0  0  0  0  0  0  0  0  0  0  0  0
   21.0347   20.4336   21.5399 C   0  0  0  0  0  0  0  0  0  0  0  0
   20.2178   21.1552   21.6822 H   0  0  0  0  0  0  0  0  0  0  0  0
   21.7799   20.6424   22.3205 H   0  0  0  0  0  0  0  0  0  0  0  0
   20.4940   18.9964   21.7074 C   0  0  0  0  0  0  0  0  0  0  0  0
   19.7506   18.7925   20.9261 H   0  0  0  0  0  0  0  0  0  0  0  0
   21.3114   18.2764   21.5695 H   0  0  0  0  0  0  0  0  0  0  0  0
   19.8596   18.7908   23.0985 C   0  0  0  0  0  0  0  0  0  0  0  0
   19.0137   19.4711   23.2250 H   0  0  0  0  0  0  0  0  0  0  0  0
   20.6017   19.0281   23.8652 H   0  0  0  0  0  0  0  0  0  0  0  0
   19.3684   17.3777   23.3676 N   0  3  0  0  0  0  0  0  0  0  0  0
   19.1138   17.2846   24.3635 H   0  0  0  0  0  0  0  0  0  0  0  0
   20.1333   16.7004   23.2265 H   0  0  0  0  0  0  0  0  0  0  0  0
   18.1684   17.0314   22.4926 C   0  0  0  0  0  0  0  0  0  0  0  0
   18.4631   17.0672   21.4420 H   0  0  0  0  0  0  0  0  0  0  0  0
   17.8226   16.0257   22.7416 H   0  0  0  0  0  0  0  0  0  0  0  0
   17.3686   17.7516   22.6778 H   0  0  0  0  0  0  0  0  0  0  0  0
  1  2  1  0  0  0  0
  1  3  1  0  0  0  0
  1  4  1  0  0  0  0
  1  5  1  0  0  0  0
  5  6  1  0  0  0  0
  5  7  1  0  0  0  0
  5  8  1  0  0  0  0
  8  9  1  0  0  0  0
  8 10  1  0  0  0  0
  8 11  1  0  0  0  0
 11 12  1  0  0  0  0
 11 13  1  0  0  0  0
 11 14  1  0  0  0  0
 14 15  1  0  0  0  0
 14 16  1  0  0  0  0
 14 17  1  0  0  0  0
 17 18  1  0  0  0  0
 17 19  1  0  0  0  0
 17 20  1  0  0  0  0
M  END
> <VConfSearch Rank>
572

> <Conf_Id>
37

> <Delta U+W>
-0.021

> <U+W>
15.318

> <U>
69.657

> <W>
-54.340

> <W(PB)>
-56.238

> <W(SA)>
1.899

> <Valence>
1.137

> <Coulomb>
68.383

> <VdW>
0.138

> <VdW6>
-3.703

> <VdW12>
3.841

> <Bond>
0.125

> <Angle>
0.468

> <Pdih>
0.543

> <Idih>
0.000

> <Tether>
0.000

$$$$
VeraChem MOL file


 20 19  0  0  0  0  0  0  0  0999 V2000     
   19.6404   20.9301   24.0630 C   0  0  0  0  0  0  0  0  0  0  0  0
   19.0672   21.1714   24.9675 H   0  0  0  0  0  0  0  0  0  0  0  0
   20.6953   20.8310   24.3501 H   0  0  0  0  0  0  0  0  0  0  0  0
   19.5526   21.7795   23.3730 H   0  0  0  0  0  0  0  0  0  0  0  0
   19.1157   19.6305   23.4150 C   0  0  0  0  0  0  0  0  0  0  0  0
   18.0504   19.7484   23.1713 H   0  0  0  0  0  0  0  0  0  0  0  0
   19.1846   18.8073   24.1401 H   0  0  0  0  0  0  0  0  0  0  0  0
   19.9046   19.2660   22.1380 C   0  0  0  0  0  0  0  0  0  0  0  0
   19.8318   20.0869   21.4125 H   0  0  0  0  0  0  0  0  0  0  0  0
   20.9674   19.1494   22.3861 H   0  0  0  0  0  0  0  0  0  0  0  0
   19.3723   17.9675   21.4973 C   0  0  0  0  0  0  0  0  0  0  0  0
   18.3067   18.0877   21.2853 H   0  0  0  0  0  0  0  0  0  0  0  0
   19.4860   17.1351   22.1962 H   0  0  0  0  0  0  0  0  0  0  0  0
   20.0512   17.5805   20.1935 N   0  3  0  0  0  0  0  0  0  0  0  0
   19.9931   18.3562   19.5162 H   0  0  0  0  0  0  0  0  0  0  0  0
   19.5330   16.8049   19.7516 H   0  0  0  0  0  0  0  0  0  0  0  0
   21.5013   17.1686   20.4239 C   0  0  0  0  0  0  0  0  0  0  0  0
   21.5304   16.3342   21.1280 H   0  0  0  0  0  0  0  0  0  0  0  0
   21.9416   16.8625   19.4724 H   0  0  0  0  0  0  0  0  0  0  0  0
   22.0588   18.0151   20.8296 H   0  0  0  0  0  0  0  0  0  0  0  0
  1  2  1  0  0  0  0
  1  3  1  0  0  0  0
  1  4  1  0  0  0  0
  1  5  1  0  0  0  0
  5  6  1  0  0  0  0
  5  7  1  0  0  0  0
  5  8  1  0  0  0  0
  8  9  1  0  0  0  0
  8 10  1  0  0  0  0
  8 11  1  0  0  0  0
 11 12  1  0  0  0  0
 11 13  1  0  0  0  0
 11 14  1  0  0  0  0
 14 15  1  0  0  0  0
 14 16  1  0  0  0  0
 14 17  1  0  0  0  0
 17 18  1  0  0  0  0
 17 19  1  0  0  0  0
 17 20  1  0  0  0  0
M  END
> <VConfSearch Rank>
573

> <Conf_Id>
2

> <Delta U+W>
0.069

> <U+W>
15.407

> <U>
69.657

> <W>
-54.250

> <W(PB)>
-56.176

> <W(SA)>
1.926

> <Valence>
1.137

> <Coulomb>
68.383

> <VdW>
0.138

> <VdW6>
-3.703

> <VdW12>
3.841

> <Bond>
0.125

> <Angle>
0.468

> <Pdih>
0.543

> <Idih>
0.000

> <Tether>
0.000

$$$$
VeraChem MOL file


 20 19  0  0  0  0  0  0  0  0999 V2000     
   19.6266   16.8854   20.1550 C   0  0  0  0  0  0  0  0  0  0  0  0
   20.6035   17.3701   20.0333 H   0  0  0  0  0  0  0  0  0  0  0  0
   19.7524   16.0232   20.8228 H   0  0  0  0  0  0  0  0  0  0  0  0
   19.3215   16.5051   19.1715 H   0  0  0  0  0  0  0  0  0  0  0  0
   18.5690   17.8682   20.7081 C   0  0  0  0  0  0  0  0  0  0  0  0
   17.5900   17.3689   20.7252 H   0  0  0  0  0  0  0  0  0  0  0  0
   18.4673   18.7235   20.0253 H   0  0  0  0  0  0  0  0  0  0  0  0
   18.8998   18.3743   22.1317 C   0  0  0  0  0  0  0  0  0  0  0  0
   18.0727   19.0023   22.4887 H   0  0  0  0  0  0  0  0  0  0  0  0
   18.9665   17.5208   22.8194 H   0  0  0  0  0  0  0  0  0  0  0  0
   20.2093   19.1852   22.1843 C   0  0  0  0  0  0  0  0  0  0  0  0
   20.1418   20.0359   21.5016 H   0  0  0  0  0  0  0  0  0  0  0  0
   21.0450   18.5562   21.8682 H   0  0  0  0  0  0  0  0  0  0  0  0
   20.5303   19.7209   23.5658 N   0  3  0  0  0  0  0  0  0  0  0  0
   20.5931   18.9455   24.2432 H   0  0  0  0  0  0  0  0  0  0  0  0
   19.7603   20.3178   23.9047 H   0  0  0  0  0  0  0  0  0  0  0  0
   21.8358   20.5041   23.5287 C   0  0  0  0  0  0  0  0  0  0  0  0
   21.7350   21.3390   22.8319 H   0  0  0  0  0  0  0  0  0  0  0  0
   22.0548   20.8840   24.5291 H   0  0  0  0  0  0  0  0  0  0  0  0
   22.6422   19.8444   23.2009 H   0  0  0  0  0  0  0  0  0  0  0  0
  1  2  1  0  0  0  0
  1  3  1  0  0  0  0
  1  4  1  0  0  0  0
  1  5  1  0  0  0  0
  5  6  1  0  0  0  0
  5  7  1  0  0  0  0
  5  8  1  0  0  0  0
  8  9  1  0  0  0  0
  8 10  1  0  0  0  0
  8 11  1  0  0  0  0
 11 12  1  0  0  0  0
 11 13  1  0  0  0  0
 11 14  1  0  0  0  0
 14 15  1  0  0  0  0
 14 16  1  0  0  0  0
 14 17  1  0  0  0  0
 17 18  1  0  0  0  0
 17 19  1  0  0  0  0
 17 20  1  0  0  0  0
M  END
> <VConfSearch Rank>
574

> <Conf_Id>
34

> <Delta U+W>
0.276

> <U+W>
15.615

> <U>
69.798

> <W>
-54.184

> <W(PB)>
-56.116

> <W(SA)>
1.933

> <Valence>
1.134

> <Coulomb>
68.735

> <VdW>
-0.070

> <VdW6>
-3.565

> <VdW12>
3.494

> <Bond>
0.108

> <Angle>
0.456

> <Pdih>
0.569

> <Idih>
0.000

> <Tether>
0.000

$$$$
VeraChem MOL file


 20 19  0  0  0  0  0  0  0  0999 V2000     
   18.0280   20.5957   23.4119 C   0  0  0  0  0  0  0  0  0  0  0  0
   17.0263   20.3981   23.0085 H   0  0  0  0  0  0  0  0  0  0  0  0
   17.9361   20.7051   24.5003 H   0  0  0  0  0  0  0  0  0  0  0  0
   18.3767   21.5542   23.0060 H   0  0  0  0  0  0  0  0  0  0  0  0
   19.0055   19.4538   23.0589 C   0  0  0  0  0  0  0  0  0  0  0  0
   18.6460   18.5157   23.5052 H   0  0  0  0  0  0  0  0  0  0  0  0
   19.9834   19.6660   23.5118 H   0  0  0  0  0  0  0  0  0  0  0  0
   19.1532   19.2792   21.5289 C   0  0  0  0  0  0  0  0  0  0  0  0
   18.1631   19.1068   21.0863 H   0  0  0  0  0  0  0  0  0  0  0  0
   19.5389   20.2040   21.0795 H   0  0  0  0  0  0  0  0  0  0  0  0
   20.0694   18.0993   21.1470 C   0  0  0  0  0  0  0  0  0  0  0  0
   20.0617   17.9726   20.0614 H   0  0  0  0  0  0  0  0  0  0  0  0
   19.6910   17.1791   21.5993 H   0  0  0  0  0  0  0  0  0  0  0  0
   21.5140   18.2733   21.5767 N   0  3  0  0  0  0  0  0  0  0  0  0
   21.5687   18.3948   22.5988 H   0  0  0  0  0  0  0  0  0  0  0  0
   21.9022   19.1407   21.1754 H   0  0  0  0  0  0  0  0  0  0  0  0
   22.3352   17.0680   21.1387 C   0  0  0  0  0  0  0  0  0  0  0  0
   21.9267   16.1669   21.6013 H   0  0  0  0  0  0  0  0  0  0  0  0
   22.2902   16.9779   20.0512 H   0  0  0  0  0  0  0  0  0  0  0  0
   23.3717   17.2062   21.4541 H   0  0  0  0  0  0  0  0  0  0  0  0
  1  2  1  0  0  0  0
  1  3  1  0  0  0  0
  1  4  1  0  0  0  0
  1  5  1  0  0  0  0
  5  6  1  0  0  0  0
  5  7  1  0  0  0  0
  5  8  1  0  0  0  0
  8  9  1  0  0  0  0
  8 10  1  0  0  0  0
  8 11  1  0  0  0  0
 11 12  1  0  0  0  0
 11 13  1  0  0  0  0
 11 14  1  0  0  0  0
 14 15  1  0  0  0  0
 14 16  1  0  0  0  0
 14 17  1  0  0  0  0
 17 18  1  0  0  0  0
 17 19  1  0  0  0  0
 17 20  1  0  0  0  0
M  END
> <VConfSearch Rank>
575

> <Conf_Id>
50

> <Delta U+W>
0.319

> <U+W>
15.657

> <U>
69.962

> <W>
-54.305

> <W(PB)>
-56.223

> <W(SA)>
1.918

> <Valence>
0.982

> <Coulomb>
69.058

> <VdW>
-0.078

> <VdW6>
-3.548

> <VdW12>
3.471

> <Bond>
0.105

> <Angle>
0.408

> <Pdih>
0.469

> <Idih>
0.000

> <Tether>
0.000

$$$$
VeraChem MOL file


 20 19  0  0  0  0  0  0  0  0999 V2000     
   21.9278   20.5507   20.3221 C   0  0  0  0  0  0  0  0  0  0  0  0
   22.0296   21.6404   20.4068 H   0  0  0  0  0  0  0  0  0  0  0  0
   22.9356   20.1161   20.3491 H   0  0  0  0  0  0  0  0  0  0  0  0
   21.4867   20.3295   19.3414 H   0  0  0  0  0  0  0  0  0  0  0  0
   21.0508   19.9941   21.4645 C   0  0  0  0  0  0  0  0  0  0  0  0
   20.0663   20.4800   21.4300 H   0  0  0  0  0  0  0  0  0  0  0  0
   21.5015   20.2588   22.4315 H   0  0  0  0  0  0  0  0  0  0  0  0
   20.8911   18.4585   21.3674 C   0  0  0  0  0  0  0  0  0  0  0  0
   20.4153   18.1885   20.4152 H   0  0  0  0  0  0  0  0  0  0  0  0
   21.8843   17.9901   21.3637 H   0  0  0  0  0  0  0  0  0  0  0  0
   20.0780   17.8665   22.5362 C   0  0  0  0  0  0  0  0  0  0  0  0
   20.5462   18.1401   23.4851 H   0  0  0  0  0  0  0  0  0  0  0  0
   20.0769   16.7762   22.4597 H   0  0  0  0  0  0  0  0  0  0  0  0
   18.6318   18.3233   22.5780 N   0  3  0  0  0  0  0  0  0  0  0  0
   18.1596   18.0899   21.6911 H   0  0  0  0  0  0  0  0  0  0  0  0
   18.5854   19.3503   22.6520 H   0  0  0  0  0  0  0  0  0  0  0  0
   17.9147   17.6714   23.7526 C   0  0  0  0  0  0  0  0  0  0  0  0
   16.8760   18.0087   23.7709 H   0  0  0  0  0  0  0  0  0  0  0  0
   17.9472   16.5860   23.6365 H   0  0  0  0  0  0  0  0  0  0  0  0
   18.4115   17.9587   24.6819 H   0  0  0  0  0  0  0  0  0  0  0  0
  1  2  1  0  0  0  0
  1  3  1  0  0  0  0
  1  4  1  0  0  0  0
  1  5  1  0  0  0  0
  5  6  1  0  0  0  0
  5  7  1  0  0  0  0
  5  8  1  0  0  0  0
  8  9  1  0  0  0  0
  8 10  1  0  0  0  0
  8 11  1  0  0  0  0
 11 12  1  0  0  0  0
 11 13  1  0  0  0  0
 11 14  1  0  0  0  0
 14 15  1  0  0  0  0
 14 16  1  0  0  0  0
 14 17  1  0  0  0  0
 17 18  1  0  0  0  0
 17 19  1  0  0  0  0
 17 20  1  0  0  0  0
M  END
> <VConfSearch Rank>
576

> <Conf_Id>
35

> <Delta U+W>
0.360

> <U+W>
15.698

> <U>
69.962

> <W>
-54.264

> <W(PB)>
-56.166

> <W(SA)>
1.902

> <Valence>
0.982

> <Coulomb>
69.058

> <VdW>
-0.078

> <VdW6>
-3.548

> <VdW12>
3.471

> <Bond>
0.105

> <Angle>
0.408

> <Pdih>
0.469

> <Idih>
0.000

> <Tether>
0.000

$$$$
VeraChem MOL file


 20 19  0  0  0  0  0  0  0  0999 V2000     
   17.5275   19.2091   22.2304 C   0  0  0  0  0  0  0  0  0  0  0  0
   17.9025   19.2655   23.2601 H   0  0  0  0  0  0  0  0  0  0  0  0
   16.5604   19.7277   22.2017 H   0  0  0  0  0  0  0  0  0  0  0  0
   17.3484   18.1535   21.9882 H   0  0  0  0  0  0  0  0  0  0  0  0
   18.5162   19.8498   21.2294 C   0  0  0  0  0  0  0  0  0  0  0  0
   18.6819   20.9029   21.4968 H   0  0  0  0  0  0  0  0  0  0  0  0
   18.0616   19.8533   20.2287 H   0  0  0  0  0  0  0  0  0  0  0  0
   19.8723   19.1092   21.1626 C   0  0  0  0  0  0  0  0  0  0  0  0
   19.7038   18.0681   20.8588 H   0  0  0  0  0  0  0  0  0  0  0  0
   20.4925   19.5685   20.3816 H   0  0  0  0  0  0  0  0  0  0  0  0
   20.6364   19.1501   22.5035 C   0  0  0  0  0  0  0  0  0  0  0  0
   20.0595   18.6365   23.2763 H   0  0  0  0  0  0  0  0  0  0  0  0
   20.7597   20.1921   22.8095 H   0  0  0  0  0  0  0  0  0  0  0  0
   22.0206   18.5236   22.4619 N   0  3  0  0  0  0  0  0  0  0  0  0
   22.5226   18.7365   23.3383 H   0  0  0  0  0  0  0  0  0  0  0  0
   22.5885   18.9602   21.7198 H   0  0  0  0  0  0  0  0  0  0  0  0
   21.9393   17.0135   22.2659 C   0  0  0  0  0  0  0  0  0  0  0  0
   21.4660   16.7974   21.3061 H   0  0  0  0  0  0  0  0  0  0  0  0
   22.9486   16.5964   22.2786 H   0  0  0  0  0  0  0  0  0  0  0  0
   21.3508   16.5771   23.0758 H   0  0  0  0  0  0  0  0  0  0  0  0
  1  2  1  0  0  0  0
  1  3  1  0  0  0  0
  1  4  1  0  0  0  0
  1  5  1  0  0  0  0
  5  6  1  0  0  0  0
  5  7  1  0  0  0  0
  5  8  1  0  0  0  0
  8  9  1  0  0  0  0
  8 10  1  0  0  0  0
  8 11  1  0  0  0  0
 11 12  1  0  0  0  0
 11 13  1  0  0  0  0
 11 14  1  0  0  0  0
 14 15  1  0  0  0  0
 14 16  1  0  0  0  0
 14 17  1  0  0  0  0
 17 18  1  0  0  0  0
 17 19  1  0  0  0  0
 17 20  1  0  0  0  0
M  END
> <VConfSearch Rank>
577

> <Conf_Id>
33

> <Delta U+W>
0.372

> <U+W>
15.711

> <U>
70.163

> <W>
-54.452

> <W(PB)>
-56.363

> <W(SA)>
1.911

> <Valence>
1.420

> <Coulomb>
68.566

> <VdW>
0.177

> <VdW6>
-4.267

> <VdW12>
4.445

> <Bond>
0.146

> <Angle>
0.581

> <Pdih>
0.693

> <Idih>
0.000

> <Tether>
0.000

$$$$
VeraChem MOL file


 20 19  0  0  0  0  0  0  0  0999 V2000     
   19.1484   16.4466   21.8157 C   0  0  0  0  0  0  0  0  0  0  0  0
   18.6148   15.5201   22.0643 H   0  0  0  0  0  0  0  0  0  0  0  0
   18.4762   17.0612   21.2037 H   0  0  0  0  0  0  0  0  0  0  0  0
   20.0191   16.1775   21.2038 H   0  0  0  0  0  0  0  0  0  0  0  0
   19.5800   17.1858   23.1032 C   0  0  0  0  0  0  0  0  0  0  0  0
   20.1746   16.5031   23.7264 H   0  0  0  0  0  0  0  0  0  0  0  0
   18.6911   17.4479   23.6942 H   0  0  0  0  0  0  0  0  0  0  0  0
   20.4109   18.4588   22.8186 C   0  0  0  0  0  0  0  0  0  0  0  0
   20.7465   18.8873   23.7721 H   0  0  0  0  0  0  0  0  0  0  0  0
   21.3158   18.1856   22.2608 H   0  0  0  0  0  0  0  0  0  0  0  0
   19.6124   19.5254   22.0386 C   0  0  0  0  0  0  0  0  0  0  0  0
   18.6967   19.7555   22.5892 H   0  0  0  0  0  0  0  0  0  0  0  0
   19.3289   19.1348   21.0584 H   0  0  0  0  0  0  0  0  0  0  0  0
   20.3518   20.8356   21.8218 N   0  3  0  0  0  0  0  0  0  0  0  0
   20.6666   21.2221   22.7248 H   0  0  0  0  0  0  0  0  0  0  0  0
   19.7000   21.5418   21.4452 H   0  0  0  0  0  0  0  0  0  0  0  0
   21.5281   20.6564   20.8682 C   0  0  0  0  0  0  0  0  0  0  0  0
   22.0099   21.6236   20.7089 H   0  0  0  0  0  0  0  0  0  0  0  0
   22.2451   19.9579   21.3039 H   0  0  0  0  0  0  0  0  0  0  0  0
   21.1626   20.2663   19.9159 H   0  0  0  0  0  0  0  0  0  0  0  0
  1  2  1  0  0  0  0
  1  3  1  0  0  0  0
  1  4  1  0  0  0  0
  1  5  1  0  0  0  0
  5  6  1  0  0  0  0
  5  7  1  0  0  0  0
  5  8  1  0  0  0  0
  8  9  1  0  0  0  0
  8 10  1  0  0  0  0
  8 11  1  0  0  0  0
 11 12  1  0  0  0  0
 11 13  1  0  0  0  0
 11 14  1  0  0  0  0
 14 15  1  0  0  0  0
 14 16  1  0  0  0  0
 14 17  1  0  0  0  0
 17 18  1  0  0  0  0
 17 19  1  0  0  0  0
 17 20  1  0  0  0  0
M  END
> <VConfSearch Rank>
578

> <Conf_Id>
53

> <Delta U+W>
0.379

> <U+W>
15.717

> <U>
70.163

> <W>
-54.446

> <W(PB)>
-56.322

> <W(SA)>
1.876

> <Valence>
1.420

> <Coulomb>
68.566

> <VdW>
0.177

> <VdW6>
-4.267

> <VdW12>
4.445

> <Bond>
0.146

> <Angle>
0.581

> <Pdih>
0.693

> <Idih>
0.000

> <Tether>
0.000

$$$$
VeraChem MOL file


 20 19  0  0  0  0  0  0  0  0999 V2000     
   22.4102   19.7152   20.6417 C   0  0  0  0  0  0  0  0  0  0  0  0
   22.9874   19.1805   19.8762 H   0  0  0  0  0  0  0  0  0  0  0  0
   22.3250   20.7634   20.3269 H   0  0  0  0  0  0  0  0  0  0  0  0
   22.9837   19.6850   21.5773 H   0  0  0  0  0  0  0  0  0  0  0  0
   21.0176   19.0733   20.8225 C   0  0  0  0  0  0  0  0  0  0  0  0
   21.1427   18.0175   21.0989 H   0  0  0  0  0  0  0  0  0  0  0  0
   20.4813   19.0898   19.8632 H   0  0  0  0  0  0  0  0  0  0  0  0
   20.1838   19.8078   21.8986 C   0  0  0  0  0  0  0  0  0  0  0  0
   20.7022   19.7709   22.8653 H   0  0  0  0  0  0  0  0  0  0  0  0
   20.1038   20.8702   21.6328 H   0  0  0  0  0  0  0  0  0  0  0  0
   18.7563   19.2360   22.0463 C   0  0  0  0  0  0  0  0  0  0  0  0
   18.2348   19.3329   21.0907 H   0  0  0  0  0  0  0  0  0  0  0  0
   18.2054   19.8189   22.7887 H   0  0  0  0  0  0  0  0  0  0  0  0
   18.6791   17.7740   22.4601 N   0  3  0  0  0  0  0  0  0  0  0  0
   19.1907   17.1859   21.7860 H   0  0  0  0  0  0  0  0  0  0  0  0
   17.7004   17.4511   22.4047 H   0  0  0  0  0  0  0  0  0  0  0  0
   19.2134   17.5686   23.8734 C   0  0  0  0  0  0  0  0  0  0  0  0
   18.6411   18.1878   24.5674 H   0  0  0  0  0  0  0  0  0  0  0  0
   19.1080   16.5163   24.1464 H   0  0  0  0  0  0  0  0  0  0  0  0
   20.2673   17.8519   23.9066 H   0  0  0  0  0  0  0  0  0  0  0  0
  1  2  1  0  0  0  0
  1  3  1  0  0  0  0
  1  4  1  0  0  0  0
  1  5  1  0  0  0  0
  5  6  1  0  0  0  0
  5  7  1  0  0  0  0
  5  8  1  0  0  0  0
  8  9  1  0  0  0  0
  8 10  1  0  0  0  0
  8 11  1  0  0  0  0
 11 12  1  0  0  0  0
 11 13  1  0  0  0  0
 11 14  1  0  0  0  0
 14 15  1  0  0  0  0
 14 16  1  0  0  0  0
 14 17  1  0  0  0  0
 17 18  1  0  0  0  0
 17 19  1  0  0  0  0
 17 20  1  0  0  0  0
M  END
> <VConfSearch Rank>
579

> <Conf_Id>
49

> <Delta U+W>
0.268

> <U+W>
15.607

> <U>
70.298

> <W>
-54.692

> <W(PB)>
-56.576

> <W(SA)>
1.885

> <Valence>
1.245

> <Coulomb>
68.933

> <VdW>
0.120

> <VdW6>
-4.430

> <VdW12>
4.550

> <Bond>
0.148

> <Angle>
0.587

> <Pdih>
0.509

> <Idih>
0.000

> <Tether>
0.000

$$$$
VeraChem MOL file


 20 19  0  0  0  0  0  0  0  0999 V2000     
   20.7067   21.4394   22.1812 C   0  0  0  0  0  0  0  0  0  0  0  0
   20.9765   21.5187   23.2423 H   0  0  0  0  0  0  0  0  0  0  0  0
   21.5993   21.6665   21.5838 H   0  0  0  0  0  0  0  0  0  0  0  0
   19.9547   22.2099   21.9671 H   0  0  0  0  0  0  0  0  0  0  0  0
   20.1577   20.0345   21.8506 C   0  0  0  0  0  0  0  0  0  0  0  0
   19.8707   19.9946   20.7904 H   0  0  0  0  0  0  0  0  0  0  0  0
   19.2459   19.8634   22.4380 H   0  0  0  0  0  0  0  0  0  0  0  0
   21.1950   18.9283   22.1539 C   0  0  0  0  0  0  0  0  0  0  0  0
   22.1396   19.1755   21.6516 H   0  0  0  0  0  0  0  0  0  0  0  0
   21.4143   18.9097   23.2296 H   0  0  0  0  0  0  0  0  0  0  0  0
   20.7667   17.5166   21.6929 C   0  0  0  0  0  0  0  0  0  0  0  0
   21.5935   16.8310   21.8956 H   0  0  0  0  0  0  0  0  0  0  0  0
   20.5860   17.5073   20.6151 H   0  0  0  0  0  0  0  0  0  0  0  0
   19.5416   16.9415   22.3869 N   0  3  0  0  0  0  0  0  0  0  0  0
   19.4919   17.2726   23.3620 H   0  0  0  0  0  0  0  0  0  0  0  0
   19.6421   15.9171   22.4611 H   0  0  0  0  0  0  0  0  0  0  0  0
   18.2631   17.2657   21.6207 C   0  0  0  0  0  0  0  0  0  0  0  0
   17.4130   16.8164   22.1387 H   0  0  0  0  0  0  0  0  0  0  0  0
   18.1286   18.3466   21.5668 H   0  0  0  0  0  0  0  0  0  0  0  0
   18.3365   16.8538   20.6119 H   0  0  0  0  0  0  0  0  0  0  0  0
  1  2  1  0  0  0  0
  1  3  1  0  0  0  0
  1  4  1  0  0  0  0
  1  5  1  0  0  0  0
  5  6  1  0  0  0  0
  5  7  1  0  0  0  0
  5  8  1  0  0  0  0
  8  9  1  0  0  0  0
  8 10  1  0  0  0  0
  8 11  1  0  0  0  0
 11 12  1  0  0  0  0
 11 13  1  0  0  0  0
 11 14  1  0  0  0  0
 14 15  1  0  0  0  0
 14 16  1  0  0  0  0
 14 17  1  0  0  0  0
 17 18  1  0  0  0  0
 17 19  1  0  0  0  0
 17 20  1  0  0  0  0
M  END
> <VConfSearch Rank>
580

> <Conf_Id>
65

> <Delta U+W>
1.775

> <U+W>
17.114

> <U>
71.726

> <W>
-54.613

> <W(PB)>
-56.495

> <W(SA)>
1.883

> <Valence>
2.885

> <Coulomb>
68.822

> <VdW>
0.019

> <VdW6>
-4.600

> <VdW12>
4.619

> <Bond>
0.152

> <Angle>
0.862

> <Pdih>
1.871

> <Idih>
0.000

> <Tether>
0.000

$$$$
VeraChem MOL file


 20 19  0  0  0  0  0  0  0  0999 V2000     
   20.5101   19.6794   19.8800 C   0  0  0  0  0  0  0  0  0  0  0  0
   20.4173   18.5878   19.9413 H   0  0  0  0  0  0  0  0  0  0  0  0
   19.9877   20.0051   18.9712 H   0  0  0  0  0  0  0  0  0  0  0  0
   21.5730   19.9267   19.7614 H   0  0  0  0  0  0  0  0  0  0  0  0
   19.9138   20.3731   21.1264 C   0  0  0  0  0  0  0  0  0  0  0  0
   18.8513   20.1111   21.2225 H   0  0  0  0  0  0  0  0  0  0  0  0
   19.9445   21.4617   20.9781 H   0  0  0  0  0  0  0  0  0  0  0  0
   20.6692   20.0268   22.4338 C   0  0  0  0  0  0  0  0  0  0  0  0
   21.7033   20.3885   22.3596 H   0  0  0  0  0  0  0  0  0  0  0  0
   20.2149   20.5707   23.2726 H   0  0  0  0  0  0  0  0  0  0  0  0
   20.6971   18.5194   22.7623 C   0  0  0  0  0  0  0  0  0  0  0  0
   21.2726   18.3587   23.6775 H   0  0  0  0  0  0  0  0  0  0  0  0
   21.1897   17.9755   21.9528 H   0  0  0  0  0  0  0  0  0  0  0  0
   19.3244   17.9083   22.9691 N   0  3  0  0  0  0  0  0  0  0  0  0
   18.7467   18.0463   22.1267 H   0  0  0  0  0  0  0  0  0  0  0  0
   18.8274   18.3991   23.7280 H   0  0  0  0  0  0  0  0  0  0  0  0
   19.4578   16.4254   23.2881 C   0  0  0  0  0  0  0  0  0  0  0  0
   20.0464   16.3052   24.2002 H   0  0  0  0  0  0  0  0  0  0  0  0
   18.4630   15.9985   23.4331 H   0  0  0  0  0  0  0  0  0  0  0  0
   19.9569   15.9220   22.4573 H   0  0  0  0  0  0  0  0  0  0  0  0
  1  2  1  0  0  0  0
  1  3  1  0  0  0  0
  1  4  1  0  0  0  0
  1  5  1  0  0  0  0
  5  6  1  0  0  0  0
  5  7  1  0  0  0  0
  5  8  1  0  0  0  0
  8  9  1  0  0  0  0
  8 10  1  0  0  0  0
  8 11  1  0  0  0  0
 11 12  1  0  0  0  0
 11 13  1  0  0  0  0
 11 14  1  0  0  0  0
 14 15  1  0  0  0  0
 14 16  1  0  0  0  0
 14 17  1  0  0  0  0
 17 18  1  0  0  0  0
 17 19  1  0  0  0  0
 17 20  1  0  0  0  0
M  END
> <VConfSearch Rank>
581

> <Conf_Id>
23

> <Delta U+W>
0.896

> <U+W>
16.234

> <U>
70.374

> <W>
-54.140

> <W(PB)>
-56.046

> <W(SA)>
1.907

> <Valence>
1.257

> <Coulomb>
69.240

> <VdW>
-0.123

> <VdW6>
-4.336

> <VdW12>
4.213

> <Bond>
0.128

> <Angle>
0.603

> <Pdih>
0.526

> <Idih>
0.000

> <Tether>
0.000

$$$$
VeraChem MOL file


 20 19  0  0  0  0  0  0  0  0999 V2000     
   21.7585   17.1968   21.3513 C   0  0  0  0  0  0  0  0  0  0  0  0
   22.0020   16.5086   22.1712 H   0  0  0  0  0  0  0  0  0  0  0  0
   22.3247   16.8767   20.4670 H   0  0  0  0  0  0  0  0  0  0  0  0
   22.1142   18.1975   21.6271 H   0  0  0  0  0  0  0  0  0  0  0  0
   20.2413   17.1929   21.0544 C   0  0  0  0  0  0  0  0  0  0  0  0
   19.9507   16.1961   20.6938 H   0  0  0  0  0  0  0  0  0  0  0  0
   20.0237   17.8872   20.2315 H   0  0  0  0  0  0  0  0  0  0  0  0
   19.3793   17.5457   22.2923 C   0  0  0  0  0  0  0  0  0  0  0  0
   18.3161   17.4983   22.0220 H   0  0  0  0  0  0  0  0  0  0  0  0
   19.5316   16.7829   23.0673 H   0  0  0  0  0  0  0  0  0  0  0  0
   19.6876   18.9312   22.8977 C   0  0  0  0  0  0  0  0  0  0  0  0
   20.7332   18.9709   23.2123 H   0  0  0  0  0  0  0  0  0  0  0  0
   19.0623   19.0880   23.7803 H   0  0  0  0  0  0  0  0  0  0  0  0
   19.4406   20.0875   21.9478 N   0  3  0  0  0  0  0  0  0  0  0  0
   18.4601   20.0815   21.6277 H   0  0  0  0  0  0  0  0  0  0  0  0
   20.0093   19.9715   21.0960 H   0  0  0  0  0  0  0  0  0  0  0  0
   19.7712   21.4053   22.6353 C   0  0  0  0  0  0  0  0  0  0  0  0
   20.8213   21.4012   22.9354 H   0  0  0  0  0  0  0  0  0  0  0  0
   19.5901   22.2281   21.9402 H   0  0  0  0  0  0  0  0  0  0  0  0
   19.1357   21.5209   23.5159 H   0  0  0  0  0  0  0  0  0  0  0  0
  1  2  1  0  0  0  0
  1  3  1  0  0  0  0
  1  4  1  0  0  0  0
  1  5  1  0  0  0  0
  5  6  1  0  0  0  0
  5  7  1  0  0  0  0
  5  8  1  0  0  0  0
  8  9  1  0  0  0  0
  8 10  1  0  0  0  0
  8 11  1  0  0  0  0
 11 12  1  0  0  0  0
 11 13  1  0  0  0  0
 11 14  1  0  0  0  0
 14 15  1  0  0  0  0
 14 16  1  0  0  0  0
 14 17  1  0  0  0  0
 17 18  1  0  0  0  0
 17 19  1  0  0  0  0
 17 20  1  0  0  0  0
M  END
> <VConfSearch Rank>
582

> <Conf_Id>
24

> <Delta U+W>
0.792

> <U+W>
16.130

> <U>
70.374

> <W>
-54.243

> <W(PB)>
-56.130

> <W(SA)>
1.887

> <Valence>
1.257

> <Coulomb>
69.240

> <VdW>
-0.123

> <VdW6>
-4.336

> <VdW12>
4.213

> <Bond>
0.128

> <Angle>
0.603

> <Pdih>
0.526

> <Idih>
0.000

> <Tether>
0.000

$$$$
VeraChem MOL file


 20 19  0  0  0  0  0  0  0  0999 V2000     
   19.0276   17.1170   23.0963 C   0  0  0  0  0  0  0  0  0  0  0  0
   18.8400   16.1294   23.5376 H   0  0  0  0  0  0  0  0  0  0  0  0
   19.9514   17.4992   23.5466 H   0  0  0  0  0  0  0  0  0  0  0  0
   18.1945   17.7721   23.3825 H   0  0  0  0  0  0  0  0  0  0  0  0
   19.1501   17.0017   21.5597 C   0  0  0  0  0  0  0  0  0  0  0  0
   18.2956   16.4223   21.1825 H   0  0  0  0  0  0  0  0  0  0  0  0
   20.0470   16.4187   21.3072 H   0  0  0  0  0  0  0  0  0  0  0  0
   19.1856   18.3605   20.8147 C   0  0  0  0  0  0  0  0  0  0  0  0
   19.2030   18.1543   19.7363 H   0  0  0  0  0  0  0  0  0  0  0  0
   18.2599   18.9217   20.9989 H   0  0  0  0  0  0  0  0  0  0  0  0
   20.4108   19.2387   21.1465 C   0  0  0  0  0  0  0  0  0  0  0  0
   20.5583   19.9644   20.3427 H   0  0  0  0  0  0  0  0  0  0  0  0
   21.3061   18.6152   21.2086 H   0  0  0  0  0  0  0  0  0  0  0  0
   20.2842   20.0276   22.4360 N   0  3  0  0  0  0  0  0  0  0  0  0
   20.0901   19.3903   23.2214 H   0  0  0  0  0  0  0  0  0  0  0  0
   19.4697   20.6586   22.3869 H   0  0  0  0  0  0  0  0  0  0  0  0
   21.5596   20.8196   22.6898 C   0  0  0  0  0  0  0  0  0  0  0  0
   22.4020   20.1291   22.7703 H   0  0  0  0  0  0  0  0  0  0  0  0
   21.7256   21.5096   21.8596 H   0  0  0  0  0  0  0  0  0  0  0  0
   21.4540   21.3818   23.6201 H   0  0  0  0  0  0  0  0  0  0  0  0
  1  2  1  0  0  0  0
  1  3  1  0  0  0  0
  1  4  1  0  0  0  0
  1  5  1  0  0  0  0
  5  6  1  0  0  0  0
  5  7  1  0  0  0  0
  5  8  1  0  0  0  0
  8  9  1  0  0  0  0
  8 10  1  0  0  0  0
  8 11  1  0  0  0  0
 11 12  1  0  0  0  0
 11 13  1  0  0  0  0
 11 14  1  0  0  0  0
 14 15  1  0  0  0  0
 14 16  1  0  0  0  0
 14 17  1  0  0  0  0
 17 18  1  0  0  0  0
 17 19  1  0  0  0  0
 17 20  1  0  0  0  0
M  END
> <VConfSearch Rank>
583

> <Conf_Id>
26

> <Delta U+W>
2.888

> <U+W>
18.226

> <U>
72.042

> <W>
-53.816

> <W(PB)>
-55.689

> <W(SA)>
1.873

> <Valence>
2.428

> <Coulomb>
69.829

> <VdW>
-0.215

> <VdW6>
-4.563

> <VdW12>
4.348

> <Bond>
0.137

> <Angle>
0.936

> <Pdih>
1.356

> <Idih>
0.000

> <Tether>
0.000

$$$$
VeraChem MOL file


 20 19  0  0  0  0  0  0  0  0999 V2000     
   22.1351   18.2803   21.6027 C   0  0  0  0  0  0  0  0  0  0  0  0
   23.0269   17.6659   21.4224 H   0  0  0  0  0  0  0  0  0  0  0  0
   22.4467   19.3326   21.5790 H   0  0  0  0  0  0  0  0  0  0  0  0
   21.7771   18.0379   22.6102 H   0  0  0  0  0  0  0  0  0  0  0  0
   21.0591   17.9882   20.5320 C   0  0  0  0  0  0  0  0  0  0  0  0
   20.7019   16.9549   20.6450 H   0  0  0  0  0  0  0  0  0  0  0  0
   21.5289   18.0399   19.5397 H   0  0  0  0  0  0  0  0  0  0  0  0
   19.8526   18.9612   20.5522 C   0  0  0  0  0  0  0  0  0  0  0  0
   20.1880   19.9899   20.3651 H   0  0  0  0  0  0  0  0  0  0  0  0
   19.1950   18.7016   19.7120 H   0  0  0  0  0  0  0  0  0  0  0  0
   19.0102   18.9070   21.8444 C   0  0  0  0  0  0  0  0  0  0  0  0
   18.8927   17.8690   22.1653 H   0  0  0  0  0  0  0  0  0  0  0  0
   18.0163   19.3132   21.6401 H   0  0  0  0  0  0  0  0  0  0  0  0
   19.5846   19.7049   22.9995 N   0  3  0  0  0  0  0  0  0  0  0  0
   19.6653   20.6994   22.7379 H   0  0  0  0  0  0  0  0  0  0  0  0
   20.5464   19.3950   23.1982 H   0  0  0  0  0  0  0  0  0  0  0  0
   18.7041   19.5460   24.2315 C   0  0  0  0  0  0  0  0  0  0  0  0
   18.6600   18.4905   24.5087 H   0  0  0  0  0  0  0  0  0  0  0  0
   19.1294   20.1253   25.0540 H   0  0  0  0  0  0  0  0  0  0  0  0
   17.6998   19.9108   24.0053 H   0  0  0  0  0  0  0  0  0  0  0  0
  1  2  1  0  0  0  0
  1  3  1  0  0  0  0
  1  4  1  0  0  0  0
  1  5  1  0  0  0  0
  5  6  1  0  0  0  0
  5  7  1  0  0  0  0
  5  8  1  0  0  0  0
  8  9  1  0  0  0  0
  8 10  1  0  0  0  0
  8 11  1  0  0  0  0
 11 12  1  0  0  0  0
 11 13  1  0  0  0  0
 11 14  1  0  0  0  0
 14 15  1  0  0  0  0
 14 16  1  0  0  0  0
 14 17  1  0  0  0  0
 17 18  1  0  0  0  0
 17 19  1  0  0  0  0
 17 20  1  0  0  0  0
M  END
> <VConfSearch Rank>
584

> <Conf_Id>
5

> <Delta U+W>
2.950

> <U+W>
18.289

> <U>
72.042

> <W>
-53.753

> <W(PB)>
-55.644

> <W(SA)>
1.891

> <Valence>
2.428

> <Coulomb>
69.829

> <VdW>
-0.215

> <VdW6>
-4.563

> <VdW12>
4.348

> <Bond>
0.137

> <Angle>
0.936

> <Pdih>
1.356

> <Idih>
0.000

> <Tether>
0.000

$$$$
VeraChem MOL file


 20 19  0  0  0  0  0  0  0  0999 V2000     
   20.6456   19.7348   19.8030 C   0  0  0  0  0  0  0  0  0  0  0  0
   21.1821   19.0097   19.1773 H   0  0  0  0  0  0  0  0  0  0  0  0
   19.5786   19.4803   19.7831 H   0  0  0  0  0  0  0  0  0  0  0  0
   20.7586   20.7237   19.3401 H   0  0  0  0  0  0  0  0  0  0  0  0
   21.2032   19.7440   21.2449 C   0  0  0  0  0  0  0  0  0  0  0  0
   20.6545   20.4785   21.8501 H   0  0  0  0  0  0  0  0  0  0  0  0
   22.2463   20.0894   21.2221 H   0  0  0  0  0  0  0  0  0  0  0  0
   21.1534   18.3528   21.9240 C   0  0  0  0  0  0  0  0  0  0  0  0
   21.7839   17.6530   21.3597 H   0  0  0  0  0  0  0  0  0  0  0  0
   21.5991   18.4199   22.9249 H   0  0  0  0  0  0  0  0  0  0  0  0
   19.7315   17.7561   22.0316 C   0  0  0  0  0  0  0  0  0  0  0  0
   19.7808   16.7805   22.5218 H   0  0  0  0  0  0  0  0  0  0  0  0
   19.3326   17.6042   21.0257 H   0  0  0  0  0  0  0  0  0  0  0  0
   18.7283   18.6069   22.7951 N   0  3  0  0  0  0  0  0  0  0  0  0
   17.7844   18.2017   22.6957 H   0  0  0  0  0  0  0  0  0  0  0  0
   18.6636   19.5431   22.3693 H   0  0  0  0  0  0  0  0  0  0  0  0
   19.0973   18.7071   24.2711 C   0  0  0  0  0  0  0  0  0  0  0  0
   20.0701   19.1931   24.3686 H   0  0  0  0  0  0  0  0  0  0  0  0
   18.3390   19.2971   24.7904 H   0  0  0  0  0  0  0  0  0  0  0  0
   19.1400   17.7035   24.6997 H   0  0  0  0  0  0  0  0  0  0  0  0
  1  2  1  0  0  0  0
  1  3  1  0  0  0  0
  1  4  1  0  0  0  0
  1  5  1  0  0  0  0
  5  6  1  0  0  0  0
  5  7  1  0  0  0  0
  5  8  1  0  0  0  0
  8  9  1  0  0  0  0
  8 10  1  0  0  0  0
  8 11  1  0  0  0  0
 11 12  1  0  0  0  0
 11 13  1  0  0  0  0
 11 14  1  0  0  0  0
 14 15  1  0  0  0  0
 14 16  1  0  0  0  0
 14 17  1  0  0  0  0
 17 18  1  0  0  0  0
 17 19  1  0  0  0  0
 17 20  1  0  0  0  0
M  END
> <VConfSearch Rank>
585

> <Conf_Id>
52

> <Delta U+W>
0.784

> <U+W>
16.122

> <U>
70.777

> <W>
-54.655

> <W(PB)>
-56.491

> <W(SA)>
1.836

> <Valence>
1.529

> <Coulomb>
69.166

> <VdW>
0.082

> <VdW6>
-5.166

> <VdW12>
5.248

> <Bond>
0.171

> <Angle>
0.752

> <Pdih>
0.605

> <Idih>
0.000

> <Tether>
0.000

$$$$
VeraChem MOL file


 20 19  0  0  0  0  0  0  0  0999 V2000     
   21.8094   19.6531   21.1668 C   0  0  0  0  0  0  0  0  0  0  0  0
   22.6217   20.1405   20.6121 H   0  0  0  0  0  0  0  0  0  0  0  0
   21.7049   20.1882   22.1175 H   0  0  0  0  0  0  0  0  0  0  0  0
   22.1200   18.6205   21.3727 H   0  0  0  0  0  0  0  0  0  0  0  0
   20.5010   19.6930   20.3447 C   0  0  0  0  0  0  0  0  0  0  0  0
   20.7215   19.3566   19.3218 H   0  0  0  0  0  0  0  0  0  0  0  0
   20.1554   20.7324   20.2542 H   0  0  0  0  0  0  0  0  0  0  0  0
   19.3600   18.8097   20.9111 C   0  0  0  0  0  0  0  0  0  0  0  0
   18.5240   18.8439   20.2001 H   0  0  0  0  0  0  0  0  0  0  0  0
   19.6755   17.7594   20.9477 H   0  0  0  0  0  0  0  0  0  0  0  0
   18.8202   19.2612   22.2881 C   0  0  0  0  0  0  0  0  0  0  0  0
   17.8353   18.8167   22.4516 H   0  0  0  0  0  0  0  0  0  0  0  0
   18.6990   20.3474   22.2848 H   0  0  0  0  0  0  0  0  0  0  0  0
   19.6781   18.8909   23.4879 N   0  3  0  0  0  0  0  0  0  0  0  0
   19.3391   19.3935   24.3232 H   0  0  0  0  0  0  0  0  0  0  0  0
   20.6432   19.2204   23.3471 H   0  0  0  0  0  0  0  0  0  0  0  0
   19.6525   17.3880   23.7433 C   0  0  0  0  0  0  0  0  0  0  0  0
   18.6207   17.0684   23.9041 H   0  0  0  0  0  0  0  0  0  0  0  0
   20.0717   16.8658   22.8811 H   0  0  0  0  0  0  0  0  0  0  0  0
   20.2486   17.1658   24.6311 H   0  0  0  0  0  0  0  0  0  0  0  0
  1  2  1  0  0  0  0
  1  3  1  0  0  0  0
  1  4  1  0  0  0  0
  1  5  1  0  0  0  0
  5  6  1  0  0  0  0
  5  7  1  0  0  0  0
  5  8  1  0  0  0  0
  8  9  1  0  0  0  0
  8 10  1  0  0  0  0
  8 11  1  0  0  0  0
 11 12  1  0  0  0  0
 11 13  1  0  0  0  0
 11 14  1  0  0  0  0
 14 15  1  0  0  0  0
 14 16  1  0  0  0  0
 14 17  1  0  0  0  0
 17 18  1  0  0  0  0
 17 19  1  0  0  0  0
 17 20  1  0  0  0  0
M  END
> <VConfSearch Rank>
586

> <Conf_Id>
55

> <Delta U+W>
2.745

> <U+W>
18.083

> <U>
72.490

> <W>
-54.407

> <W(PB)>
-56.269

> <W(SA)>
1.861

> <Valence>
2.738

> <Coulomb>
69.795

> <VdW>
-0.043

> <VdW6>
-5.333

> <VdW12>
5.290

> <Bond>
0.182

> <Angle>
1.135

> <Pdih>
1.422

> <Idih>
0.000

> <Tether>
0.000

$$$$
VeraChem MOL file


 20 19  0  0  0  0  0  0  0  0999 V2000     
   21.9250   18.3157   22.5637 C   0  0  0  0  0  0  0  0  0  0  0  0
   22.9941   18.2180   22.7931 H   0  0  0  0  0  0  0  0  0  0  0  0
   21.3693   17.7425   23.3173 H   0  0  0  0  0  0  0  0  0  0  0  0
   21.7653   17.8576   21.5809 H   0  0  0  0  0  0  0  0  0  0  0  0
   21.5099   19.8047   22.5715 C   0  0  0  0  0  0  0  0  0  0  0  0
   21.9952   20.3258   21.7343 H   0  0  0  0  0  0  0  0  0  0  0  0
   21.9013   20.2709   23.4867 H   0  0  0  0  0  0  0  0  0  0  0  0
   19.9793   20.0444   22.5204 C   0  0  0  0  0  0  0  0  0  0  0  0
   19.4929   19.5785   23.3866 H   0  0  0  0  0  0  0  0  0  0  0  0
   19.8044   21.1232   22.6265 H   0  0  0  0  0  0  0  0  0  0  0  0
   19.3002   19.5885   21.2080 C   0  0  0  0  0  0  0  0  0  0  0  0
   19.9151   19.9023   20.3607 H   0  0  0  0  0  0  0  0  0  0  0  0
   18.3292   20.0815   21.1155 H   0  0  0  0  0  0  0  0  0  0  0  0
   19.0526   18.0939   21.0767 N   0  3  0  0  0  0  0  0  0  0  0  0
   19.9279   17.5757   21.2352 H   0  0  0  0  0  0  0  0  0  0  0  0
   18.7785   17.8730   20.1066 H   0  0  0  0  0  0  0  0  0  0  0  0
   17.9667   17.6266   22.0397 C   0  0  0  0  0  0  0  0  0  0  0  0
   18.2907   17.8048   23.0668 H   0  0  0  0  0  0  0  0  0  0  0  0
   17.0470   18.1805   21.8401 H   0  0  0  0  0  0  0  0  0  0  0  0
   17.7923   16.5587   21.8910 H   0  0  0  0  0  0  0  0  0  0  0  0
  1  2  1  0  0  0  0
  1  3  1  0  0  0  0
  1  4  1  0  0  0  0
  1  5  1  0  0  0  0
  5  6  1  0  0  0  0
  5  7  1  0  0  0  0
  5  8  1  0  0  0  0
  8  9  1  0  0  0  0
  8 10  1  0  0  0  0
  8 11  1  0  0  0  0
 11 12  1  0  0  0  0
 11 13  1  0  0  0  0
 11 14  1  0  0  0  0
 14 15  1  0  0  0  0
 14 16  1  0  0  0  0
 14 17  1  0  0  0  0
 17 18  1  0  0  0  0
 17 19  1  0  0  0  0
 17 20  1  0  0  0  0
M  END
> <VConfSearch Rank>
587

> <Conf_Id>
76

> <Delta U+W>
2.799

> <U+W>
18.137

> <U>
72.490

> <W>
-54.353

> <W(PB)>
-56.201

> <W(SA)>
1.848

> <Valence>
2.738

> <Coulomb>
69.795

> <VdW>
-0.043

> <VdW6>
-5.334

> <VdW12>
5.290

> <Bond>
0.182

> <Angle>
1.135

> <Pdih>
1.421

> <Idih>
0.000

> <Tether>
0.000

$$$$
VeraChem MOL file


 20 19  0  0  0  0  0  0  0  0999 V2000     
   18.1479   19.6493   21.9080 C   0  0  0  0  0  0  0  0  0  0  0  0
   18.7954   19.8423   21.0440 H   0  0  0  0  0  0  0  0  0  0  0  0
   17.3185   19.0111   21.5767 H   0  0  0  0  0  0  0  0  0  0  0  0
   17.7239   20.6105   22.2259 H   0  0  0  0  0  0  0  0  0  0  0  0
   18.9260   18.9889   23.0696 C   0  0  0  0  0  0  0  0  0  0  0  0
   18.2527   18.8836   23.9318 H   0  0  0  0  0  0  0  0  0  0  0  0
   19.7370   19.6485   23.4042 H   0  0  0  0  0  0  0  0  0  0  0  0
   19.4886   17.5926   22.7073 C   0  0  0  0  0  0  0  0  0  0  0  0
   19.9893   17.1637   23.5852 H   0  0  0  0  0  0  0  0  0  0  0  0
   18.6477   16.9228   22.4840 H   0  0  0  0  0  0  0  0  0  0  0  0
   20.4619   17.5621   21.5055 C   0  0  0  0  0  0  0  0  0  0  0  0
   19.9909   17.9927   20.6187 H   0  0  0  0  0  0  0  0  0  0  0  0
   20.6859   16.5155   21.2840 H   0  0  0  0  0  0  0  0  0  0  0  0
   21.7996   18.2530   21.7249 N   0  3  0  0  0  0  0  0  0  0  0  0
   22.5249   17.7714   21.1708 H   0  0  0  0  0  0  0  0  0  0  0  0
   22.1028   18.1455   22.7042 H   0  0  0  0  0  0  0  0  0  0  0  0
   21.7507   19.7211   21.3158 C   0  0  0  0  0  0  0  0  0  0  0  0
   22.7377   20.1654   21.4621 H   0  0  0  0  0  0  0  0  0  0  0  0
   21.4706   19.7900   20.2625 H   0  0  0  0  0  0  0  0  0  0  0  0
   21.0181   20.2500   21.9262 H   0  0  0  0  0  0  0  0  0  0  0  0
  1  2  1  0  0  0  0
  1  3  1  0  0  0  0
  1  4  1  0  0  0  0
  1  5  1  0  0  0  0
  5  6  1  0  0  0  0
  5  7  1  0  0  0  0
  5  8  1  0  0  0  0
  8  9  1  0  0  0  0
  8 10  1  0  0  0  0
  8 11  1  0  0  0  0
 11 12  1  0  0  0  0
 11 13  1  0  0  0  0
 11 14  1  0  0  0  0
 14 15  1  0  0  0  0
 14 16  1  0  0  0  0
 14 17  1  0  0  0  0
 17 18  1  0  0  0  0
 17 19  1  0  0  0  0
 17 20  1  0  0  0  0
M  END
> <VConfSearch Rank>
588

> <Conf_Id>
60

> <Delta U+W>
1.788

> <U+W>
17.127

> <U>
72.122

> <W>
-54.995

> <W(PB)>
-56.810

> <W(SA)>
1.815

> <Valence>
3.197

> <Coulomb>
69.115

> <VdW>
-0.190

> <VdW6>
-5.585

> <VdW12>
5.395

> <Bond>
0.177

> <Angle>
1.207

> <Pdih>
1.813

> <Idih>
0.000

> <Tether>
0.000

$$$$
VeraChem MOL file


 20 19  0  0  0  0  0  0  0  0999 V2000     
   18.6618   17.4873   22.8330 C   0  0  0  0  0  0  0  0  0  0  0  0
   18.3909   17.1526   23.8427 H   0  0  0  0  0  0  0  0  0  0  0  0
   17.8883   17.1271   22.1425 H   0  0  0  0  0  0  0  0  0  0  0  0
   19.6089   17.0026   22.5663 H   0  0  0  0  0  0  0  0  0  0  0  0
   18.7745   19.0286   22.7843 C   0  0  0  0  0  0  0  0  0  0  0  0
   19.5354   19.3744   23.4959 H   0  0  0  0  0  0  0  0  0  0  0  0
   17.8257   19.4639   23.1279 H   0  0  0  0  0  0  0  0  0  0  0  0
   19.0833   19.5705   21.3672 C   0  0  0  0  0  0  0  0  0  0  0  0
   18.2520   19.3044   20.7011 H   0  0  0  0  0  0  0  0  0  0  0  0
   19.1067   20.6678   21.3949 H   0  0  0  0  0  0  0  0  0  0  0  0
   20.3952   19.0531   20.7315 C   0  0  0  0  0  0  0  0  0  0  0  0
   20.4305   19.4126   19.6999 H   0  0  0  0  0  0  0  0  0  0  0  0
   20.4022   17.9610   20.7001 H   0  0  0  0  0  0  0  0  0  0  0  0
   21.6793   19.5248   21.3974 N   0  3  0  0  0  0  0  0  0  0  0  0
   21.5639   20.4819   21.7624 H   0  0  0  0  0  0  0  0  0  0  0  0
   22.4218   19.6029   20.6851 H   0  0  0  0  0  0  0  0  0  0  0  0
   22.1344   18.5640   22.4905 C   0  0  0  0  0  0  0  0  0  0  0  0
   22.2888   17.5742   22.0555 H   0  0  0  0  0  0  0  0  0  0  0  0
   23.0721   18.9270   22.9170 H   0  0  0  0  0  0  0  0  0  0  0  0
   21.3756   18.5078   23.2717 H   0  0  0  0  0  0  0  0  0  0  0  0
  1  2  1  0  0  0  0
  1  3  1  0  0  0  0
  1  4  1  0  0  0  0
  1  5  1  0  0  0  0
  5  6  1  0  0  0  0
  5  7  1  0  0  0  0
  5  8  1  0  0  0  0
  8  9  1  0  0  0  0
  8 10  1  0  0  0  0
  8 11  1  0  0  0  0
 11 12  1  0  0  0  0
 11 13  1  0  0  0  0
 11 14  1  0  0  0  0
 14 15  1  0  0  0  0
 14 16  1  0  0  0  0
 14 17  1  0  0  0  0
 17 18  1  0  0  0  0
 17 19  1  0  0  0  0
 17 20  1  0  0  0  0
M  END
> <VConfSearch Rank>
589

> <Conf_Id>
54

> <Delta U+W>
1.880

> <U+W>
17.218

> <U>
72.122

> <W>
-54.903

> <W(PB)>
-56.724

> <W(SA)>
1.821

> <Valence>
3.197

> <Coulomb>
69.115

> <VdW>
-0.190

> <VdW6>
-5.585

> <VdW12>
5.395

> <Bond>
0.177

> <Angle>
1.207

> <Pdih>
1.813

> <Idih>
0.000

> <Tether>
0.000

$$$$
VeraChem MOL file


 20 19  0  0  0  0  0  0  0  0999 V2000     
   22.7567   19.1984   23.6889 C   0  0  0  0  0  0  0  0  0  0  0  0
   22.7424   20.2955   23.7257 H   0  0  0  0  0  0  0  0  0  0  0  0
   23.1545   18.8353   24.6455 H   0  0  0  0  0  0  0  0  0  0  0  0
   23.4532   18.8923   22.8975 H   0  0  0  0  0  0  0  0  0  0  0  0
   21.3429   18.6317   23.4356 C   0  0  0  0  0  0  0  0  0  0  0  0
   20.6786   18.9253   24.2607 H   0  0  0  0  0  0  0  0  0  0  0  0
   21.3839   17.5332   23.4390 H   0  0  0  0  0  0  0  0  0  0  0  0
   20.7573   19.1265   22.0947 C   0  0  0  0  0  0  0  0  0  0  0  0
   20.7135   20.2238   22.0936 H   0  0  0  0  0  0  0  0  0  0  0  0
   21.4198   18.8299   21.2707 H   0  0  0  0  0  0  0  0  0  0  0  0
   19.3477   18.5571   21.8494 C   0  0  0  0  0  0  0  0  0  0  0  0
   18.6817   18.8634   22.6600 H   0  0  0  0  0  0  0  0  0  0  0  0
   19.3904   17.4651   21.8343 H   0  0  0  0  0  0  0  0  0  0  0  0
   18.7317   19.0166   20.5424 N   0  3  0  0  0  0  0  0  0  0  0  0
   19.3372   18.7519   19.7503 H   0  0  0  0  0  0  0  0  0  0  0  0
   18.6810   20.0466   20.5148 H   0  0  0  0  0  0  0  0  0  0  0  0
   17.3446   18.4096   20.3799 C   0  0  0  0  0  0  0  0  0  0  0  0
   16.7117   18.7307   21.2101 H   0  0  0  0  0  0  0  0  0  0  0  0
   16.9130   18.7486   19.4356 H   0  0  0  0  0  0  0  0  0  0  0  0
   17.4263   17.3205   20.3773 H   0  0  0  0  0  0  0  0  0  0  0  0
  1  2  1  0  0  0  0
  1  3  1  0  0  0  0
  1  4  1  0  0  0  0
  1  5  1  0  0  0  0
  5  6  1  0  0  0  0
  5  7  1  0  0  0  0
  5  8  1  0  0  0  0
  8  9  1  0  0  0  0
  8 10  1  0  0  0  0
  8 11  1  0  0  0  0
 11 12  1  0  0  0  0
 11 13  1  0  0  0  0
 11 14  1  0  0  0  0
 14 15  1  0  0  0  0
 14 16  1  0  0  0  0
 14 17  1  0  0  0  0
 17 18  1  0  0  0  0
 17 19  1  0  0  0  0
 17 20  1  0  0  0  0
M  END
> <VConfSearch Rank>
590

> <Conf_Id>
67

> <Delta U+W>
0.000

> <U+W>
15.338

> <U>
69.277

> <W>
-53.939

> <W(PB)>
-55.889

> <W(SA)>
1.950

> <Valence>
0.846

> <Coulomb>
68.557

> <VdW>
-0.127

> <VdW6>
-3.008

> <VdW12>
2.882

> <Bond>
0.088

> <Angle>
0.332

> <Pdih>
0.426

> <Idih>
0.000

> <Tether>
0.000

$$$$
VeraChem MOL file


 20 19  0  0  0  0  0  0  0  0999 V2000     
   20.8236   21.5168   20.7504 C   0  0  0  0  0  0  0  0  0  0  0  0
   20.6838   22.0166   21.7178 H   0  0  0  0  0  0  0  0  0  0  0  0
   21.6426   22.0248   20.2249 H   0  0  0  0  0  0  0  0  0  0  0  0
   19.9086   21.6545   20.1595 H   0  0  0  0  0  0  0  0  0  0  0  0
   21.1433   20.0181   20.9396 C   0  0  0  0  0  0  0  0  0  0  0  0
   22.0808   19.9131   21.5039 H   0  0  0  0  0  0  0  0  0  0  0  0
   21.3123   19.5540   19.9575 H   0  0  0  0  0  0  0  0  0  0  0  0
   20.0067   19.2766   21.6770 C   0  0  0  0  0  0  0  0  0  0  0  0
   19.8415   19.7433   22.6567 H   0  0  0  0  0  0  0  0  0  0  0  0
   19.0715   19.3782   21.1106 H   0  0  0  0  0  0  0  0  0  0  0  0
   20.3347   17.7803   21.8599 C   0  0  0  0  0  0  0  0  0  0  0  0
   21.2383   17.6696   22.4644 H   0  0  0  0  0  0  0  0  0  0  0  0
   20.5276   17.3372   20.8795 H   0  0  0  0  0  0  0  0  0  0  0  0
   19.2306   16.9656   22.5142 N   0  3  0  0  0  0  0  0  0  0  0  0
   19.4585   15.9610   22.4494 H   0  0  0  0  0  0  0  0  0  0  0  0
   18.3495   17.0707   21.9887 H   0  0  0  0  0  0  0  0  0  0  0  0
   19.0417   17.3598   23.9752 C   0  0  0  0  0  0  0  0  0  0  0  0
   18.7361   18.4064   24.0319 H   0  0  0  0  0  0  0  0  0  0  0  0
   18.2689   16.7283   24.4189 H   0  0  0  0  0  0  0  0  0  0  0  0
   19.9834   17.2193   24.5101 H   0  0  0  0  0  0  0  0  0  0  0  0
  1  2  1  0  0  0  0
  1  3  1  0  0  0  0
  1  4  1  0  0  0  0
  1  5  1  0  0  0  0
  5  6  1  0  0  0  0
  5  7  1  0  0  0  0
  5  8  1  0  0  0  0
  8  9  1  0  0  0  0
  8 10  1  0  0  0  0
  8 11  1  0  0  0  0
 11 12  1  0  0  0  0
 11 13  1  0  0  0  0
 11 14  1  0  0  0  0
 14 15  1  0  0  0  0
 14 16  1  0  0  0  0
 14 17  1  0  0  0  0
 17 18  1  0  0  0  0
 17 19  1  0  0  0  0
 17 20  1  0  0  0  0
M  END
> <VConfSearch Rank>
591

> <Conf_Id>
37

> <Delta U+W>
-0.021

> <U+W>
15.318

> <U>
69.657

> <W>
-54.340

> <W(PB)>
-56.238

> <W(SA)>
1.899

> <Valence>
1.137

> <Coulomb>
68.383

> <VdW>
0.138

> <VdW6>
-3.703

> <VdW12>
3.841

> <Bond>
0.125

> <Angle>
0.468

> <Pdih>
0.543

> <Idih>
0.000

> <Tether>
0.000

$$$$
VeraChem MOL file


 20 19  0  0  0  0  0  0  0  0999 V2000     
   19.9857   16.3549   20.2169 C   0  0  0  0  0  0  0  0  0  0  0  0
   19.7097   15.2925   20.2095 H   0  0  0  0  0  0  0  0  0  0  0  0
   19.3420   16.8744   19.4952 H   0  0  0  0  0  0  0  0  0  0  0  0
   21.0236   16.4349   19.8682 H   0  0  0  0  0  0  0  0  0  0  0  0
   19.8272   16.9500   21.6329 C   0  0  0  0  0  0  0  0  0  0  0  0
   20.4559   16.3877   22.3377 H   0  0  0  0  0  0  0  0  0  0  0  0
   18.7877   16.8245   21.9675 H   0  0  0  0  0  0  0  0  0  0  0  0
   20.2095   18.4460   21.6736 C   0  0  0  0  0  0  0  0  0  0  0  0
   21.2493   18.5702   21.3434 H   0  0  0  0  0  0  0  0  0  0  0  0
   19.5794   19.0033   20.9685 H   0  0  0  0  0  0  0  0  0  0  0  0
   20.0493   19.0309   23.0921 C   0  0  0  0  0  0  0  0  0  0  0  0
   20.6573   18.4464   23.7874 H   0  0  0  0  0  0  0  0  0  0  0  0
   19.0063   18.9550   23.4093 H   0  0  0  0  0  0  0  0  0  0  0  0
   20.4763   20.4833   23.2299 N   0  3  0  0  0  0  0  0  0  0  0  0
   21.4492   20.6019   22.9085 H   0  0  0  0  0  0  0  0  0  0  0  0
   20.4945   20.7444   24.2283 H   0  0  0  0  0  0  0  0  0  0  0  0
   19.5363   21.4125   22.4694 C   0  0  0  0  0  0  0  0  0  0  0  0
   18.5190   21.2800   22.8440 H   0  0  0  0  0  0  0  0  0  0  0  0
   19.8532   22.4463   22.6236 H   0  0  0  0  0  0  0  0  0  0  0  0
   19.5729   21.1736   21.4047 H   0  0  0  0  0  0  0  0  0  0  0  0
  1  2  1  0  0  0  0
  1  3  1  0  0  0  0
  1  4  1  0  0  0  0
  1  5  1  0  0  0  0
  5  6  1  0  0  0  0
  5  7  1  0  0  0  0
  5  8  1  0  0  0  0
  8  9  1  0  0  0  0
  8 10  1  0  0  0  0
  8 11  1  0  0  0  0
 11 12  1  0  0  0  0
 11 13  1  0  0  0  0
 11 14  1  0  0  0  0
 14 15  1  0  0  0  0
 14 16  1  0  0  0  0
 14 17  1  0  0  0  0
 17 18  1  0  0  0  0
 17 19  1  0  0  0  0
 17 20  1  0  0  0  0
M  END
> <VConfSearch Rank>
592

> <Conf_Id>
2

> <Delta U+W>
0.069

> <U+W>
15.407

> <U>
69.657

> <W>
-54.250

> <W(PB)>
-56.176

> <W(SA)>
1.926

> <Valence>
1.137

> <Coulomb>
68.383

> <VdW>
0.138

> <VdW6>
-3.703

> <VdW12>
3.841

> <Bond>
0.125

> <Angle>
0.468

> <Pdih>
0.543

> <Idih>
0.000

> <Tether>
0.000

$$$$
VeraChem MOL file


 20 19  0  0  0  0  0  0  0  0999 V2000     
   20.6652   21.3362   21.9692 C   0  0  0  0  0  0  0  0  0  0  0  0
   20.9914   20.8263   21.0540 H   0  0  0  0  0  0  0  0  0  0  0  0
   19.6443   21.7071   21.8098 H   0  0  0  0  0  0  0  0  0  0  0  0
   21.3185   22.2065   22.1134 H   0  0  0  0  0  0  0  0  0  0  0  0
   20.7316   20.3991   23.1970 C   0  0  0  0  0  0  0  0  0  0  0  0
   20.4873   20.9747   24.1009 H   0  0  0  0  0  0  0  0  0  0  0  0
   21.7611   20.0377   23.3302 H   0  0  0  0  0  0  0  0  0  0  0  0
   19.7661   19.1953   23.0919 C   0  0  0  0  0  0  0  0  0  0  0  0
   19.8099   18.6196   24.0260 H   0  0  0  0  0  0  0  0  0  0  0  0
   18.7344   19.5585   22.9940 H   0  0  0  0  0  0  0  0  0  0  0  0
   20.1022   18.2660   21.9093 C   0  0  0  0  0  0  0  0  0  0  0  0
   21.1282   17.9028   22.0081 H   0  0  0  0  0  0  0  0  0  0  0  0
   20.0227   18.8203   20.9711 H   0  0  0  0  0  0  0  0  0  0  0  0
   19.1885   17.0601   21.8128 N   0  3  0  0  0  0  0  0  0  0  0  0
   18.2061   17.3630   21.7276 H   0  0  0  0  0  0  0  0  0  0  0  0
   19.2300   16.5105   22.6848 H   0  0  0  0  0  0  0  0  0  0  0  0
   19.5871   16.2003   20.6208 C   0  0  0  0  0  0  0  0  0  0  0  0
   20.6180   15.8631   20.7489 H   0  0  0  0  0  0  0  0  0  0  0  0
   18.9217   15.3361   20.5632 H   0  0  0  0  0  0  0  0  0  0  0  0
   19.5026   16.7915   19.7063 H   0  0  0  0  0  0  0  0  0  0  0  0
  1  2  1  0  0  0  0
  1  3  1  0  0  0  0
  1  4  1  0  0  0  0
  1  5  1  0  0  0  0
  5  6  1  0  0  0  0
  5  7  1  0  0  0  0
  5  8  1  0  0  0  0
  8  9  1  0  0  0  0
  8 10  1  0  0  0  0
  8 11  1  0  0  0  0
 11 12  1  0  0  0  0
 11 13  1  0  0  0  0
 11 14  1  0  0  0  0
 14 15  1  0  0  0  0
 14 16  1  0  0  0  0
 14 17  1  0  0  0  0
 17 18  1  0  0  0  0
 17 19  1  0  0  0  0
 17 20  1  0  0  0  0
M  END
> <VConfSearch Rank>
593

> <Conf_Id>
34

> <Delta U+W>
0.276

> <U+W>
15.615

> <U>
69.798

> <W>
-54.184

> <W(PB)>
-56.116

> <W(SA)>
1.933

> <Valence>
1.134

> <Coulomb>
68.735

> <VdW>
-0.070

> <VdW6>
-3.565

> <VdW12>
3.494

> <Bond>
0.108

> <Angle>
0.456

> <Pdih>
0.569

> <Idih>
0.000

> <Tether>
0.000

$$$$
VeraChem MOL file


 20 19  0  0  0  0  0  0  0  0999 V2000     
   17.7563   18.0141   23.8586 C   0  0  0  0  0  0  0  0  0  0  0  0
   18.0751   18.1669   24.8979 H   0  0  0  0  0  0  0  0  0  0  0  0
   16.7208   18.3674   23.7696 H   0  0  0  0  0  0  0  0  0  0  0  0
   17.7621   16.9354   23.6548 H   0  0  0  0  0  0  0  0  0  0  0  0
   18.6773   18.7705   22.8769 C   0  0  0  0  0  0  0  0  0  0  0  0
   18.6252   19.8484   23.0859 H   0  0  0  0  0  0  0  0  0  0  0  0
   18.3048   18.6276   21.8535 H   0  0  0  0  0  0  0  0  0  0  0  0
   20.1440   18.2900   22.9824 C   0  0  0  0  0  0  0  0  0  0  0  0
   20.4889   18.4028   24.0189 H   0  0  0  0  0  0  0  0  0  0  0  0
   20.2077   17.2193   22.7472 H   0  0  0  0  0  0  0  0  0  0  0  0
   21.0991   19.0776   22.0631 C   0  0  0  0  0  0  0  0  0  0  0  0
   22.1267   18.7547   22.2483 H   0  0  0  0  0  0  0  0  0  0  0  0
   21.0317   20.1444   22.2910 H   0  0  0  0  0  0  0  0  0  0  0  0
   20.8227   18.8961   20.5824 N   0  3  0  0  0  0  0  0  0  0  0  0
   19.8602   19.1915   20.3616 H   0  0  0  0  0  0  0  0  0  0  0  0
   20.8676   17.8963   20.3324 H   0  0  0  0  0  0  0  0  0  0  0  0
   21.8268   19.6969   19.7644 C   0  0  0  0  0  0  0  0  0  0  0  0
   21.7384   20.7547   20.0214 H   0  0  0  0  0  0  0  0  0  0  0  0
   22.8360   19.3452   19.9891 H   0  0  0  0  0  0  0  0  0  0  0  0
   21.6166   19.5574   18.7017 H   0  0  0  0  0  0  0  0  0  0  0  0
  1  2  1  0  0  0  0
  1  3  1  0  0  0  0
  1  4  1  0  0  0  0
  1  5  1  0  0  0  0
  5  6  1  0  0  0  0
  5  7  1  0  0  0  0
  5  8  1  0  0  0  0
  8  9  1  0  0  0  0
  8 10  1  0  0  0  0
  8 11  1  0  0  0  0
 11 12  1  0  0  0  0
 11 13  1  0  0  0  0
 11 14  1  0  0  0  0
 14 15  1  0  0  0  0
 14 16  1  0  0  0  0
 14 17  1  0  0  0  0
 17 18  1  0  0  0  0
 17 19  1  0  0  0  0
 17 20  1  0  0  0  0
M  END
> <VConfSearch Rank>
594

> <Conf_Id>
50

> <Delta U+W>
0.319

> <U+W>
15.657

> <U>
69.962

> <W>
-54.305

> <W(PB)>
-56.223

> <W(SA)>
1.918

> <Valence>
0.982

> <Coulomb>
69.058

> <VdW>
-0.078

> <VdW6>
-3.548

> <VdW12>
3.471

> <Bond>
0.105

> <Angle>
0.408

> <Pdih>
0.469

> <Idih>
0.000

> <Tether>
0.000

$$$$
VeraChem MOL file


 20 19  0  0  0  0  0  0  0  0999 V2000     
   22.6147   17.1827   21.9576 C   0  0  0  0  0  0  0  0  0  0  0  0
   23.5261   17.4114   22.5251 H   0  0  0  0  0  0  0  0  0  0  0  0
   22.3591   16.1312   22.1425 H   0  0  0  0  0  0  0  0  0  0  0  0
   22.8461   17.2953   20.8904 H   0  0  0  0  0  0  0  0  0  0  0  0
   21.4607   18.1184   22.3782 C   0  0  0  0  0  0  0  0  0  0  0  0
   21.7674   19.1607   22.2168 H   0  0  0  0  0  0  0  0  0  0  0  0
   21.2748   18.0056   23.4557 H   0  0  0  0  0  0  0  0  0  0  0  0
   20.1634   17.8165   21.5916 C   0  0  0  0  0  0  0  0  0  0  0  0
   20.3341   17.9546   20.5156 H   0  0  0  0  0  0  0  0  0  0  0  0
   19.8916   16.7617   21.7313 H   0  0  0  0  0  0  0  0  0  0  0  0
   18.9743   18.6891   22.0412 C   0  0  0  0  0  0  0  0  0  0  0  0
   18.8073   18.5582   23.1133 H   0  0  0  0  0  0  0  0  0  0  0  0
   18.0716   18.3686   21.5149 H   0  0  0  0  0  0  0  0  0  0  0  0
   19.1580   20.1711   21.7728 N   0  3  0  0  0  0  0  0  0  0  0  0
   19.3288   20.3319   20.7683 H   0  0  0  0  0  0  0  0  0  0  0  0
   20.0011   20.5177   22.2539 H   0  0  0  0  0  0  0  0  0  0  0  0
   17.9271   20.9393   22.2350 C   0  0  0  0  0  0  0  0  0  0  0  0
   18.0726   22.0034   22.0362 H   0  0  0  0  0  0  0  0  0  0  0  0
   17.0523   20.5793   21.6891 H   0  0  0  0  0  0  0  0  0  0  0  0
   17.7851   20.7809   23.3062 H   0  0  0  0  0  0  0  0  0  0  0  0
  1  2  1  0  0  0  0
  1  3  1  0  0  0  0
  1  4  1  0  0  0  0
  1  5  1  0  0  0  0
  5  6  1  0  0  0  0
  5  7  1  0  0  0  0
  5  8  1  0  0  0  0
  8  9  1  0  0  0  0
  8 10  1  0  0  0  0
  8 11  1  0  0  0  0
 11 12  1  0  0  0  0
 11 13  1  0  0  0  0
 11 14  1  0  0  0  0
 14 15  1  0  0  0  0
 14 16  1  0  0  0  0
 14 17  1  0  0  0  0
 17 18  1  0  0  0  0
 17 19  1  0  0  0  0
 17 20  1  0  0  0  0
M  END
> <VConfSearch Rank>
595

> <Conf_Id>
35

> <Delta U+W>
0.360

> <U+W>
15.698

> <U>
69.962

> <W>
-54.264

> <W(PB)>
-56.166

> <W(SA)>
1.902

> <Valence>
0.982

> <Coulomb>
69.058

> <VdW>
-0.078

> <VdW6>
-3.548

> <VdW12>
3.471

> <Bond>
0.105

> <Angle>
0.408

> <Pdih>
0.469

> <Idih>
0.000

> <Tether>
0.000

$$$$
VeraChem MOL file


 20 19  0  0  0  0  0  0  0  0999 V2000     
   18.0675   20.1675   22.8241 C   0  0  0  0  0  0  0  0  0  0  0  0
   17.6152   19.4681   22.1097 H   0  0  0  0  0  0  0  0  0  0  0  0
   17.2622   20.5579   23.4597 H   0  0  0  0  0  0  0  0  0  0  0  0
   18.4868   21.0105   22.2597 H   0  0  0  0  0  0  0  0  0  0  0  0
   19.1521   19.4793   23.6844 C   0  0  0  0  0  0  0  0  0  0  0  0
   18.7082   18.6374   24.2342 H   0  0  0  0  0  0  0  0  0  0  0  0
   19.5112   20.1885   24.4435 H   0  0  0  0  0  0  0  0  0  0  0  0
   20.3567   18.9813   22.8521 C   0  0  0  0  0  0  0  0  0  0  0  0
   20.8186   19.8323   22.3352 H   0  0  0  0  0  0  0  0  0  0  0  0
   21.1176   18.5755   23.5318 H   0  0  0  0  0  0  0  0  0  0  0  0
   19.9615   17.8944   21.8294 C   0  0  0  0  0  0  0  0  0  0  0  0
   19.2541   18.3049   21.1049 H   0  0  0  0  0  0  0  0  0  0  0  0
   19.4681   17.0741   22.3569 H   0  0  0  0  0  0  0  0  0  0  0  0
   21.1273   17.2995   21.0566 N   0  3  0  0  0  0  0  0  0  0  0  0
   20.8041   16.4777   20.5224 H   0  0  0  0  0  0  0  0  0  0  0  0
   21.8360   16.9289   21.7078 H   0  0  0  0  0  0  0  0  0  0  0  0
   21.7433   18.3231   20.1088 C   0  0  0  0  0  0  0  0  0  0  0  0
   22.1417   19.1590   20.6871 H   0  0  0  0  0  0  0  0  0  0  0  0
   22.5508   17.8492   19.5464 H   0  0  0  0  0  0  0  0  0  0  0  0
   20.9761   18.6819   19.4193 H   0  0  0  0  0  0  0  0  0  0  0  0
  1  2  1  0  0  0  0
  1  3  1  0  0  0  0
  1  4  1  0  0  0  0
  1  5  1  0  0  0  0
  5  6  1  0  0  0  0
  5  7  1  0  0  0  0
  5  8  1  0  0  0  0
  8  9  1  0  0  0  0
  8 10  1  0  0  0  0
  8 11  1  0  0  0  0
 11 12  1  0  0  0  0
 11 13  1  0  0  0  0
 11 14  1  0  0  0  0
 14 15  1  0  0  0  0
 14 16  1  0  0  0  0
 14 17  1  0  0  0  0
 17 18  1  0  0  0  0
 17 19  1  0  0  0  0
 17 20  1  0  0  0  0
M  END
> <VConfSearch Rank>
596

> <Conf_Id>
33

> <Delta U+W>
0.372

> <U+W>
15.711

> <U>
70.163

> <W>
-54.452

> <W(PB)>
-56.363

> <W(SA)>
1.911

> <Valence>
1.420

> <Coulomb>
68.566

> <VdW>
0.177

> <VdW6>
-4.267

> <VdW12>
4.445

> <Bond>
0.146

> <Angle>
0.581

> <Pdih>
0.693

> <Idih>
0.000

> <Tether>
0.000

$$$$
VeraChem MOL file


 20 19  0  0  0  0  0  0  0  0999 V2000     
   22.3760   19.9673   22.4875 C   0  0  0  0  0  0  0  0  0  0  0  0
   23.3842   20.1526   22.8802 H   0  0  0  0  0  0  0  0  0  0  0  0
   22.4848   19.5847   21.4648 H   0  0  0  0  0  0  0  0  0  0  0  0
   21.8533   20.9314   22.4389 H   0  0  0  0  0  0  0  0  0  0  0  0
   21.6174   18.9679   23.3907 C   0  0  0  0  0  0  0  0  0  0  0  0
   21.6121   19.3488   24.4217 H   0  0  0  0  0  0  0  0  0  0  0  0
   22.1579   18.0111   23.4181 H   0  0  0  0  0  0  0  0  0  0  0  0
   20.1587   18.7298   22.9354 C   0  0  0  0  0  0  0  0  0  0  0  0
   19.6600   18.0743   23.6614 H   0  0  0  0  0  0  0  0  0  0  0  0
   19.6140   19.6827   22.9461 H   0  0  0  0  0  0  0  0  0  0  0  0
   20.0727   18.0889   21.5335 C   0  0  0  0  0  0  0  0  0  0  0  0
   20.6527   17.1626   21.5312 H   0  0  0  0  0  0  0  0  0  0  0  0
   20.5062   18.7616   20.7897 H   0  0  0  0  0  0  0  0  0  0  0  0
   18.6633   17.7418   21.0823 N   0  3  0  0  0  0  0  0  0  0  0  0
   18.2056   17.1320   21.7768 H   0  0  0  0  0  0  0  0  0  0  0  0
   18.7062   17.1750   20.2208 H   0  0  0  0  0  0  0  0  0  0  0  0
   17.8360   18.9985   20.8342 C   0  0  0  0  0  0  0  0  0  0  0  0
   16.8451   18.7096   20.4770 H   0  0  0  0  0  0  0  0  0  0  0  0
   17.7399   19.5593   21.7660 H   0  0  0  0  0  0  0  0  0  0  0  0
   18.3335   19.6136   20.0813 H   0  0  0  0  0  0  0  0  0  0  0  0
  1  2  1  0  0  0  0
  1  3  1  0  0  0  0
  1  4  1  0  0  0  0
  1  5  1  0  0  0  0
  5  6  1  0  0  0  0
  5  7  1  0  0  0  0
  5  8  1  0  0  0  0
  8  9  1  0  0  0  0
  8 10  1  0  0  0  0
  8 11  1  0  0  0  0
 11 12  1  0  0  0  0
 11 13  1  0  0  0  0
 11 14  1  0  0  0  0
 14 15  1  0  0  0  0
 14 16  1  0  0  0  0
 14 17  1  0  0  0  0
 17 18  1  0  0  0  0
 17 19  1  0  0  0  0
 17 20  1  0  0  0  0
M  END
> <VConfSearch Rank>
597

> <Conf_Id>
53

> <Delta U+W>
0.379

> <U+W>
15.717

> <U>
70.163

> <W>
-54.446

> <W(PB)>
-56.322

> <W(SA)>
1.876

> <Valence>
1.420

> <Coulomb>
68.566

> <VdW>
0.177

> <VdW6>
-4.267

> <VdW12>
4.445

> <Bond>
0.146

> <Angle>
0.581

> <Pdih>
0.693

> <Idih>
0.000

> <Tether>
0.000

$$$$
VeraChem MOL file


 20 19  0  0  0  0  0  0  0  0999 V2000     
   21.2872   16.3196   21.7165 C   0  0  0  0  0  0  0  0  0  0  0  0
   20.8522   15.3443   21.9709 H   0  0  0  0  0  0  0  0  0  0  0  0
   21.8127   16.2134   20.7586 H   0  0  0  0  0  0  0  0  0  0  0  0
   22.0285   16.5684   22.4871 H   0  0  0  0  0  0  0  0  0  0  0  0
   20.1889   17.4015   21.6319 C   0  0  0  0  0  0  0  0  0  0  0  0
   19.6606   17.4521   22.5937 H   0  0  0  0  0  0  0  0  0  0  0  0
   19.4464   17.1089   20.8761 H   0  0  0  0  0  0  0  0  0  0  0  0
   20.7766   18.7875   21.2763 C   0  0  0  0  0  0  0  0  0  0  0  0
   21.4990   19.0969   22.0426 H   0  0  0  0  0  0  0  0  0  0  0  0
   21.3386   18.7127   20.3360 H   0  0  0  0  0  0  0  0  0  0  0  0
   19.6920   19.8746   21.1080 C   0  0  0  0  0  0  0  0  0  0  0  0
   19.0148   19.5784   20.3029 H   0  0  0  0  0  0  0  0  0  0  0  0
   20.1630   20.8175   20.8190 H   0  0  0  0  0  0  0  0  0  0  0  0
   18.8421   20.1442   22.3408 N   0  3  0  0  0  0  0  0  0  0  0  0
   18.3798   19.2769   22.6508 H   0  0  0  0  0  0  0  0  0  0  0  0
   18.0698   20.7830   22.0943 H   0  0  0  0  0  0  0  0  0  0  0  0
   19.6742   20.7473   23.4671 C   0  0  0  0  0  0  0  0  0  0  0  0
   20.1354   21.6733   23.1171 H   0  0  0  0  0  0  0  0  0  0  0  0
   19.0239   20.9592   24.3186 H   0  0  0  0  0  0  0  0  0  0  0  0
   20.4483   20.0375   23.7652 H   0  0  0  0  0  0  0  0  0  0  0  0
  1  2  1  0  0  0  0
  1  3  1  0  0  0  0
  1  4  1  0  0  0  0
  1  5  1  0  0  0  0
  5  6  1  0  0  0  0
  5  7  1  0  0  0  0
  5  8  1  0  0  0  0
  8  9  1  0  0  0  0
  8 10  1  0  0  0  0
  8 11  1  0  0  0  0
 11 12  1  0  0  0  0
 11 13  1  0  0  0  0
 11 14  1  0  0  0  0
 14 15  1  0  0  0  0
 14 16  1  0  0  0  0
 14 17  1  0  0  0  0
 17 18  1  0  0  0  0
 17 19  1  0  0  0  0
 17 20  1  0  0  0  0
M  END
> <VConfSearch Rank>
598

> <Conf_Id>
49

> <Delta U+W>
0.268

> <U+W>
15.607

> <U>
70.298

> <W>
-54.692

> <W(PB)>
-56.576

> <W(SA)>
1.885

> <Valence>
1.245

> <Coulomb>
68.933

> <VdW>
0.120

> <VdW6>
-4.430

> <VdW12>
4.550

> <Bond>
0.148

> <Angle>
0.587

> <Pdih>
0.509

> <Idih>
0.000

> <Tether>
0.000

$$$$
VeraChem MOL file


 20 19  0  0  0  0  0  0  0  0999 V2000     
   21.7694   17.0697   23.3599 C   0  0  0  0  0  0  0  0  0  0  0  0
   22.5620   16.9038   22.6187 H   0  0  0  0  0  0  0  0  0  0  0  0
   22.2093   17.5920   24.2194 H   0  0  0  0  0  0  0  0  0  0  0  0
   21.4219   16.0876   23.7061 H   0  0  0  0  0  0  0  0  0  0  0  0
   20.6022   17.8788   22.7540 C   0  0  0  0  0  0  0  0  0  0  0  0
   19.8138   18.0043   23.5095 H   0  0  0  0  0  0  0  0  0  0  0  0
   20.1662   17.3052   21.9255 H   0  0  0  0  0  0  0  0  0  0  0  0
   21.0675   19.2641   22.2481 C   0  0  0  0  0  0  0  0  0  0  0  0
   21.6045   19.7787   23.0559 H   0  0  0  0  0  0  0  0  0  0  0  0
   21.7895   19.1376   21.4306 H   0  0  0  0  0  0  0  0  0  0  0  0
   19.9179   20.1849   21.7796 C   0  0  0  0  0  0  0  0  0  0  0  0
   20.3501   21.1513   21.5076 H   0  0  0  0  0  0  0  0  0  0  0  0
   19.2116   20.3563   22.5957 H   0  0  0  0  0  0  0  0  0  0  0  0
   19.1377   19.6983   20.5680 N   0  3  0  0  0  0  0  0  0  0  0  0
   19.7537   19.1708   19.9315 H   0  0  0  0  0  0  0  0  0  0  0  0
   18.8234   20.5120   20.0166 H   0  0  0  0  0  0  0  0  0  0  0  0
   17.9231   18.8734   20.9815 C   0  0  0  0  0  0  0  0  0  0  0  0
   17.3799   18.5643   20.0857 H   0  0  0  0  0  0  0  0  0  0  0  0
   18.2465   17.9914   21.5353 H   0  0  0  0  0  0  0  0  0  0  0  0
   17.2730   19.4847   21.6111 H   0  0  0  0  0  0  0  0  0  0  0  0
  1  2  1  0  0  0  0
  1  3  1  0  0  0  0
  1  4  1  0  0  0  0
  1  5  1  0  0  0  0
  5  6  1  0  0  0  0
  5  7  1  0  0  0  0
  5  8  1  0  0  0  0
  8  9  1  0  0  0  0
  8 10  1  0  0  0  0
  8 11  1  0  0  0  0
 11 12  1  0  0  0  0
 11 13  1  0  0  0  0
 11 14  1  0  0  0  0
 14 15  1  0  0  0  0
 14 16  1  0  0  0  0
 14 17  1  0  0  0  0
 17 18  1  0  0  0  0
 17 19  1  0  0  0  0
 17 20  1  0  0  0  0
M  END
> <VConfSearch Rank>
599

> <Conf_Id>
65

> <Delta U+W>
1.775

> <U+W>
17.114

> <U>
71.726

> <W>
-54.613

> <W(PB)>
-56.495

> <W(SA)>
1.883

> <Valence>
2.885

> <Coulomb>
68.822

> <VdW>
0.019

> <VdW6>
-4.600

> <VdW12>
4.619

> <Bond>
0.152

> <Angle>
0.862

> <Pdih>
1.871

> <Idih>
0.000

> <Tether>
0.000

$$$$
VeraChem MOL file


 20 19  0  0  0  0  0  0  0  0999 V2000     
   18.4657   20.4407   21.6281 C   0  0  0  0  0  0  0  0  0  0  0  0
   19.2553   20.6686   22.3552 H   0  0  0  0  0  0  0  0  0  0  0  0
   18.3011   21.3431   21.0251 H   0  0  0  0  0  0  0  0  0  0  0  0
   17.5400   20.2347   22.1810 H   0  0  0  0  0  0  0  0  0  0  0  0
   18.8505   19.2471   20.7240 C   0  0  0  0  0  0  0  0  0  0  0  0
   19.7776   19.4776   20.1819 H   0  0  0  0  0  0  0  0  0  0  0  0
   18.0755   19.1168   19.9557 H   0  0  0  0  0  0  0  0  0  0  0  0
   19.0057   17.9186   21.5057 C   0  0  0  0  0  0  0  0  0  0  0  0
   18.0410   17.6502   21.9562 H   0  0  0  0  0  0  0  0  0  0  0  0
   19.2510   17.1095   20.8049 H   0  0  0  0  0  0  0  0  0  0  0  0
   20.0729   17.9663   22.6191 C   0  0  0  0  0  0  0  0  0  0  0  0
   20.0969   17.0053   23.1393 H   0  0  0  0  0  0  0  0  0  0  0  0
   19.8115   18.7385   23.3465 H   0  0  0  0  0  0  0  0  0  0  0  0
   21.4752   18.2523   22.1167 N   0  3  0  0  0  0  0  0  0  0  0  0
   21.4923   19.1508   21.6119 H   0  0  0  0  0  0  0  0  0  0  0  0
   21.7567   17.5415   21.4243 H   0  0  0  0  0  0  0  0  0  0  0  0
   22.4514   18.2774   23.2850 C   0  0  0  0  0  0  0  0  0  0  0  0
   22.4392   17.3064   23.7849 H   0  0  0  0  0  0  0  0  0  0  0  0
   23.4556   18.4854   22.9092 H   0  0  0  0  0  0  0  0  0  0  0  0
   22.1520   19.0583   23.9874 H   0  0  0  0  0  0  0  0  0  0  0  0
  1  2  1  0  0  0  0
  1  3  1  0  0  0  0
  1  4  1  0  0  0  0
  1  5  1  0  0  0  0
  5  6  1  0  0  0  0
  5  7  1  0  0  0  0
  5  8  1  0  0  0  0
  8  9  1  0  0  0  0
  8 10  1  0  0  0  0
  8 11  1  0  0  0  0
 11 12  1  0  0  0  0
 11 13  1  0  0  0  0
 11 14  1  0  0  0  0
 14 15  1  0  0  0  0
 14 16  1  0  0  0  0
 14 17  1  0  0  0  0
 17 18  1  0  0  0  0
 17 19  1  0  0  0  0
 17 20  1  0  0  0  0
M  END
> <VConfSearch Rank>
600

> <Conf_Id>
23

> <Delta U+W>
0.896

> <U+W>
16.234

> <U>
70.374

> <W>
-54.140

> <W(PB)>
-56.046

> <W(SA)>
1.907

> <Valence>
1.257

> <Coulomb>
69.240

> <VdW>
-0.123

> <VdW6>
-4.336

> <VdW12>
4.213

> <Bond>
0.128

> <Angle>
0.603

> <Pdih>
0.526

> <Idih>
0.000

> <Tether>
0.000

$$$$
VeraChem MOL file


 20 19  0  0  0  0  0  0  0  0999 V2000     
   17.8794   19.4068   22.5257 C   0  0  0  0  0  0  0  0  0  0  0  0
   17.3702   19.7864   21.6303 H   0  0  0  0  0  0  0  0  0  0  0  0
   17.1492   19.3941   23.3453 H   0  0  0  0  0  0  0  0  0  0  0  0
   18.6693   20.1181   22.7979 H   0  0  0  0  0  0  0  0  0  0  0  0
   18.4472   17.9895   22.2834 C   0  0  0  0  0  0  0  0  0  0  0  0
   17.6130   17.2960   22.1070 H   0  0  0  0  0  0  0  0  0  0  0  0
   18.9502   17.6322   23.1922 H   0  0  0  0  0  0  0  0  0  0  0  0
   19.4155   17.9215   21.0759 C   0  0  0  0  0  0  0  0  0  0  0  0
   19.7596   16.8874   20.9421 H   0  0  0  0  0  0  0  0  0  0  0  0
   18.8689   18.1824   20.1600 H   0  0  0  0  0  0  0  0  0  0  0  0
   20.6404   18.8516   21.2003 C   0  0  0  0  0  0  0  0  0  0  0  0
   20.3076   19.8887   21.2874 H   0  0  0  0  0  0  0  0  0  0  0  0
   21.2525   18.7671   20.2988 H   0  0  0  0  0  0  0  0  0  0  0  0
   21.5293   18.5441   22.3902 N   0  3  0  0  0  0  0  0  0  0  0  0
   21.8628   17.5692   22.3424 H   0  0  0  0  0  0  0  0  0  0  0  0
   20.9842   18.6065   23.2628 H   0  0  0  0  0  0  0  0  0  0  0  0
   22.7052   19.5109   22.4248 C   0  0  0  0  0  0  0  0  0  0  0  0
   22.3287   20.5327   22.5085 H   0  0  0  0  0  0  0  0  0  0  0  0
   23.3354   19.2789   23.2862 H   0  0  0  0  0  0  0  0  0  0  0  0
   23.2851   19.4050   21.5054 H   0  0  0  0  0  0  0  0  0  0  0  0
  1  2  1  0  0  0  0
  1  3  1  0  0  0  0
  1  4  1  0  0  0  0
  1  5  1  0  0  0  0
  5  6  1  0  0  0  0
  5  7  1  0  0  0  0
  5  8  1  0  0  0  0
  8  9  1  0  0  0  0
  8 10  1  0  0  0  0
  8 11  1  0  0  0  0
 11 12  1  0  0  0  0
 11 13  1  0  0  0  0
 11 14  1  0  0  0  0
 14 15  1  0  0  0  0
 14 16  1  0  0  0  0
 14 17  1  0  0  0  0
 17 18  1  0  0  0  0
 17 19  1  0  0  0  0
 17 20  1  0  0  0  0
M  END
> <VConfSearch Rank>
601

> <Conf_Id>
24

> <Delta U+W>
0.792

> <U+W>
16.130

> <U>
70.374

> <W>
-54.243

> <W(PB)>
-56.130

> <W(SA)>
1.887

> <Valence>
1.257

> <Coulomb>
69.240

> <VdW>
-0.123

> <VdW6>
-4.336

> <VdW12>
4.213

> <Bond>
0.128

> <Angle>
0.603

> <Pdih>
0.526

> <Idih>
0.000

> <Tether>
0.000

$$$$
VeraChem MOL file


 20 19  0  0  0  0  0  0  0  0999 V2000     
   19.8524   20.9062   22.4956 C   0  0  0  0  0  0  0  0  0  0  0  0
   19.5422   21.9593   22.4993 H   0  0  0  0  0  0  0  0  0  0  0  0
   18.9760   20.3127   22.7813 H   0  0  0  0  0  0  0  0  0  0  0  0
   20.6291   20.7863   23.2621 H   0  0  0  0  0  0  0  0  0  0  0  0
   20.3767   20.5082   21.0969 C   0  0  0  0  0  0  0  0  0  0  0  0
   21.1062   21.2618   20.7685 H   0  0  0  0  0  0  0  0  0  0  0  0
   19.5514   20.5487   20.3721 H   0  0  0  0  0  0  0  0  0  0  0  0
   21.0536   19.1150   21.0376 C   0  0  0  0  0  0  0  0  0  0  0  0
   21.4446   18.9722   20.0214 H   0  0  0  0  0  0  0  0  0  0  0  0
   21.9267   19.0856   21.7028 H   0  0  0  0  0  0  0  0  0  0  0  0
   20.1111   17.9333   21.3504 C   0  0  0  0  0  0  0  0  0  0  0  0
   20.5375   17.0168   20.9348 H   0  0  0  0  0  0  0  0  0  0  0  0
   19.1402   18.1002   20.8774 H   0  0  0  0  0  0  0  0  0  0  0  0
   19.8885   17.6855   22.8302 N   0  3  0  0  0  0  0  0  0  0  0  0
   19.5352   18.5411   23.2816 H   0  0  0  0  0  0  0  0  0  0  0  0
   20.7867   17.4812   23.2945 H   0  0  0  0  0  0  0  0  0  0  0  0
   18.9121   16.5335   23.0246 C   0  0  0  0  0  0  0  0  0  0  0  0
   17.9595   16.7857   22.5537 H   0  0  0  0  0  0  0  0  0  0  0  0
   19.3237   15.6319   22.5658 H   0  0  0  0  0  0  0  0  0  0  0  0
   18.7617   16.3667   24.0935 H   0  0  0  0  0  0  0  0  0  0  0  0
  1  2  1  0  0  0  0
  1  3  1  0  0  0  0
  1  4  1  0  0  0  0
  1  5  1  0  0  0  0
  5  6  1  0  0  0  0
  5  7  1  0  0  0  0
  5  8  1  0  0  0  0
  8  9  1  0  0  0  0
  8 10  1  0  0  0  0
  8 11  1  0  0  0  0
 11 12  1  0  0  0  0
 11 13  1  0  0  0  0
 11 14  1  0  0  0  0
 14 15  1  0  0  0  0
 14 16  1  0  0  0  0
 14 17  1  0  0  0  0
 17 18  1  0  0  0  0
 17 19  1  0  0  0  0
 17 20  1  0  0  0  0
M  END
> <VConfSearch Rank>
602

> <Conf_Id>
26

> <Delta U+W>
2.888

> <U+W>
18.226

> <U>
72.042

> <W>
-53.816

> <W(PB)>
-55.689

> <W(SA)>
1.873

> <Valence>
2.428

> <Coulomb>
69.829

> <VdW>
-0.215

> <VdW6>
-4.563

> <VdW12>
4.348

> <Bond>
0.137

> <Angle>
0.936

> <Pdih>
1.356

> <Idih>
0.000

> <Tether>
0.000

$$$$
VeraChem MOL file


 20 19  0  0  0  0  0  0  0  0999 V2000     
   18.4778   19.6256   23.3199 C   0  0  0  0  0  0  0  0  0  0  0  0
   17.5696   19.6712   23.9350 H   0  0  0  0  0  0  0  0  0  0  0  0
   18.8726   20.6464   23.2347 H   0  0  0  0  0  0  0  0  0  0  0  0
   18.1746   19.2773   22.3255 H   0  0  0  0  0  0  0  0  0  0  0  0
   19.5125   18.6746   23.9638 C   0  0  0  0  0  0  0  0  0  0  0  0
   19.1239   17.6466   23.9474 H   0  0  0  0  0  0  0  0  0  0  0  0
   19.6209   18.9410   25.0246 H   0  0  0  0  0  0  0  0  0  0  0  0
   20.9153   18.7115   23.3054 C   0  0  0  0  0  0  0  0  0  0  0  0
   21.3473   19.7181   23.3822 H   0  0  0  0  0  0  0  0  0  0  0  0
   21.5779   18.0547   23.8846 H   0  0  0  0  0  0  0  0  0  0  0  0
   20.9445   18.2346   21.8377 C   0  0  0  0  0  0  0  0  0  0  0  0
   20.2980   17.3613   21.7203 H   0  0  0  0  0  0  0  0  0  0  0  0
   21.9642   17.9387   21.5785 H   0  0  0  0  0  0  0  0  0  0  0  0
   20.5199   19.2858   20.8299 N   0  3  0  0  0  0  0  0  0  0  0  0
   21.1428   20.1058   20.8893 H   0  0  0  0  0  0  0  0  0  0  0  0
   19.5805   19.6379   21.0625 H   0  0  0  0  0  0  0  0  0  0  0  0
   20.5407   18.6992   19.4249 C   0  0  0  0  0  0  0  0  0  0  0  0
   19.8505   17.8542   19.3774 H   0  0  0  0  0  0  0  0  0  0  0  0
   20.2333   19.4665   18.7109 H   0  0  0  0  0  0  0  0  0  0  0  0
   21.5530   18.3629   19.1906 H   0  0  0  0  0  0  0  0  0  0  0  0
  1  2  1  0  0  0  0
  1  3  1  0  0  0  0
  1  4  1  0  0  0  0
  1  5  1  0  0  0  0
  5  6  1  0  0  0  0
  5  7  1  0  0  0  0
  5  8  1  0  0  0  0
  8  9  1  0  0  0  0
  8 10  1  0  0  0  0
  8 11  1  0  0  0  0
 11 12  1  0  0  0  0
 11 13  1  0  0  0  0
 11 14  1  0  0  0  0
 14 15  1  0  0  0  0
 14 16  1  0  0  0  0
 14 17  1  0  0  0  0
 17 18  1  0  0  0  0
 17 19  1  0  0  0  0
 17 20  1  0  0  0  0
M  END
> <VConfSearch Rank>
603

> <Conf_Id>
5

> <Delta U+W>
2.950

> <U+W>
18.289

> <U>
72.042

> <W>
-53.753

> <W(PB)>
-55.644

> <W(SA)>
1.891

> <Valence>
2.428

> <Coulomb>
69.829

> <VdW>
-0.215

> <VdW6>
-4.563

> <VdW12>
4.348

> <Bond>
0.137

> <Angle>
0.936

> <Pdih>
1.356

> <Idih>
0.000

> <Tether>
0.000

$$$$
VeraChem MOL file


 20 19  0  0  0  0  0  0  0  0999 V2000     
   21.5257   20.7411   21.4585 C   0  0  0  0  0  0  0  0  0  0  0  0
   21.5702   21.4954   22.2548 H   0  0  0  0  0  0  0  0  0  0  0  0
   22.1762   19.9046   21.7429 H   0  0  0  0  0  0  0  0  0  0  0  0
   21.9436   21.1907   20.5484 H   0  0  0  0  0  0  0  0  0  0  0  0
   20.0716   20.2757   21.2149 C   0  0  0  0  0  0  0  0  0  0  0  0
   20.0518   19.5253   20.4128 H   0  0  0  0  0  0  0  0  0  0  0  0
   19.4811   21.1268   20.8477 H   0  0  0  0  0  0  0  0  0  0  0  0
   19.3937   19.7106   22.4878 C   0  0  0  0  0  0  0  0  0  0  0  0
   19.3356   20.5016   23.2470 H   0  0  0  0  0  0  0  0  0  0  0  0
   18.3559   19.4376   22.2571 H   0  0  0  0  0  0  0  0  0  0  0  0
   20.1230   18.4933   23.1010 C   0  0  0  0  0  0  0  0  0  0  0  0
   19.5840   18.1538   23.9890 H   0  0  0  0  0  0  0  0  0  0  0  0
   21.1238   18.7996   23.4149 H   0  0  0  0  0  0  0  0  0  0  0  0
   20.2828   17.2992   22.1727 N   0  3  0  0  0  0  0  0  0  0  0  0
   20.8967   16.5971   22.6147 H   0  0  0  0  0  0  0  0  0  0  0  0
   20.7768   17.5836   21.3141 H   0  0  0  0  0  0  0  0  0  0  0  0
   18.9334   16.6726   21.8394 C   0  0  0  0  0  0  0  0  0  0  0  0
   18.3139   17.4043   21.3170 H   0  0  0  0  0  0  0  0  0  0  0  0
   19.0913   15.8021   21.1989 H   0  0  0  0  0  0  0  0  0  0  0  0
   18.4420   16.3644   22.7647 H   0  0  0  0  0  0  0  0  0  0  0  0
  1  2  1  0  0  0  0
  1  3  1  0  0  0  0
  1  4  1  0  0  0  0
  1  5  1  0  0  0  0
  5  6  1  0  0  0  0
  5  7  1  0  0  0  0
  5  8  1  0  0  0  0
  8  9  1  0  0  0  0
  8 10  1  0  0  0  0
  8 11  1  0  0  0  0
 11 12  1  0  0  0  0
 11 13  1  0  0  0  0
 11 14  1  0  0  0  0
 14 15  1  0  0  0  0
 14 16  1  0  0  0  0
 14 17  1  0  0  0  0
 17 18  1  0  0  0  0
 17 19  1  0  0  0  0
 17 20  1  0  0  0  0
M  END
> <VConfSearch Rank>
604

> <Conf_Id>
52

> <Delta U+W>
0.784

> <U+W>
16.122

> <U>
70.777

> <W>
-54.655

> <W(PB)>
-56.491

> <W(SA)>
1.836

> <Valence>
1.529

> <Coulomb>
69.166

> <VdW>
0.082

> <VdW6>
-5.166

> <VdW12>
5.248

> <Bond>
0.171

> <Angle>
0.752

> <Pdih>
0.605

> <Idih>
0.000

> <Tether>
0.000

$$$$
VeraChem MOL file


 20 19  0  0  0  0  0  0  0  0999 V2000     
   21.0158   17.0509   22.1503 C   0  0  0  0  0  0  0  0  0  0  0  0
   21.4663   16.0556   22.0425 H   0  0  0  0  0  0  0  0  0  0  0  0
   21.8111   17.7834   21.9709 H   0  0  0  0  0  0  0  0  0  0  0  0
   20.6700   17.1490   23.1876 H   0  0  0  0  0  0  0  0  0  0  0  0
   19.8493   17.2213   21.1506 C   0  0  0  0  0  0  0  0  0  0  0  0
   19.2016   16.3358   21.2163 H   0  0  0  0  0  0  0  0  0  0  0  0
   20.2433   17.2334   20.1247 H   0  0  0  0  0  0  0  0  0  0  0  0
   18.9770   18.4800   21.3909 C   0  0  0  0  0  0  0  0  0  0  0  0
   18.1344   18.4442   20.6878 H   0  0  0  0  0  0  0  0  0  0  0  0
   18.5295   18.4464   22.3921 H   0  0  0  0  0  0  0  0  0  0  0  0
   19.7113   19.8231   21.1709 C   0  0  0  0  0  0  0  0  0  0  0  0
   18.9739   20.6173   21.0299 H   0  0  0  0  0  0  0  0  0  0  0  0
   20.3087   19.7575   20.2580 H   0  0  0  0  0  0  0  0  0  0  0  0
   20.6299   20.2665   22.2988 N   0  3  0  0  0  0  0  0  0  0  0  0
   21.2093   21.0592   21.9810 H   0  0  0  0  0  0  0  0  0  0  0  0
   21.2980   19.5168   22.5255 H   0  0  0  0  0  0  0  0  0  0  0  0
   19.8331   20.6713   23.5341 C   0  0  0  0  0  0  0  0  0  0  0  0
   19.1445   21.4766   23.2694 H   0  0  0  0  0  0  0  0  0  0  0  0
   19.2719   19.8105   23.9026 H   0  0  0  0  0  0  0  0  0  0  0  0
   20.5228   21.0168   24.3073 H   0  0  0  0  0  0  0  0  0  0  0  0
  1  2  1  0  0  0  0
  1  3  1  0  0  0  0
  1  4  1  0  0  0  0
  1  5  1  0  0  0  0
  5  6  1  0  0  0  0
  5  7  1  0  0  0  0
  5  8  1  0  0  0  0
  8  9  1  0  0  0  0
  8 10  1  0  0  0  0
  8 11  1  0  0  0  0
 11 12  1  0  0  0  0
 11 13  1  0  0  0  0
 11 14  1  0  0  0  0
 14 15  1  0  0  0  0
 14 16  1  0  0  0  0
 14 17  1  0  0  0  0
 17 18  1  0  0  0  0
 17 19  1  0  0  0  0
 17 20  1  0  0  0  0
M  END
> <VConfSearch Rank>
605

> <Conf_Id>
55

> <Delta U+W>
2.745

> <U+W>
18.083

> <U>
72.490

> <W>
-54.407

> <W(PB)>
-56.269

> <W(SA)>
1.861

> <Valence>
2.738

> <Coulomb>
69.795

> <VdW>
-0.043

> <VdW6>
-5.333

> <VdW12>
5.290

> <Bond>
0.182

> <Angle>
1.135

> <Pdih>
1.422

> <Idih>
0.000

> <Tether>
0.000

$$$$
VeraChem MOL file


 20 19  0  0  0  0  0  0  0  0999 V2000     
   21.8997   19.5380   21.6423 C   0  0  0  0  0  0  0  0  0  0  0  0
   22.8926   19.8320   21.2778 H   0  0  0  0  0  0  0  0  0  0  0  0
   21.5272   20.3480   22.2830 H   0  0  0  0  0  0  0  0  0  0  0  0
   22.0361   18.6377   22.2522 H   0  0  0  0  0  0  0  0  0  0  0  0
   20.9476   19.2800   20.4522 C   0  0  0  0  0  0  0  0  0  0  0  0
   21.2846   18.3929   19.8976 H   0  0  0  0  0  0  0  0  0  0  0  0
   21.0278   20.1237   19.7523 H   0  0  0  0  0  0  0  0  0  0  0  0
   19.4574   19.1159   20.8464 C   0  0  0  0  0  0  0  0  0  0  0  0
   19.0952   20.0224   21.3472 H   0  0  0  0  0  0  0  0  0  0  0  0
   18.8721   19.0340   19.9210 H   0  0  0  0  0  0  0  0  0  0  0  0
   19.1528   17.8652   21.7034 C   0  0  0  0  0  0  0  0  0  0  0  0
   19.6891   17.0087   21.2874 H   0  0  0  0  0  0  0  0  0  0  0  0
   18.0834   17.6457   21.6516 H   0  0  0  0  0  0  0  0  0  0  0  0
   19.5127   17.9704   23.1771 N   0  3  0  0  0  0  0  0  0  0  0  0
   20.4968   18.2544   23.2809 H   0  0  0  0  0  0  0  0  0  0  0  0
   19.4520   17.0377   23.6149 H   0  0  0  0  0  0  0  0  0  0  0  0
   18.5905   18.9433   23.9036 C   0  0  0  0  0  0  0  0  0  0  0  0
   18.7071   19.9415   23.4772 H   0  0  0  0  0  0  0  0  0  0  0  0
   17.5565   18.6107   23.7903 H   0  0  0  0  0  0  0  0  0  0  0  0
   18.8560   18.9645   24.9628 H   0  0  0  0  0  0  0  0  0  0  0  0
  1  2  1  0  0  0  0
  1  3  1  0  0  0  0
  1  4  1  0  0  0  0
  1  5  1  0  0  0  0
  5  6  1  0  0  0  0
  5  7  1  0  0  0  0
  5  8  1  0  0  0  0
  8  9  1  0  0  0  0
  8 10  1  0  0  0  0
  8 11  1  0  0  0  0
 11 12  1  0  0  0  0
 11 13  1  0  0  0  0
 11 14  1  0  0  0  0
 14 15  1  0  0  0  0
 14 16  1  0  0  0  0
 14 17  1  0  0  0  0
 17 18  1  0  0  0  0
 17 19  1  0  0  0  0
 17 20  1  0  0  0  0
M  END
> <VConfSearch Rank>
606

> <Conf_Id>
76

> <Delta U+W>
2.799

> <U+W>
18.137

> <U>
72.490

> <W>
-54.353

> <W(PB)>
-56.201

> <W(SA)>
1.848

> <Valence>
2.738

> <Coulomb>
69.795

> <VdW>
-0.043

> <VdW6>
-5.334

> <VdW12>
5.290

> <Bond>
0.182

> <Angle>
1.135

> <Pdih>
1.421

> <Idih>
0.000

> <Tether>
0.000

$$$$
VeraChem MOL file


 20 19  0  0  0  0  0  0  0  0999 V2000     
   21.7680   17.9393   20.9369 C   0  0  0  0  0  0  0  0  0  0  0  0
   22.0125   18.5632   21.8052 H   0  0  0  0  0  0  0  0  0  0  0  0
   22.0493   16.9043   21.1708 H   0  0  0  0  0  0  0  0  0  0  0  0
   22.3943   18.2751   20.1004 H   0  0  0  0  0  0  0  0  0  0  0  0
   20.2701   18.0366   20.5664 C   0  0  0  0  0  0  0  0  0  0  0  0
   20.0931   17.4532   19.6519 H   0  0  0  0  0  0  0  0  0  0  0  0
   20.0100   19.0725   20.3135 H   0  0  0  0  0  0  0  0  0  0  0  0
   19.3333   17.5076   21.6800 C   0  0  0  0  0  0  0  0  0  0  0  0
   18.2921   17.5648   21.3365 H   0  0  0  0  0  0  0  0  0  0  0  0
   19.5403   16.4404   21.8349 H   0  0  0  0  0  0  0  0  0  0  0  0
   19.4553   18.2256   23.0446 C   0  0  0  0  0  0  0  0  0  0  0  0
   20.4858   18.1916   23.4058 H   0  0  0  0  0  0  0  0  0  0  0  0
   18.8361   17.6832   23.7636 H   0  0  0  0  0  0  0  0  0  0  0  0
   18.9821   19.6714   23.0716 N   0  3  0  0  0  0  0  0  0  0  0  0
   18.6052   19.8875   24.0075 H   0  0  0  0  0  0  0  0  0  0  0  0
   18.1846   19.8002   22.4312 H   0  0  0  0  0  0  0  0  0  0  0  0
   20.1140   20.6420   22.7522 C   0  0  0  0  0  0  0  0  0  0  0  0
   19.7351   21.6645   22.8132 H   0  0  0  0  0  0  0  0  0  0  0  0
   20.9181   20.5055   23.4785 H   0  0  0  0  0  0  0  0  0  0  0  0
   20.4907   20.4516   21.7468 H   0  0  0  0  0  0  0  0  0  0  0  0
  1  2  1  0  0  0  0
  1  3  1  0  0  0  0
  1  4  1  0  0  0  0
  1  5  1  0  0  0  0
  5  6  1  0  0  0  0
  5  7  1  0  0  0  0
  5  8  1  0  0  0  0
  8  9  1  0  0  0  0
  8 10  1  0  0  0  0
  8 11  1  0  0  0  0
 11 12  1  0  0  0  0
 11 13  1  0  0  0  0
 11 14  1  0  0  0  0
 14 15  1  0  0  0  0
 14 16  1  0  0  0  0
 14 17  1  0  0  0  0
 17 18  1  0  0  0  0
 17 19  1  0  0  0  0
 17 20  1  0  0  0  0
M  END
> <VConfSearch Rank>
607

> <Conf_Id>
60

> <Delta U+W>
1.788

> <U+W>
17.127

> <U>
72.122

> <W>
-54.995

> <W(PB)>
-56.810

> <W(SA)>
1.815

> <Valence>
3.197

> <Coulomb>
69.115

> <VdW>
-0.190

> <VdW6>
-5.585

> <VdW12>
5.395

> <Bond>
0.177

> <Angle>
1.207

> <Pdih>
1.813

> <Idih>
0.000

> <Tether>
0.000

$$$$
VeraChem MOL file


 20 19  0  0  0  0  0  0  0  0999 V2000     
   21.8012   19.7636   22.9455 C   0  0  0  0  0  0  0  0  0  0  0  0
   21.9871   20.2176   23.9274 H   0  0  0  0  0  0  0  0  0  0  0  0
   22.7569   19.7298   22.4065 H   0  0  0  0  0  0  0  0  0  0  0  0
   21.1236   20.4283   22.3961 H   0  0  0  0  0  0  0  0  0  0  0  0
   21.2054   18.3460   23.1074 C   0  0  0  0  0  0  0  0  0  0  0  0
   20.2626   18.3942   23.6674 H   0  0  0  0  0  0  0  0  0  0  0  0
   21.8875   17.7437   23.7236 H   0  0  0  0  0  0  0  0  0  0  0  0
   20.9877   17.6209   21.7567 C   0  0  0  0  0  0  0  0  0  0  0  0
   21.9623   17.4880   21.2689 H   0  0  0  0  0  0  0  0  0  0  0  0
   20.6055   16.6090   21.9451 H   0  0  0  0  0  0  0  0  0  0  0  0
   20.0451   18.3401   20.7633 C   0  0  0  0  0  0  0  0  0  0  0  0
   20.0741   17.7910   19.8187 H   0  0  0  0  0  0  0  0  0  0  0  0
   20.3979   19.3549   20.5651 H   0  0  0  0  0  0  0  0  0  0  0  0
   18.5827   18.4099   21.1774 N   0  3  0  0  0  0  0  0  0  0  0  0
   18.3168   17.5624   21.7005 H   0  0  0  0  0  0  0  0  0  0  0  0
   17.9900   18.3943   20.3328 H   0  0  0  0  0  0  0  0  0  0  0  0
   18.2818   19.6737   21.9759 C   0  0  0  0  0  0  0  0  0  0  0  0
   18.5341   20.5475   21.3714 H   0  0  0  0  0  0  0  0  0  0  0  0
   17.2182   19.6944   22.2236 H   0  0  0  0  0  0  0  0  0  0  0  0
   18.8706   19.6792   22.8936 H   0  0  0  0  0  0  0  0  0  0  0  0
  1  2  1  0  0  0  0
  1  3  1  0  0  0  0
  1  4  1  0  0  0  0
  1  5  1  0  0  0  0
  5  6  1  0  0  0  0
  5  7  1  0  0  0  0
  5  8  1  0  0  0  0
  8  9  1  0  0  0  0
  8 10  1  0  0  0  0
  8 11  1  0  0  0  0
 11 12  1  0  0  0  0
 11 13  1  0  0  0  0
 11 14  1  0  0  0  0
 14 15  1  0  0  0  0
 14 16  1  0  0  0  0
 14 17  1  0  0  0  0
 17 18  1  0  0  0  0
 17 19  1  0  0  0  0
 17 20  1  0  0  0  0
M  END
> <VConfSearch Rank>
608

> <Conf_Id>
54

> <Delta U+W>
1.880

> <U+W>
17.218

> <U>
72.122

> <W>
-54.903

> <W(PB)>
-56.724

> <W(SA)>
1.821

> <Valence>
3.197

> <Coulomb>
69.115

> <VdW>
-0.190

> <VdW6>
-5.585

> <VdW12>
5.395

> <Bond>
0.177

> <Angle>
1.207

> <Pdih>
1.813

> <Idih>
0.000

> <Tether>
0.000

$$$$
VeraChem MOL file


 20 19  0  0  0  0  0  0  0  0999 V2000     
   19.3869   21.3731   23.8377 C   0  0  0  0  0  0  0  0  0  0  0  0
   18.2954   21.2558   23.8460 H   0  0  0  0  0  0  0  0  0  0  0  0
   19.6927   21.7426   24.8251 H   0  0  0  0  0  0  0  0  0  0  0  0
   19.6422   22.1423   23.0972 H   0  0  0  0  0  0  0  0  0  0  0  0
   20.0876   20.0356   23.5146 C   0  0  0  0  0  0  0  0  0  0  0  0
   19.8411   19.2974   24.2910 H   0  0  0  0  0  0  0  0  0  0  0  0
   21.1773   20.1769   23.5480 H   0  0  0  0  0  0  0  0  0  0  0  0
   19.6756   19.4910   22.1292 C   0  0  0  0  0  0  0  0  0  0  0  0
   18.5874   19.3468   22.0979 H   0  0  0  0  0  0  0  0  0  0  0  0
   19.9253   20.2276   21.3539 H   0  0  0  0  0  0  0  0  0  0  0  0
   20.3785   18.1575   21.8145 C   0  0  0  0  0  0  0  0  0  0  0  0
   20.1198   17.4174   22.5759 H   0  0  0  0  0  0  0  0  0  0  0  0
   21.4619   18.3010   21.8293 H   0  0  0  0  0  0  0  0  0  0  0  0
   20.0038   17.5839   20.4620 N   0  3  0  0  0  0  0  0  0  0  0  0
   20.2264   18.2588   19.7143 H   0  0  0  0  0  0  0  0  0  0  0  0
   18.9838   17.4407   20.4055 H   0  0  0  0  0  0  0  0  0  0  0  0
   20.7404   16.2709   20.2322 C   0  0  0  0  0  0  0  0  0  0  0  0
   20.4636   15.5612   21.0147 H   0  0  0  0  0  0  0  0  0  0  0  0
   20.4615   15.8692   19.2555 H   0  0  0  0  0  0  0  0  0  0  0  0
   21.8170   16.4523   20.2617 H   0  0  0  0  0  0  0  0  0  0  0  0
  1  2  1  0  0  0  0
  1  3  1  0  0  0  0
  1  4  1  0  0  0  0
  1  5  1  0  0  0  0
  5  6  1  0  0  0  0
  5  7  1  0  0  0  0
  5  8  1  0  0  0  0
  8  9  1  0  0  0  0
  8 10  1  0  0  0  0
  8 11  1  0  0  0  0
 11 12  1  0  0  0  0
 11 13  1  0  0  0  0
 11 14  1  0  0  0  0
 14 15  1  0  0  0  0
 14 16  1  0  0  0  0
 14 17  1  0  0  0  0
 17 18  1  0  0  0  0
 17 19  1  0  0  0  0
 17 20  1  0  0  0  0
M  END
> <VConfSearch Rank>
609

> <Conf_Id>
67

> <Delta U+W>
0.000

> <U+W>
15.338

> <U>
69.277

> <W>
-53.939

> <W(PB)>
-55.889

> <W(SA)>
1.950

> <Valence>
0.846

> <Coulomb>
68.557

> <VdW>
-0.127

> <VdW6>
-3.008

> <VdW12>
2.882

> <Bond>
0.088

> <Angle>
0.332

> <Pdih>
0.426

> <Idih>
0.000

> <Tether>
0.000

$$$$
VeraChem MOL file


 20 19  0  0  0  0  0  0  0  0999 V2000     
   17.6756   19.4735   23.6873 C   0  0  0  0  0  0  0  0  0  0  0  0
   17.1218   19.7993   22.7972 H   0  0  0  0  0  0  0  0  0  0  0  0
   16.9618   18.9959   24.3710 H   0  0  0  0  0  0  0  0  0  0  0  0
   18.0742   20.3659   24.1873 H   0  0  0  0  0  0  0  0  0  0  0  0
   18.8086   18.4944   23.3102 C   0  0  0  0  0  0  0  0  0  0  0  0
   18.3762   17.5979   22.8438 H   0  0  0  0  0  0  0  0  0  0  0  0
   19.3207   18.1596   24.2234 H   0  0  0  0  0  0  0  0  0  0  0  0
   19.8296   19.1403   22.3479 C   0  0  0  0  0  0  0  0  0  0  0  0
   19.3139   19.4730   21.4379 H   0  0  0  0  0  0  0  0  0  0  0  0
   20.2642   20.0333   22.8161 H   0  0  0  0  0  0  0  0  0  0  0  0
   20.9579   18.1552   21.9783 C   0  0  0  0  0  0  0  0  0  0  0  0
   20.5382   17.2848   21.4677 H   0  0  0  0  0  0  0  0  0  0  0  0
   21.4406   17.8087   22.8957 H   0  0  0  0  0  0  0  0  0  0  0  0
   22.0437   18.7408   21.0901 N   0  3  0  0  0  0  0  0  0  0  0  0
   22.8325   18.0782   21.0271 H   0  0  0  0  0  0  0  0  0  0  0  0
   22.4436   19.5864   21.5247 H   0  0  0  0  0  0  0  0  0  0  0  0
   21.5129   19.0474   19.6938 C   0  0  0  0  0  0  0  0  0  0  0  0
   20.7237   19.7986   19.7624 H   0  0  0  0  0  0  0  0  0  0  0  0
   22.3292   19.4295   19.0768 H   0  0  0  0  0  0  0  0  0  0  0  0
   21.1152   18.1315   19.2513 H   0  0  0  0  0  0  0  0  0  0  0  0
  1  2  1  0  0  0  0
  1  3  1  0  0  0  0
  1  4  1  0  0  0  0
  1  5  1  0  0  0  0
  5  6  1  0  0  0  0
  5  7  1  0  0  0  0
  5  8  1  0  0  0  0
  8  9  1  0  0  0  0
  8 10  1  0  0  0  0
  8 11  1  0  0  0  0
 11 12  1  0  0  0  0
 11 13  1  0  0  0  0
 11 14  1  0  0  0  0
 14 15  1  0  0  0  0
 14 16  1  0  0  0  0
 14 17  1  0  0  0  0
 17 18  1  0  0  0  0
 17 19  1  0  0  0  0
 17 20  1  0  0  0  0
M  END
> <VConfSearch Rank>
610

> <Conf_Id>
37

> <Delta U+W>
-0.021

> <U+W>
15.318

> <U>
69.657

> <W>
-54.340

> <W(PB)>
-56.238

> <W(SA)>
1.899

> <Valence>
1.137

> <Coulomb>
68.383

> <VdW>
0.138

> <VdW6>
-3.703

> <VdW12>
3.841

> <Bond>
0.125

> <Angle>
0.468

> <Pdih>
0.543

> <Idih>
0.000

> <Tether>
0.000

$$$$
VeraChem MOL file


 20 19  0  0  0  0  0  0  0  0999 V2000     
   20.4931   21.5827   21.0062 C   0  0  0  0  0  0  0  0  0  0  0  0
   20.0799   22.3529   20.3421 H   0  0  0  0  0  0  0  0  0  0  0  0
   20.4338   21.9595   22.0356 H   0  0  0  0  0  0  0  0  0  0  0  0
   21.5528   21.4520   20.7508 H   0  0  0  0  0  0  0  0  0  0  0  0
   19.7166   20.2568   20.8535 C   0  0  0  0  0  0  0  0  0  0  0  0
   19.7648   19.9239   19.8070 H   0  0  0  0  0  0  0  0  0  0  0  0
   18.6549   20.4269   21.0822 H   0  0  0  0  0  0  0  0  0  0  0  0
   20.2770   19.1530   21.7772 C   0  0  0  0  0  0  0  0  0  0  0  0
   21.3363   18.9805   21.5453 H   0  0  0  0  0  0  0  0  0  0  0  0
   20.2269   19.4897   22.8207 H   0  0  0  0  0  0  0  0  0  0  0  0
   19.4961   17.8323   21.6164 C   0  0  0  0  0  0  0  0  0  0  0  0
   19.5282   17.5268   20.5674 H   0  0  0  0  0  0  0  0  0  0  0  0
   18.4495   17.9840   21.8922 H   0  0  0  0  0  0  0  0  0  0  0  0
   20.0344   16.6741   22.4407 N   0  3  0  0  0  0  0  0  0  0  0  0
   21.0325   16.5200   22.2315 H   0  0  0  0  0  0  0  0  0  0  0  0
   19.5666   15.7999   22.1542 H   0  0  0  0  0  0  0  0  0  0  0  0
   19.8225   16.9092   23.9325 C   0  0  0  0  0  0  0  0  0  0  0  0
   18.7569   17.0486   24.1266 H   0  0  0  0  0  0  0  0  0  0  0  0
   20.1867   16.0412   24.4866 H   0  0  0  0  0  0  0  0  0  0  0  0
   20.3748   17.7987   24.2417 H   0  0  0  0  0  0  0  0  0  0  0  0
  1  2  1  0  0  0  0
  1  3  1  0  0  0  0
  1  4  1  0  0  0  0
  1  5  1  0  0  0  0
  5  6  1  0  0  0  0
  5  7  1  0  0  0  0
  5  8  1  0  0  0  0
  8  9  1  0  0  0  0
  8 10  1  0  0  0  0
  8 11  1  0  0  0  0
 11 12  1  0  0  0  0
 11 13  1  0  0  0  0
 11 14  1  0  0  0  0
 14 15  1  0  0  0  0
 14 16  1  0  0  0  0
 14 17  1  0  0  0  0
 17 18  1  0  0  0  0
 17 19  1  0  0  0  0
 17 20  1  0  0  0  0
M  END
> <VConfSearch Rank>
611

> <Conf_Id>
2

> <Delta U+W>
0.069

> <U+W>
15.407

> <U>
69.657

> <W>
-54.250

> <W(PB)>
-56.176

> <W(SA)>
1.926

> <Valence>
1.137

> <Coulomb>
68.383

> <VdW>
0.138

> <VdW6>
-3.703

> <VdW12>
3.841

> <Bond>
0.125

> <Angle>
0.468

> <Pdih>
0.543

> <Idih>
0.000

> <Tether>
0.000

$$$$
VeraChem MOL file


 20 19  0  0  0  0  0  0  0  0999 V2000     
   17.8896   20.2914   21.5853 C   0  0  0  0  0  0  0  0  0  0  0  0
   17.5998   19.2419   21.7212 H   0  0  0  0  0  0  0  0  0  0  0  0
   17.8932   20.7765   22.5702 H   0  0  0  0  0  0  0  0  0  0  0  0
   17.1121   20.7730   20.9782 H   0  0  0  0  0  0  0  0  0  0  0  0
   19.2689   20.4164   20.8982 C   0  0  0  0  0  0  0  0  0  0  0  0
   19.4751   21.4773   20.6986 H   0  0  0  0  0  0  0  0  0  0  0  0
   19.2397   19.9182   19.9188 H   0  0  0  0  0  0  0  0  0  0  0  0
   20.4223   19.8313   21.7464 C   0  0  0  0  0  0  0  0  0  0  0  0
   21.3749   20.0233   21.2349 H   0  0  0  0  0  0  0  0  0  0  0  0
   20.4718   20.3543   22.7108 H   0  0  0  0  0  0  0  0  0  0  0  0
   20.2737   18.3162   21.9861 C   0  0  0  0  0  0  0  0  0  0  0  0
   20.2269   17.7957   21.0263 H   0  0  0  0  0  0  0  0  0  0  0  0
   19.3470   18.1184   22.5300 H   0  0  0  0  0  0  0  0  0  0  0  0
   21.4153   17.7184   22.7848 N   0  3  0  0  0  0  0  0  0  0  0  0
   21.4982   18.1919   23.6975 H   0  0  0  0  0  0  0  0  0  0  0  0
   22.3131   17.8891   22.3064 H   0  0  0  0  0  0  0  0  0  0  0  0
   21.1886   16.2249   22.9771 C   0  0  0  0  0  0  0  0  0  0  0  0
   21.1385   15.7397   21.9999 H   0  0  0  0  0  0  0  0  0  0  0  0
   22.0173   15.8074   23.5533 H   0  0  0  0  0  0  0  0  0  0  0  0
   20.2511   16.0695   23.5154 H   0  0  0  0  0  0  0  0  0  0  0  0
  1  2  1  0  0  0  0
  1  3  1  0  0  0  0
  1  4  1  0  0  0  0
  1  5  1  0  0  0  0
  5  6  1  0  0  0  0
  5  7  1  0  0  0  0
  5  8  1  0  0  0  0
  8  9  1  0  0  0  0
  8 10  1  0  0  0  0
  8 11  1  0  0  0  0
 11 12  1  0  0  0  0
 11 13  1  0  0  0  0
 11 14  1  0  0  0  0
 14 15  1  0  0  0  0
 14 16  1  0  0  0  0
 14 17  1  0  0  0  0
 17 18  1  0  0  0  0
 17 19  1  0  0  0  0
 17 20  1  0  0  0  0
M  END
> <VConfSearch Rank>
612

> <Conf_Id>
34

> <Delta U+W>
0.276

> <U+W>
15.615

> <U>
69.798

> <W>
-54.184

> <W(PB)>
-56.116

> <W(SA)>
1.933

> <Valence>
1.134

> <Coulomb>
68.735

> <VdW>
-0.070

> <VdW6>
-3.565

> <VdW12>
3.494

> <Bond>
0.108

> <Angle>
0.456

> <Pdih>
0.569

> <Idih>
0.000

> <Tether>
0.000

$$$$
VeraChem MOL file


 20 19  0  0  0  0  0  0  0  0999 V2000     
   18.3241   21.2902   21.6937 C   0  0  0  0  0  0  0  0  0  0  0  0
   17.7480   21.4453   22.6152 H   0  0  0  0  0  0  0  0  0  0  0  0
   18.6936   22.2685   21.3600 H   0  0  0  0  0  0  0  0  0  0  0  0
   17.6406   20.9087   20.9239 H   0  0  0  0  0  0  0  0  0  0  0  0
   19.4976   20.3146   21.9283 C   0  0  0  0  0  0  0  0  0  0  0  0
   20.1791   20.7387   22.6793 H   0  0  0  0  0  0  0  0  0  0  0  0
   20.0731   20.2156   20.9980 H   0  0  0  0  0  0  0  0  0  0  0  0
   19.0026   18.9266   22.3992 C   0  0  0  0  0  0  0  0  0  0  0  0
   18.3970   19.0465   23.3073 H   0  0  0  0  0  0  0  0  0  0  0  0
   18.3432   18.4843   21.6407 H   0  0  0  0  0  0  0  0  0  0  0  0
   20.1575   17.9532   22.7093 C   0  0  0  0  0  0  0  0  0  0  0  0
   19.7485   17.0267   23.1203 H   0  0  0  0  0  0  0  0  0  0  0  0
   20.8189   18.3948   23.4589 H   0  0  0  0  0  0  0  0  0  0  0  0
   20.9980   17.5852   21.5009 N   0  3  0  0  0  0  0  0  0  0  0  0
   21.4067   18.4331   21.0807 H   0  0  0  0  0  0  0  0  0  0  0  0
   20.4027   17.1736   20.7659 H   0  0  0  0  0  0  0  0  0  0  0  0
   22.0948   16.6106   21.9082 C   0  0  0  0  0  0  0  0  0  0  0  0
   22.7313   17.0794   22.6618 H   0  0  0  0  0  0  0  0  0  0  0  0
   21.6390   15.7074   22.3195 H   0  0  0  0  0  0  0  0  0  0  0  0
   22.6916   16.3545   21.0300 H   0  0  0  0  0  0  0  0  0  0  0  0
  1  2  1  0  0  0  0
  1  3  1  0  0  0  0
  1  4  1  0  0  0  0
  1  5  1  0  0  0  0
  5  6  1  0  0  0  0
  5  7  1  0  0  0  0
  5  8  1  0  0  0  0
  8  9  1  0  0  0  0
  8 10  1  0  0  0  0
  8 11  1  0  0  0  0
 11 12  1  0  0  0  0
 11 13  1  0  0  0  0
 11 14  1  0  0  0  0
 14 15  1  0  0  0  0
 14 16  1  0  0  0  0
 14 17  1  0  0  0  0
 17 18  1  0  0  0  0
 17 19  1  0  0  0  0
 17 20  1  0  0  0  0
M  END
> <VConfSearch Rank>
613

> <Conf_Id>
50

> <Delta U+W>
0.319

> <U+W>
15.657

> <U>
69.962

> <W>
-54.305

> <W(PB)>
-56.223

> <W(SA)>
1.918

> <Valence>
0.982

> <Coulomb>
69.058

> <VdW>
-0.078

> <VdW6>
-3.548

> <VdW12>
3.471

> <Bond>
0.105

> <Angle>
0.408

> <Pdih>
0.469

> <Idih>
0.000

> <Tether>
0.000

$$$$
VeraChem MOL file


 20 19  0  0  0  0  0  0  0  0999 V2000     
   19.6254   20.8038   19.7357 C   0  0  0  0  0  0  0  0  0  0  0  0
   19.2021   20.5481   18.7557 H   0  0  0  0  0  0  0  0  0  0  0  0
   19.0796   21.6752   20.1203 H   0  0  0  0  0  0  0  0  0  0  0  0
   20.6725   21.0965   19.5835 H   0  0  0  0  0  0  0  0  0  0  0  0
   19.5179   19.6072   20.7056 C   0  0  0  0  0  0  0  0  0  0  0  0
   20.0402   18.7446   20.2701 H   0  0  0  0  0  0  0  0  0  0  0  0
   18.4627   19.3184   20.8121 H   0  0  0  0  0  0  0  0  0  0  0  0
   20.1089   19.9420   22.0955 C   0  0  0  0  0  0  0  0  0  0  0  0
   21.1710   20.2042   22.0002 H   0  0  0  0  0  0  0  0  0  0  0  0
   19.6038   20.8291   22.5002 H   0  0  0  0  0  0  0  0  0  0  0  0
   19.9512   18.7884   23.1064 C   0  0  0  0  0  0  0  0  0  0  0  0
   18.8954   18.5214   23.1972 H   0  0  0  0  0  0  0  0  0  0  0  0
   20.3044   19.1168   24.0872 H   0  0  0  0  0  0  0  0  0  0  0  0
   20.7222   17.5343   22.7393 N   0  3  0  0  0  0  0  0  0  0  0  0
   21.7251   17.7514   22.6346 H   0  0  0  0  0  0  0  0  0  0  0  0
   20.4184   17.1873   21.8175 H   0  0  0  0  0  0  0  0  0  0  0  0
   20.5152   16.4665   23.8051 C   0  0  0  0  0  0  0  0  0  0  0  0
   21.0748   15.5702   23.5286 H   0  0  0  0  0  0  0  0  0  0  0  0
   20.8740   16.8426   24.7656 H   0  0  0  0  0  0  0  0  0  0  0  0
   19.4514   16.2293   23.8752 H   0  0  0  0  0  0  0  0  0  0  0  0
  1  2  1  0  0  0  0
  1  3  1  0  0  0  0
  1  4  1  0  0  0  0
  1  5  1  0  0  0  0
  5  6  1  0  0  0  0
  5  7  1  0  0  0  0
  5  8  1  0  0  0  0
  8  9  1  0  0  0  0
  8 10  1  0  0  0  0
  8 11  1  0  0  0  0
 11 12  1  0  0  0  0
 11 13  1  0  0  0  0
 11 14  1  0  0  0  0
 14 15  1  0  0  0  0
 14 16  1  0  0  0  0
 14 17  1  0  0  0  0
 17 18  1  0  0  0  0
 17 19  1  0  0  0  0
 17 20  1  0  0  0  0
M  END
> <VConfSearch Rank>
614

> <Conf_Id>
35

> <Delta U+W>
0.360

> <U+W>
15.698

> <U>
69.962

> <W>
-54.264

> <W(PB)>
-56.166

> <W(SA)>
1.902

> <Valence>
0.982

> <Coulomb>
69.058

> <VdW>
-0.078

> <VdW6>
-3.548

> <VdW12>
3.471

> <Bond>
0.105

> <Angle>
0.408

> <Pdih>
0.469

> <Idih>
0.000

> <Tether>
0.000

$$$$
VeraChem MOL file


 20 19  0  0  0  0  0  0  0  0999 V2000     
   18.0365   17.5201   20.9669 C   0  0  0  0  0  0  0  0  0  0  0  0
   18.3599   16.8593   21.7810 H   0  0  0  0  0  0  0  0  0  0  0  0
   17.0032   17.2506   20.7129 H   0  0  0  0  0  0  0  0  0  0  0  0
   18.6618   17.3133   20.0886 H   0  0  0  0  0  0  0  0  0  0  0  0
   18.1241   19.0090   21.3743 C   0  0  0  0  0  0  0  0  0  0  0  0
   17.4944   19.1879   22.2572 H   0  0  0  0  0  0  0  0  0  0  0  0
   17.7064   19.6269   20.5670 H   0  0  0  0  0  0  0  0  0  0  0  0
   19.5713   19.4714   21.6637 C   0  0  0  0  0  0  0  0  0  0  0  0
   20.1864   19.3251   20.7665 H   0  0  0  0  0  0  0  0  0  0  0  0
   19.5675   20.5498   21.8701 H   0  0  0  0  0  0  0  0  0  0  0  0
   20.2018   18.7299   22.8620 C   0  0  0  0  0  0  0  0  0  0  0  0
   20.2736   17.6620   22.6427 H   0  0  0  0  0  0  0  0  0  0  0  0
   19.5559   18.8536   23.7350 H   0  0  0  0  0  0  0  0  0  0  0  0
   21.5872   19.2197   23.2508 N   0  3  0  0  0  0  0  0  0  0  0  0
   21.8649   18.7934   24.1488 H   0  0  0  0  0  0  0  0  0  0  0  0
   21.5691   20.2344   23.4347 H   0  0  0  0  0  0  0  0  0  0  0  0
   22.6158   18.8809   22.1772 C   0  0  0  0  0  0  0  0  0  0  0  0
   22.3507   19.3888   21.2478 H   0  0  0  0  0  0  0  0  0  0  0  0
   23.6016   19.2145   22.5084 H   0  0  0  0  0  0  0  0  0  0  0  0
   22.6273   17.8004   22.0186 H   0  0  0  0  0  0  0  0  0  0  0  0
  1  2  1  0  0  0  0
  1  3  1  0  0  0  0
  1  4  1  0  0  0  0
  1  5  1  0  0  0  0
  5  6  1  0  0  0  0
  5  7  1  0  0  0  0
  5  8  1  0  0  0  0
  8  9  1  0  0  0  0
  8 10  1  0  0  0  0
  8 11  1  0  0  0  0
 11 12  1  0  0  0  0
 11 13  1  0  0  0  0
 11 14  1  0  0  0  0
 14 15  1  0  0  0  0
 14 16  1  0  0  0  0
 14 17  1  0  0  0  0
 17 18  1  0  0  0  0
 17 19  1  0  0  0  0
 17 20  1  0  0  0  0
M  END
> <VConfSearch Rank>
615

> <Conf_Id>
33

> <Delta U+W>
0.372

> <U+W>
15.711

> <U>
70.163

> <W>
-54.452

> <W(PB)>
-56.363

> <W(SA)>
1.911

> <Valence>
1.420

> <Coulomb>
68.566

> <VdW>
0.177

> <VdW6>
-4.267

> <VdW12>
4.445

> <Bond>
0.146

> <Angle>
0.581

> <Pdih>
0.693

> <Idih>
0.000

> <Tether>
0.000

$$$$
VeraChem MOL file


 20 19  0  0  0  0  0  0  0  0999 V2000     
   19.0516   16.6114   22.7769 C   0  0  0  0  0  0  0  0  0  0  0  0
   18.2956   15.8556   23.0266 H   0  0  0  0  0  0  0  0  0  0  0  0
   19.4173   16.3917   21.7659 H   0  0  0  0  0  0  0  0  0  0  0  0
   19.8882   16.4919   23.4775 H   0  0  0  0  0  0  0  0  0  0  0  0
   18.4486   18.0321   22.8672 C   0  0  0  0  0  0  0  0  0  0  0  0
   18.0144   18.1745   23.8668 H   0  0  0  0  0  0  0  0  0  0  0  0
   17.6180   18.1267   22.1536 H   0  0  0  0  0  0  0  0  0  0  0  0
   19.4887   19.1468   22.6075 C   0  0  0  0  0  0  0  0  0  0  0  0
   19.0120   20.1237   22.7627 H   0  0  0  0  0  0  0  0  0  0  0  0
   20.2966   19.0701   23.3465 H   0  0  0  0  0  0  0  0  0  0  0  0
   20.0729   19.0911   21.1796 C   0  0  0  0  0  0  0  0  0  0  0  0
   19.2520   19.1289   20.4590 H   0  0  0  0  0  0  0  0  0  0  0  0
   20.6086   18.1501   21.0333 H   0  0  0  0  0  0  0  0  0  0  0  0
   21.0251   20.2266   20.8411 N   0  3  0  0  0  0  0  0  0  0  0  0
   20.5662   21.1367   20.9984 H   0  0  0  0  0  0  0  0  0  0  0  0
   21.2382   20.2092   19.8314 H   0  0  0  0  0  0  0  0  0  0  0  0
   22.3171   20.1239   21.6445 C   0  0  0  0  0  0  0  0  0  0  0  0
   22.9882   20.9328   21.3475 H   0  0  0  0  0  0  0  0  0  0  0  0
   22.0900   20.2091   22.7090 H   0  0  0  0  0  0  0  0  0  0  0  0
   22.7903   19.1605   21.4427 H   0  0  0  0  0  0  0  0  0  0  0  0
  1  2  1  0  0  0  0
  1  3  1  0  0  0  0
  1  4  1  0  0  0  0
  1  5  1  0  0  0  0
  5  6  1  0  0  0  0
  5  7  1  0  0  0  0
  5  8  1  0  0  0  0
  8  9  1  0  0  0  0
  8 10  1  0  0  0  0
  8 11  1  0  0  0  0
 11 12  1  0  0  0  0
 11 13  1  0  0  0  0
 11 14  1  0  0  0  0
 14 15  1  0  0  0  0
 14 16  1  0  0  0  0
 14 17  1  0  0  0  0
 17 18  1  0  0  0  0
 17 19  1  0  0  0  0
 17 20  1  0  0  0  0
M  END
> <VConfSearch Rank>
616

> <Conf_Id>
53

> <Delta U+W>
0.379

> <U+W>
15.717

> <U>
70.163

> <W>
-54.446

> <W(PB)>
-56.322

> <W(SA)>
1.876

> <Valence>
1.420

> <Coulomb>
68.566

> <VdW>
0.177

> <VdW6>
-4.267

> <VdW12>
4.445

> <Bond>
0.146

> <Angle>
0.581

> <Pdih>
0.693

> <Idih>
0.000

> <Tether>
0.000

$$$$
VeraChem MOL file


 20 19  0  0  0  0  0  0  0  0999 V2000     
   18.0735   16.9467   22.1853 C   0  0  0  0  0  0  0  0  0  0  0  0
   17.7791   16.1915   21.4451 H   0  0  0  0  0  0  0  0  0  0  0  0
   18.0544   16.4722   23.1751 H   0  0  0  0  0  0  0  0  0  0  0  0
   17.3169   17.7421   22.1732 H   0  0  0  0  0  0  0  0  0  0  0  0
   19.4755   17.5082   21.8642 C   0  0  0  0  0  0  0  0  0  0  0  0
   19.4662   17.9392   20.8538 H   0  0  0  0  0  0  0  0  0  0  0  0
   20.2039   16.6851   21.8524 H   0  0  0  0  0  0  0  0  0  0  0  0
   19.9135   18.5773   22.8927 C   0  0  0  0  0  0  0  0  0  0  0  0
   19.2040   19.4147   22.8892 H   0  0  0  0  0  0  0  0  0  0  0  0
   19.8761   18.1465   23.9020 H   0  0  0  0  0  0  0  0  0  0  0  0
   21.3450   19.1012   22.6417 C   0  0  0  0  0  0  0  0  0  0  0  0
   22.0452   18.2644   22.7056 H   0  0  0  0  0  0  0  0  0  0  0  0
   21.6114   19.8204   23.4204 H   0  0  0  0  0  0  0  0  0  0  0  0
   21.5657   19.7770   21.2966 N   0  3  0  0  0  0  0  0  0  0  0  0
   21.3225   19.1322   20.5304 H   0  0  0  0  0  0  0  0  0  0  0  0
   22.5711   19.9727   21.1698 H   0  0  0  0  0  0  0  0  0  0  0  0
   20.7680   21.0720   21.1891 C   0  0  0  0  0  0  0  0  0  0  0  0
   21.0598   21.7423   22.0004 H   0  0  0  0  0  0  0  0  0  0  0  0
   20.9802   21.5442   20.2273 H   0  0  0  0  0  0  0  0  0  0  0  0
   19.7019   20.8473   21.2595 H   0  0  0  0  0  0  0  0  0  0  0  0
  1  2  1  0  0  0  0
  1  3  1  0  0  0  0
  1  4  1  0  0  0  0
  1  5  1  0  0  0  0
  5  6  1  0  0  0  0
  5  7  1  0  0  0  0
  5  8  1  0  0  0  0
  8  9  1  0  0  0  0
  8 10  1  0  0  0  0
  8 11  1  0  0  0  0
 11 12  1  0  0  0  0
 11 13  1  0  0  0  0
 11 14  1  0  0  0  0
 14 15  1  0  0  0  0
 14 16  1  0  0  0  0
 14 17  1  0  0  0  0
 17 18  1  0  0  0  0
 17 19  1  0  0  0  0
 17 20  1  0  0  0  0
M  END
> <VConfSearch Rank>
617

> <Conf_Id>
49

> <Delta U+W>
0.268

> <U+W>
15.607

> <U>
70.298

> <W>
-54.692

> <W(PB)>
-56.576

> <W(SA)>
1.885

> <Valence>
1.245

> <Coulomb>
68.933

> <VdW>
0.120

> <VdW6>
-4.430

> <VdW12>
4.550

> <Bond>
0.148

> <Angle>
0.587

> <Pdih>
0.509

> <Idih>
0.000

> <Tether>
0.000

$$$$
VeraChem MOL file


 20 19  0  0  0  0  0  0  0  0999 V2000     
   20.0528   15.9777   21.8473 C   0  0  0  0  0  0  0  0  0  0  0  0
   19.2328   15.7257   22.5323 H   0  0  0  0  0  0  0  0  0  0  0  0
   19.7748   15.6366   20.8416 H   0  0  0  0  0  0  0  0  0  0  0  0
   20.9390   15.4109   22.1609 H   0  0  0  0  0  0  0  0  0  0  0  0
   20.3424   17.4944   21.8610 C   0  0  0  0  0  0  0  0  0  0  0  0
   21.1843   17.7116   21.1886 H   0  0  0  0  0  0  0  0  0  0  0  0
   20.6541   17.7862   22.8725 H   0  0  0  0  0  0  0  0  0  0  0  0
   19.1050   18.3175   21.4331 C   0  0  0  0  0  0  0  0  0  0  0  0
   18.7352   17.9354   20.4724 H   0  0  0  0  0  0  0  0  0  0  0  0
   18.2923   18.1696   22.1564 H   0  0  0  0  0  0  0  0  0  0  0  0
   19.3777   19.8301   21.2697 C   0  0  0  0  0  0  0  0  0  0  0  0
   18.4607   20.3001   20.9053 H   0  0  0  0  0  0  0  0  0  0  0  0
   20.1555   19.9973   20.5204 H   0  0  0  0  0  0  0  0  0  0  0  0
   19.7724   20.5682   22.5397 N   0  3  0  0  0  0  0  0  0  0  0  0
   19.3083   20.1482   23.3589 H   0  0  0  0  0  0  0  0  0  0  0  0
   19.4109   21.5339   22.4982 H   0  0  0  0  0  0  0  0  0  0  0  0
   21.2872   20.6069   22.7142 C   0  0  0  0  0  0  0  0  0  0  0  0
   21.5276   21.1638   23.6225 H   0  0  0  0  0  0  0  0  0  0  0  0
   21.6760   19.5912   22.7946 H   0  0  0  0  0  0  0  0  0  0  0  0
   21.7342   21.1042   21.8508 H   0  0  0  0  0  0  0  0  0  0  0  0
  1  2  1  0  0  0  0
  1  3  1  0  0  0  0
  1  4  1  0  0  0  0
  1  5  1  0  0  0  0
  5  6  1  0  0  0  0
  5  7  1  0  0  0  0
  5  8  1  0  0  0  0
  8  9  1  0  0  0  0
  8 10  1  0  0  0  0
  8 11  1  0  0  0  0
 11 12  1  0  0  0  0
 11 13  1  0  0  0  0
 11 14  1  0  0  0  0
 14 15  1  0  0  0  0
 14 16  1  0  0  0  0
 14 17  1  0  0  0  0
 17 18  1  0  0  0  0
 17 19  1  0  0  0  0
 17 20  1  0  0  0  0
M  END
> <VConfSearch Rank>
618

> <Conf_Id>
65

> <Delta U+W>
1.775

> <U+W>
17.114

> <U>
71.726

> <W>
-54.613

> <W(PB)>
-56.495

> <W(SA)>
1.883

> <Valence>
2.885

> <Coulomb>
68.822

> <VdW>
0.019

> <VdW6>
-4.600

> <VdW12>
4.619

> <Bond>
0.152

> <Angle>
0.862

> <Pdih>
1.871

> <Idih>
0.000

> <Tether>
0.000

$$$$
VeraChem MOL file


 20 19  0  0  0  0  0  0  0  0999 V2000     
   20.4681   17.2627   23.8431 C   0  0  0  0  0  0  0  0  0  0  0  0
   19.4964   17.7713   23.8097 H   0  0  0  0  0  0  0  0  0  0  0  0
   20.2875   16.2246   24.1509 H   0  0  0  0  0  0  0  0  0  0  0  0
   21.0784   17.7405   24.6205 H   0  0  0  0  0  0  0  0  0  0  0  0
   21.1813   17.3054   22.4721 C   0  0  0  0  0  0  0  0  0  0  0  0
   20.5522   16.8213   21.7127 H   0  0  0  0  0  0  0  0  0  0  0  0
   22.1010   16.7064   22.5293 H   0  0  0  0  0  0  0  0  0  0  0  0
   21.5493   18.7418   22.0235 C   0  0  0  0  0  0  0  0  0  0  0  0
   22.2601   19.1729   22.7409 H   0  0  0  0  0  0  0  0  0  0  0  0
   22.0752   18.6998   21.0604 H   0  0  0  0  0  0  0  0  0  0  0  0
   20.3385   19.6903   21.8994 C   0  0  0  0  0  0  0  0  0  0  0  0
   20.6861   20.6855   21.6109 H   0  0  0  0  0  0  0  0  0  0  0  0
   19.8363   19.7742   22.8661 H   0  0  0  0  0  0  0  0  0  0  0  0
   19.3111   19.2473   20.8753 N   0  3  0  0  0  0  0  0  0  0  0  0
   18.9633   18.3057   21.1097 H   0  0  0  0  0  0  0  0  0  0  0  0
   19.7511   19.1557   19.9469 H   0  0  0  0  0  0  0  0  0  0  0  0
   18.1615   20.2446   20.8267 C   0  0  0  0  0  0  0  0  0  0  0  0
   18.5488   21.2265   20.5464 H   0  0  0  0  0  0  0  0  0  0  0  0
   17.4296   19.9127   20.0870 H   0  0  0  0  0  0  0  0  0  0  0  0
   17.6913   20.3000   21.8109 H   0  0  0  0  0  0  0  0  0  0  0  0
  1  2  1  0  0  0  0
  1  3  1  0  0  0  0
  1  4  1  0  0  0  0
  1  5  1  0  0  0  0
  5  6  1  0  0  0  0
  5  7  1  0  0  0  0
  5  8  1  0  0  0  0
  8  9  1  0  0  0  0
  8 10  1  0  0  0  0
  8 11  1  0  0  0  0
 11 12  1  0  0  0  0
 11 13  1  0  0  0  0
 11 14  1  0  0  0  0
 14 15  1  0  0  0  0
 14 16  1  0  0  0  0
 14 17  1  0  0  0  0
 17 18  1  0  0  0  0
 17 19  1  0  0  0  0
 17 20  1  0  0  0  0
M  END
> <VConfSearch Rank>
619

> <Conf_Id>
23

> <Delta U+W>
0.896

> <U+W>
16.234

> <U>
70.374

> <W>
-54.140

> <W(PB)>
-56.046

> <W(SA)>
1.907

> <Valence>
1.257

> <Coulomb>
69.240

> <VdW>
-0.123

> <VdW6>
-4.336

> <VdW12>
4.213

> <Bond>
0.128

> <Angle>
0.603

> <Pdih>
0.526

> <Idih>
0.000

> <Tether>
0.000

$$$$
VeraChem MOL file


 20 19  0  0  0  0  0  0  0  0999 V2000     
   20.4326   17.7796   19.8940 C   0  0  0  0  0  0  0  0  0  0  0  0
   19.6304   18.0694   19.2030 H   0  0  0  0  0  0  0  0  0  0  0  0
   21.1485   17.1629   19.3353 H   0  0  0  0  0  0  0  0  0  0  0  0
   19.9968   17.1500   20.6799 H   0  0  0  0  0  0  0  0  0  0  0  0
   21.1342   19.0244   20.4843 C   0  0  0  0  0  0  0  0  0  0  0  0
   21.6332   19.5716   19.6722 H   0  0  0  0  0  0  0  0  0  0  0  0
   21.9318   18.7086   21.1705 H   0  0  0  0  0  0  0  0  0  0  0  0
   20.1581   19.9861   21.2070 C   0  0  0  0  0  0  0  0  0  0  0  0
   20.7128   20.8585   21.5771 H   0  0  0  0  0  0  0  0  0  0  0  0
   19.4295   20.3725   20.4821 H   0  0  0  0  0  0  0  0  0  0  0  0
   19.3910   19.3382   22.3787 C   0  0  0  0  0  0  0  0  0  0  0  0
   18.7994   18.4966   22.0106 H   0  0  0  0  0  0  0  0  0  0  0  0
   18.7050   20.0707   22.8116 H   0  0  0  0  0  0  0  0  0  0  0  0
   20.2844   18.8297   23.4940 N   0  3  0  0  0  0  0  0  0  0  0  0
   20.8610   19.5995   23.8667 H   0  0  0  0  0  0  0  0  0  0  0  0
   20.9534   18.1392   23.1225 H   0  0  0  0  0  0  0  0  0  0  0  0
   19.4375   18.2122   24.5985 C   0  0  0  0  0  0  0  0  0  0  0  0
   18.8617   17.3800   24.1878 H   0  0  0  0  0  0  0  0  0  0  0  0
   20.0930   17.8497   25.3933 H   0  0  0  0  0  0  0  0  0  0  0  0
   18.7592   18.9695   24.9976 H   0  0  0  0  0  0  0  0  0  0  0  0
  1  2  1  0  0  0  0
  1  3  1  0  0  0  0
  1  4  1  0  0  0  0
  1  5  1  0  0  0  0
  5  6  1  0  0  0  0
  5  7  1  0  0  0  0
  5  8  1  0  0  0  0
  8  9  1  0  0  0  0
  8 10  1  0  0  0  0
  8 11  1  0  0  0  0
 11 12  1  0  0  0  0
 11 13  1  0  0  0  0
 11 14  1  0  0  0  0
 14 15  1  0  0  0  0
 14 16  1  0  0  0  0
 14 17  1  0  0  0  0
 17 18  1  0  0  0  0
 17 19  1  0  0  0  0
 17 20  1  0  0  0  0
M  END
> <VConfSearch Rank>
620

> <Conf_Id>
24

> <Delta U+W>
0.792

> <U+W>
16.130

> <U>
70.374

> <W>
-54.243

> <W(PB)>
-56.130

> <W(SA)>
1.887

> <Valence>
1.257

> <Coulomb>
69.240

> <VdW>
-0.123

> <VdW6>
-4.336

> <VdW12>
4.213

> <Bond>
0.128

> <Angle>
0.603

> <Pdih>
0.526

> <Idih>
0.000

> <Tether>
0.000

$$$$
VeraChem MOL file


 20 19  0  0  0  0  0  0  0  0999 V2000     
   19.5069   20.1838   20.4424 C   0  0  0  0  0  0  0  0  0  0  0  0
   19.1876   21.0837   19.9007 H   0  0  0  0  0  0  0  0  0  0  0  0
   20.3154   20.4862   21.1183 H   0  0  0  0  0  0  0  0  0  0  0  0
   19.9059   19.4761   19.7041 H   0  0  0  0  0  0  0  0  0  0  0  0
   18.3159   19.5756   21.2177 C   0  0  0  0  0  0  0  0  0  0  0  0
   17.4598   19.4892   20.5338 H   0  0  0  0  0  0  0  0  0  0  0  0
   18.0025   20.2701   22.0098 H   0  0  0  0  0  0  0  0  0  0  0  0
   18.5944   18.1790   21.8300 C   0  0  0  0  0  0  0  0  0  0  0  0
   17.6646   17.8208   22.2914 H   0  0  0  0  0  0  0  0  0  0  0  0
   18.8360   17.4563   21.0394 H   0  0  0  0  0  0  0  0  0  0  0  0
   19.6941   18.1645   22.9130 C   0  0  0  0  0  0  0  0  0  0  0  0
   19.5716   17.2739   23.5345 H   0  0  0  0  0  0  0  0  0  0  0  0
   19.5915   19.0427   23.5553 H   0  0  0  0  0  0  0  0  0  0  0  0
   21.1091   18.1310   22.3674 N   0  3  0  0  0  0  0  0  0  0  0  0
   21.2597   18.9254   21.7294 H   0  0  0  0  0  0  0  0  0  0  0  0
   21.2470   17.2865   21.7913 H   0  0  0  0  0  0  0  0  0  0  0  0
   22.1107   18.1657   23.5137 C   0  0  0  0  0  0  0  0  0  0  0  0
   21.9674   19.0828   24.0892 H   0  0  0  0  0  0  0  0  0  0  0  0
   21.9514   17.2974   24.1567 H   0  0  0  0  0  0  0  0  0  0  0  0
   23.1237   18.1410   23.1062 H   0  0  0  0  0  0  0  0  0  0  0  0
  1  2  1  0  0  0  0
  1  3  1  0  0  0  0
  1  4  1  0  0  0  0
  1  5  1  0  0  0  0
  5  6  1  0  0  0  0
  5  7  1  0  0  0  0
  5  8  1  0  0  0  0
  8  9  1  0  0  0  0
  8 10  1  0  0  0  0
  8 11  1  0  0  0  0
 11 12  1  0  0  0  0
 11 13  1  0  0  0  0
 11 14  1  0  0  0  0
 14 15  1  0  0  0  0
 14 16  1  0  0  0  0
 14 17  1  0  0  0  0
 17 18  1  0  0  0  0
 17 19  1  0  0  0  0
 17 20  1  0  0  0  0
M  END
> <VConfSearch Rank>
621

> <Conf_Id>
26

> <Delta U+W>
2.888

> <U+W>
18.226

> <U>
72.042

> <W>
-53.816

> <W(PB)>
-55.689

> <W(SA)>
1.873

> <Valence>
2.428

> <Coulomb>
69.829

> <VdW>
-0.215

> <VdW6>
-4.563

> <VdW12>
4.348

> <Bond>
0.137

> <Angle>
0.936

> <Pdih>
1.356

> <Idih>
0.000

> <Tether>
0.000

$$$$
VeraChem MOL file


 20 19  0  0  0  0  0  0  0  0999 V2000     
   22.0373   17.9360   22.2603 C   0  0  0  0  0  0  0  0  0  0  0  0
   22.8888   17.2562   22.1261 H   0  0  0  0  0  0  0  0  0  0  0  0
   22.2750   18.6042   23.0983 H   0  0  0  0  0  0  0  0  0  0  0  0
   21.1734   17.3181   22.5321 H   0  0  0  0  0  0  0  0  0  0  0  0
   21.7795   18.7331   20.9613 C   0  0  0  0  0  0  0  0  0  0  0  0
   21.4527   18.0449   20.1689 H   0  0  0  0  0  0  0  0  0  0  0  0
   22.7318   19.1609   20.6176 H   0  0  0  0  0  0  0  0  0  0  0  0
   20.7516   19.8841   21.1076 C   0  0  0  0  0  0  0  0  0  0  0  0
   21.1032   20.6192   21.8437 H   0  0  0  0  0  0  0  0  0  0  0  0
   20.7030   20.4177   20.1491 H   0  0  0  0  0  0  0  0  0  0  0  0
   19.3224   19.4225   21.4632 C   0  0  0  0  0  0  0  0  0  0  0  0
   19.0727   18.5231   20.8948 H   0  0  0  0  0  0  0  0  0  0  0  0
   18.6140   20.2069   21.1849 H   0  0  0  0  0  0  0  0  0  0  0  0
   19.1063   19.1349   22.9368 N   0  3  0  0  0  0  0  0  0  0  0  0
   19.2932   19.9823   23.4945 H   0  0  0  0  0  0  0  0  0  0  0  0
   19.7888   18.4362   23.2633 H   0  0  0  0  0  0  0  0  0  0  0  0
   17.6835   18.6451   23.1691 C   0  0  0  0  0  0  0  0  0  0  0  0
   17.5195   17.7305   22.5952 H   0  0  0  0  0  0  0  0  0  0  0  0
   17.5427   18.4424   24.2331 H   0  0  0  0  0  0  0  0  0  0  0  0
   16.9805   19.4156   22.8451 H   0  0  0  0  0  0  0  0  0  0  0  0
  1  2  1  0  0  0  0
  1  3  1  0  0  0  0
  1  4  1  0  0  0  0
  1  5  1  0  0  0  0
  5  6  1  0  0  0  0
  5  7  1  0  0  0  0
  5  8  1  0  0  0  0
  8  9  1  0  0  0  0
  8 10  1  0  0  0  0
  8 11  1  0  0  0  0
 11 12  1  0  0  0  0
 11 13  1  0  0  0  0
 11 14  1  0  0  0  0
 14 15  1  0  0  0  0
 14 16  1  0  0  0  0
 14 17  1  0  0  0  0
 17 18  1  0  0  0  0
 17 19  1  0  0  0  0
 17 20  1  0  0  0  0
M  END
> <VConfSearch Rank>
622

> <Conf_Id>
5

> <Delta U+W>
2.950

> <U+W>
18.289

> <U>
72.042

> <W>
-53.753

> <W(PB)>
-55.644

> <W(SA)>
1.891

> <Valence>
2.428

> <Coulomb>
69.829

> <VdW>
-0.215

> <VdW6>
-4.563

> <VdW12>
4.348

> <Bond>
0.137

> <Angle>
0.936

> <Pdih>
1.356

> <Idih>
0.000

> <Tether>
0.000

$$$$
VeraChem MOL file


 20 19  0  0  0  0  0  0  0  0999 V2000     
   18.0415   19.2920   23.2953 C   0  0  0  0  0  0  0  0  0  0  0  0
   17.4322   20.1012   22.8723 H   0  0  0  0  0  0  0  0  0  0  0  0
   17.8619   18.3844   22.7055 H   0  0  0  0  0  0  0  0  0  0  0  0
   17.6820   19.1008   24.3147 H   0  0  0  0  0  0  0  0  0  0  0  0
   19.5393   19.6748   23.3115 C   0  0  0  0  0  0  0  0  0  0  0  0
   20.1276   18.8528   23.7417 H   0  0  0  0  0  0  0  0  0  0  0  0
   19.6814   20.5327   23.9836 H   0  0  0  0  0  0  0  0  0  0  0  0
   20.0870   20.0433   21.9102 C   0  0  0  0  0  0  0  0  0  0  0  0
   19.5527   20.9258   21.5346 H   0  0  0  0  0  0  0  0  0  0  0  0
   21.1393   20.3428   21.9977 H   0  0  0  0  0  0  0  0  0  0  0  0
   19.9584   18.9099   20.8669 C   0  0  0  0  0  0  0  0  0  0  0  0
   20.3672   19.2456   19.9105 H   0  0  0  0  0  0  0  0  0  0  0  0
   18.9000   18.6837   20.7163 H   0  0  0  0  0  0  0  0  0  0  0  0
   20.6539   17.6085   21.2355 N   0  3  0  0  0  0  0  0  0  0  0  0
   20.3989   16.8753   20.5554 H   0  0  0  0  0  0  0  0  0  0  0  0
   20.3034   17.2658   22.1420 H   0  0  0  0  0  0  0  0  0  0  0  0
   22.1684   17.7806   21.2699 C   0  0  0  0  0  0  0  0  0  0  0  0
   22.4319   18.5132   22.0354 H   0  0  0  0  0  0  0  0  0  0  0  0
   22.6325   16.8206   21.5060 H   0  0  0  0  0  0  0  0  0  0  0  0
   22.5131   18.1256   20.2928 H   0  0  0  0  0  0  0  0  0  0  0  0
  1  2  1  0  0  0  0
  1  3  1  0  0  0  0
  1  4  1  0  0  0  0
  1  5  1  0  0  0  0
  5  6  1  0  0  0  0
  5  7  1  0  0  0  0
  5  8  1  0  0  0  0
  8  9  1  0  0  0  0
  8 10  1  0  0  0  0
  8 11  1  0  0  0  0
 11 12  1  0  0  0  0
 11 13  1  0  0  0  0
 11 14  1  0  0  0  0
 14 15  1  0  0  0  0
 14 16  1  0  0  0  0
 14 17  1  0  0  0  0
 17 18  1  0  0  0  0
 17 19  1  0  0  0  0
 17 20  1  0  0  0  0
M  END
> <VConfSearch Rank>
623

> <Conf_Id>
52

> <Delta U+W>
0.784

> <U+W>
16.122

> <U>
70.777

> <W>
-54.655

> <W(PB)>
-56.491

> <W(SA)>
1.836

> <Valence>
1.529

> <Coulomb>
69.166

> <VdW>
0.082

> <VdW6>
-5.166

> <VdW12>
5.248

> <Bond>
0.171

> <Angle>
0.752

> <Pdih>
0.605

> <Idih>
0.000

> <Tether>
0.000

$$$$
VeraChem MOL file


 20 19  0  0  0  0  0  0  0  0999 V2000     
   20.4136   19.6626   20.1005 C   0  0  0  0  0  0  0  0  0  0  0  0
   20.4678   20.1662   19.1266 H   0  0  0  0  0  0  0  0  0  0  0  0
   21.1718   20.1249   20.7427 H   0  0  0  0  0  0  0  0  0  0  0  0
   20.6754   18.6078   19.9447 H   0  0  0  0  0  0  0  0  0  0  0  0
   18.9959   19.8071   20.6994 C   0  0  0  0  0  0  0  0  0  0  0  0
   18.2617   19.5448   19.9247 H   0  0  0  0  0  0  0  0  0  0  0  0
   18.8086   20.8607   20.9502 H   0  0  0  0  0  0  0  0  0  0  0  0
   18.7302   18.9183   21.9413 C   0  0  0  0  0  0  0  0  0  0  0  0
   17.6738   19.0339   22.2175 H   0  0  0  0  0  0  0  0  0  0  0  0
   18.8554   17.8591   21.6840 H   0  0  0  0  0  0  0  0  0  0  0  0
   19.5790   19.2778   23.1830 C   0  0  0  0  0  0  0  0  0  0  0  0
   19.1104   18.8529   24.0742 H   0  0  0  0  0  0  0  0  0  0  0  0
   19.5954   20.3642   23.3013 H   0  0  0  0  0  0  0  0  0  0  0  0
   21.0188   18.7887   23.1634 N   0  3  0  0  0  0  0  0  0  0  0  0
   21.5457   19.2350   23.9304 H   0  0  0  0  0  0  0  0  0  0  0  0
   21.4850   19.0979   22.2992 H   0  0  0  0  0  0  0  0  0  0  0  0
   21.0894   17.2719   23.3020 C   0  0  0  0  0  0  0  0  0  0  0  0
   20.6019   16.9731   24.2324 H   0  0  0  0  0  0  0  0  0  0  0  0
   20.5850   16.8057   22.4535 H   0  0  0  0  0  0  0  0  0  0  0  0
   22.1368   16.9628   23.3201 H   0  0  0  0  0  0  0  0  0  0  0  0
  1  2  1  0  0  0  0
  1  3  1  0  0  0  0
  1  4  1  0  0  0  0
  1  5  1  0  0  0  0
  5  6  1  0  0  0  0
  5  7  1  0  0  0  0
  5  8  1  0  0  0  0
  8  9  1  0  0  0  0
  8 10  1  0  0  0  0
  8 11  1  0  0  0  0
 11 12  1  0  0  0  0
 11 13  1  0  0  0  0
 11 14  1  0  0  0  0
 14 15  1  0  0  0  0
 14 16  1  0  0  0  0
 14 17  1  0  0  0  0
 17 18  1  0  0  0  0
 17 19  1  0  0  0  0
 17 20  1  0  0  0  0
M  END
> <VConfSearch Rank>
624

> <Conf_Id>
55

> <Delta U+W>
2.745

> <U+W>
18.083

> <U>
72.490

> <W>
-54.407

> <W(PB)>
-56.269

> <W(SA)>
1.861

> <Valence>
2.738

> <Coulomb>
69.795

> <VdW>
-0.043

> <VdW6>
-5.333

> <VdW12>
5.290

> <Bond>
0.182

> <Angle>
1.135

> <Pdih>
1.422

> <Idih>
0.000

> <Tether>
0.000

$$$$
VeraChem MOL file


 20 19  0  0  0  0  0  0  0  0999 V2000     
   19.5151   17.2095   20.7574 C   0  0  0  0  0  0  0  0  0  0  0  0
   19.3138   16.2611   20.2424 H   0  0  0  0  0  0  0  0  0  0  0  0
   18.8351   17.9646   20.3417 H   0  0  0  0  0  0  0  0  0  0  0  0
   20.5468   17.4912   20.5178 H   0  0  0  0  0  0  0  0  0  0  0  0
   19.3092   17.0455   22.2806 C   0  0  0  0  0  0  0  0  0  0  0  0
   20.0779   16.3719   22.6848 H   0  0  0  0  0  0  0  0  0  0  0  0
   18.3464   16.5433   22.4502 H   0  0  0  0  0  0  0  0  0  0  0  0
   19.3094   18.3765   23.0751 C   0  0  0  0  0  0  0  0  0  0  0  0
   18.5048   19.0317   22.7185 H   0  0  0  0  0  0  0  0  0  0  0  0
   19.0623   18.1445   24.1195 H   0  0  0  0  0  0  0  0  0  0  0  0
   20.6612   19.1277   23.0713 C   0  0  0  0  0  0  0  0  0  0  0  0
   21.4684   18.4099   23.2380 H   0  0  0  0  0  0  0  0  0  0  0  0
   20.6768   19.8440   23.8966 H   0  0  0  0  0  0  0  0  0  0  0  0
   20.9818   19.9047   21.8040 N   0  3  0  0  0  0  0  0  0  0  0  0
   20.9029   19.2889   20.9828 H   0  0  0  0  0  0  0  0  0  0  0  0
   21.9689   20.2054   21.8237 H   0  0  0  0  0  0  0  0  0  0  0  0
   20.0739   21.1206   21.6563 C   0  0  0  0  0  0  0  0  0  0  0  0
   19.0366   20.7914   21.5718 H   0  0  0  0  0  0  0  0  0  0  0  0
   20.1884   21.7630   22.5320 H   0  0  0  0  0  0  0  0  0  0  0  0
   20.3574   21.6715   20.7568 H   0  0  0  0  0  0  0  0  0  0  0  0
  1  2  1  0  0  0  0
  1  3  1  0  0  0  0
  1  4  1  0  0  0  0
  1  5  1  0  0  0  0
  5  6  1  0  0  0  0
  5  7  1  0  0  0  0
  5  8  1  0  0  0  0
  8  9  1  0  0  0  0
  8 10  1  0  0  0  0
  8 11  1  0  0  0  0
 11 12  1  0  0  0  0
 11 13  1  0  0  0  0
 11 14  1  0  0  0  0
 14 15  1  0  0  0  0
 14 16  1  0  0  0  0
 14 17  1  0  0  0  0
 17 18  1  0  0  0  0
 17 19  1  0  0  0  0
 17 20  1  0  0  0  0
M  END
> <VConfSearch Rank>
625

> <Conf_Id>
76

> <Delta U+W>
2.799

> <U+W>
18.137

> <U>
72.490

> <W>
-54.353

> <W(PB)>
-56.201

> <W(SA)>
1.848

> <Valence>
2.738

> <Coulomb>
69.795

> <VdW>
-0.043

> <VdW6>
-5.334

> <VdW12>
5.290

> <Bond>
0.182

> <Angle>
1.135

> <Pdih>
1.421

> <Idih>
0.000

> <Tether>
0.000

$$$$
VeraChem MOL file


 20 19  0  0  0  0  0  0  0  0999 V2000     
   22.1034   19.4043   21.8293 C   0  0  0  0  0  0  0  0  0  0  0  0
   21.9762   18.4465   22.3483 H   0  0  0  0  0  0  0  0  0  0  0  0
   22.6038   19.2094   20.8719 H   0  0  0  0  0  0  0  0  0  0  0  0
   22.7749   20.0242   22.4373 H   0  0  0  0  0  0  0  0  0  0  0  0
   20.7510   20.1214   21.6123 C   0  0  0  0  0  0  0  0  0  0  0  0
   20.9401   21.1032   21.1561 H   0  0  0  0  0  0  0  0  0  0  0  0
   20.2742   20.3294   22.5788 H   0  0  0  0  0  0  0  0  0  0  0  0
   19.7833   19.3295   20.6991 C   0  0  0  0  0  0  0  0  0  0  0  0
   18.8642   19.9118   20.5519 H   0  0  0  0  0  0  0  0  0  0  0  0
   20.2396   19.2321   19.7052 H   0  0  0  0  0  0  0  0  0  0  0  0
   19.4100   17.9141   21.1992 C   0  0  0  0  0  0  0  0  0  0  0  0
   20.3088   17.3151   21.3630 H   0  0  0  0  0  0  0  0  0  0  0  0
   18.8272   17.4258   20.4139 H   0  0  0  0  0  0  0  0  0  0  0  0
   18.5608   17.8651   22.4607 N   0  3  0  0  0  0  0  0  0  0  0  0
   17.9495   17.0345   22.4259 H   0  0  0  0  0  0  0  0  0  0  0  0
   17.9133   18.6667   22.4891 H   0  0  0  0  0  0  0  0  0  0  0  0
   19.4211   17.8003   23.7181 C   0  0  0  0  0  0  0  0  0  0  0  0
   18.7701   17.7362   24.5928 H   0  0  0  0  0  0  0  0  0  0  0  0
   20.0586   16.9150   23.6703 H   0  0  0  0  0  0  0  0  0  0  0  0
   20.0398   18.6954   23.7883 H   0  0  0  0  0  0  0  0  0  0  0  0
  1  2  1  0  0  0  0
  1  3  1  0  0  0  0
  1  4  1  0  0  0  0
  1  5  1  0  0  0  0
  5  6  1  0  0  0  0
  5  7  1  0  0  0  0
  5  8  1  0  0  0  0
  8  9  1  0  0  0  0
  8 10  1  0  0  0  0
  8 11  1  0  0  0  0
 11 12  1  0  0  0  0
 11 13  1  0  0  0  0
 11 14  1  0  0  0  0
 14 15  1  0  0  0  0
 14 16  1  0  0  0  0
 14 17  1  0  0  0  0
 17 18  1  0  0  0  0
 17 19  1  0  0  0  0
 17 20  1  0  0  0  0
M  END
> <VConfSearch Rank>
626

> <Conf_Id>
60

> <Delta U+W>
1.788

> <U+W>
17.127

> <U>
72.122

> <W>
-54.995

> <W(PB)>
-56.810

> <W(SA)>
1.815

> <Valence>
3.197

> <Coulomb>
69.115

> <VdW>
-0.190

> <VdW6>
-5.585

> <VdW12>
5.395

> <Bond>
0.177

> <Angle>
1.207

> <Pdih>
1.813

> <Idih>
0.000

> <Tether>
0.000

$$$$
VeraChem MOL file


 20 19  0  0  0  0  0  0  0  0999 V2000     
   19.9597   20.3842   23.4173 C   0  0  0  0  0  0  0  0  0  0  0  0
   20.3108   21.4223   23.4805 H   0  0  0  0  0  0  0  0  0  0  0  0
   19.2635   20.2154   24.2490 H   0  0  0  0  0  0  0  0  0  0  0  0
   20.8289   19.7311   23.5628 H   0  0  0  0  0  0  0  0  0  0  0  0
   19.2717   20.1260   22.0569 C   0  0  0  0  0  0  0  0  0  0  0  0
   19.9734   20.3207   21.2357 H   0  0  0  0  0  0  0  0  0  0  0  0
   18.4557   20.8512   21.9298 H   0  0  0  0  0  0  0  0  0  0  0  0
   18.6879   18.6973   21.9330 C   0  0  0  0  0  0  0  0  0  0  0  0
   17.9101   18.5687   22.6973 H   0  0  0  0  0  0  0  0  0  0  0  0
   18.1784   18.5956   20.9658 H   0  0  0  0  0  0  0  0  0  0  0  0
   19.7113   17.5479   22.0882 C   0  0  0  0  0  0  0  0  0  0  0  0
   19.1564   16.6064   22.1005 H   0  0  0  0  0  0  0  0  0  0  0  0
   20.2404   17.6306   23.0405 H   0  0  0  0  0  0  0  0  0  0  0  0
   20.7400   17.4283   20.9736 N   0  3  0  0  0  0  0  0  0  0  0  0
   20.3241   17.7005   20.0705 H   0  0  0  0  0  0  0  0  0  0  0  0
   20.9984   16.4363   20.8556 H   0  0  0  0  0  0  0  0  0  0  0  0
   21.9956   18.2396   21.2746 C   0  0  0  0  0  0  0  0  0  0  0  0
   22.4302   17.8911   22.2139 H   0  0  0  0  0  0  0  0  0  0  0  0
   22.7141   18.0989   20.4641 H   0  0  0  0  0  0  0  0  0  0  0  0
   21.7408   19.2966   21.3573 H   0  0  0  0  0  0  0  0  0  0  0  0
  1  2  1  0  0  0  0
  1  3  1  0  0  0  0
  1  4  1  0  0  0  0
  1  5  1  0  0  0  0
  5  6  1  0  0  0  0
  5  7  1  0  0  0  0
  5  8  1  0  0  0  0
  8  9  1  0  0  0  0
  8 10  1  0  0  0  0
  8 11  1  0  0  0  0
 11 12  1  0  0  0  0
 11 13  1  0  0  0  0
 11 14  1  0  0  0  0
 14 15  1  0  0  0  0
 14 16  1  0  0  0  0
 14 17  1  0  0  0  0
 17 18  1  0  0  0  0
 17 19  1  0  0  0  0
 17 20  1  0  0  0  0
M  END
> <VConfSearch Rank>
627

> <Conf_Id>
54

> <Delta U+W>
1.880

> <U+W>
17.218

> <U>
72.122

> <W>
-54.903

> <W(PB)>
-56.724

> <W(SA)>
1.821

> <Valence>
3.197

> <Coulomb>
69.115

> <VdW>
-0.190

> <VdW6>
-5.585

> <VdW12>
5.395

> <Bond>
0.177

> <Angle>
1.207

> <Pdih>
1.813

> <Idih>
0.000

> <Tether>
0.000

$$$$
VeraChem MOL file


 20 19  0  0  0  0  0  0  0  0999 V2000     
   17.5016   18.2435   23.8746 C   0  0  0  0  0  0  0  0  0  0  0  0
   17.9660   17.4731   24.5039 H   0  0  0  0  0  0  0  0  0  0  0  0
   16.8319   18.8376   24.5098 H   0  0  0  0  0  0  0  0  0  0  0  0
   16.8872   17.7404   23.1165 H   0  0  0  0  0  0  0  0  0  0  0  0
   18.5703   19.1432   23.2169 C   0  0  0  0  0  0  0  0  0  0  0  0
   19.1451   19.6589   23.9992 H   0  0  0  0  0  0  0  0  0  0  0  0
   18.0748   19.9240   22.6226 H   0  0  0  0  0  0  0  0  0  0  0  0
   19.5282   18.3329   22.3160 C   0  0  0  0  0  0  0  0  0  0  0  0
   20.0255   17.5554   22.9111 H   0  0  0  0  0  0  0  0  0  0  0  0
   18.9536   17.8207   21.5328 H   0  0  0  0  0  0  0  0  0  0  0  0
   20.5907   19.2370   21.6639 C   0  0  0  0  0  0  0  0  0  0  0  0
   21.1748   19.7366   22.4409 H   0  0  0  0  0  0  0  0  0  0  0  0
   20.0995   20.0026   21.0580 H   0  0  0  0  0  0  0  0  0  0  0  0
   21.5552   18.4836   20.7690 N   0  3  0  0  0  0  0  0  0  0  0  0
   21.0394   17.9903   20.0242 H   0  0  0  0  0  0  0  0  0  0  0  0
   22.0350   17.7440   21.3046 H   0  0  0  0  0  0  0  0  0  0  0  0
   22.5678   19.4489   20.1673 C   0  0  0  0  0  0  0  0  0  0  0  0
   23.1252   19.9336   20.9719 H   0  0  0  0  0  0  0  0  0  0  0  0
   23.2556   18.8936   19.5258 H   0  0  0  0  0  0  0  0  0  0  0  0
   22.0408   20.2018   19.5772 H   0  0  0  0  0  0  0  0  0  0  0  0
  1  2  1  0  0  0  0
  1  3  1  0  0  0  0
  1  4  1  0  0  0  0
  1  5  1  0  0  0  0
  5  6  1  0  0  0  0
  5  7  1  0  0  0  0
  5  8  1  0  0  0  0
  8  9  1  0  0  0  0
  8 10  1  0  0  0  0
  8 11  1  0  0  0  0
 11 12  1  0  0  0  0
 11 13  1  0  0  0  0
 11 14  1  0  0  0  0
 14 15  1  0  0  0  0
 14 16  1  0  0  0  0
 14 17  1  0  0  0  0
 17 18  1  0  0  0  0
 17 19  1  0  0  0  0
 17 20  1  0  0  0  0
M  END
> <VConfSearch Rank>
628

> <Conf_Id>
67

> <Delta U+W>
0.000

> <U+W>
15.338

> <U>
69.277

> <W>
-53.939

> <W(PB)>
-55.889

> <W(SA)>
1.950

> <Valence>
0.846

> <Coulomb>
68.557

> <VdW>
-0.127

> <VdW6>
-3.008

> <VdW12>
2.882

> <Bond>
0.088

> <Angle>
0.332

> <Pdih>
0.426

> <Idih>
0.000

> <Tether>
0.000

$$$$
VeraChem MOL file


 20 19  0  0  0  0  0  0  0  0999 V2000     
   20.8520   16.0608   21.2819 C   0  0  0  0  0  0  0  0  0  0  0  0
   21.1032   15.8601   22.3315 H   0  0  0  0  0  0  0  0  0  0  0  0
   20.4446   15.1369   20.8512 H   0  0  0  0  0  0  0  0  0  0  0  0
   21.7810   16.2994   20.7479 H   0  0  0  0  0  0  0  0  0  0  0  0
   19.8314   17.2136   21.1648 C   0  0  0  0  0  0  0  0  0  0  0  0
   18.9015   16.9317   21.6787 H   0  0  0  0  0  0  0  0  0  0  0  0
   19.5736   17.3670   20.1072 H   0  0  0  0  0  0  0  0  0  0  0  0
   20.3783   18.5283   21.7632 C   0  0  0  0  0  0  0  0  0  0  0  0
   20.6342   18.3704   22.8188 H   0  0  0  0  0  0  0  0  0  0  0  0
   21.3047   18.8116   21.2465 H   0  0  0  0  0  0  0  0  0  0  0  0
   19.3524   19.6739   21.6402 C   0  0  0  0  0  0  0  0  0  0  0  0
   18.4445   19.4201   22.1932 H   0  0  0  0  0  0  0  0  0  0  0  0
   19.0837   19.7978   20.5880 H   0  0  0  0  0  0  0  0  0  0  0  0
   19.8452   21.0215   22.1421 N   0  3  0  0  0  0  0  0  0  0  0  0
   19.1713   21.7564   21.8756 H   0  0  0  0  0  0  0  0  0  0  0  0
   20.7218   21.2818   21.6650 H   0  0  0  0  0  0  0  0  0  0  0  0
   20.0320   21.0154   23.6556 C   0  0  0  0  0  0  0  0  0  0  0  0
   20.7946   20.2818   23.9241 H   0  0  0  0  0  0  0  0  0  0  0  0
   20.3491   22.0087   23.9808 H   0  0  0  0  0  0  0  0  0  0  0  0
   19.0847   20.7570   24.1337 H   0  0  0  0  0  0  0  0  0  0  0  0
  1  2  1  0  0  0  0
  1  3  1  0  0  0  0
  1  4  1  0  0  0  0
  1  5  1  0  0  0  0
  5  6  1  0  0  0  0
  5  7  1  0  0  0  0
  5  8  1  0  0  0  0
  8  9  1  0  0  0  0
  8 10  1  0  0  0  0
  8 11  1  0  0  0  0
 11 12  1  0  0  0  0
 11 13  1  0  0  0  0
 11 14  1  0  0  0  0
 14 15  1  0  0  0  0
 14 16  1  0  0  0  0
 14 17  1  0  0  0  0
 17 18  1  0  0  0  0
 17 19  1  0  0  0  0
 17 20  1  0  0  0  0
M  END
> <VConfSearch Rank>
629

> <Conf_Id>
37

> <Delta U+W>
-0.021

> <U+W>
15.318

> <U>
69.657

> <W>
-54.340

> <W(PB)>
-56.238

> <W(SA)>
1.899

> <Valence>
1.137

> <Coulomb>
68.383

> <VdW>
0.138

> <VdW6>
-3.703

> <VdW12>
3.841

> <Bond>
0.125

> <Angle>
0.468

> <Pdih>
0.543

> <Idih>
0.000

> <Tether>
0.000

$$$$
VeraChem MOL file


 20 19  0  0  0  0  0  0  0  0999 V2000     
   21.9466   20.8418   22.9741 C   0  0  0  0  0  0  0  0  0  0  0  0
   22.3110   21.8566   22.7682 H   0  0  0  0  0  0  0  0  0  0  0  0
   21.4461   20.8562   23.9511 H   0  0  0  0  0  0  0  0  0  0  0  0
   22.8192   20.1797   23.0470 H   0  0  0  0  0  0  0  0  0  0  0  0
   20.9832   20.3721   21.8625 C   0  0  0  0  0  0  0  0  0  0  0  0
   21.5015   20.4020   20.8936 H   0  0  0  0  0  0  0  0  0  0  0  0
   20.1391   21.0725   21.7908 H   0  0  0  0  0  0  0  0  0  0  0  0
   20.4540   18.9451   22.1259 C   0  0  0  0  0  0  0  0  0  0  0  0
   21.2975   18.2453   22.1932 H   0  0  0  0  0  0  0  0  0  0  0  0
   19.9375   18.9201   23.0941 H   0  0  0  0  0  0  0  0  0  0  0  0
   19.4940   18.4843   21.0097 C   0  0  0  0  0  0  0  0  0  0  0  0
   20.0121   18.5449   20.0491 H   0  0  0  0  0  0  0  0  0  0  0  0
   18.6269   19.1482   20.9684 H   0  0  0  0  0  0  0  0  0  0  0  0
   18.9862   17.0594   21.1598 N   0  3  0  0  0  0  0  0  0  0  0  0
   19.7787   16.4036   21.2348 H   0  0  0  0  0  0  0  0  0  0  0  0
   18.4907   16.7773   20.2994 H   0  0  0  0  0  0  0  0  0  0  0  0
   18.0553   16.9257   22.3602 C   0  0  0  0  0  0  0  0  0  0  0  0
   17.2170   17.6159   22.2436 H   0  0  0  0  0  0  0  0  0  0  0  0
   17.6829   15.9002   22.4115 H   0  0  0  0  0  0  0  0  0  0  0  0
   18.6049   17.1615   23.2735 H   0  0  0  0  0  0  0  0  0  0  0  0
  1  2  1  0  0  0  0
  1  3  1  0  0  0  0
  1  4  1  0  0  0  0
  1  5  1  0  0  0  0
  5  6  1  0  0  0  0
  5  7  1  0  0  0  0
  5  8  1  0  0  0  0
  8  9  1  0  0  0  0
  8 10  1  0  0  0  0
  8 11  1  0  0  0  0
 11 12  1  0  0  0  0
 11 13  1  0  0  0  0
 11 14  1  0  0  0  0
 14 15  1  0  0  0  0
 14 16  1  0  0  0  0
 14 17  1  0  0  0  0
 17 18  1  0  0  0  0
 17 19  1  0  0  0  0
 17 20  1  0  0  0  0
M  END
> <VConfSearch Rank>
630

> <Conf_Id>
2

> <Delta U+W>
0.069

> <U+W>
15.407

> <U>
69.657

> <W>
-54.250

> <W(PB)>
-56.176

> <W(SA)>
1.926

> <Valence>
1.137

> <Coulomb>
68.383

> <VdW>
0.138

> <VdW6>
-3.703

> <VdW12>
3.841

> <Bond>
0.125

> <Angle>
0.468

> <Pdih>
0.543

> <Idih>
0.000

> <Tether>
0.000

$$$$
VeraChem MOL file


 20 19  0  0  0  0  0  0  0  0999 V2000     
   22.4866   19.4884   22.7190 C   0  0  0  0  0  0  0  0  0  0  0  0
   21.8082   19.5029   23.5814 H   0  0  0  0  0  0  0  0  0  0  0  0
   22.9323   18.4876   22.6500 H   0  0  0  0  0  0  0  0  0  0  0  0
   23.2958   20.2015   22.9231 H   0  0  0  0  0  0  0  0  0  0  0  0
   21.7519   19.8621   21.4110 C   0  0  0  0  0  0  0  0  0  0  0  0
   22.4845   19.9262   20.5942 H   0  0  0  0  0  0  0  0  0  0  0  0
   21.3106   20.8640   21.5089 H   0  0  0  0  0  0  0  0  0  0  0  0
   20.6538   18.8446   21.0223 C   0  0  0  0  0  0  0  0  0  0  0  0
   20.2304   19.1299   20.0501 H   0  0  0  0  0  0  0  0  0  0  0  0
   21.1026   17.8511   20.8909 H   0  0  0  0  0  0  0  0  0  0  0  0
   19.5206   18.7671   22.0640 C   0  0  0  0  0  0  0  0  0  0  0  0
   19.0725   19.7555   22.1929 H   0  0  0  0  0  0  0  0  0  0  0  0
   19.9261   18.4453   23.0262 H   0  0  0  0  0  0  0  0  0  0  0  0
   18.4163   17.8014   21.6812 N   0  3  0  0  0  0  0  0  0  0  0  0
   18.8029   16.8553   21.5408 H   0  0  0  0  0  0  0  0  0  0  0  0
   18.0091   18.0676   20.7716 H   0  0  0  0  0  0  0  0  0  0  0  0
   17.3434   17.7845   22.7618 C   0  0  0  0  0  0  0  0  0  0  0  0
   16.9249   18.7875   22.8692 H   0  0  0  0  0  0  0  0  0  0  0  0
   16.5550   17.0857   22.4736 H   0  0  0  0  0  0  0  0  0  0  0  0
   17.7893   17.4669   23.7069 H   0  0  0  0  0  0  0  0  0  0  0  0
  1  2  1  0  0  0  0
  1  3  1  0  0  0  0
  1  4  1  0  0  0  0
  1  5  1  0  0  0  0
  5  6  1  0  0  0  0
  5  7  1  0  0  0  0
  5  8  1  0  0  0  0
  8  9  1  0  0  0  0
  8 10  1  0  0  0  0
  8 11  1  0  0  0  0
 11 12  1  0  0  0  0
 11 13  1  0  0  0  0
 11 14  1  0  0  0  0
 14 15  1  0  0  0  0
 14 16  1  0  0  0  0
 14 17  1  0  0  0  0
 17 18  1  0  0  0  0
 17 19  1  0  0  0  0
 17 20  1  0  0  0  0
M  END
> <VConfSearch Rank>
631

> <Conf_Id>
34

> <Delta U+W>
0.276

> <U+W>
15.615

> <U>
69.798

> <W>
-54.184

> <W(PB)>
-56.116

> <W(SA)>
1.933

> <Valence>
1.134

> <Coulomb>
68.735

> <VdW>
-0.070

> <VdW6>
-3.565

> <VdW12>
3.494

> <Bond>
0.108

> <Angle>
0.456

> <Pdih>
0.569

> <Idih>
0.000

> <Tether>
0.000

$$$$
VeraChem MOL file


 20 19  0  0  0  0  0  0  0  0999 V2000     
   17.0051   18.7593   22.2676 C   0  0  0  0  0  0  0  0  0  0  0  0
   16.5684   19.3388   21.4438 H   0  0  0  0  0  0  0  0  0  0  0  0
   16.3961   17.8559   22.4024 H   0  0  0  0  0  0  0  0  0  0  0  0
   16.9268   19.3573   23.1849 H   0  0  0  0  0  0  0  0  0  0  0  0
   18.4738   18.3878   21.9695 C   0  0  0  0  0  0  0  0  0  0  0  0
   18.5154   17.7642   21.0653 H   0  0  0  0  0  0  0  0  0  0  0  0
   18.8635   17.7763   22.7946 H   0  0  0  0  0  0  0  0  0  0  0  0
   19.3542   19.6451   21.7758 C   0  0  0  0  0  0  0  0  0  0  0  0
   18.9300   20.2649   20.9748 H   0  0  0  0  0  0  0  0  0  0  0  0
   19.3399   20.2591   22.6861 H   0  0  0  0  0  0  0  0  0  0  0  0
   20.8119   19.3036   21.4069 C   0  0  0  0  0  0  0  0  0  0  0  0
   21.3570   20.2273   21.1963 H   0  0  0  0  0  0  0  0  0  0  0  0
   20.8277   18.6865   20.5051 H   0  0  0  0  0  0  0  0  0  0  0  0
   21.5685   18.5642   22.4944 N   0  3  0  0  0  0  0  0  0  0  0  0
   21.0882   17.6816   22.7244 H   0  0  0  0  0  0  0  0  0  0  0  0
   21.5651   19.1145   23.3669 H   0  0  0  0  0  0  0  0  0  0  0  0
   22.9962   18.2912   22.0406 C   0  0  0  0  0  0  0  0  0  0  0  0
   22.9755   17.6803   21.1355 H   0  0  0  0  0  0  0  0  0  0  0  0
   23.4958   19.2402   21.8345 H   0  0  0  0  0  0  0  0  0  0  0  0
   23.5288   17.7591   22.8318 H   0  0  0  0  0  0  0  0  0  0  0  0
  1  2  1  0  0  0  0
  1  3  1  0  0  0  0
  1  4  1  0  0  0  0
  1  5  1  0  0  0  0
  5  6  1  0  0  0  0
  5  7  1  0  0  0  0
  5  8  1  0  0  0  0
  8  9  1  0  0  0  0
  8 10  1  0  0  0  0
  8 11  1  0  0  0  0
 11 12  1  0  0  0  0
 11 13  1  0  0  0  0
 11 14  1  0  0  0  0
 14 15  1  0  0  0  0
 14 16  1  0  0  0  0
 14 17  1  0  0  0  0
 17 18  1  0  0  0  0
 17 19  1  0  0  0  0
 17 20  1  0  0  0  0
M  END
> <VConfSearch Rank>
632

> <Conf_Id>
50

> <Delta U+W>
0.319

> <U+W>
15.657

> <U>
69.962

> <W>
-54.305

> <W(PB)>
-56.223

> <W(SA)>
1.918

> <Valence>
0.982

> <Coulomb>
69.058

> <VdW>
-0.078

> <VdW6>
-3.548

> <VdW12>
3.471

> <Bond>
0.105

> <Angle>
0.408

> <Pdih>
0.469

> <Idih>
0.000

> <Tether>
0.000

$$$$
VeraChem MOL file


 20 19  0  0  0  0  0  0  0  0999 V2000     
   18.6210   21.4128   21.3070 C   0  0  0  0  0  0  0  0  0  0  0  0
   17.8668   21.9020   21.9369 H   0  0  0  0  0  0  0  0  0  0  0  0
   19.3604   22.1711   21.0182 H   0  0  0  0  0  0  0  0  0  0  0  0
   18.1203   21.0597   20.3960 H   0  0  0  0  0  0  0  0  0  0  0  0
   19.2887   20.2439   22.0632 C   0  0  0  0  0  0  0  0  0  0  0  0
   18.5151   19.5271   22.3704 H   0  0  0  0  0  0  0  0  0  0  0  0
   19.7528   20.6240   22.9843 H   0  0  0  0  0  0  0  0  0  0  0  0
   20.3566   19.5366   21.1957 C   0  0  0  0  0  0  0  0  0  0  0  0
   19.8945   19.1295   20.2866 H   0  0  0  0  0  0  0  0  0  0  0  0
   21.1007   20.2731   20.8644 H   0  0  0  0  0  0  0  0  0  0  0  0
   21.0898   18.4095   21.9505 C   0  0  0  0  0  0  0  0  0  0  0  0
   21.5446   18.8115   22.8594 H   0  0  0  0  0  0  0  0  0  0  0  0
   21.8878   18.0114   21.3186 H   0  0  0  0  0  0  0  0  0  0  0  0
   20.1979   17.2479   22.3466 N   0  3  0  0  0  0  0  0  0  0  0  0
   19.7422   16.8488   21.5117 H   0  0  0  0  0  0  0  0  0  0  0  0
   19.4287   17.5792   22.9476 H   0  0  0  0  0  0  0  0  0  0  0  0
   21.0173   16.1857   23.0671 C   0  0  0  0  0  0  0  0  0  0  0  0
   20.3637   15.3564   23.3464 H   0  0  0  0  0  0  0  0  0  0  0  0
   21.8046   15.8256   22.4012 H   0  0  0  0  0  0  0  0  0  0  0  0
   21.4627   16.6216   23.9640 H   0  0  0  0  0  0  0  0  0  0  0  0
  1  2  1  0  0  0  0
  1  3  1  0  0  0  0
  1  4  1  0  0  0  0
  1  5  1  0  0  0  0
  5  6  1  0  0  0  0
  5  7  1  0  0  0  0
  5  8  1  0  0  0  0
  8  9  1  0  0  0  0
  8 10  1  0  0  0  0
  8 11  1  0  0  0  0
 11 12  1  0  0  0  0
 11 13  1  0  0  0  0
 11 14  1  0  0  0  0
 14 15  1  0  0  0  0
 14 16  1  0  0  0  0
 14 17  1  0  0  0  0
 17 18  1  0  0  0  0
 17 19  1  0  0  0  0
 17 20  1  0  0  0  0
M  END
> <VConfSearch Rank>
633

> <Conf_Id>
35

> <Delta U+W>
0.360

> <U+W>
15.698

> <U>
69.962

> <W>
-54.264

> <W(PB)>
-56.166

> <W(SA)>
1.902

> <Valence>
0.982

> <Coulomb>
69.058

> <VdW>
-0.078

> <VdW6>
-3.548

> <VdW12>
3.471

> <Bond>
0.105

> <Angle>
0.408

> <Pdih>
0.469

> <Idih>
0.000

> <Tether>
0.000

$$$$
VeraChem MOL file


 20 19  0  0  0  0  0  0  0  0999 V2000     
   19.4958   20.4461   20.1545 C   0  0  0  0  0  0  0  0  0  0  0  0
   19.8012   19.5462   19.6059 H   0  0  0  0  0  0  0  0  0  0  0  0
   18.9254   21.0782   19.4615 H   0  0  0  0  0  0  0  0  0  0  0  0
   20.4013   20.9965   20.4413 H   0  0  0  0  0  0  0  0  0  0  0  0
   18.6424   20.0938   21.3945 C   0  0  0  0  0  0  0  0  0  0  0  0
   17.7463   19.5399   21.0808 H   0  0  0  0  0  0  0  0  0  0  0  0
   18.2838   21.0232   21.8589 H   0  0  0  0  0  0  0  0  0  0  0  0
   19.4204   19.2727   22.4492 C   0  0  0  0  0  0  0  0  0  0  0  0
   20.2932   19.8468   22.7860 H   0  0  0  0  0  0  0  0  0  0  0  0
   18.7817   19.1255   23.3300 H   0  0  0  0  0  0  0  0  0  0  0  0
   19.8692   17.8956   21.9148 C   0  0  0  0  0  0  0  0  0  0  0  0
   20.5598   18.0281   21.0785 H   0  0  0  0  0  0  0  0  0  0  0  0
   18.9930   17.3551   21.5479 H   0  0  0  0  0  0  0  0  0  0  0  0
   20.5498   17.0088   22.9447 N   0  3  0  0  0  0  0  0  0  0  0  0
   20.6676   16.0589   22.5587 H   0  0  0  0  0  0  0  0  0  0  0  0
   19.9411   16.8854   23.7682 H   0  0  0  0  0  0  0  0  0  0  0  0
   21.9063   17.5737   23.3520 C   0  0  0  0  0  0  0  0  0  0  0  0
   21.7669   18.5505   23.8193 H   0  0  0  0  0  0  0  0  0  0  0  0
   22.3789   16.8920   24.0626 H   0  0  0  0  0  0  0  0  0  0  0  0
   22.5351   17.6739   22.4647 H   0  0  0  0  0  0  0  0  0  0  0  0
  1  2  1  0  0  0  0
  1  3  1  0  0  0  0
  1  4  1  0  0  0  0
  1  5  1  0  0  0  0
  5  6  1  0  0  0  0
  5  7  1  0  0  0  0
  5  8  1  0  0  0  0
  8  9  1  0  0  0  0
  8 10  1  0  0  0  0
  8 11  1  0  0  0  0
 11 12  1  0  0  0  0
 11 13  1  0  0  0  0
 11 14  1  0  0  0  0
 14 15  1  0  0  0  0
 14 16  1  0  0  0  0
 14 17  1  0  0  0  0
 17 18  1  0  0  0  0
 17 19  1  0  0  0  0
 17 20  1  0  0  0  0
M  END
> <VConfSearch Rank>
634

> <Conf_Id>
33

> <Delta U+W>
0.372

> <U+W>
15.711

> <U>
70.163

> <W>
-54.452

> <W(PB)>
-56.363

> <W(SA)>
1.911

> <Valence>
1.420

> <Coulomb>
68.566

> <VdW>
0.177

> <VdW6>
-4.267

> <VdW12>
4.445

> <Bond>
0.146

> <Angle>
0.581

> <Pdih>
0.693

> <Idih>
0.000

> <Tether>
0.000

$$$$
VeraChem MOL file


 20 19  0  0  0  0  0  0  0  0999 V2000     
   18.3579   18.2921   23.8020 C   0  0  0  0  0  0  0  0  0  0  0  0
   17.9027   18.0425   24.7692 H   0  0  0  0  0  0  0  0  0  0  0  0
   18.2951   19.3806   23.6781 H   0  0  0  0  0  0  0  0  0  0  0  0
   17.7526   17.8221   23.0160 H   0  0  0  0  0  0  0  0  0  0  0  0
   19.8217   17.7973   23.7478 C   0  0  0  0  0  0  0  0  0  0  0  0
   19.8446   16.7205   23.9668 H   0  0  0  0  0  0  0  0  0  0  0  0
   20.4061   18.2859   24.5401 H   0  0  0  0  0  0  0  0  0  0  0  0
   20.4924   18.0457   22.3765 C   0  0  0  0  0  0  0  0  0  0  0  0
   21.4972   17.6032   22.3846 H   0  0  0  0  0  0  0  0  0  0  0  0
   19.9255   17.5245   21.5944 H   0  0  0  0  0  0  0  0  0  0  0  0
   20.6043   19.5471   22.0350 C   0  0  0  0  0  0  0  0  0  0  0  0
   21.1366   20.0556   22.8429 H   0  0  0  0  0  0  0  0  0  0  0  0
   19.6070   19.9864   21.9577 H   0  0  0  0  0  0  0  0  0  0  0  0
   21.3473   19.8482   20.7436 N   0  3  0  0  0  0  0  0  0  0  0  0
   22.2857   19.4206   20.7630 H   0  0  0  0  0  0  0  0  0  0  0  0
   21.5209   20.8631   20.6735 H   0  0  0  0  0  0  0  0  0  0  0  0
   20.5592   19.3729   19.5277 C   0  0  0  0  0  0  0  0  0  0  0  0
   21.1061   19.6393   18.6205 H   0  0  0  0  0  0  0  0  0  0  0  0
   20.4366   18.2891   19.5759 H   0  0  0  0  0  0  0  0  0  0  0  0
   19.5801   19.8566   19.5224 H   0  0  0  0  0  0  0  0  0  0  0  0
  1  2  1  0  0  0  0
  1  3  1  0  0  0  0
  1  4  1  0  0  0  0
  1  5  1  0  0  0  0
  5  6  1  0  0  0  0
  5  7  1  0  0  0  0
  5  8  1  0  0  0  0
  8  9  1  0  0  0  0
  8 10  1  0  0  0  0
  8 11  1  0  0  0  0
 11 12  1  0  0  0  0
 11 13  1  0  0  0  0
 11 14  1  0  0  0  0
 14 15  1  0  0  0  0
 14 16  1  0  0  0  0
 14 17  1  0  0  0  0
 17 18  1  0  0  0  0
 17 19  1  0  0  0  0
 17 20  1  0  0  0  0
M  END
> <VConfSearch Rank>
635

> <Conf_Id>
53

> <Delta U+W>
0.379

> <U+W>
15.717

> <U>
70.163

> <W>
-54.446

> <W(PB)>
-56.322

> <W(SA)>
1.876

> <Valence>
1.420

> <Coulomb>
68.566

> <VdW>
0.177

> <VdW6>
-4.267

> <VdW12>
4.445

> <Bond>
0.146

> <Angle>
0.581

> <Pdih>
0.693

> <Idih>
0.000

> <Tether>
0.000

$$$$
VeraChem MOL file


 20 19  0  0  0  0  0  0  0  0999 V2000     
   22.2164   17.1336   22.6774 C   0  0  0  0  0  0  0  0  0  0  0  0
   23.1115   16.8918   22.0898 H   0  0  0  0  0  0  0  0  0  0  0  0
   22.5271   17.2721   23.7212 H   0  0  0  0  0  0  0  0  0  0  0  0
   21.5418   16.2686   22.6337 H   0  0  0  0  0  0  0  0  0  0  0  0
   21.5294   18.4025   22.1280 C   0  0  0  0  0  0  0  0  0  0  0  0
   21.2683   18.2407   21.0733 H   0  0  0  0  0  0  0  0  0  0  0  0
   22.2386   19.2418   22.1551 H   0  0  0  0  0  0  0  0  0  0  0  0
   20.2624   18.7642   22.9383 C   0  0  0  0  0  0  0  0  0  0  0  0
   19.5390   17.9400   22.8921 H   0  0  0  0  0  0  0  0  0  0  0  0
   20.5297   18.8798   23.9970 H   0  0  0  0  0  0  0  0  0  0  0  0
   19.5971   20.0739   22.4602 C   0  0  0  0  0  0  0  0  0  0  0  0
   20.3116   20.8941   22.5668 H   0  0  0  0  0  0  0  0  0  0  0  0
   18.7349   20.2969   23.0937 H   0  0  0  0  0  0  0  0  0  0  0  0
   19.1185   20.0727   21.0160 N   0  3  0  0  0  0  0  0  0  0  0  0
   19.9028   19.8625   20.3814 H   0  0  0  0  0  0  0  0  0  0  0  0
   18.8119   21.0226   20.7535 H   0  0  0  0  0  0  0  0  0  0  0  0
   17.9757   19.0842   20.8113 C   0  0  0  0  0  0  0  0  0  0  0  0
   17.1528   19.3424   21.4812 H   0  0  0  0  0  0  0  0  0  0  0  0
   17.6369   19.1386   19.7744 H   0  0  0  0  0  0  0  0  0  0  0  0
   18.3277   18.0739   21.0291 H   0  0  0  0  0  0  0  0  0  0  0  0
  1  2  1  0  0  0  0
  1  3  1  0  0  0  0
  1  4  1  0  0  0  0
  1  5  1  0  0  0  0
  5  6  1  0  0  0  0
  5  7  1  0  0  0  0
  5  8  1  0  0  0  0
  8  9  1  0  0  0  0
  8 10  1  0  0  0  0
  8 11  1  0  0  0  0
 11 12  1  0  0  0  0
 11 13  1  0  0  0  0
 11 14  1  0  0  0  0
 14 15  1  0  0  0  0
 14 16  1  0  0  0  0
 14 17  1  0  0  0  0
 17 18  1  0  0  0  0
 17 19  1  0  0  0  0
 17 20  1  0  0  0  0
M  END
> <VConfSearch Rank>
636

> <Conf_Id>
49

> <Delta U+W>
0.268

> <U+W>
15.607

> <U>
70.298

> <W>
-54.692

> <W(PB)>
-56.576

> <W(SA)>
1.885

> <Valence>
1.245

> <Coulomb>
68.933

> <VdW>
0.120

> <VdW6>
-4.430

> <VdW12>
4.550

> <Bond>
0.148

> <Angle>
0.587

> <Pdih>
0.509

> <Idih>
0.000

> <Tether>
0.000

$$$$
VeraChem MOL file


 20 19  0  0  0  0  0  0  0  0999 V2000     
   22.5690   18.2224   23.0138 C   0  0  0  0  0  0  0  0  0  0  0  0
   23.0213   17.6301   22.2078 H   0  0  0  0  0  0  0  0  0  0  0  0
   23.1451   19.1509   23.1199 H   0  0  0  0  0  0  0  0  0  0  0  0
   22.6729   17.6544   23.9474 H   0  0  0  0  0  0  0  0  0  0  0  0
   21.0828   18.5196   22.7185 C   0  0  0  0  0  0  0  0  0  0  0  0
   20.6510   19.0883   23.5540 H   0  0  0  0  0  0  0  0  0  0  0  0
   20.5366   17.5689   22.6595 H   0  0  0  0  0  0  0  0  0  0  0  0
   20.9076   19.3105   21.4012 C   0  0  0  0  0  0  0  0  0  0  0  0
   21.5508   20.2000   21.4291 H   0  0  0  0  0  0  0  0  0  0  0  0
   21.2573   18.7045   20.5549 H   0  0  0  0  0  0  0  0  0  0  0  0
   19.4595   19.7793   21.1331 C   0  0  0  0  0  0  0  0  0  0  0  0
   19.4632   20.3782   20.2188 H   0  0  0  0  0  0  0  0  0  0  0  0
   19.1106   20.4200   21.9468 H   0  0  0  0  0  0  0  0  0  0  0  0
   18.4374   18.6721   20.9263 N   0  3  0  0  0  0  0  0  0  0  0  0
   18.8763   17.8576   20.4716 H   0  0  0  0  0  0  0  0  0  0  0  0
   17.7195   18.9923   20.2576 H   0  0  0  0  0  0  0  0  0  0  0  0
   17.7629   18.2837   22.2381 C   0  0  0  0  0  0  0  0  0  0  0  0
   17.0226   17.5049   22.0418 H   0  0  0  0  0  0  0  0  0  0  0  0
   18.5087   17.9103   22.9407 H   0  0  0  0  0  0  0  0  0  0  0  0
   17.2680   19.1613   22.6594 H   0  0  0  0  0  0  0  0  0  0  0  0
  1  2  1  0  0  0  0
  1  3  1  0  0  0  0
  1  4  1  0  0  0  0
  1  5  1  0  0  0  0
  5  6  1  0  0  0  0
  5  7  1  0  0  0  0
  5  8  1  0  0  0  0
  8  9  1  0  0  0  0
  8 10  1  0  0  0  0
  8 11  1  0  0  0  0
 11 12  1  0  0  0  0
 11 13  1  0  0  0  0
 11 14  1  0  0  0  0
 14 15  1  0  0  0  0
 14 16  1  0  0  0  0
 14 17  1  0  0  0  0
 17 18  1  0  0  0  0
 17 19  1  0  0  0  0
 17 20  1  0  0  0  0
M  END
> <VConfSearch Rank>
637

> <Conf_Id>
65

> <Delta U+W>
1.775

> <U+W>
17.114

> <U>
71.726

> <W>
-54.613

> <W(PB)>
-56.495

> <W(SA)>
1.883

> <Valence>
2.885

> <Coulomb>
68.822

> <VdW>
0.019

> <VdW6>
-4.600

> <VdW12>
4.619

> <Bond>
0.152

> <Angle>
0.862

> <Pdih>
1.871

> <Idih>
0.000

> <Tether>
0.000

$$$$
VeraChem MOL file


 20 19  0  0  0  0  0  0  0  0999 V2000     
   21.7183   18.9944   20.3137 C   0  0  0  0  0  0  0  0  0  0  0  0
   21.0438   18.1321   20.2408 H   0  0  0  0  0  0  0  0  0  0  0  0
   21.8419   19.4040   19.3028 H   0  0  0  0  0  0  0  0  0  0  0  0
   22.6991   18.6346   20.6508 H   0  0  0  0  0  0  0  0  0  0  0  0
   21.1629   20.0733   21.2717 C   0  0  0  0  0  0  0  0  0  0  0  0
   20.1832   20.4172   20.9130 H   0  0  0  0  0  0  0  0  0  0  0  0
   21.8220   20.9523   21.2401 H   0  0  0  0  0  0  0  0  0  0  0  0
   21.0531   19.5852   22.7378 C   0  0  0  0  0  0  0  0  0  0  0  0
   22.0561   19.3433   23.1136 H   0  0  0  0  0  0  0  0  0  0  0  0
   20.6803   20.4037   23.3678 H   0  0  0  0  0  0  0  0  0  0  0  0
   20.1470   18.3499   22.9221 C   0  0  0  0  0  0  0  0  0  0  0  0
   20.1490   18.0529   23.9739 H   0  0  0  0  0  0  0  0  0  0  0  0
   20.5377   17.5160   22.3341 H   0  0  0  0  0  0  0  0  0  0  0  0
   18.7047   18.5769   22.5112 N   0  3  0  0  0  0  0  0  0  0  0  0
   18.6613   18.8669   21.5230 H   0  0  0  0  0  0  0  0  0  0  0  0
   18.3016   19.3608   23.0467 H   0  0  0  0  0  0  0  0  0  0  0  0
   17.8950   17.3062   22.7309 C   0  0  0  0  0  0  0  0  0  0  0  0
   17.9296   17.0361   23.7886 H   0  0  0  0  0  0  0  0  0  0  0  0
   16.8602   17.4835   22.4300 H   0  0  0  0  0  0  0  0  0  0  0  0
   18.3204   16.4999   22.1295 H   0  0  0  0  0  0  0  0  0  0  0  0
  1  2  1  0  0  0  0
  1  3  1  0  0  0  0
  1  4  1  0  0  0  0
  1  5  1  0  0  0  0
  5  6  1  0  0  0  0
  5  7  1  0  0  0  0
  5  8  1  0  0  0  0
  8  9  1  0  0  0  0
  8 10  1  0  0  0  0
  8 11  1  0  0  0  0
 11 12  1  0  0  0  0
 11 13  1  0  0  0  0
 11 14  1  0  0  0  0
 14 15  1  0  0  0  0
 14 16  1  0  0  0  0
 14 17  1  0  0  0  0
 17 18  1  0  0  0  0
 17 19  1  0  0  0  0
 17 20  1  0  0  0  0
M  END
> <VConfSearch Rank>
638

> <Conf_Id>
23

> <Delta U+W>
0.896

> <U+W>
16.234

> <U>
70.374

> <W>
-54.140

> <W(PB)>
-56.046

> <W(SA)>
1.907

> <Valence>
1.257

> <Coulomb>
69.240

> <VdW>
-0.123

> <VdW6>
-4.336

> <VdW12>
4.213

> <Bond>
0.128

> <Angle>
0.603

> <Pdih>
0.526

> <Idih>
0.000

> <Tether>
0.000

$$$$
VeraChem MOL file


 20 19  0  0  0  0  0  0  0  0999 V2000     
   18.1318   17.7957   21.1664 C   0  0  0  0  0  0  0  0  0  0  0  0
   17.8931   16.8643   21.6962 H   0  0  0  0  0  0  0  0  0  0  0  0
   17.3259   17.9865   20.4460 H   0  0  0  0  0  0  0  0  0  0  0  0
   19.0552   17.6376   20.5951 H   0  0  0  0  0  0  0  0  0  0  0  0
   18.2677   18.9776   22.1537 C   0  0  0  0  0  0  0  0  0  0  0  0
   17.2947   19.1564   22.6325 H   0  0  0  0  0  0  0  0  0  0  0  0
   18.5055   19.8962   21.6003 H   0  0  0  0  0  0  0  0  0  0  0  0
   19.3274   18.7292   23.2561 C   0  0  0  0  0  0  0  0  0  0  0  0
   19.3543   19.5904   23.9369 H   0  0  0  0  0  0  0  0  0  0  0  0
   19.0200   17.8685   23.8647 H   0  0  0  0  0  0  0  0  0  0  0  0
   20.7479   18.4666   22.7137 C   0  0  0  0  0  0  0  0  0  0  0  0
   20.7390   17.5828   22.0715 H   0  0  0  0  0  0  0  0  0  0  0  0
   21.4244   18.2711   23.5496 H   0  0  0  0  0  0  0  0  0  0  0  0
   21.3253   19.6195   21.9149 N   0  3  0  0  0  0  0  0  0  0  0  0
   21.3483   20.4749   22.4909 H   0  0  0  0  0  0  0  0  0  0  0  0
   20.7092   19.8399   21.1185 H   0  0  0  0  0  0  0  0  0  0  0  0
   22.7234   19.2653   21.4265 C   0  0  0  0  0  0  0  0  0  0  0  0
   22.6692   18.3772   20.7932 H   0  0  0  0  0  0  0  0  0  0  0  0
   23.1260   20.1028   20.8526 H   0  0  0  0  0  0  0  0  0  0  0  0
   23.3655   19.0666   22.2874 H   0  0  0  0  0  0  0  0  0  0  0  0
  1  2  1  0  0  0  0
  1  3  1  0  0  0  0
  1  4  1  0  0  0  0
  1  5  1  0  0  0  0
  5  6  1  0  0  0  0
  5  7  1  0  0  0  0
  5  8  1  0  0  0  0
  8  9  1  0  0  0  0
  8 10  1  0  0  0  0
  8 11  1  0  0  0  0
 11 12  1  0  0  0  0
 11 13  1  0  0  0  0
 11 14  1  0  0  0  0
 14 15  1  0  0  0  0
 14 16  1  0  0  0  0
 14 17  1  0  0  0  0
 17 18  1  0  0  0  0
 17 19  1  0  0  0  0
 17 20  1  0  0  0  0
M  END
> <VConfSearch Rank>
639

> <Conf_Id>
24

> <Delta U+W>
0.792

> <U+W>
16.130

> <U>
70.374

> <W>
-54.243

> <W(PB)>
-56.130

> <W(SA)>
1.887

> <Valence>
1.257

> <Coulomb>
69.240

> <VdW>
-0.123

> <VdW6>
-4.336

> <VdW12>
4.213

> <Bond>
0.128

> <Angle>
0.603

> <Pdih>
0.526

> <Idih>
0.000

> <Tether>
0.000

$$$$
VeraChem MOL file


 20 19  0  0  0  0  0  0  0  0999 V2000     
   19.3551   20.2316   23.5452 C   0  0  0  0  0  0  0  0  0  0  0  0
   18.8195   21.0382   24.0626 H   0  0  0  0  0  0  0  0  0  0  0  0
   18.6158   19.4583   23.3050 H   0  0  0  0  0  0  0  0  0  0  0  0
   20.0892   19.8164   24.2479 H   0  0  0  0  0  0  0  0  0  0  0  0
   20.0414   20.7763   22.2717 C   0  0  0  0  0  0  0  0  0  0  0  0
   20.6049   21.6819   22.5373 H   0  0  0  0  0  0  0  0  0  0  0  0
   19.2749   21.0963   21.5518 H   0  0  0  0  0  0  0  0  0  0  0  0
   21.0127   19.7794   21.5894 C   0  0  0  0  0  0  0  0  0  0  0  0
   21.4886   20.2956   20.7451 H   0  0  0  0  0  0  0  0  0  0  0  0
   21.8270   19.5094   22.2747 H   0  0  0  0  0  0  0  0  0  0  0  0
   20.3378   18.5038   21.0421 C   0  0  0  0  0  0  0  0  0  0  0  0
   20.9819   18.0578   20.2800 H   0  0  0  0  0  0  0  0  0  0  0  0
   19.3857   18.7624   20.5720 H   0  0  0  0  0  0  0  0  0  0  0  0
   20.0830   17.4336   22.0864 N   0  3  0  0  0  0  0  0  0  0  0  0
   19.5212   17.8206   22.8579 H   0  0  0  0  0  0  0  0  0  0  0  0
   20.9731   17.1388   22.5164 H   0  0  0  0  0  0  0  0  0  0  0  0
   19.3760   16.2438   21.4517 C   0  0  0  0  0  0  0  0  0  0  0  0
   18.4227   16.5732   21.0327 H   0  0  0  0  0  0  0  0  0  0  0  0
   20.0052   15.8322   20.6596 H   0  0  0  0  0  0  0  0  0  0  0  0
   19.1994   15.4823   22.2146 H   0  0  0  0  0  0  0  0  0  0  0  0
  1  2  1  0  0  0  0
  1  3  1  0  0  0  0
  1  4  1  0  0  0  0
  1  5  1  0  0  0  0
  5  6  1  0  0  0  0
  5  7  1  0  0  0  0
  5  8  1  0  0  0  0
  8  9  1  0  0  0  0
  8 10  1  0  0  0  0
  8 11  1  0  0  0  0
 11 12  1  0  0  0  0
 11 13  1  0  0  0  0
 11 14  1  0  0  0  0
 14 15  1  0  0  0  0
 14 16  1  0  0  0  0
 14 17  1  0  0  0  0
 17 18  1  0  0  0  0
 17 19  1  0  0  0  0
 17 20  1  0  0  0  0
M  END
> <VConfSearch Rank>
640

> <Conf_Id>
26

> <Delta U+W>
2.888

> <U+W>
18.226

> <U>
72.042

> <W>
-53.816

> <W(PB)>
-55.689

> <W(SA)>
1.873

> <Valence>
2.428

> <Coulomb>
69.829

> <VdW>
-0.215

> <VdW6>
-4.563

> <VdW12>
4.348

> <Bond>
0.137

> <Angle>
0.936

> <Pdih>
1.356

> <Idih>
0.000

> <Tether>
0.000

$$$$
VeraChem MOL file


 20 19  0  0  0  0  0  0  0  0999 V2000     
   18.9482   18.7974   23.9017 C   0  0  0  0  0  0  0  0  0  0  0  0
   18.3588   18.4227   24.7487 H   0  0  0  0  0  0  0  0  0  0  0  0
   19.0100   19.8892   23.9976 H   0  0  0  0  0  0  0  0  0  0  0  0
   18.3914   18.5514   22.9898 H   0  0  0  0  0  0  0  0  0  0  0  0
   20.3531   18.1526   23.9008 C   0  0  0  0  0  0  0  0  0  0  0  0
   20.2602   17.0744   23.7086 H   0  0  0  0  0  0  0  0  0  0  0  0
   20.7819   18.2452   24.9086 H   0  0  0  0  0  0  0  0  0  0  0  0
   21.3461   18.7783   22.8883 C   0  0  0  0  0  0  0  0  0  0  0  0
   21.5057   19.8405   23.1161 H   0  0  0  0  0  0  0  0  0  0  0  0
   22.3206   18.2913   23.0258 H   0  0  0  0  0  0  0  0  0  0  0  0
   20.9398   18.6105   21.4088 C   0  0  0  0  0  0  0  0  0  0  0  0
   20.5400   17.6064   21.2472 H   0  0  0  0  0  0  0  0  0  0  0  0
   21.8257   18.7279   20.7796 H   0  0  0  0  0  0  0  0  0  0  0  0
   19.9163   19.6192   20.9229 N   0  3  0  0  0  0  0  0  0  0  0  0
   20.2866   20.5766   21.0235 H   0  0  0  0  0  0  0  0  0  0  0  0
   19.0776   19.5857   21.5197 H   0  0  0  0  0  0  0  0  0  0  0  0
   19.5538   19.3359   19.4714 C   0  0  0  0  0  0  0  0  0  0  0  0
   19.1342   18.3305   19.3947 H   0  0  0  0  0  0  0  0  0  0  0  0
   18.8171   20.0691   19.1356 H   0  0  0  0  0  0  0  0  0  0  0  0
   20.4528   19.4090   18.8554 H   0  0  0  0  0  0  0  0  0  0  0  0
  1  2  1  0  0  0  0
  1  3  1  0  0  0  0
  1  4  1  0  0  0  0
  1  5  1  0  0  0  0
  5  6  1  0  0  0  0
  5  7  1  0  0  0  0
  5  8  1  0  0  0  0
  8  9  1  0  0  0  0
  8 10  1  0  0  0  0
  8 11  1  0  0  0  0
 11 12  1  0  0  0  0
 11 13  1  0  0  0  0
 11 14  1  0  0  0  0
 14 15  1  0  0  0  0
 14 16  1  0  0  0  0
 14 17  1  0  0  0  0
 17 18  1  0  0  0  0
 17 19  1  0  0  0  0
 17 20  1  0  0  0  0
M  END
> <VConfSearch Rank>
641

> <Conf_Id>
5

> <Delta U+W>
2.950

> <U+W>
18.289

> <U>
72.042

> <W>
-53.753

> <W(PB)>
-55.644

> <W(SA)>
1.891

> <Valence>
2.428

> <Coulomb>
69.829

> <VdW>
-0.215

> <VdW6>
-4.563

> <VdW12>
4.348

> <Bond>
0.137

> <Angle>
0.936

> <Pdih>
1.356

> <Idih>
0.000

> <Tether>
0.000

$$$$
VeraChem MOL file


 20 19  0  0  0  0  0  0  0  0999 V2000     
   19.3545   18.9703   19.6769 C   0  0  0  0  0  0  0  0  0  0  0  0
   18.5078   18.3077   19.4552 H   0  0  0  0  0  0  0  0  0  0  0  0
   18.9662   19.8647   20.1801 H   0  0  0  0  0  0  0  0  0  0  0  0
   19.7876   19.2905   18.7204 H   0  0  0  0  0  0  0  0  0  0  0  0
   20.4156   18.2468   20.5375 C   0  0  0  0  0  0  0  0  0  0  0  0
   21.2532   18.9271   20.7430 H   0  0  0  0  0  0  0  0  0  0  0  0
   20.8375   17.4136   19.9582 H   0  0  0  0  0  0  0  0  0  0  0  0
   19.8442   17.6916   21.8659 C   0  0  0  0  0  0  0  0  0  0  0  0
   19.0735   16.9424   21.6420 H   0  0  0  0  0  0  0  0  0  0  0  0
   20.6354   17.1573   22.4075 H   0  0  0  0  0  0  0  0  0  0  0  0
   19.2282   18.7708   22.7853 C   0  0  0  0  0  0  0  0  0  0  0  0
   18.8518   18.3019   23.6979 H   0  0  0  0  0  0  0  0  0  0  0  0
   18.3803   19.2324   22.2732 H   0  0  0  0  0  0  0  0  0  0  0  0
   20.1746   19.8883   23.1963 N   0  3  0  0  0  0  0  0  0  0  0  0
   19.6458   20.6268   23.6865 H   0  0  0  0  0  0  0  0  0  0  0  0
   20.5623   20.3478   22.3593 H   0  0  0  0  0  0  0  0  0  0  0  0
   21.2908   19.3662   24.0940 C   0  0  0  0  0  0  0  0  0  0  0  0
   21.8822   18.6306   23.5453 H   0  0  0  0  0  0  0  0  0  0  0  0
   21.9293   20.2003   24.3933 H   0  0  0  0  0  0  0  0  0  0  0  0
   20.8521   18.9024   24.9801 H   0  0  0  0  0  0  0  0  0  0  0  0
  1  2  1  0  0  0  0
  1  3  1  0  0  0  0
  1  4  1  0  0  0  0
  1  5  1  0  0  0  0
  5  6  1  0  0  0  0
  5  7  1  0  0  0  0
  5  8  1  0  0  0  0
  8  9  1  0  0  0  0
  8 10  1  0  0  0  0
  8 11  1  0  0  0  0
 11 12  1  0  0  0  0
 11 13  1  0  0  0  0
 11 14  1  0  0  0  0
 14 15  1  0  0  0  0
 14 16  1  0  0  0  0
 14 17  1  0  0  0  0
 17 18  1  0  0  0  0
 17 19  1  0  0  0  0
 17 20  1  0  0  0  0
M  END
> <VConfSearch Rank>
642

> <Conf_Id>
52

> <Delta U+W>
0.784

> <U+W>
16.122

> <U>
70.777

> <W>
-54.655

> <W(PB)>
-56.491

> <W(SA)>
1.836

> <Valence>
1.529

> <Coulomb>
69.166

> <VdW>
0.082

> <VdW6>
-5.166

> <VdW12>
5.248

> <Bond>
0.171

> <Angle>
0.752

> <Pdih>
0.605

> <Idih>
0.000

> <Tether>
0.000

$$$$
VeraChem MOL file


 20 19  0  0  0  0  0  0  0  0999 V2000     
   18.2715   18.9831   23.1665 C   0  0  0  0  0  0  0  0  0  0  0  0
   17.4158   18.8748   23.8457 H   0  0  0  0  0  0  0  0  0  0  0  0
   18.9176   19.7620   23.5873 H   0  0  0  0  0  0  0  0  0  0  0  0
   17.8859   19.3266   22.1977 H   0  0  0  0  0  0  0  0  0  0  0  0
   19.0189   17.6371   23.0285 C   0  0  0  0  0  0  0  0  0  0  0  0
   18.2807   16.8472   22.8304 H   0  0  0  0  0  0  0  0  0  0  0  0
   19.4899   17.3784   23.9873 H   0  0  0  0  0  0  0  0  0  0  0  0
   20.0797   17.6050   21.8988 C   0  0  0  0  0  0  0  0  0  0  0  0
   20.4722   16.5816   21.8353 H   0  0  0  0  0  0  0  0  0  0  0  0
   19.6071   17.8022   20.9284 H   0  0  0  0  0  0  0  0  0  0  0  0
   21.2818   18.5529   22.1181 C   0  0  0  0  0  0  0  0  0  0  0  0
   22.1116   18.2344   21.4822 H   0  0  0  0  0  0  0  0  0  0  0  0
   21.6107   18.4770   23.1576 H   0  0  0  0  0  0  0  0  0  0  0  0
   21.0293   20.0215   21.8146 N   0  3  0  0  0  0  0  0  0  0  0  0
   21.8160   20.5877   22.1691 H   0  0  0  0  0  0  0  0  0  0  0  0
   20.2031   20.3520   22.3323 H   0  0  0  0  0  0  0  0  0  0  0  0
   20.8575   20.2552   20.3177 C   0  0  0  0  0  0  0  0  0  0  0  0
   21.7524   19.9103   19.7953 H   0  0  0  0  0  0  0  0  0  0  0  0
   19.9853   19.7037   19.9617 H   0  0  0  0  0  0  0  0  0  0  0  0
   20.7146   21.3227   20.1365 H   0  0  0  0  0  0  0  0  0  0  0  0
  1  2  1  0  0  0  0
  1  3  1  0  0  0  0
  1  4  1  0  0  0  0
  1  5  1  0  0  0  0
  5  6  1  0  0  0  0
  5  7  1  0  0  0  0
  5  8  1  0  0  0  0
  8  9  1  0  0  0  0
  8 10  1  0  0  0  0
  8 11  1  0  0  0  0
 11 12  1  0  0  0  0
 11 13  1  0  0  0  0
 11 14  1  0  0  0  0
 14 15  1  0  0  0  0
 14 16  1  0  0  0  0
 14 17  1  0  0  0  0
 17 18  1  0  0  0  0
 17 19  1  0  0  0  0
 17 20  1  0  0  0  0
M  END
> <VConfSearch Rank>
643

> <Conf_Id>
55

> <Delta U+W>
2.745

> <U+W>
18.083

> <U>
72.490

> <W>
-54.407

> <W(PB)>
-56.269

> <W(SA)>
1.861

> <Valence>
2.738

> <Coulomb>
69.795

> <VdW>
-0.043

> <VdW6>
-5.333

> <VdW12>
5.290

> <Bond>
0.182

> <Angle>
1.135

> <Pdih>
1.422

> <Idih>
0.000

> <Tether>
0.000

$$$$
VeraChem MOL file


 20 19  0  0  0  0  0  0  0  0999 V2000     
   20.2835   20.2917   23.5016 C   0  0  0  0  0  0  0  0  0  0  0  0
   20.4970   21.1646   24.1322 H   0  0  0  0  0  0  0  0  0  0  0  0
   19.4470   19.7474   23.9592 H   0  0  0  0  0  0  0  0  0  0  0  0
   21.1753   19.6550   23.5237 H   0  0  0  0  0  0  0  0  0  0  0  0
   19.9413   20.7417   22.0630 C   0  0  0  0  0  0  0  0  0  0  0  0
   20.8332   21.1793   21.5929 H   0  0  0  0  0  0  0  0  0  0  0  0
   19.1996   21.5511   22.1180 H   0  0  0  0  0  0  0  0  0  0  0  0
   19.3700   19.6200   21.1585 C   0  0  0  0  0  0  0  0  0  0  0  0
   18.4446   19.2185   21.5902 H   0  0  0  0  0  0  0  0  0  0  0  0
   19.0787   20.0748   20.2025 H   0  0  0  0  0  0  0  0  0  0  0  0
   20.3631   18.4761   20.8475 C   0  0  0  0  0  0  0  0  0  0  0  0
   21.3386   18.9064   20.6072 H   0  0  0  0  0  0  0  0  0  0  0  0
   20.0157   17.9273   19.9685 H   0  0  0  0  0  0  0  0  0  0  0  0
   20.5637   17.4553   21.9566 N   0  3  0  0  0  0  0  0  0  0  0  0
   20.8169   17.9316   22.8334 H   0  0  0  0  0  0  0  0  0  0  0  0
   21.3720   16.8545   21.7311 H   0  0  0  0  0  0  0  0  0  0  0  0
   19.3189   16.5961   22.1491 C   0  0  0  0  0  0  0  0  0  0  0  0
   18.4827   17.2302   22.4498 H   0  0  0  0  0  0  0  0  0  0  0  0
   19.0820   16.0915   21.2100 H   0  0  0  0  0  0  0  0  0  0  0  0
   19.5133   15.8538   22.9263 H   0  0  0  0  0  0  0  0  0  0  0  0
  1  2  1  0  0  0  0
  1  3  1  0  0  0  0
  1  4  1  0  0  0  0
  1  5  1  0  0  0  0
  5  6  1  0  0  0  0
  5  7  1  0  0  0  0
  5  8  1  0  0  0  0
  8  9  1  0  0  0  0
  8 10  1  0  0  0  0
  8 11  1  0  0  0  0
 11 12  1  0  0  0  0
 11 13  1  0  0  0  0
 11 14  1  0  0  0  0
 14 15  1  0  0  0  0
 14 16  1  0  0  0  0
 14 17  1  0  0  0  0
 17 18  1  0  0  0  0
 17 19  1  0  0  0  0
 17 20  1  0  0  0  0
M  END
> <VConfSearch Rank>
644

> <Conf_Id>
76

> <Delta U+W>
2.799

> <U+W>
18.137

> <U>
72.490

> <W>
-54.353

> <W(PB)>
-56.201

> <W(SA)>
1.848

> <Valence>
2.738

> <Coulomb>
69.795

> <VdW>
-0.043

> <VdW6>
-5.334

> <VdW12>
5.290

> <Bond>
0.182

> <Angle>
1.135

> <Pdih>
1.421

> <Idih>
0.000

> <Tether>
0.000

$$$$
VeraChem MOL file


 20 19  0  0  0  0  0  0  0  0999 V2000     
   20.2215   19.5231   20.0127 C   0  0  0  0  0  0  0  0  0  0  0  0
   20.2448   20.2686   20.8170 H   0  0  0  0  0  0  0  0  0  0  0  0
   21.2154   19.4924   19.5476 H   0  0  0  0  0  0  0  0  0  0  0  0
   19.5088   19.8745   19.2555 H   0  0  0  0  0  0  0  0  0  0  0  0
   19.8115   18.1279   20.5377 C   0  0  0  0  0  0  0  0  0  0  0  0
   19.7335   17.4380   19.6858 H   0  0  0  0  0  0  0  0  0  0  0  0
   18.8074   18.1704   20.9790 H   0  0  0  0  0  0  0  0  0  0  0  0
   20.8186   17.5428   21.5579 C   0  0  0  0  0  0  0  0  0  0  0  0
   20.4917   16.5379   21.8558 H   0  0  0  0  0  0  0  0  0  0  0  0
   21.7865   17.4078   21.0573 H   0  0  0  0  0  0  0  0  0  0  0  0
   21.0471   18.3967   22.8273 C   0  0  0  0  0  0  0  0  0  0  0  0
   21.3649   19.4068   22.5587 H   0  0  0  0  0  0  0  0  0  0  0  0
   21.8584   17.9367   23.3972 H   0  0  0  0  0  0  0  0  0  0  0  0
   19.8597   18.4998   23.7730 N   0  3  0  0  0  0  0  0  0  0  0  0
   20.2043   18.5918   24.7413 H   0  0  0  0  0  0  0  0  0  0  0  0
   19.3199   17.6216   23.7687 H   0  0  0  0  0  0  0  0  0  0  0  0
   18.9759   19.6974   23.4411 C   0  0  0  0  0  0  0  0  0  0  0  0
   18.1572   19.7474   24.1623 H   0  0  0  0  0  0  0  0  0  0  0  0
   19.5728   20.6100   23.5006 H   0  0  0  0  0  0  0  0  0  0  0  0
   18.5700   19.5887   22.4349 H   0  0  0  0  0  0  0  0  0  0  0  0
  1  2  1  0  0  0  0
  1  3  1  0  0  0  0
  1  4  1  0  0  0  0
  1  5  1  0  0  0  0
  5  6  1  0  0  0  0
  5  7  1  0  0  0  0
  5  8  1  0  0  0  0
  8  9  1  0  0  0  0
  8 10  1  0  0  0  0
  8 11  1  0  0  0  0
 11 12  1  0  0  0  0
 11 13  1  0  0  0  0
 11 14  1  0  0  0  0
 14 15  1  0  0  0  0
 14 16  1  0  0  0  0
 14 17  1  0  0  0  0
 17 18  1  0  0  0  0
 17 19  1  0  0  0  0
 17 20  1  0  0  0  0
M  END
> <VConfSearch Rank>
645

> <Conf_Id>
60

> <Delta U+W>
1.788

> <U+W>
17.127

> <U>
72.122

> <W>
-54.995

> <W(PB)>
-56.810

> <W(SA)>
1.815

> <Valence>
3.197

> <Coulomb>
69.115

> <VdW>
-0.190

> <VdW6>
-5.585

> <VdW12>
5.395

> <Bond>
0.177

> <Angle>
1.207

> <Pdih>
1.813

> <Idih>
0.000

> <Tether>
0.000

$$$$
VeraChem MOL file


 20 19  0  0  0  0  0  0  0  0999 V2000     
   20.8785   17.7951   23.7486 C   0  0  0  0  0  0  0  0  0  0  0  0
   21.0929   16.7555   24.0281 H   0  0  0  0  0  0  0  0  0  0  0  0
   21.2525   18.4416   24.5531 H   0  0  0  0  0  0  0  0  0  0  0  0
   19.7885   17.9072   23.7005 H   0  0  0  0  0  0  0  0  0  0  0  0
   21.5494   18.1436   22.3999 C   0  0  0  0  0  0  0  0  0  0  0  0
   21.1822   17.4744   21.6112 H   0  0  0  0  0  0  0  0  0  0  0  0
   22.6277   17.9465   22.4796 H   0  0  0  0  0  0  0  0  0  0  0  0
   21.3457   19.6211   21.9841 C   0  0  0  0  0  0  0  0  0  0  0  0
   21.8199   20.2657   22.7360 H   0  0  0  0  0  0  0  0  0  0  0  0
   21.8811   19.8114   21.0447 H   0  0  0  0  0  0  0  0  0  0  0  0
   19.8732   20.0676   21.8257 C   0  0  0  0  0  0  0  0  0  0  0  0
   19.8686   21.1466   21.6512 H   0  0  0  0  0  0  0  0  0  0  0  0
   19.3140   19.8804   22.7453 H   0  0  0  0  0  0  0  0  0  0  0  0
   19.1168   19.4393   20.6646 N   0  3  0  0  0  0  0  0  0  0  0  0
   19.7508   19.2793   19.8677 H   0  0  0  0  0  0  0  0  0  0  0  0
   18.4167   20.1108   20.3129 H   0  0  0  0  0  0  0  0  0  0  0  0
   18.4109   18.1532   21.0806 C   0  0  0  0  0  0  0  0  0  0  0  0
   17.7169   18.3731   21.8946 H   0  0  0  0  0  0  0  0  0  0  0  0
   17.8590   17.7566   20.2257 H   0  0  0  0  0  0  0  0  0  0  0  0
   19.1462   17.4196   21.4126 H   0  0  0  0  0  0  0  0  0  0  0  0
  1  2  1  0  0  0  0
  1  3  1  0  0  0  0
  1  4  1  0  0  0  0
  1  5  1  0  0  0  0
  5  6  1  0  0  0  0
  5  7  1  0  0  0  0
  5  8  1  0  0  0  0
  8  9  1  0  0  0  0
  8 10  1  0  0  0  0
  8 11  1  0  0  0  0
 11 12  1  0  0  0  0
 11 13  1  0  0  0  0
 11 14  1  0  0  0  0
 14 15  1  0  0  0  0
 14 16  1  0  0  0  0
 14 17  1  0  0  0  0
 17 18  1  0  0  0  0
 17 19  1  0  0  0  0
 17 20  1  0  0  0  0
M  END
> <VConfSearch Rank>
646

> <Conf_Id>
54

> <Delta U+W>
1.880

> <U+W>
17.218

> <U>
72.122

> <W>
-54.903

> <W(PB)>
-56.724

> <W(SA)>
1.821

> <Valence>
3.197

> <Coulomb>
69.115

> <VdW>
-0.190

> <VdW6>
-5.585

> <VdW12>
5.395

> <Bond>
0.177

> <Angle>
1.207

> <Pdih>
1.813

> <Idih>
0.000

> <Tether>
0.000

$$$$
VeraChem MOL file


 20 19  0  0  0  0  0  0  0  0999 V2000     
   22.6288   20.7179   21.7749 C   0  0  0  0  0  0  0  0  0  0  0  0
   22.9556   20.6311   22.8193 H   0  0  0  0  0  0  0  0  0  0  0  0
   23.5264   20.7648   21.1447 H   0  0  0  0  0  0  0  0  0  0  0  0
   22.0899   21.6678   21.6635 H   0  0  0  0  0  0  0  0  0  0  0  0
   21.7392   19.5228   21.3692 C   0  0  0  0  0  0  0  0  0  0  0  0
   22.3163   18.5914   21.4578 H   0  0  0  0  0  0  0  0  0  0  0  0
   21.4573   19.6200   20.3112 H   0  0  0  0  0  0  0  0  0  0  0  0
   20.4670   19.4316   22.2404 C   0  0  0  0  0  0  0  0  0  0  0  0
   20.7495   19.3310   23.2968 H   0  0  0  0  0  0  0  0  0  0  0  0
   19.8894   20.3611   22.1487 H   0  0  0  0  0  0  0  0  0  0  0  0
   19.5853   18.2377   21.8297 C   0  0  0  0  0  0  0  0  0  0  0  0
   20.1523   17.3093   21.9346 H   0  0  0  0  0  0  0  0  0  0  0  0
   19.2894   18.3428   20.7828 H   0  0  0  0  0  0  0  0  0  0  0  0
   18.3229   18.1080   22.6592 N   0  3  0  0  0  0  0  0  0  0  0  0
   17.7619   18.9711   22.5922 H   0  0  0  0  0  0  0  0  0  0  0  0
   18.5608   18.0142   23.6586 H   0  0  0  0  0  0  0  0  0  0  0  0
   17.5129   16.9073   22.1886 C   0  0  0  0  0  0  0  0  0  0  0  0
   18.1133   16.0019   22.3006 H   0  0  0  0  0  0  0  0  0  0  0  0
   16.6074   16.8258   22.7940 H   0  0  0  0  0  0  0  0  0  0  0  0
   17.2429   17.0442   21.1392 H   0  0  0  0  0  0  0  0  0  0  0  0
  1  2  1  0  0  0  0
  1  3  1  0  0  0  0
  1  4  1  0  0  0  0
  1  5  1  0  0  0  0
  5  6  1  0  0  0  0
  5  7  1  0  0  0  0
  5  8  1  0  0  0  0
  8  9  1  0  0  0  0
  8 10  1  0  0  0  0
  8 11  1  0  0  0  0
 11 12  1  0  0  0  0
 11 13  1  0  0  0  0
 11 14  1  0  0  0  0
 14 15  1  0  0  0  0
 14 16  1  0  0  0  0
 14 17  1  0  0  0  0
 17 18  1  0  0  0  0
 17 19  1  0  0  0  0
 17 20  1  0  0  0  0
M  END
> <VConfSearch Rank>
647

> <Conf_Id>
67

> <Delta U+W>
0.000

> <U+W>
15.338

> <U>
69.277

> <W>
-53.939

> <W(PB)>
-55.889

> <W(SA)>
1.950

> <Valence>
0.846

> <Coulomb>
68.557

> <VdW>
-0.127

> <VdW6>
-3.008

> <VdW12>
2.882

> <Bond>
0.088

> <Angle>
0.332

> <Pdih>
0.426

> <Idih>
0.000

> <Tether>
0.000

$$$$
VeraChem MOL file


 20 19  0  0  0  0  0  0  0  0999 V2000     
   22.0845   16.7090   21.4211 C   0  0  0  0  0  0  0  0  0  0  0  0
   22.1830   17.0632   20.3867 H   0  0  0  0  0  0  0  0  0  0  0  0
   23.0642   16.3317   21.7418 H   0  0  0  0  0  0  0  0  0  0  0  0
   21.3811   15.8661   21.4280 H   0  0  0  0  0  0  0  0  0  0  0  0
   21.6042   17.8420   22.3538 C   0  0  0  0  0  0  0  0  0  0  0  0
   22.3443   18.6547   22.3522 H   0  0  0  0  0  0  0  0  0  0  0  0
   21.5494   17.4669   23.3856 H   0  0  0  0  0  0  0  0  0  0  0  0
   20.2260   18.3928   21.9263 C   0  0  0  0  0  0  0  0  0  0  0  0
   20.2855   18.7660   20.8958 H   0  0  0  0  0  0  0  0  0  0  0  0
   19.4863   17.5814   21.9323 H   0  0  0  0  0  0  0  0  0  0  0  0
   19.7542   19.5228   22.8646 C   0  0  0  0  0  0  0  0  0  0  0  0
   20.4609   20.3556   22.8272 H   0  0  0  0  0  0  0  0  0  0  0  0
   19.7306   19.1454   23.8901 H   0  0  0  0  0  0  0  0  0  0  0  0
   18.3702   20.0686   22.5523 N   0  3  0  0  0  0  0  0  0  0  0  0
   18.0661   20.6946   23.3145 H   0  0  0  0  0  0  0  0  0  0  0  0
   17.6776   19.3043   22.5464 H   0  0  0  0  0  0  0  0  0  0  0  0
   18.3574   20.8231   21.2271 C   0  0  0  0  0  0  0  0  0  0  0  0
   18.6155   20.1382   20.4171 H   0  0  0  0  0  0  0  0  0  0  0  0
   17.3584   21.2307   21.0574 H   0  0  0  0  0  0  0  0  0  0  0  0
   19.0843   21.6371   21.2698 H   0  0  0  0  0  0  0  0  0  0  0  0
  1  2  1  0  0  0  0
  1  3  1  0  0  0  0
  1  4  1  0  0  0  0
  1  5  1  0  0  0  0
  5  6  1  0  0  0  0
  5  7  1  0  0  0  0
  5  8  1  0  0  0  0
  8  9  1  0  0  0  0
  8 10  1  0  0  0  0
  8 11  1  0  0  0  0
 11 12  1  0  0  0  0
 11 13  1  0  0  0  0
 11 14  1  0  0  0  0
 14 15  1  0  0  0  0
 14 16  1  0  0  0  0
 14 17  1  0  0  0  0
 17 18  1  0  0  0  0
 17 19  1  0  0  0  0
 17 20  1  0  0  0  0
M  END
> <VConfSearch Rank>
648

> <Conf_Id>
37

> <Delta U+W>
-0.021

> <U+W>
15.318

> <U>
69.657

> <W>
-54.340

> <W(PB)>
-56.238

> <W(SA)>
1.899

> <Valence>
1.137

> <Coulomb>
68.383

> <VdW>
0.138

> <VdW6>
-3.703

> <VdW12>
3.841

> <Bond>
0.125

> <Angle>
0.468

> <Pdih>
0.543

> <Idih>
0.000

> <Tether>
0.000

$$$$
VeraChem MOL file


 20 19  0  0  0  0  0  0  0  0999 V2000     
   19.9967   20.4966   24.4571 C   0  0  0  0  0  0  0  0  0  0  0  0
   20.3630   21.4575   24.8414 H   0  0  0  0  0  0  0  0  0  0  0  0
   18.8999   20.5385   24.4380 H   0  0  0  0  0  0  0  0  0  0  0  0
   20.2963   19.7146   25.1670 H   0  0  0  0  0  0  0  0  0  0  0  0
   20.5675   20.2186   23.0496 C   0  0  0  0  0  0  0  0  0  0  0  0
   21.6658   20.2176   23.0947 H   0  0  0  0  0  0  0  0  0  0  0  0
   20.2801   21.0344   22.3712 H   0  0  0  0  0  0  0  0  0  0  0  0
   20.0687   18.8710   22.4831 C   0  0  0  0  0  0  0  0  0  0  0  0
   20.3599   18.0562   23.1590 H   0  0  0  0  0  0  0  0  0  0  0  0
   18.9719   18.8766   22.4399 H   0  0  0  0  0  0  0  0  0  0  0  0
   20.6453   18.6016   21.0778 C   0  0  0  0  0  0  0  0  0  0  0  0
   21.7367   18.6306   21.1309 H   0  0  0  0  0  0  0  0  0  0  0  0
   20.3197   19.3831   20.3868 H   0  0  0  0  0  0  0  0  0  0  0  0
   20.2579   17.2581   20.4815 N   0  3  0  0  0  0  0  0  0  0  0  0
   20.5208   16.4936   21.1220 H   0  0  0  0  0  0  0  0  0  0  0  0
   20.8103   17.0878   19.6265 H   0  0  0  0  0  0  0  0  0  0  0  0
   18.7693   17.2047   20.1547 C   0  0  0  0  0  0  0  0  0  0  0  0
   18.5245   18.0115   19.4606 H   0  0  0  0  0  0  0  0  0  0  0  0
   18.5385   16.2412   19.6948 H   0  0  0  0  0  0  0  0  0  0  0  0
   18.1917   17.3190   21.0740 H   0  0  0  0  0  0  0  0  0  0  0  0
  1  2  1  0  0  0  0
  1  3  1  0  0  0  0
  1  4  1  0  0  0  0
  1  5  1  0  0  0  0
  5  6  1  0  0  0  0
  5  7  1  0  0  0  0
  5  8  1  0  0  0  0
  8  9  1  0  0  0  0
  8 10  1  0  0  0  0
  8 11  1  0  0  0  0
 11 12  1  0  0  0  0
 11 13  1  0  0  0  0
 11 14  1  0  0  0  0
 14 15  1  0  0  0  0
 14 16  1  0  0  0  0
 14 17  1  0  0  0  0
 17 18  1  0  0  0  0
 17 19  1  0  0  0  0
 17 20  1  0  0  0  0
M  END
> <VConfSearch Rank>
649

> <Conf_Id>
2

> <Delta U+W>
0.069

> <U+W>
15.407

> <U>
69.657

> <W>
-54.250

> <W(PB)>
-56.176

> <W(SA)>
1.926

> <Valence>
1.137

> <Coulomb>
68.383

> <VdW>
0.138

> <VdW6>
-3.703

> <VdW12>
3.841

> <Bond>
0.125

> <Angle>
0.468

> <Pdih>
0.543

> <Idih>
0.000

> <Tether>
0.000

$$$$
VeraChem MOL file


 20 19  0  0  0  0  0  0  0  0999 V2000     
   20.2907   20.5439   23.9758 C   0  0  0  0  0  0  0  0  0  0  0  0
   21.0352   20.7015   23.1852 H   0  0  0  0  0  0  0  0  0  0  0  0
   19.3946   21.1258   23.7239 H   0  0  0  0  0  0  0  0  0  0  0  0
   20.7049   20.9536   24.9062 H   0  0  0  0  0  0  0  0  0  0  0  0
   19.9515   19.0453   24.1472 C   0  0  0  0  0  0  0  0  0  0  0  0
   19.2770   18.9265   25.0069 H   0  0  0  0  0  0  0  0  0  0  0  0
   20.8653   18.4858   24.3924 H   0  0  0  0  0  0  0  0  0  0  0  0
   19.2833   18.4295   22.8956 C   0  0  0  0  0  0  0  0  0  0  0  0
   19.0016   17.3912   23.1154 H   0  0  0  0  0  0  0  0  0  0  0  0
   18.3524   18.9678   22.6730 H   0  0  0  0  0  0  0  0  0  0  0  0
   20.2032   18.4529   21.6593 C   0  0  0  0  0  0  0  0  0  0  0  0
   21.1285   17.9150   21.8802 H   0  0  0  0  0  0  0  0  0  0  0  0
   20.4572   19.4855   21.4086 H   0  0  0  0  0  0  0  0  0  0  0  0
   19.5780   17.8194   20.4319 N   0  3  0  0  0  0  0  0  0  0  0  0
   18.6937   18.2954   20.1962 H   0  0  0  0  0  0  0  0  0  0  0  0
   19.3172   16.8410   20.6292 H   0  0  0  0  0  0  0  0  0  0  0  0
   20.5491   17.8870   19.2608 C   0  0  0  0  0  0  0  0  0  0  0  0
   21.4631   17.3481   19.5196 H   0  0  0  0  0  0  0  0  0  0  0  0
   20.0866   17.4276   18.3844 H   0  0  0  0  0  0  0  0  0  0  0  0
   20.7839   18.9321   19.0478 H   0  0  0  0  0  0  0  0  0  0  0  0
  1  2  1  0  0  0  0
  1  3  1  0  0  0  0
  1  4  1  0  0  0  0
  1  5  1  0  0  0  0
  5  6  1  0  0  0  0
  5  7  1  0  0  0  0
  5  8  1  0  0  0  0
  8  9  1  0  0  0  0
  8 10  1  0  0  0  0
  8 11  1  0  0  0  0
 11 12  1  0  0  0  0
 11 13  1  0  0  0  0
 11 14  1  0  0  0  0
 14 15  1  0  0  0  0
 14 16  1  0  0  0  0
 14 17  1  0  0  0  0
 17 18  1  0  0  0  0
 17 19  1  0  0  0  0
 17 20  1  0  0  0  0
M  END
> <VConfSearch Rank>
650

> <Conf_Id>
34

> <Delta U+W>
0.276

> <U+W>
15.615

> <U>
69.798

> <W>
-54.184

> <W(PB)>
-56.116

> <W(SA)>
1.933

> <Valence>
1.134

> <Coulomb>
68.735

> <VdW>
-0.070

> <VdW6>
-3.565

> <VdW12>
3.494

> <Bond>
0.108

> <Angle>
0.456

> <Pdih>
0.569

> <Idih>
0.000

> <Tether>
0.000

$$$$
VeraChem MOL file


 20 19  0  0  0  0  0  0  0  0999 V2000     
   21.5034   20.0592   19.6698 C   0  0  0  0  0  0  0  0  0  0  0  0
   20.9004   19.9382   18.7605 H   0  0  0  0  0  0  0  0  0  0  0  0
   21.9211   21.0743   19.6631 H   0  0  0  0  0  0  0  0  0  0  0  0
   22.3406   19.3508   19.6211 H   0  0  0  0  0  0  0  0  0  0  0  0
   20.6522   19.8278   20.9371 C   0  0  0  0  0  0  0  0  0  0  0  0
   19.8431   20.5710   20.9731 H   0  0  0  0  0  0  0  0  0  0  0  0
   21.2772   19.9964   21.8245 H   0  0  0  0  0  0  0  0  0  0  0  0
   20.0518   18.4025   20.9709 C   0  0  0  0  0  0  0  0  0  0  0  0
   19.4623   18.2356   20.0596 H   0  0  0  0  0  0  0  0  0  0  0  0
   20.8557   17.6545   20.9637 H   0  0  0  0  0  0  0  0  0  0  0  0
   19.1390   18.1667   22.1911 C   0  0  0  0  0  0  0  0  0  0  0  0
   18.6771   17.1793   22.1111 H   0  0  0  0  0  0  0  0  0  0  0  0
   18.3423   18.9146   22.2039 H   0  0  0  0  0  0  0  0  0  0  0  0
   19.8604   18.2272   23.5245 N   0  3  0  0  0  0  0  0  0  0  0  0
   20.3114   19.1464   23.6432 H   0  0  0  0  0  0  0  0  0  0  0  0
   20.6287   17.5392   23.5445 H   0  0  0  0  0  0  0  0  0  0  0  0
   18.8788   17.9648   24.6587 C   0  0  0  0  0  0  0  0  0  0  0  0
   18.0936   18.7237   24.6379 H   0  0  0  0  0  0  0  0  0  0  0  0
   18.4382   16.9737   24.5312 H   0  0  0  0  0  0  0  0  0  0  0  0
   19.4106   18.0114   25.6116 H   0  0  0  0  0  0  0  0  0  0  0  0
  1  2  1  0  0  0  0
  1  3  1  0  0  0  0
  1  4  1  0  0  0  0
  1  5  1  0  0  0  0
  5  6  1  0  0  0  0
  5  7  1  0  0  0  0
  5  8  1  0  0  0  0
  8  9  1  0  0  0  0
  8 10  1  0  0  0  0
  8 11  1  0  0  0  0
 11 12  1  0  0  0  0
 11 13  1  0  0  0  0
 11 14  1  0  0  0  0
 14 15  1  0  0  0  0
 14 16  1  0  0  0  0
 14 17  1  0  0  0  0
 17 18  1  0  0  0  0
 17 19  1  0  0  0  0
 17 20  1  0  0  0  0
M  END
> <VConfSearch Rank>
651

> <Conf_Id>
50

> <Delta U+W>
0.319

> <U+W>
15.657

> <U>
69.962

> <W>
-54.305

> <W(PB)>
-56.223

> <W(SA)>
1.918

> <Valence>
0.982

> <Coulomb>
69.058

> <VdW>
-0.078

> <VdW6>
-3.548

> <VdW12>
3.471

> <Bond>
0.105

> <Angle>
0.408

> <Pdih>
0.469

> <Idih>
0.000

> <Tether>
0.000

$$$$
VeraChem MOL file


 20 19  0  0  0  0  0  0  0  0999 V2000     
   17.8843   16.8941   21.1984 C   0  0  0  0  0  0  0  0  0  0  0  0
   17.3557   16.2200   21.8849 H   0  0  0  0  0  0  0  0  0  0  0  0
   17.1303   17.4308   20.6079 H   0  0  0  0  0  0  0  0  0  0  0  0
   18.4791   16.2767   20.5127 H   0  0  0  0  0  0  0  0  0  0  0  0
   18.7812   17.8770   21.9816 C   0  0  0  0  0  0  0  0  0  0  0  0
   19.4945   17.3046   22.5899 H   0  0  0  0  0  0  0  0  0  0  0  0
   18.1620   18.4570   22.6806 H   0  0  0  0  0  0  0  0  0  0  0  0
   19.5385   18.8387   21.0357 C   0  0  0  0  0  0  0  0  0  0  0  0
   20.1811   18.2673   20.3527 H   0  0  0  0  0  0  0  0  0  0  0  0
   18.8145   19.3746   20.4076 H   0  0  0  0  0  0  0  0  0  0  0  0
   20.3880   19.8782   21.7943 C   0  0  0  0  0  0  0  0  0  0  0  0
   19.7513   20.4432   22.4797 H   0  0  0  0  0  0  0  0  0  0  0  0
   20.8239   20.5800   21.0787 H   0  0  0  0  0  0  0  0  0  0  0  0
   21.5266   19.2789   22.5983 N   0  3  0  0  0  0  0  0  0  0  0  0
   22.1446   18.7278   21.9832 H   0  0  0  0  0  0  0  0  0  0  0  0
   21.1591   18.6090   23.2902 H   0  0  0  0  0  0  0  0  0  0  0  0
   22.3112   20.3845   23.2919 C   0  0  0  0  0  0  0  0  0  0  0  0
   23.1266   19.9397   23.8665 H   0  0  0  0  0  0  0  0  0  0  0  0
   22.7187   21.0629   22.5393 H   0  0  0  0  0  0  0  0  0  0  0  0
   21.6451   20.9327   23.9617 H   0  0  0  0  0  0  0  0  0  0  0  0
  1  2  1  0  0  0  0
  1  3  1  0  0  0  0
  1  4  1  0  0  0  0
  1  5  1  0  0  0  0
  5  6  1  0  0  0  0
  5  7  1  0  0  0  0
  5  8  1  0  0  0  0
  8  9  1  0  0  0  0
  8 10  1  0  0  0  0
  8 11  1  0  0  0  0
 11 12  1  0  0  0  0
 11 13  1  0  0  0  0
 11 14  1  0  0  0  0
 14 15  1  0  0  0  0
 14 16  1  0  0  0  0
 14 17  1  0  0  0  0
 17 18  1  0  0  0  0
 17 19  1  0  0  0  0
 17 20  1  0  0  0  0
M  END
> <VConfSearch Rank>
652

> <Conf_Id>
35

> <Delta U+W>
0.360

> <U+W>
15.698

> <U>
69.962

> <W>
-54.264

> <W(PB)>
-56.166

> <W(SA)>
1.902

> <Valence>
0.982

> <Coulomb>
69.058

> <VdW>
-0.078

> <VdW6>
-3.548

> <VdW12>
3.471

> <Bond>
0.105

> <Angle>
0.408

> <Pdih>
0.469

> <Idih>
0.000

> <Tether>
0.000

$$$$
VeraChem MOL file


 20 19  0  0  0  0  0  0  0  0999 V2000     
   21.2678   18.1123   24.1791 C   0  0  0  0  0  0  0  0  0  0  0  0
   20.4512   17.3826   24.1098 H   0  0  0  0  0  0  0  0  0  0  0  0
   22.0190   17.7036   24.8673 H   0  0  0  0  0  0  0  0  0  0  0  0
   20.8688   19.0317   24.6269 H   0  0  0  0  0  0  0  0  0  0  0  0
   21.8968   18.3947   22.7953 C   0  0  0  0  0  0  0  0  0  0  0  0
   22.2833   17.4589   22.3675 H   0  0  0  0  0  0  0  0  0  0  0  0
   22.7647   19.0566   22.9242 H   0  0  0  0  0  0  0  0  0  0  0  0
   20.9068   19.0512   21.8049 C   0  0  0  0  0  0  0  0  0  0  0  0
   20.5533   20.0033   22.2211 H   0  0  0  0  0  0  0  0  0  0  0  0
   21.4385   19.2924   20.8751 H   0  0  0  0  0  0  0  0  0  0  0  0
   19.7045   18.1398   21.4775 C   0  0  0  0  0  0  0  0  0  0  0  0
   19.1267   17.9460   22.3844 H   0  0  0  0  0  0  0  0  0  0  0  0
   20.0767   17.1832   21.1022 H   0  0  0  0  0  0  0  0  0  0  0  0
   18.7545   18.6981   20.4305 N   0  3  0  0  0  0  0  0  0  0  0  0
   18.0801   17.9683   20.1517 H   0  0  0  0  0  0  0  0  0  0  0  0
   19.2690   18.9261   19.5662 H   0  0  0  0  0  0  0  0  0  0  0  0
   18.0075   19.9194   20.9557 C   0  0  0  0  0  0  0  0  0  0  0  0
   18.7232   20.7108   21.1865 H   0  0  0  0  0  0  0  0  0  0  0  0
   17.3100   20.2682   20.1909 H   0  0  0  0  0  0  0  0  0  0  0  0
   17.4567   19.6436   21.8575 H   0  0  0  0  0  0  0  0  0  0  0  0
  1  2  1  0  0  0  0
  1  3  1  0  0  0  0
  1  4  1  0  0  0  0
  1  5  1  0  0  0  0
  5  6  1  0  0  0  0
  5  7  1  0  0  0  0
  5  8  1  0  0  0  0
  8  9  1  0  0  0  0
  8 10  1  0  0  0  0
  8 11  1  0  0  0  0
 11 12  1  0  0  0  0
 11 13  1  0  0  0  0
 11 14  1  0  0  0  0
 14 15  1  0  0  0  0
 14 16  1  0  0  0  0
 14 17  1  0  0  0  0
 17 18  1  0  0  0  0
 17 19  1  0  0  0  0
 17 20  1  0  0  0  0
M  END
> <VConfSearch Rank>
653

> <Conf_Id>
33

> <Delta U+W>
0.372

> <U+W>
15.711

> <U>
70.163

> <W>
-54.452

> <W(PB)>
-56.363

> <W(SA)>
1.911

> <Valence>
1.420

> <Coulomb>
68.566

> <VdW>
0.177

> <VdW6>
-4.267

> <VdW12>
4.445

> <Bond>
0.146

> <Angle>
0.581

> <Pdih>
0.693

> <Idih>
0.000

> <Tether>
0.000

$$$$
VeraChem MOL file


 20 19  0  0  0  0  0  0  0  0999 V2000     
   18.8794   17.1203   23.4843 C   0  0  0  0  0  0  0  0  0  0  0  0
   18.5066   16.5926   24.3717 H   0  0  0  0  0  0  0  0  0  0  0  0
   18.0952   17.8156   23.1594 H   0  0  0  0  0  0  0  0  0  0  0  0
   19.0284   16.3765   22.6907 H   0  0  0  0  0  0  0  0  0  0  0  0
   20.1975   17.8608   23.8076 C   0  0  0  0  0  0  0  0  0  0  0  0
   20.9224   17.1417   24.2143 H   0  0  0  0  0  0  0  0  0  0  0  0
   20.0200   18.6017   24.5999 H   0  0  0  0  0  0  0  0  0  0  0  0
   20.8177   18.5559   22.5731 C   0  0  0  0  0  0  0  0  0  0  0  0
   21.7839   18.9934   22.8569 H   0  0  0  0  0  0  0  0  0  0  0  0
   21.0272   17.8056   21.7999 H   0  0  0  0  0  0  0  0  0  0  0  0
   19.9100   19.6652   21.9994 C   0  0  0  0  0  0  0  0  0  0  0  0
   19.6803   20.3808   22.7929 H   0  0  0  0  0  0  0  0  0  0  0  0
   18.9692   19.2327   21.6508 H   0  0  0  0  0  0  0  0  0  0  0  0
   20.5186   20.4471   20.8467 N   0  3  0  0  0  0  0  0  0  0  0  0
   21.4280   20.8457   21.1258 H   0  0  0  0  0  0  0  0  0  0  0  0
   19.9262   21.2649   20.6333 H   0  0  0  0  0  0  0  0  0  0  0  0
   20.6659   19.5763   19.6036 C   0  0  0  0  0  0  0  0  0  0  0  0
   21.0704   20.1812   18.7891 H   0  0  0  0  0  0  0  0  0  0  0  0
   21.3462   18.7499   19.8183 H   0  0  0  0  0  0  0  0  0  0  0  0
   19.6863   19.1856   19.3202 H   0  0  0  0  0  0  0  0  0  0  0  0
  1  2  1  0  0  0  0
  1  3  1  0  0  0  0
  1  4  1  0  0  0  0
  1  5  1  0  0  0  0
  5  6  1  0  0  0  0
  5  7  1  0  0  0  0
  5  8  1  0  0  0  0
  8  9  1  0  0  0  0
  8 10  1  0  0  0  0
  8 11  1  0  0  0  0
 11 12  1  0  0  0  0
 11 13  1  0  0  0  0
 11 14  1  0  0  0  0
 14 15  1  0  0  0  0
 14 16  1  0  0  0  0
 14 17  1  0  0  0  0
 17 18  1  0  0  0  0
 17 19  1  0  0  0  0
 17 20  1  0  0  0  0
M  END
> <VConfSearch Rank>
654

> <Conf_Id>
53

> <Delta U+W>
0.379

> <U+W>
15.717

> <U>
70.163

> <W>
-54.446

> <W(PB)>
-56.322

> <W(SA)>
1.876

> <Valence>
1.420

> <Coulomb>
68.566

> <VdW>
0.177

> <VdW6>
-4.267

> <VdW12>
4.445

> <Bond>
0.146

> <Angle>
0.581

> <Pdih>
0.693

> <Idih>
0.000

> <Tether>
0.000

$$$$
VeraChem MOL file


 20 19  0  0  0  0  0  0  0  0999 V2000     
   20.4166   21.5947   22.3920 C   0  0  0  0  0  0  0  0  0  0  0  0
   21.3477   22.1758   22.4128 H   0  0  0  0  0  0  0  0  0  0  0  0
   19.6718   22.1736   21.8305 H   0  0  0  0  0  0  0  0  0  0  0  0
   20.0612   21.4922   23.4256 H   0  0  0  0  0  0  0  0  0  0  0  0
   20.6505   20.2124   21.7450 C   0  0  0  0  0  0  0  0  0  0  0  0
   21.4273   19.6792   22.3096 H   0  0  0  0  0  0  0  0  0  0  0  0
   21.0354   20.3481   20.7244 H   0  0  0  0  0  0  0  0  0  0  0  0
   19.3526   19.3718   21.7053 C   0  0  0  0  0  0  0  0  0  0  0  0
   18.9784   19.2102   22.7244 H   0  0  0  0  0  0  0  0  0  0  0  0
   18.5719   19.9347   21.1766 H   0  0  0  0  0  0  0  0  0  0  0  0
   19.5381   18.0137   20.9927 C   0  0  0  0  0  0  0  0  0  0  0  0
   19.8552   18.1942   19.9624 H   0  0  0  0  0  0  0  0  0  0  0  0
   18.5819   17.4855   20.9608 H   0  0  0  0  0  0  0  0  0  0  0  0
   20.5586   17.0794   21.6254 N   0  3  0  0  0  0  0  0  0  0  0  0
   21.4786   17.5408   21.6784 H   0  0  0  0  0  0  0  0  0  0  0  0
   20.7061   16.2631   21.0113 H   0  0  0  0  0  0  0  0  0  0  0  0
   20.1049   16.6150   23.0050 C   0  0  0  0  0  0  0  0  0  0  0  0
   19.1389   16.1136   22.9158 H   0  0  0  0  0  0  0  0  0  0  0  0
   20.8441   15.9201   23.4097 H   0  0  0  0  0  0  0  0  0  0  0  0
   20.0142   17.4791   23.6661 H   0  0  0  0  0  0  0  0  0  0  0  0
  1  2  1  0  0  0  0
  1  3  1  0  0  0  0
  1  4  1  0  0  0  0
  1  5  1  0  0  0  0
  5  6  1  0  0  0  0
  5  7  1  0  0  0  0
  5  8  1  0  0  0  0
  8  9  1  0  0  0  0
  8 10  1  0  0  0  0
  8 11  1  0  0  0  0
 11 12  1  0  0  0  0
 11 13  1  0  0  0  0
 11 14  1  0  0  0  0
 14 15  1  0  0  0  0
 14 16  1  0  0  0  0
 14 17  1  0  0  0  0
 17 18  1  0  0  0  0
 17 19  1  0  0  0  0
 17 20  1  0  0  0  0
M  END
> <VConfSearch Rank>
655

> <Conf_Id>
49

> <Delta U+W>
0.268

> <U+W>
15.607

> <U>
70.298

> <W>
-54.692

> <W(PB)>
-56.576

> <W(SA)>
1.885

> <Valence>
1.245

> <Coulomb>
68.933

> <VdW>
0.120

> <VdW6>
-4.430

> <VdW12>
4.550

> <Bond>
0.148

> <Angle>
0.587

> <Pdih>
0.509

> <Idih>
0.000

> <Tether>
0.000

$$$$
VeraChem MOL file


 20 19  0  0  0  0  0  0  0  0999 V2000     
   21.9393   20.7174   21.4526 C   0  0  0  0  0  0  0  0  0  0  0  0
   22.2687   20.9801   22.4664 H   0  0  0  0  0  0  0  0  0  0  0  0
   22.7974   20.2956   20.9132 H   0  0  0  0  0  0  0  0  0  0  0  0
   21.6458   21.6447   20.9436 H   0  0  0  0  0  0  0  0  0  0  0  0
   20.7611   19.7202   21.4918 C   0  0  0  0  0  0  0  0  0  0  0  0
   20.4359   19.4984   20.4656 H   0  0  0  0  0  0  0  0  0  0  0  0
   19.9129   20.1941   22.0033 H   0  0  0  0  0  0  0  0  0  0  0  0
   21.1452   18.4078   22.2142 C   0  0  0  0  0  0  0  0  0  0  0  0
   22.0634   18.0071   21.7647 H   0  0  0  0  0  0  0  0  0  0  0  0
   21.3837   18.6184   23.2650 H   0  0  0  0  0  0  0  0  0  0  0  0
   20.0622   17.3074   22.1442 C   0  0  0  0  0  0  0  0  0  0  0  0
   20.4616   16.4109   22.6254 H   0  0  0  0  0  0  0  0  0  0  0  0
   19.8437   17.0548   21.1036 H   0  0  0  0  0  0  0  0  0  0  0  0
   18.7501   17.6306   22.8421 N   0  3  0  0  0  0  0  0  0  0  0  0
   18.9182   18.2265   23.6664 H   0  0  0  0  0  0  0  0  0  0  0  0
   18.3444   16.7616   23.2233 H   0  0  0  0  0  0  0  0  0  0  0  0
   17.7517   18.2715   21.8834 C   0  0  0  0  0  0  0  0  0  0  0  0
   16.8186   18.4655   22.4170 H   0  0  0  0  0  0  0  0  0  0  0  0
   18.1561   19.2094   21.5013 H   0  0  0  0  0  0  0  0  0  0  0  0
   17.5631   17.5873   21.0533 H   0  0  0  0  0  0  0  0  0  0  0  0
  1  2  1  0  0  0  0
  1  3  1  0  0  0  0
  1  4  1  0  0  0  0
  1  5  1  0  0  0  0
  5  6  1  0  0  0  0
  5  7  1  0  0  0  0
  5  8  1  0  0  0  0
  8  9  1  0  0  0  0
  8 10  1  0  0  0  0
  8 11  1  0  0  0  0
 11 12  1  0  0  0  0
 11 13  1  0  0  0  0
 11 14  1  0  0  0  0
 14 15  1  0  0  0  0
 14 16  1  0  0  0  0
 14 17  1  0  0  0  0
 17 18  1  0  0  0  0
 17 19  1  0  0  0  0
 17 20  1  0  0  0  0
M  END
> <VConfSearch Rank>
656

> <Conf_Id>
65

> <Delta U+W>
1.775

> <U+W>
17.114

> <U>
71.726

> <W>
-54.613

> <W(PB)>
-56.495

> <W(SA)>
1.883

> <Valence>
2.885

> <Coulomb>
68.822

> <VdW>
0.019

> <VdW6>
-4.600

> <VdW12>
4.619

> <Bond>
0.152

> <Angle>
0.862

> <Pdih>
1.871

> <Idih>
0.000

> <Tether>
0.000

$$$$
VeraChem MOL file


 20 19  0  0  0  0  0  0  0  0999 V2000     
   21.8054   20.3803   22.2379 C   0  0  0  0  0  0  0  0  0  0  0  0
   22.0535   19.3536   22.5351 H   0  0  0  0  0  0  0  0  0  0  0  0
   22.6706   20.7864   21.6978 H   0  0  0  0  0  0  0  0  0  0  0  0
   21.6698   20.9774   23.1490 H   0  0  0  0  0  0  0  0  0  0  0  0
   20.5410   20.4269   21.3495 C   0  0  0  0  0  0  0  0  0  0  0  0
   20.7017   19.8238   20.4456 H   0  0  0  0  0  0  0  0  0  0  0  0
   20.3870   21.4580   21.0015 H   0  0  0  0  0  0  0  0  0  0  0  0
   19.2632   19.9536   22.0866 C   0  0  0  0  0  0  0  0  0  0  0  0
   19.0600   20.6303   22.9271 H   0  0  0  0  0  0  0  0  0  0  0  0
   18.4009   20.0372   21.4119 H   0  0  0  0  0  0  0  0  0  0  0  0
   19.3476   18.5103   22.6256 C   0  0  0  0  0  0  0  0  0  0  0  0
   18.4235   18.2671   23.1561 H   0  0  0  0  0  0  0  0  0  0  0  0
   20.1757   18.4299   23.3339 H   0  0  0  0  0  0  0  0  0  0  0  0
   19.5495   17.4612   21.5490 N   0  3  0  0  0  0  0  0  0  0  0  0
   20.4110   17.6609   21.0194 H   0  0  0  0  0  0  0  0  0  0  0  0
   18.7844   17.5082   20.8588 H   0  0  0  0  0  0  0  0  0  0  0  0
   19.6184   16.0764   22.1783 C   0  0  0  0  0  0  0  0  0  0  0  0
   18.6841   15.8746   22.7067 H   0  0  0  0  0  0  0  0  0  0  0  0
   19.7650   15.3320   21.3926 H   0  0  0  0  0  0  0  0  0  0  0  0
   20.4547   16.0410   22.8797 H   0  0  0  0  0  0  0  0  0  0  0  0
  1  2  1  0  0  0  0
  1  3  1  0  0  0  0
  1  4  1  0  0  0  0
  1  5  1  0  0  0  0
  5  6  1  0  0  0  0
  5  7  1  0  0  0  0
  5  8  1  0  0  0  0
  8  9  1  0  0  0  0
  8 10  1  0  0  0  0
  8 11  1  0  0  0  0
 11 12  1  0  0  0  0
 11 13  1  0  0  0  0
 11 14  1  0  0  0  0
 14 15  1  0  0  0  0
 14 16  1  0  0  0  0
 14 17  1  0  0  0  0
 17 18  1  0  0  0  0
 17 19  1  0  0  0  0
 17 20  1  0  0  0  0
M  END
> <VConfSearch Rank>
657

> <Conf_Id>
23

> <Delta U+W>
0.896

> <U+W>
16.234

> <U>
70.374

> <W>
-54.140

> <W(PB)>
-56.046

> <W(SA)>
1.907

> <Valence>
1.257

> <Coulomb>
69.240

> <VdW>
-0.123

> <VdW6>
-4.336

> <VdW12>
4.213

> <Bond>
0.128

> <Angle>
0.603

> <Pdih>
0.526

> <Idih>
0.000

> <Tether>
0.000

$$$$
VeraChem MOL file


 20 19  0  0  0  0  0  0  0  0999 V2000     
   19.5727   17.4291   20.1483 C   0  0  0  0  0  0  0  0  0  0  0  0
   19.6370   18.0081   19.2179 H   0  0  0  0  0  0  0  0  0  0  0  0
   19.3301   16.3925   19.8808 H   0  0  0  0  0  0  0  0  0  0  0  0
   18.7360   17.8224   20.7393 H   0  0  0  0  0  0  0  0  0  0  0  0
   20.9032   17.4892   20.9335 C   0  0  0  0  0  0  0  0  0  0  0  0
   21.6898   17.0013   20.3409 H   0  0  0  0  0  0  0  0  0  0  0  0
   20.8138   16.9028   21.8580 H   0  0  0  0  0  0  0  0  0  0  0  0
   21.3505   18.9359   21.2604 C   0  0  0  0  0  0  0  0  0  0  0  0
   22.3111   18.9095   21.7917 H   0  0  0  0  0  0  0  0  0  0  0  0
   21.5349   19.4771   20.3229 H   0  0  0  0  0  0  0  0  0  0  0  0
   20.3296   19.7347   22.0975 C   0  0  0  0  0  0  0  0  0  0  0  0
   19.3840   19.8056   21.5548 H   0  0  0  0  0  0  0  0  0  0  0  0
   20.7057   20.7486   22.2563 H   0  0  0  0  0  0  0  0  0  0  0  0
   20.0434   19.1318   23.4595 N   0  3  0  0  0  0  0  0  0  0  0  0
   20.9166   19.0481   24.0019 H   0  0  0  0  0  0  0  0  0  0  0  0
   19.6923   18.1687   23.3518 H   0  0  0  0  0  0  0  0  0  0  0  0
   19.0300   19.9893   24.2054 C   0  0  0  0  0  0  0  0  0  0  0  0
   18.1040   20.0362   23.6283 H   0  0  0  0  0  0  0  0  0  0  0  0
   18.8327   19.5433   25.1827 H   0  0  0  0  0  0  0  0  0  0  0  0
   19.4360   20.9949   24.3351 H   0  0  0  0  0  0  0  0  0  0  0  0
  1  2  1  0  0  0  0
  1  3  1  0  0  0  0
  1  4  1  0  0  0  0
  1  5  1  0  0  0  0
  5  6  1  0  0  0  0
  5  7  1  0  0  0  0
  5  8  1  0  0  0  0
  8  9  1  0  0  0  0
  8 10  1  0  0  0  0
  8 11  1  0  0  0  0
 11 12  1  0  0  0  0
 11 13  1  0  0  0  0
 11 14  1  0  0  0  0
 14 15  1  0  0  0  0
 14 16  1  0  0  0  0
 14 17  1  0  0  0  0
 17 18  1  0  0  0  0
 17 19  1  0  0  0  0
 17 20  1  0  0  0  0
M  END
> <VConfSearch Rank>
658

> <Conf_Id>
24

> <Delta U+W>
0.792

> <U+W>
16.130

> <U>
70.374

> <W>
-54.243

> <W(PB)>
-56.130

> <W(SA)>
1.887

> <Valence>
1.257

> <Coulomb>
69.240

> <VdW>
-0.123

> <VdW6>
-4.336

> <VdW12>
4.213

> <Bond>
0.128

> <Angle>
0.603

> <Pdih>
0.526

> <Idih>
0.000

> <Tether>
0.000

$$$$
VeraChem MOL file


 20 19  0  0  0  0  0  0  0  0999 V2000     
   18.9820   20.7074   22.2643 C   0  0  0  0  0  0  0  0  0  0  0  0
   18.5583   21.6967   22.0478 H   0  0  0  0  0  0  0  0  0  0  0  0
   18.4779   19.9912   21.6047 H   0  0  0  0  0  0  0  0  0  0  0  0
   18.7394   20.4633   23.3067 H   0  0  0  0  0  0  0  0  0  0  0  0
   20.5099   20.7172   22.0301 C   0  0  0  0  0  0  0  0  0  0  0  0
   20.9385   21.5864   22.5487 H   0  0  0  0  0  0  0  0  0  0  0  0
   20.7149   20.8702   20.9612 H   0  0  0  0  0  0  0  0  0  0  0  0
   21.2433   19.4438   22.5237 C   0  0  0  0  0  0  0  0  0  0  0  0
   22.3202   19.5930   22.3698 H   0  0  0  0  0  0  0  0  0  0  0  0
   21.1082   19.3205   23.6065 H   0  0  0  0  0  0  0  0  0  0  0  0
   20.8372   18.1482   21.7897 C   0  0  0  0  0  0  0  0  0  0  0  0
   21.6269   17.4033   21.9166 H   0  0  0  0  0  0  0  0  0  0  0  0
   20.7285   18.3480   20.7208 H   0  0  0  0  0  0  0  0  0  0  0  0
   19.5521   17.5198   22.2942 N   0  3  0  0  0  0  0  0  0  0  0  0
   18.7829   18.2029   22.2453 H   0  0  0  0  0  0  0  0  0  0  0  0
   19.6432   17.2802   23.2934 H   0  0  0  0  0  0  0  0  0  0  0  0
   19.2217   16.2796   21.4749 C   0  0  0  0  0  0  0  0  0  0  0  0
   19.0979   16.5627   20.4274 H   0  0  0  0  0  0  0  0  0  0  0  0
   20.0368   15.5589   21.5690 H   0  0  0  0  0  0  0  0  0  0  0  0
   18.2953   15.8384   21.8492 H   0  0  0  0  0  0  0  0  0  0  0  0
  1  2  1  0  0  0  0
  1  3  1  0  0  0  0
  1  4  1  0  0  0  0
  1  5  1  0  0  0  0
  5  6  1  0  0  0  0
  5  7  1  0  0  0  0
  5  8  1  0  0  0  0
  8  9  1  0  0  0  0
  8 10  1  0  0  0  0
  8 11  1  0  0  0  0
 11 12  1  0  0  0  0
 11 13  1  0  0  0  0
 11 14  1  0  0  0  0
 14 15  1  0  0  0  0
 14 16  1  0  0  0  0
 14 17  1  0  0  0  0
 17 18  1  0  0  0  0
 17 19  1  0  0  0  0
 17 20  1  0  0  0  0
M  END
> <VConfSearch Rank>
659

> <Conf_Id>
26

> <Delta U+W>
2.888

> <U+W>
18.226

> <U>
72.042

> <W>
-53.816

> <W(PB)>
-55.689

> <W(SA)>
1.873

> <Valence>
2.428

> <Coulomb>
69.829

> <VdW>
-0.215

> <VdW6>
-4.563

> <VdW12>
4.348

> <Bond>
0.137

> <Angle>
0.936

> <Pdih>
1.356

> <Idih>
0.000

> <Tether>
0.000

$$$$
VeraChem MOL file


 20 19  0  0  0  0  0  0  0  0999 V2000     
   18.1146   19.7776   22.3134 C   0  0  0  0  0  0  0  0  0  0  0  0
   17.0775   19.9436   22.6330 H   0  0  0  0  0  0  0  0  0  0  0  0
   18.3784   20.5801   21.6123 H   0  0  0  0  0  0  0  0  0  0  0  0
   18.1368   18.8191   21.7815 H   0  0  0  0  0  0  0  0  0  0  0  0
   19.0569   19.7692   23.5387 C   0  0  0  0  0  0  0  0  0  0  0  0
   18.8271   18.8997   24.1706 H   0  0  0  0  0  0  0  0  0  0  0  0
   18.8420   20.6553   24.1523 H   0  0  0  0  0  0  0  0  0  0  0  0
   20.5667   19.7730   23.1876 C   0  0  0  0  0  0  0  0  0  0  0  0
   20.8247   20.6764   22.6193 H   0  0  0  0  0  0  0  0  0  0  0  0
   21.1320   19.8367   24.1269 H   0  0  0  0  0  0  0  0  0  0  0  0
   21.0495   18.5172   22.4312 C   0  0  0  0  0  0  0  0  0  0  0  0
   20.5799   17.6267   22.8564 H   0  0  0  0  0  0  0  0  0  0  0  0
   22.1313   18.4207   22.5530 H   0  0  0  0  0  0  0  0  0  0  0  0
   20.7733   18.5404   20.9398 N   0  3  0  0  0  0  0  0  0  0  0  0
   21.2430   19.3493   20.5049 H   0  0  0  0  0  0  0  0  0  0  0  0
   19.7677   18.6836   20.7698 H   0  0  0  0  0  0  0  0  0  0  0  0
   21.2460   17.2412   20.3019 C   0  0  0  0  0  0  0  0  0  0  0  0
   20.7121   16.4028   20.7547 H   0  0  0  0  0  0  0  0  0  0  0  0
   21.0409   17.2723   19.2296 H   0  0  0  0  0  0  0  0  0  0  0  0
   22.3195   17.1286   20.4682 H   0  0  0  0  0  0  0  0  0  0  0  0
  1  2  1  0  0  0  0
  1  3  1  0  0  0  0
  1  4  1  0  0  0  0
  1  5  1  0  0  0  0
  5  6  1  0  0  0  0
  5  7  1  0  0  0  0
  5  8  1  0  0  0  0
  8  9  1  0  0  0  0
  8 10  1  0  0  0  0
  8 11  1  0  0  0  0
 11 12  1  0  0  0  0
 11 13  1  0  0  0  0
 11 14  1  0  0  0  0
 14 15  1  0  0  0  0
 14 16  1  0  0  0  0
 14 17  1  0  0  0  0
 17 18  1  0  0  0  0
 17 19  1  0  0  0  0
 17 20  1  0  0  0  0
M  END
> <VConfSearch Rank>
660

> <Conf_Id>
5

> <Delta U+W>
2.950

> <U+W>
18.289

> <U>
72.042

> <W>
-53.753

> <W(PB)>
-55.644

> <W(SA)>
1.891

> <Valence>
2.428

> <Coulomb>
69.829

> <VdW>
-0.215

> <VdW6>
-4.563

> <VdW12>
4.348

> <Bond>
0.137

> <Angle>
0.936

> <Pdih>
1.356

> <Idih>
0.000

> <Tether>
0.000

$$$$
VeraChem MOL file


 20 19  0  0  0  0  0  0  0  0999 V2000     
   22.3124   18.0206   22.5267 C   0  0  0  0  0  0  0  0  0  0  0  0
   23.0761   18.3771   21.8233 H   0  0  0  0  0  0  0  0  0  0  0  0
   22.0965   18.8292   23.2361 H   0  0  0  0  0  0  0  0  0  0  0  0
   22.7452   17.1878   23.0960 H   0  0  0  0  0  0  0  0  0  0  0  0
   21.0391   17.5625   21.7790 C   0  0  0  0  0  0  0  0  0  0  0  0
   20.2921   17.2071   22.5018 H   0  0  0  0  0  0  0  0  0  0  0  0
   21.2869   16.6964   21.1493 H   0  0  0  0  0  0  0  0  0  0  0  0
   20.4282   18.6703   20.8852 C   0  0  0  0  0  0  0  0  0  0  0  0
   21.1528   18.9474   20.1082 H   0  0  0  0  0  0  0  0  0  0  0  0
   19.5553   18.2695   20.3539 H   0  0  0  0  0  0  0  0  0  0  0  0
   20.0215   19.9470   21.6559 C   0  0  0  0  0  0  0  0  0  0  0  0
   19.5990   20.6754   20.9591 H   0  0  0  0  0  0  0  0  0  0  0  0
   20.9139   20.3919   22.1030 H   0  0  0  0  0  0  0  0  0  0  0  0
   19.0107   19.7351   22.7723 N   0  3  0  0  0  0  0  0  0  0  0  0
   18.9072   20.6066   23.3154 H   0  0  0  0  0  0  0  0  0  0  0  0
   19.3687   19.0416   23.4453 H   0  0  0  0  0  0  0  0  0  0  0  0
   17.6568   19.3045   22.2189 C   0  0  0  0  0  0  0  0  0  0  0  0
   17.7653   18.3505   21.6990 H   0  0  0  0  0  0  0  0  0  0  0  0
   16.9512   19.1935   23.0451 H   0  0  0  0  0  0  0  0  0  0  0  0
   17.2939   20.0655   21.5247 H   0  0  0  0  0  0  0  0  0  0  0  0
  1  2  1  0  0  0  0
  1  3  1  0  0  0  0
  1  4  1  0  0  0  0
  1  5  1  0  0  0  0
  5  6  1  0  0  0  0
  5  7  1  0  0  0  0
  5  8  1  0  0  0  0
  8  9  1  0  0  0  0
  8 10  1  0  0  0  0
  8 11  1  0  0  0  0
 11 12  1  0  0  0  0
 11 13  1  0  0  0  0
 11 14  1  0  0  0  0
 14 15  1  0  0  0  0
 14 16  1  0  0  0  0
 14 17  1  0  0  0  0
 17 18  1  0  0  0  0
 17 19  1  0  0  0  0
 17 20  1  0  0  0  0
M  END
> <VConfSearch Rank>
661

> <Conf_Id>
52

> <Delta U+W>
0.784

> <U+W>
16.122

> <U>
70.777

> <W>
-54.655

> <W(PB)>
-56.491

> <W(SA)>
1.836

> <Valence>
1.529

> <Coulomb>
69.166

> <VdW>
0.082

> <VdW6>
-5.166

> <VdW12>
5.248

> <Bond>
0.171

> <Angle>
0.752

> <Pdih>
0.605

> <Idih>
0.000

> <Tether>
0.000

$$$$
VeraChem MOL file


 20 19  0  0  0  0  0  0  0  0999 V2000     
   19.1335   20.7375   21.5129 C   0  0  0  0  0  0  0  0  0  0  0  0
   18.5054   21.6118   21.2976 H   0  0  0  0  0  0  0  0  0  0  0  0
   19.6052   20.9141   22.4863 H   0  0  0  0  0  0  0  0  0  0  0  0
   19.9147   20.6913   20.7428 H   0  0  0  0  0  0  0  0  0  0  0  0
   18.2759   19.4515   21.5211 C   0  0  0  0  0  0  0  0  0  0  0  0
   17.6486   19.4449   20.6186 H   0  0  0  0  0  0  0  0  0  0  0  0
   17.5817   19.4783   22.3728 H   0  0  0  0  0  0  0  0  0  0  0  0
   19.0937   18.1351   21.5539 C   0  0  0  0  0  0  0  0  0  0  0  0
   18.3882   17.2988   21.4616 H   0  0  0  0  0  0  0  0  0  0  0  0
   19.7460   18.0713   20.6739 H   0  0  0  0  0  0  0  0  0  0  0  0
   19.9093   17.9166   22.8495 C   0  0  0  0  0  0  0  0  0  0  0  0
   20.1708   16.8589   22.9357 H   0  0  0  0  0  0  0  0  0  0  0  0
   19.2881   18.1773   23.7101 H   0  0  0  0  0  0  0  0  0  0  0  0
   21.2063   18.7036   22.9545 N   0  3  0  0  0  0  0  0  0  0  0  0
   21.5725   18.6391   23.9172 H   0  0  0  0  0  0  0  0  0  0  0  0
   21.0249   19.7053   22.8006 H   0  0  0  0  0  0  0  0  0  0  0  0
   22.2485   18.1861   21.9693 C   0  0  0  0  0  0  0  0  0  0  0  0
   22.4326   17.1274   22.1643 H   0  0  0  0  0  0  0  0  0  0  0  0
   21.8808   18.3162   20.9497 H   0  0  0  0  0  0  0  0  0  0  0  0
   23.1747   18.7503   22.0992 H   0  0  0  0  0  0  0  0  0  0  0  0
  1  2  1  0  0  0  0
  1  3  1  0  0  0  0
  1  4  1  0  0  0  0
  1  5  1  0  0  0  0
  5  6  1  0  0  0  0
  5  7  1  0  0  0  0
  5  8  1  0  0  0  0
  8  9  1  0  0  0  0
  8 10  1  0  0  0  0
  8 11  1  0  0  0  0
 11 12  1  0  0  0  0
 11 13  1  0  0  0  0
 11 14  1  0  0  0  0
 14 15  1  0  0  0  0
 14 16  1  0  0  0  0
 14 17  1  0  0  0  0
 17 18  1  0  0  0  0
 17 19  1  0  0  0  0
 17 20  1  0  0  0  0
M  END
> <VConfSearch Rank>
662

> <Conf_Id>
55

> <Delta U+W>
2.745

> <U+W>
18.083

> <U>
72.490

> <W>
-54.407

> <W(PB)>
-56.269

> <W(SA)>
1.861

> <Valence>
2.738

> <Coulomb>
69.795

> <VdW>
-0.043

> <VdW6>
-5.333

> <VdW12>
5.290

> <Bond>
0.182

> <Angle>
1.135

> <Pdih>
1.422

> <Idih>
0.000

> <Tether>
0.000

$$$$
VeraChem MOL file


 20 19  0  0  0  0  0  0  0  0999 V2000     
   20.5839   20.7979   21.6347 C   0  0  0  0  0  0  0  0  0  0  0  0
   21.0087   21.8088   21.5834 H   0  0  0  0  0  0  0  0  0  0  0  0
   20.4977   20.4207   20.6072 H   0  0  0  0  0  0  0  0  0  0  0  0
   19.5794   20.8940   22.0625 H   0  0  0  0  0  0  0  0  0  0  0  0
   21.4838   19.8823   22.4957 C   0  0  0  0  0  0  0  0  0  0  0  0
   21.4572   20.2194   23.5415 H   0  0  0  0  0  0  0  0  0  0  0  0
   22.5244   20.0046   22.1640 H   0  0  0  0  0  0  0  0  0  0  0  0
   21.1242   18.3763   22.4220 C   0  0  0  0  0  0  0  0  0  0  0  0
   21.2073   18.0161   21.3889 H   0  0  0  0  0  0  0  0  0  0  0  0
   21.8816   17.8217   22.9915 H   0  0  0  0  0  0  0  0  0  0  0  0
   19.7407   18.0156   23.0115 C   0  0  0  0  0  0  0  0  0  0  0  0
   19.6062   18.5478   23.9566 H   0  0  0  0  0  0  0  0  0  0  0  0
   19.7090   16.9443   23.2251 H   0  0  0  0  0  0  0  0  0  0  0  0
   18.5439   18.3265   22.1263 N   0  3  0  0  0  0  0  0  0  0  0  0
   18.5701   19.3122   21.8304 H   0  0  0  0  0  0  0  0  0  0  0  0
   17.6747   18.2309   22.6745 H   0  0  0  0  0  0  0  0  0  0  0  0
   18.4960   17.4006   20.9159 C   0  0  0  0  0  0  0  0  0  0  0  0
   19.3886   17.5530   20.3063 H   0  0  0  0  0  0  0  0  0  0  0  0
   18.4535   16.3643   21.2578 H   0  0  0  0  0  0  0  0  0  0  0  0
   17.6061   17.6296   20.3254 H   0  0  0  0  0  0  0  0  0  0  0  0
  1  2  1  0  0  0  0
  1  3  1  0  0  0  0
  1  4  1  0  0  0  0
  1  5  1  0  0  0  0
  5  6  1  0  0  0  0
  5  7  1  0  0  0  0
  5  8  1  0  0  0  0
  8  9  1  0  0  0  0
  8 10  1  0  0  0  0
  8 11  1  0  0  0  0
 11 12  1  0  0  0  0
 11 13  1  0  0  0  0
 11 14  1  0  0  0  0
 14 15  1  0  0  0  0
 14 16  1  0  0  0  0
 14 17  1  0  0  0  0
 17 18  1  0  0  0  0
 17 19  1  0  0  0  0
 17 20  1  0  0  0  0
M  END
> <VConfSearch Rank>
663

> <Conf_Id>
76

> <Delta U+W>
2.799

> <U+W>
18.137

> <U>
72.490

> <W>
-54.353

> <W(PB)>
-56.201

> <W(SA)>
1.848

> <Valence>
2.738

> <Coulomb>
69.795

> <VdW>
-0.043

> <VdW6>
-5.334

> <VdW12>
5.290

> <Bond>
0.182

> <Angle>
1.135

> <Pdih>
1.421

> <Idih>
0.000

> <Tether>
0.000

$$$$
VeraChem MOL file


 20 19  0  0  0  0  0  0  0  0999 V2000     
   20.0000   20.8605   21.8543 C   0  0  0  0  0  0  0  0  0  0  0  0
   19.0290   20.3675   21.9853 H   0  0  0  0  0  0  0  0  0  0  0  0
   20.2269   21.4163   22.7733 H   0  0  0  0  0  0  0  0  0  0  0  0
   19.8947   21.5892   21.0402 H   0  0  0  0  0  0  0  0  0  0  0  0
   21.1188   19.8436   21.5307 C   0  0  0  0  0  0  0  0  0  0  0  0
   22.0513   20.3926   21.3385 H   0  0  0  0  0  0  0  0  0  0  0  0
   20.8885   19.3126   20.5981 H   0  0  0  0  0  0  0  0  0  0  0  0
   21.3678   18.8302   22.6745 C   0  0  0  0  0  0  0  0  0  0  0  0
   22.1993   18.1683   22.3990 H   0  0  0  0  0  0  0  0  0  0  0  0
   21.7036   19.3802   23.5636 H   0  0  0  0  0  0  0  0  0  0  0  0
   20.1468   17.9683   23.0732 C   0  0  0  0  0  0  0  0  0  0  0  0
   19.3002   18.6035   23.3438 H   0  0  0  0  0  0  0  0  0  0  0  0
   20.4215   17.3903   23.9593 H   0  0  0  0  0  0  0  0  0  0  0  0
   19.6821   16.9636   22.0294 N   0  3  0  0  0  0  0  0  0  0  0  0
   19.2840   16.1393   22.5058 H   0  0  0  0  0  0  0  0  0  0  0  0
   20.4872   16.5975   21.4999 H   0  0  0  0  0  0  0  0  0  0  0  0
   18.6304   17.5603   21.1003 C   0  0  0  0  0  0  0  0  0  0  0  0
   18.3066   16.7960   20.3905 H   0  0  0  0  0  0  0  0  0  0  0  0
   17.7767   17.8943   21.6938 H   0  0  0  0  0  0  0  0  0  0  0  0
   19.0544   18.4060   20.5581 H   0  0  0  0  0  0  0  0  0  0  0  0
  1  2  1  0  0  0  0
  1  3  1  0  0  0  0
  1  4  1  0  0  0  0
  1  5  1  0  0  0  0
  5  6  1  0  0  0  0
  5  7  1  0  0  0  0
  5  8  1  0  0  0  0
  8  9  1  0  0  0  0
  8 10  1  0  0  0  0
  8 11  1  0  0  0  0
 11 12  1  0  0  0  0
 11 13  1  0  0  0  0
 11 14  1  0  0  0  0
 14 15  1  0  0  0  0
 14 16  1  0  0  0  0
 14 17  1  0  0  0  0
 17 18  1  0  0  0  0
 17 19  1  0  0  0  0
 17 20  1  0  0  0  0
M  END
> <VConfSearch Rank>
664

> <Conf_Id>
60

> <Delta U+W>
1.788

> <U+W>
17.127

> <U>
72.122

> <W>
-54.995

> <W(PB)>
-56.810

> <W(SA)>
1.815

> <Valence>
3.197

> <Coulomb>
69.115

> <VdW>
-0.190

> <VdW6>
-5.585

> <VdW12>
5.395

> <Bond>
0.177

> <Angle>
1.207

> <Pdih>
1.813

> <Idih>
0.000

> <Tether>
0.000

$$$$
VeraChem MOL file


 20 19  0  0  0  0  0  0  0  0999 V2000     
   18.6143   20.2212   22.4446 C   0  0  0  0  0  0  0  0  0  0  0  0
   18.5871   21.2945   22.6730 H   0  0  0  0  0  0  0  0  0  0  0  0
   17.5787   19.8798   22.3187 H   0  0  0  0  0  0  0  0  0  0  0  0
   19.0387   19.7077   23.3160 H   0  0  0  0  0  0  0  0  0  0  0  0
   19.4439   19.9594   21.1664 C   0  0  0  0  0  0  0  0  0  0  0  0
   20.4697   20.3264   21.3000 H   0  0  0  0  0  0  0  0  0  0  0  0
   19.0208   20.5511   20.3425 H   0  0  0  0  0  0  0  0  0  0  0  0
   19.4605   18.4688   20.7478 C   0  0  0  0  0  0  0  0  0  0  0  0
   18.4335   18.1588   20.5135 H   0  0  0  0  0  0  0  0  0  0  0  0
   20.0276   18.3599   19.8140 H   0  0  0  0  0  0  0  0  0  0  0  0
   20.0307   17.4911   21.8021 C   0  0  0  0  0  0  0  0  0  0  0  0
   19.8745   16.4742   21.4331 H   0  0  0  0  0  0  0  0  0  0  0  0
   19.4891   17.5856   22.7462 H   0  0  0  0  0  0  0  0  0  0  0  0
   21.5198   17.6239   22.0847 N   0  3  0  0  0  0  0  0  0  0  0  0
   22.0253   17.8931   21.2276 H   0  0  0  0  0  0  0  0  0  0  0  0
   21.9013   16.6983   22.3350 H   0  0  0  0  0  0  0  0  0  0  0  0
   21.7936   18.6018   23.2222 C   0  0  0  0  0  0  0  0  0  0  0  0
   21.2788   18.2577   24.1217 H   0  0  0  0  0  0  0  0  0  0  0  0
   22.8692   18.6408   23.4080 H   0  0  0  0  0  0  0  0  0  0  0  0
   21.4340   19.5945   22.9498 H   0  0  0  0  0  0  0  0  0  0  0  0
  1  2  1  0  0  0  0
  1  3  1  0  0  0  0
  1  4  1  0  0  0  0
  1  5  1  0  0  0  0
  5  6  1  0  0  0  0
  5  7  1  0  0  0  0
  5  8  1  0  0  0  0
  8  9  1  0  0  0  0
  8 10  1  0  0  0  0
  8 11  1  0  0  0  0
 11 12  1  0  0  0  0
 11 13  1  0  0  0  0
 11 14  1  0  0  0  0
 14 15  1  0  0  0  0
 14 16  1  0  0  0  0
 14 17  1  0  0  0  0
 17 18  1  0  0  0  0
 17 19  1  0  0  0  0
 17 20  1  0  0  0  0
M  END
> <VConfSearch Rank>
665

> <Conf_Id>
54

> <Delta U+W>
1.880

> <U+W>
17.218

> <U>
72.122

> <W>
-54.903

> <W(PB)>
-56.724

> <W(SA)>
1.821

> <Valence>
3.197

> <Coulomb>
69.115

> <VdW>
-0.190

> <VdW6>
-5.585

> <VdW12>
5.395

> <Bond>
0.177

> <Angle>
1.207

> <Pdih>
1.813

> <Idih>
0.000

> <Tether>
0.000

$$$$
VeraChem MOL file


 20 19  0  0  0  0  0  0  0  0999 V2000     
   18.3540   17.2152   24.2113 C   0  0  0  0  0  0  0  0  0  0  0  0
   19.2044   16.8815   24.8201 H   0  0  0  0  0  0  0  0  0  0  0  0
   17.5215   17.4391   24.8908 H   0  0  0  0  0  0  0  0  0  0  0  0
   18.0470   16.3810   23.5671 H   0  0  0  0  0  0  0  0  0  0  0  0
   18.7237   18.4583   23.3733 C   0  0  0  0  0  0  0  0  0  0  0  0
   18.9925   19.2853   24.0458 H   0  0  0  0  0  0  0  0  0  0  0  0
   17.8442   18.7887   22.8026 H   0  0  0  0  0  0  0  0  0  0  0  0
   19.8940   18.1724   22.4067 C   0  0  0  0  0  0  0  0  0  0  0  0
   20.7733   17.8458   22.9779 H   0  0  0  0  0  0  0  0  0  0  0  0
   19.6235   17.3484   21.7330 H   0  0  0  0  0  0  0  0  0  0  0  0
   20.2566   19.4166   21.5747 C   0  0  0  0  0  0  0  0  0  0  0  0
   20.5413   20.2341   22.2418 H   0  0  0  0  0  0  0  0  0  0  0  0
   19.3879   19.7350   20.9928 H   0  0  0  0  0  0  0  0  0  0  0  0
   21.4025   19.1828   20.6099 N   0  3  0  0  0  0  0  0  0  0  0  0
   21.1744   18.4100   19.9658 H   0  0  0  0  0  0  0  0  0  0  0  0
   22.2423   18.8721   21.1222 H   0  0  0  0  0  0  0  0  0  0  0  0
   21.6942   20.4583   19.8308 C   0  0  0  0  0  0  0  0  0  0  0  0
   21.9665   21.2525   20.5293 H   0  0  0  0  0  0  0  0  0  0  0  0
   22.5208   20.2759   19.1404 H   0  0  0  0  0  0  0  0  0  0  0  0
   20.8035   20.7490   19.2697 H   0  0  0  0  0  0  0  0  0  0  0  0
  1  2  1  0  0  0  0
  1  3  1  0  0  0  0
  1  4  1  0  0  0  0
  1  5  1  0  0  0  0
  5  6  1  0  0  0  0
  5  7  1  0  0  0  0
  5  8  1  0  0  0  0
  8  9  1  0  0  0  0
  8 10  1  0  0  0  0
  8 11  1  0  0  0  0
 11 12  1  0  0  0  0
 11 13  1  0  0  0  0
 11 14  1  0  0  0  0
 14 15  1  0  0  0  0
 14 16  1  0  0  0  0
 14 17  1  0  0  0  0
 17 18  1  0  0  0  0
 17 19  1  0  0  0  0
 17 20  1  0  0  0  0
M  END
> <VConfSearch Rank>
666

> <Conf_Id>
67

> <Delta U+W>
0.000

> <U+W>
15.338

> <U>
69.277

> <W>
-53.939

> <W(PB)>
-55.889

> <W(SA)>
1.950

> <Valence>
0.846

> <Coulomb>
68.557

> <VdW>
-0.127

> <VdW6>
-3.008

> <VdW12>
2.882

> <Bond>
0.088

> <Angle>
0.332

> <Pdih>
0.426

> <Idih>
0.000

> <Tether>
0.000

$$$$
VeraChem MOL file


 20 19  0  0  0  0  0  0  0  0999 V2000     
   19.4610   15.9440   22.1616 C   0  0  0  0  0  0  0  0  0  0  0  0
   19.0766   16.0799   23.1809 H   0  0  0  0  0  0  0  0  0  0  0  0
   18.8653   15.1578   21.6799 H   0  0  0  0  0  0  0  0  0  0  0  0
   20.4963   15.5857   22.2320 H   0  0  0  0  0  0  0  0  0  0  0  0
   19.3810   17.2594   21.3569 C   0  0  0  0  0  0  0  0  0  0  0  0
   18.3310   17.5739   21.2745 H   0  0  0  0  0  0  0  0  0  0  0  0
   19.7391   17.0831   20.3327 H   0  0  0  0  0  0  0  0  0  0  0  0
   20.2112   18.3852   22.0120 C   0  0  0  0  0  0  0  0  0  0  0  0
   19.8502   18.5576   23.0341 H   0  0  0  0  0  0  0  0  0  0  0  0
   21.2607   18.0721   22.0900 H   0  0  0  0  0  0  0  0  0  0  0  0
   20.1262   19.6943   21.2002 C   0  0  0  0  0  0  0  0  0  0  0  0
   19.0899   20.0390   21.1591 H   0  0  0  0  0  0  0  0  0  0  0  0
   20.4584   19.4994   20.1773 H   0  0  0  0  0  0  0  0  0  0  0  0
   20.9768   20.8316   21.7423 N   0  3  0  0  0  0  0  0  0  0  0  0
   20.9932   21.6058   21.0599 H   0  0  0  0  0  0  0  0  0  0  0  0
   21.9606   20.5334   21.8266 H   0  0  0  0  0  0  0  0  0  0  0  0
   20.4450   21.3331   23.0807 C   0  0  0  0  0  0  0  0  0  0  0  0
   20.4929   20.5268   23.8152 H   0  0  0  0  0  0  0  0  0  0  0  0
   21.0581   22.1719   23.4175 H   0  0  0  0  0  0  0  0  0  0  0  0
   19.4105   21.6602   22.9566 H   0  0  0  0  0  0  0  0  0  0  0  0
  1  2  1  0  0  0  0
  1  3  1  0  0  0  0
  1  4  1  0  0  0  0
  1  5  1  0  0  0  0
  5  6  1  0  0  0  0
  5  7  1  0  0  0  0
  5  8  1  0  0  0  0
  8  9  1  0  0  0  0
  8 10  1  0  0  0  0
  8 11  1  0  0  0  0
 11 12  1  0  0  0  0
 11 13  1  0  0  0  0
 11 14  1  0  0  0  0
 14 15  1  0  0  0  0
 14 16  1  0  0  0  0
 14 17  1  0  0  0  0
 17 18  1  0  0  0  0
 17 19  1  0  0  0  0
 17 20  1  0  0  0  0
M  END
> <VConfSearch Rank>
667

> <Conf_Id>
37

> <Delta U+W>
-0.021

> <U+W>
15.318

> <U>
69.657

> <W>
-54.340

> <W(PB)>
-56.238

> <W(SA)>
1.899

> <Valence>
1.137

> <Coulomb>
68.383

> <VdW>
0.138

> <VdW6>
-3.703

> <VdW12>
3.841

> <Bond>
0.125

> <Angle>
0.468

> <Pdih>
0.543

> <Idih>
0.000

> <Tether>
0.000

$$$$
VeraChem MOL file


 20 19  0  0  0  0  0  0  0  0999 V2000     
   17.7313   20.7695   22.0340 C   0  0  0  0  0  0  0  0  0  0  0  0
   16.9078   21.1255   22.6665 H   0  0  0  0  0  0  0  0  0  0  0  0
   18.4464   21.5943   21.9177 H   0  0  0  0  0  0  0  0  0  0  0  0
   17.3177   20.5340   21.0448 H   0  0  0  0  0  0  0  0  0  0  0  0
   18.4070   19.5320   22.6634 C   0  0  0  0  0  0  0  0  0  0  0  0
   17.6596   18.7375   22.7994 H   0  0  0  0  0  0  0  0  0  0  0  0
   18.7800   19.7893   23.6649 H   0  0  0  0  0  0  0  0  0  0  0  0
   19.5711   19.0083   21.7938 C   0  0  0  0  0  0  0  0  0  0  0  0
   19.1970   18.7473   20.7950 H   0  0  0  0  0  0  0  0  0  0  0  0
   20.3146   19.8046   21.6608 H   0  0  0  0  0  0  0  0  0  0  0  0
   20.2385   17.7714   22.4299 C   0  0  0  0  0  0  0  0  0  0  0  0
   19.4801   16.9997   22.5851 H   0  0  0  0  0  0  0  0  0  0  0  0
   20.6565   18.0353   23.4046 H   0  0  0  0  0  0  0  0  0  0  0  0
   21.3487   17.1522   21.5963 N   0  3  0  0  0  0  0  0  0  0  0  0
   21.0002   16.9182   20.6542 H   0  0  0  0  0  0  0  0  0  0  0  0
   21.6253   16.2470   22.0078 H   0  0  0  0  0  0  0  0  0  0  0  0
   22.5604   18.0744   21.5132 C   0  0  0  0  0  0  0  0  0  0  0  0
   22.9192   18.2883   22.5223 H   0  0  0  0  0  0  0  0  0  0  0  0
   23.3476   17.5798   20.9401 H   0  0  0  0  0  0  0  0  0  0  0  0
   22.2754   19.0040   21.0167 H   0  0  0  0  0  0  0  0  0  0  0  0
  1  2  1  0  0  0  0
  1  3  1  0  0  0  0
  1  4  1  0  0  0  0
  1  5  1  0  0  0  0
  5  6  1  0  0  0  0
  5  7  1  0  0  0  0
  5  8  1  0  0  0  0
  8  9  1  0  0  0  0
  8 10  1  0  0  0  0
  8 11  1  0  0  0  0
 11 12  1  0  0  0  0
 11 13  1  0  0  0  0
 11 14  1  0  0  0  0
 14 15  1  0  0  0  0
 14 16  1  0  0  0  0
 14 17  1  0  0  0  0
 17 18  1  0  0  0  0
 17 19  1  0  0  0  0
 17 20  1  0  0  0  0
M  END
> <VConfSearch Rank>
668

> <Conf_Id>
2

> <Delta U+W>
0.069

> <U+W>
15.407

> <U>
69.657

> <W>
-54.250

> <W(PB)>
-56.176

> <W(SA)>
1.926

> <Valence>
1.137

> <Coulomb>
68.383

> <VdW>
0.138

> <VdW6>
-3.703

> <VdW12>
3.841

> <Bond>
0.125

> <Angle>
0.468

> <Pdih>
0.543

> <Idih>
0.000

> <Tether>
0.000

$$$$
VeraChem MOL file


 20 19  0  0  0  0  0  0  0  0999 V2000     
   20.4436   16.6142   20.4800 C   0  0  0  0  0  0  0  0  0  0  0  0
   20.1421   16.3196   21.4931 H   0  0  0  0  0  0  0  0  0  0  0  0
   19.5369   16.7284   19.8719 H   0  0  0  0  0  0  0  0  0  0  0  0
   21.0288   15.7879   20.0559 H   0  0  0  0  0  0  0  0  0  0  0  0
   21.2749   17.9177   20.4903 C   0  0  0  0  0  0  0  0  0  0  0  0
   21.6325   18.1228   19.4714 H   0  0  0  0  0  0  0  0  0  0  0  0
   22.1721   17.7784   21.1099 H   0  0  0  0  0  0  0  0  0  0  0  0
   20.4756   19.1406   20.9979 C   0  0  0  0  0  0  0  0  0  0  0  0
   21.1001   20.0391   20.9051 H   0  0  0  0  0  0  0  0  0  0  0  0
   19.5986   19.2991   20.3564 H   0  0  0  0  0  0  0  0  0  0  0  0
   20.0241   18.9882   22.4636 C   0  0  0  0  0  0  0  0  0  0  0  0
   20.8973   18.8328   23.1022 H   0  0  0  0  0  0  0  0  0  0  0  0
   19.3695   18.1186   22.5588 H   0  0  0  0  0  0  0  0  0  0  0  0
   19.2708   20.1940   22.9898 N   0  3  0  0  0  0  0  0  0  0  0  0
   18.4415   20.3794   22.4050 H   0  0  0  0  0  0  0  0  0  0  0  0
   19.8545   21.0410   22.9120 H   0  0  0  0  0  0  0  0  0  0  0  0
   18.8612   19.9594   24.4377 C   0  0  0  0  0  0  0  0  0  0  0  0
   19.7558   19.7997   25.0434 H   0  0  0  0  0  0  0  0  0  0  0  0
   18.3202   20.8347   24.8038 H   0  0  0  0  0  0  0  0  0  0  0  0
   18.2167   19.0793   24.4913 H   0  0  0  0  0  0  0  0  0  0  0  0
  1  2  1  0  0  0  0
  1  3  1  0  0  0  0
  1  4  1  0  0  0  0
  1  5  1  0  0  0  0
  5  6  1  0  0  0  0
  5  7  1  0  0  0  0
  5  8  1  0  0  0  0
  8  9  1  0  0  0  0
  8 10  1  0  0  0  0
  8 11  1  0  0  0  0
 11 12  1  0  0  0  0
 11 13  1  0  0  0  0
 11 14  1  0  0  0  0
 14 15  1  0  0  0  0
 14 16  1  0  0  0  0
 14 17  1  0  0  0  0
 17 18  1  0  0  0  0
 17 19  1  0  0  0  0
 17 20  1  0  0  0  0
M  END
> <VConfSearch Rank>
669

> <Conf_Id>
34

> <Delta U+W>
0.276

> <U+W>
15.615

> <U>
69.798

> <W>
-54.184

> <W(PB)>
-56.116

> <W(SA)>
1.933

> <Valence>
1.134

> <Coulomb>
68.735

> <VdW>
-0.070

> <VdW6>
-3.565

> <VdW12>
3.494

> <Bond>
0.108

> <Angle>
0.456

> <Pdih>
0.569

> <Idih>
0.000

> <Tether>
0.000

$$$$
VeraChem MOL file


 20 19  0  0  0  0  0  0  0  0999 V2000     
   20.7220   20.7379   19.7749 C   0  0  0  0  0  0  0  0  0  0  0  0
   20.6336   21.7640   20.1549 H   0  0  0  0  0  0  0  0  0  0  0  0
   21.6255   20.6866   19.1536 H   0  0  0  0  0  0  0  0  0  0  0  0
   19.8577   20.5375   19.1284 H   0  0  0  0  0  0  0  0  0  0  0  0
   20.7978   19.7199   20.9333 C   0  0  0  0  0  0  0  0  0  0  0  0
   21.6891   19.9271   21.5424 H   0  0  0  0  0  0  0  0  0  0  0  0
   20.9259   18.7116   20.5168 H   0  0  0  0  0  0  0  0  0  0  0  0
   19.5345   19.7719   21.8247 C   0  0  0  0  0  0  0  0  0  0  0  0
   19.3983   20.7943   22.2015 H   0  0  0  0  0  0  0  0  0  0  0  0
   18.6426   19.5380   21.2283 H   0  0  0  0  0  0  0  0  0  0  0  0
   19.6137   18.8149   23.0311 C   0  0  0  0  0  0  0  0  0  0  0  0
   18.7373   18.9625   23.6673 H   0  0  0  0  0  0  0  0  0  0  0  0
   20.5047   19.0416   23.6219 H   0  0  0  0  0  0  0  0  0  0  0  0
   19.6624   17.3462   22.6537 N   0  3  0  0  0  0  0  0  0  0  0  0
   20.4786   17.1606   22.0521 H   0  0  0  0  0  0  0  0  0  0  0  0
   18.8389   17.0979   22.0843 H   0  0  0  0  0  0  0  0  0  0  0  0
   19.7210   16.4884   23.9106 C   0  0  0  0  0  0  0  0  0  0  0  0
   20.6169   16.7451   24.4801 H   0  0  0  0  0  0  0  0  0  0  0  0
   18.8317   16.6763   24.5162 H   0  0  0  0  0  0  0  0  0  0  0  0
   19.7557   15.4348   23.6248 H   0  0  0  0  0  0  0  0  0  0  0  0
  1  2  1  0  0  0  0
  1  3  1  0  0  0  0
  1  4  1  0  0  0  0
  1  5  1  0  0  0  0
  5  6  1  0  0  0  0
  5  7  1  0  0  0  0
  5  8  1  0  0  0  0
  8  9  1  0  0  0  0
  8 10  1  0  0  0  0
  8 11  1  0  0  0  0
 11 12  1  0  0  0  0
 11 13  1  0  0  0  0
 11 14  1  0  0  0  0
 14 15  1  0  0  0  0
 14 16  1  0  0  0  0
 14 17  1  0  0  0  0
 17 18  1  0  0  0  0
 17 19  1  0  0  0  0
 17 20  1  0  0  0  0
M  END
> <VConfSearch Rank>
670

> <Conf_Id>
50

> <Delta U+W>
0.319

> <U+W>
15.657

> <U>
69.962

> <W>
-54.305

> <W(PB)>
-56.223

> <W(SA)>
1.918

> <Valence>
0.982

> <Coulomb>
69.058

> <VdW>
-0.078

> <VdW6>
-3.548

> <VdW12>
3.471

> <Bond>
0.105

> <Angle>
0.408

> <Pdih>
0.469

> <Idih>
0.000

> <Tether>
0.000

$$$$
VeraChem MOL file


 20 19  0  0  0  0  0  0  0  0999 V2000     
   21.1174   21.5458   21.1157 C   0  0  0  0  0  0  0  0  0  0  0  0
   21.7156   21.7235   20.2126 H   0  0  0  0  0  0  0  0  0  0  0  0
   20.2890   22.2662   21.1168 H   0  0  0  0  0  0  0  0  0  0  0  0
   21.7527   21.7547   21.9863 H   0  0  0  0  0  0  0  0  0  0  0  0
   20.5926   20.0940   21.1457 C   0  0  0  0  0  0  0  0  0  0  0  0
   21.4457   19.4034   21.1030 H   0  0  0  0  0  0  0  0  0  0  0  0
   19.9876   19.9068   20.2473 H   0  0  0  0  0  0  0  0  0  0  0  0
   19.7458   19.8175   22.4105 C   0  0  0  0  0  0  0  0  0  0  0  0
   20.3524   19.9753   23.3122 H   0  0  0  0  0  0  0  0  0  0  0  0
   18.9204   20.5402   22.4595 H   0  0  0  0  0  0  0  0  0  0  0  0
   19.1498   18.3956   22.4323 C   0  0  0  0  0  0  0  0  0  0  0  0
   18.5513   18.2343   21.5321 H   0  0  0  0  0  0  0  0  0  0  0  0
   18.4932   18.2925   23.3000 H   0  0  0  0  0  0  0  0  0  0  0  0
   20.1869   17.2909   22.5100 N   0  3  0  0  0  0  0  0  0  0  0  0
   20.7790   17.4174   23.3452 H   0  0  0  0  0  0  0  0  0  0  0  0
   20.8295   17.3495   21.7062 H   0  0  0  0  0  0  0  0  0  0  0  0
   19.4984   15.9332   22.5440 C   0  0  0  0  0  0  0  0  0  0  0  0
   20.2556   15.1480   22.5997 H   0  0  0  0  0  0  0  0  0  0  0  0
   18.8489   15.8809   23.4205 H   0  0  0  0  0  0  0  0  0  0  0  0
   18.9044   15.8080   21.6361 H   0  0  0  0  0  0  0  0  0  0  0  0
  1  2  1  0  0  0  0
  1  3  1  0  0  0  0
  1  4  1  0  0  0  0
  1  5  1  0  0  0  0
  5  6  1  0  0  0  0
  5  7  1  0  0  0  0
  5  8  1  0  0  0  0
  8  9  1  0  0  0  0
  8 10  1  0  0  0  0
  8 11  1  0  0  0  0
 11 12  1  0  0  0  0
 11 13  1  0  0  0  0
 11 14  1  0  0  0  0
 14 15  1  0  0  0  0
 14 16  1  0  0  0  0
 14 17  1  0  0  0  0
 17 18  1  0  0  0  0
 17 19  1  0  0  0  0
 17 20  1  0  0  0  0
M  END
> <VConfSearch Rank>
671

> <Conf_Id>
35

> <Delta U+W>
0.360

> <U+W>
15.698

> <U>
69.962

> <W>
-54.264

> <W(PB)>
-56.166

> <W(SA)>
1.902

> <Valence>
0.982

> <Coulomb>
69.058

> <VdW>
-0.078

> <VdW6>
-3.548

> <VdW12>
3.471

> <Bond>
0.105

> <Angle>
0.408

> <Pdih>
0.469

> <Idih>
0.000

> <Tether>
0.000

$$$$
VeraChem MOL file


 20 19  0  0  0  0  0  0  0  0999 V2000     
   19.2706   18.1291   24.3780 C   0  0  0  0  0  0  0  0  0  0  0  0
   18.4698   17.7523   23.7293 H   0  0  0  0  0  0  0  0  0  0  0  0
   19.1876   17.6100   25.3416 H   0  0  0  0  0  0  0  0  0  0  0  0
   19.0926   19.1975   24.5570 H   0  0  0  0  0  0  0  0  0  0  0  0
   20.6655   17.8944   23.7539 C   0  0  0  0  0  0  0  0  0  0  0  0
   20.8162   16.8195   23.5803 H   0  0  0  0  0  0  0  0  0  0  0  0
   21.4369   18.2018   24.4739 H   0  0  0  0  0  0  0  0  0  0  0  0
   20.8738   18.6702   22.4323 C   0  0  0  0  0  0  0  0  0  0  0  0
   20.7590   19.7456   22.6196 H   0  0  0  0  0  0  0  0  0  0  0  0
   21.9053   18.5191   22.0878 H   0  0  0  0  0  0  0  0  0  0  0  0
   19.8996   18.2213   21.3219 C   0  0  0  0  0  0  0  0  0  0  0  0
   18.8702   18.4282   21.6242 H   0  0  0  0  0  0  0  0  0  0  0  0
   19.9997   17.1426   21.1773 H   0  0  0  0  0  0  0  0  0  0  0  0
   20.1306   18.8824   19.9728 N   0  3  0  0  0  0  0  0  0  0  0  0
   19.5554   18.4136   19.2555 H   0  0  0  0  0  0  0  0  0  0  0  0
   21.1046   18.7379   19.6660 H   0  0  0  0  0  0  0  0  0  0  0  0
   19.7906   20.3682   20.0189 C   0  0  0  0  0  0  0  0  0  0  0  0
   20.4482   20.8688   20.7323 H   0  0  0  0  0  0  0  0  0  0  0  0
   19.9333   20.7987   19.0252 H   0  0  0  0  0  0  0  0  0  0  0  0
   18.7497   20.4895   20.3262 H   0  0  0  0  0  0  0  0  0  0  0  0
  1  2  1  0  0  0  0
  1  3  1  0  0  0  0
  1  4  1  0  0  0  0
  1  5  1  0  0  0  0
  5  6  1  0  0  0  0
  5  7  1  0  0  0  0
  5  8  1  0  0  0  0
  8  9  1  0  0  0  0
  8 10  1  0  0  0  0
  8 11  1  0  0  0  0
 11 12  1  0  0  0  0
 11 13  1  0  0  0  0
 11 14  1  0  0  0  0
 14 15  1  0  0  0  0
 14 16  1  0  0  0  0
 14 17  1  0  0  0  0
 17 18  1  0  0  0  0
 17 19  1  0  0  0  0
 17 20  1  0  0  0  0
M  END
> <VConfSearch Rank>
672

> <Conf_Id>
33

> <Delta U+W>
0.372

> <U+W>
15.711

> <U>
70.163

> <W>
-54.452

> <W(PB)>
-56.363

> <W(SA)>
1.911

> <Valence>
1.420

> <Coulomb>
68.566

> <VdW>
0.177

> <VdW6>
-4.267

> <VdW12>
4.445

> <Bond>
0.146

> <Angle>
0.581

> <Pdih>
0.693

> <Idih>
0.000

> <Tether>
0.000

$$$$
VeraChem MOL file


 20 19  0  0  0  0  0  0  0  0999 V2000     
   20.8421   16.5559   22.9964 C   0  0  0  0  0  0  0  0  0  0  0  0
   20.9303   15.4735   23.1562 H   0  0  0  0  0  0  0  0  0  0  0  0
   21.7085   16.8742   22.4029 H   0  0  0  0  0  0  0  0  0  0  0  0
   20.9005   17.0448   23.9776 H   0  0  0  0  0  0  0  0  0  0  0  0
   19.5112   16.8924   22.2853 C   0  0  0  0  0  0  0  0  0  0  0  0
   18.6778   16.4762   22.8685 H   0  0  0  0  0  0  0  0  0  0  0  0
   19.4804   16.3957   21.3052 H   0  0  0  0  0  0  0  0  0  0  0  0
   19.2899   18.4126   22.1067 C   0  0  0  0  0  0  0  0  0  0  0  0
   18.2975   18.5802   21.6677 H   0  0  0  0  0  0  0  0  0  0  0  0
   19.2843   18.8977   23.0912 H   0  0  0  0  0  0  0  0  0  0  0  0
   20.3586   19.0649   21.2034 C   0  0  0  0  0  0  0  0  0  0  0  0
   20.3767   18.5438   20.2428 H   0  0  0  0  0  0  0  0  0  0  0  0
   21.3451   18.9639   21.6619 H   0  0  0  0  0  0  0  0  0  0  0  0
   20.1279   20.5392   20.9144 N   0  3  0  0  0  0  0  0  0  0  0  0
   19.1902   20.6817   20.5095 H   0  0  0  0  0  0  0  0  0  0  0  0
   20.7828   20.8540   20.1814 H   0  0  0  0  0  0  0  0  0  0  0  0
   20.3114   21.3849   22.1701 C   0  0  0  0  0  0  0  0  0  0  0  0
   20.1746   22.4381   21.9151 H   0  0  0  0  0  0  0  0  0  0  0  0
   19.5717   21.0902   22.9170 H   0  0  0  0  0  0  0  0  0  0  0  0
   21.3180   21.2296   22.5642 H   0  0  0  0  0  0  0  0  0  0  0  0
  1  2  1  0  0  0  0
  1  3  1  0  0  0  0
  1  4  1  0  0  0  0
  1  5  1  0  0  0  0
  5  6  1  0  0  0  0
  5  7  1  0  0  0  0
  5  8  1  0  0  0  0
  8  9  1  0  0  0  0
  8 10  1  0  0  0  0
  8 11  1  0  0  0  0
 11 12  1  0  0  0  0
 11 13  1  0  0  0  0
 11 14  1  0  0  0  0
 14 15  1  0  0  0  0
 14 16  1  0  0  0  0
 14 17  1  0  0  0  0
 17 18  1  0  0  0  0
 17 19  1  0  0  0  0
 17 20  1  0  0  0  0
M  END
> <VConfSearch Rank>
673

> <Conf_Id>
53

> <Delta U+W>
0.379

> <U+W>
15.717

> <U>
70.163

> <W>
-54.446

> <W(PB)>
-56.322

> <W(SA)>
1.876

> <Valence>
1.420

> <Coulomb>
68.566

> <VdW>
0.177

> <VdW6>
-4.267

> <VdW12>
4.445

> <Bond>
0.146

> <Angle>
0.581

> <Pdih>
0.693

> <Idih>
0.000

> <Tether>
0.000

$$$$
VeraChem MOL file


 20 19  0  0  0  0  0  0  0  0999 V2000     
   19.6094   21.0040   23.6864 C   0  0  0  0  0  0  0  0  0  0  0  0
   19.5672   22.0703   23.4292 H   0  0  0  0  0  0  0  0  0  0  0  0
   18.7833   20.7923   24.3778 H   0  0  0  0  0  0  0  0  0  0  0  0
   20.5534   20.8231   24.2167 H   0  0  0  0  0  0  0  0  0  0  0  0
   19.5095   20.1319   22.4162 C   0  0  0  0  0  0  0  0  0  0  0  0
   20.3277   20.3982   21.7333 H   0  0  0  0  0  0  0  0  0  0  0  0
   18.5706   20.3583   21.8914 H   0  0  0  0  0  0  0  0  0  0  0  0
   19.5686   18.6230   22.7515 C   0  0  0  0  0  0  0  0  0  0  0  0
   20.5166   18.3862   23.2516 H   0  0  0  0  0  0  0  0  0  0  0  0
   18.7734   18.3792   23.4683 H   0  0  0  0  0  0  0  0  0  0  0  0
   19.3926   17.7239   21.5075 C   0  0  0  0  0  0  0  0  0  0  0  0
   18.4196   17.9313   21.0548 H   0  0  0  0  0  0  0  0  0  0  0  0
   19.4028   16.6744   21.8122 H   0  0  0  0  0  0  0  0  0  0  0  0
   20.4451   17.8981   20.4228 N   0  3  0  0  0  0  0  0  0  0  0  0
   20.4718   18.8787   20.1071 H   0  0  0  0  0  0  0  0  0  0  0  0
   20.1718   17.3576   19.5871 H   0  0  0  0  0  0  0  0  0  0  0  0
   21.8191   17.4465   20.9056 C   0  0  0  0  0  0  0  0  0  0  0  0
   21.7655   16.4005   21.2148 H   0  0  0  0  0  0  0  0  0  0  0  0
   22.5378   17.5528   20.0901 H   0  0  0  0  0  0  0  0  0  0  0  0
   22.1282   18.0668   21.7493 H   0  0  0  0  0  0  0  0  0  0  0  0
  1  2  1  0  0  0  0
  1  3  1  0  0  0  0
  1  4  1  0  0  0  0
  1  5  1  0  0  0  0
  5  6  1  0  0  0  0
  5  7  1  0  0  0  0
  5  8  1  0  0  0  0
  8  9  1  0  0  0  0
  8 10  1  0  0  0  0
  8 11  1  0  0  0  0
 11 12  1  0  0  0  0
 11 13  1  0  0  0  0
 11 14  1  0  0  0  0
 14 15  1  0  0  0  0
 14 16  1  0  0  0  0
 14 17  1  0  0  0  0
 17 18  1  0  0  0  0
 17 19  1  0  0  0  0
 17 20  1  0  0  0  0
M  END
> <VConfSearch Rank>
674

> <Conf_Id>
49

> <Delta U+W>
0.268

> <U+W>
15.607

> <U>
70.298

> <W>
-54.692

> <W(PB)>
-56.576

> <W(SA)>
1.885

> <Valence>
1.245

> <Coulomb>
68.933

> <VdW>
0.120

> <VdW6>
-4.430

> <VdW12>
4.550

> <Bond>
0.148

> <Angle>
0.587

> <Pdih>
0.509

> <Idih>
0.000

> <Tether>
0.000

$$$$
VeraChem MOL file


 20 19  0  0  0  0  0  0  0  0999 V2000     
   17.7426   18.9051   20.4390 C   0  0  0  0  0  0  0  0  0  0  0  0
   16.9632   18.7633   21.1991 H   0  0  0  0  0  0  0  0  0  0  0  0
   17.6275   19.9112   20.0153 H   0  0  0  0  0  0  0  0  0  0  0  0
   17.5636   18.1797   19.6347 H   0  0  0  0  0  0  0  0  0  0  0  0
   19.1503   18.7128   21.0436 C   0  0  0  0  0  0  0  0  0  0  0  0
   19.9062   18.8329   20.2548 H   0  0  0  0  0  0  0  0  0  0  0  0
   19.2370   17.6848   21.4192 H   0  0  0  0  0  0  0  0  0  0  0  0
   19.4241   19.7165   22.1879 C   0  0  0  0  0  0  0  0  0  0  0  0
   19.2202   20.7339   21.8285 H   0  0  0  0  0  0  0  0  0  0  0  0
   18.7248   19.5366   23.0150 H   0  0  0  0  0  0  0  0  0  0  0  0
   20.8732   19.6834   22.7245 C   0  0  0  0  0  0  0  0  0  0  0  0
   20.9715   20.4700   23.4771 H   0  0  0  0  0  0  0  0  0  0  0  0
   21.5810   19.9036   21.9215 H   0  0  0  0  0  0  0  0  0  0  0  0
   21.2979   18.3843   23.3917 N   0  3  0  0  0  0  0  0  0  0  0  0
   20.4948   17.9431   23.8642 H   0  0  0  0  0  0  0  0  0  0  0  0
   21.9669   18.5937   24.1491 H   0  0  0  0  0  0  0  0  0  0  0  0
   21.9513   17.4329   22.3944 C   0  0  0  0  0  0  0  0  0  0  0  0
   22.2611   16.5254   22.9173 H   0  0  0  0  0  0  0  0  0  0  0  0
   21.2407   17.1769   21.6078 H   0  0  0  0  0  0  0  0  0  0  0  0
   22.8253   17.9192   21.9560 H   0  0  0  0  0  0  0  0  0  0  0  0
  1  2  1  0  0  0  0
  1  3  1  0  0  0  0
  1  4  1  0  0  0  0
  1  5  1  0  0  0  0
  5  6  1  0  0  0  0
  5  7  1  0  0  0  0
  5  8  1  0  0  0  0
  8  9  1  0  0  0  0
  8 10  1  0  0  0  0
  8 11  1  0  0  0  0
 11 12  1  0  0  0  0
 11 13  1  0  0  0  0
 11 14  1  0  0  0  0
 14 15  1  0  0  0  0
 14 16  1  0  0  0  0
 14 17  1  0  0  0  0
 17 18  1  0  0  0  0
 17 19  1  0  0  0  0
 17 20  1  0  0  0  0
M  END
> <VConfSearch Rank>
675

> <Conf_Id>
65

> <Delta U+W>
1.775

> <U+W>
17.114

> <U>
71.726

> <W>
-54.613

> <W(PB)>
-56.495

> <W(SA)>
1.883

> <Valence>
2.885

> <Coulomb>
68.822

> <VdW>
0.019

> <VdW6>
-4.600

> <VdW12>
4.619

> <Bond>
0.152

> <Angle>
0.862

> <Pdih>
1.871

> <Idih>
0.000

> <Tether>
0.000

$$$$
VeraChem MOL file


 20 19  0  0  0  0  0  0  0  0999 V2000     
   19.4166   17.7383   19.9829 C   0  0  0  0  0  0  0  0  0  0  0  0
   18.6242   17.9890   20.6994 H   0  0  0  0  0  0  0  0  0  0  0  0
   19.0499   17.9962   18.9809 H   0  0  0  0  0  0  0  0  0  0  0  0
   19.5737   16.6522   20.0121 H   0  0  0  0  0  0  0  0  0  0  0  0
   20.7268   18.4980   20.2930 C   0  0  0  0  0  0  0  0  0  0  0  0
   20.5439   19.5806   20.2570 H   0  0  0  0  0  0  0  0  0  0  0  0
   21.4575   18.2883   19.4993 H   0  0  0  0  0  0  0  0  0  0  0  0
   21.3473   18.1068   21.6576 C   0  0  0  0  0  0  0  0  0  0  0  0
   21.6188   17.0430   21.6387 H   0  0  0  0  0  0  0  0  0  0  0  0
   22.2852   18.6588   21.8035 H   0  0  0  0  0  0  0  0  0  0  0  0
   20.4185   18.3566   22.8642 C   0  0  0  0  0  0  0  0  0  0  0  0
   20.9168   18.0266   23.7793 H   0  0  0  0  0  0  0  0  0  0  0  0
   19.5013   17.7742   22.7494 H   0  0  0  0  0  0  0  0  0  0  0  0
   20.0291   19.8105   23.0514 N   0  3  0  0  0  0  0  0  0  0  0  0
   19.5608   20.1620   22.2031 H   0  0  0  0  0  0  0  0  0  0  0  0
   20.8729   20.3932   23.1622 H   0  0  0  0  0  0  0  0  0  0  0  0
   19.1174   19.9531   24.2626 C   0  0  0  0  0  0  0  0  0  0  0  0
   19.6450   19.6044   25.1530 H   0  0  0  0  0  0  0  0  0  0  0  0
   18.8442   21.0036   24.3845 H   0  0  0  0  0  0  0  0  0  0  0  0
   18.2173   19.3541   24.1081 H   0  0  0  0  0  0  0  0  0  0  0  0
  1  2  1  0  0  0  0
  1  3  1  0  0  0  0
  1  4  1  0  0  0  0
  1  5  1  0  0  0  0
  5  6  1  0  0  0  0
  5  7  1  0  0  0  0
  5  8  1  0  0  0  0
  8  9  1  0  0  0  0
  8 10  1  0  0  0  0
  8 11  1  0  0  0  0
 11 12  1  0  0  0  0
 11 13  1  0  0  0  0
 11 14  1  0  0  0  0
 14 15  1  0  0  0  0
 14 16  1  0  0  0  0
 14 17  1  0  0  0  0
 17 18  1  0  0  0  0
 17 19  1  0  0  0  0
 17 20  1  0  0  0  0
M  END
> <VConfSearch Rank>
676

> <Conf_Id>
23

> <Delta U+W>
0.896

> <U+W>
16.234

> <U>
70.374

> <W>
-54.140

> <W(PB)>
-56.046

> <W(SA)>
1.907

> <Valence>
1.257

> <Coulomb>
69.240

> <VdW>
-0.123

> <VdW6>
-4.336

> <VdW12>
4.213

> <Bond>
0.128

> <Angle>
0.603

> <Pdih>
0.526

> <Idih>
0.000

> <Tether>
0.000

$$$$
VeraChem MOL file


 20 19  0  0  0  0  0  0  0  0999 V2000     
   20.4712   19.1058   19.7002 C   0  0  0  0  0  0  0  0  0  0  0  0
   19.7444   19.8185   19.2894 H   0  0  0  0  0  0  0  0  0  0  0  0
   21.1600   18.8275   18.8921 H   0  0  0  0  0  0  0  0  0  0  0  0
   19.9301   18.1995   20.0000 H   0  0  0  0  0  0  0  0  0  0  0  0
   21.2475   19.7245   20.8854 C   0  0  0  0  0  0  0  0  0  0  0  0
   21.8453   20.5704   20.5179 H   0  0  0  0  0  0  0  0  0  0  0  0
   21.9675   18.9935   21.2777 H   0  0  0  0  0  0  0  0  0  0  0  0
   20.3220   20.2251   22.0224 C   0  0  0  0  0  0  0  0  0  0  0  0
   20.9313   20.6760   22.8169 H   0  0  0  0  0  0  0  0  0  0  0  0
   19.6795   21.0280   21.6375 H   0  0  0  0  0  0  0  0  0  0  0  0
   19.4259   19.1267   22.6319 C   0  0  0  0  0  0  0  0  0  0  0  0
   18.7826   18.7043   21.8564 H   0  0  0  0  0  0  0  0  0  0  0  0
   18.7854   19.5668   23.4005 H   0  0  0  0  0  0  0  0  0  0  0  0
   20.1963   17.9878   23.2722 N   0  3  0  0  0  0  0  0  0  0  0  0
   20.8177   18.3502   24.0115 H   0  0  0  0  0  0  0  0  0  0  0  0
   20.8199   17.5500   22.5780 H   0  0  0  0  0  0  0  0  0  0  0  0
   19.2278   16.9607   23.8430 C   0  0  0  0  0  0  0  0  0  0  0  0
   18.6038   16.5679   23.0373 H   0  0  0  0  0  0  0  0  0  0  0  0
   19.7956   16.1468   24.2992 H   0  0  0  0  0  0  0  0  0  0  0  0
   18.5995   17.4391   24.5973 H   0  0  0  0  0  0  0  0  0  0  0  0
  1  2  1  0  0  0  0
  1  3  1  0  0  0  0
  1  4  1  0  0  0  0
  1  5  1  0  0  0  0
  5  6  1  0  0  0  0
  5  7  1  0  0  0  0
  5  8  1  0  0  0  0
  8  9  1  0  0  0  0
  8 10  1  0  0  0  0
  8 11  1  0  0  0  0
 11 12  1  0  0  0  0
 11 13  1  0  0  0  0
 11 14  1  0  0  0  0
 14 15  1  0  0  0  0
 14 16  1  0  0  0  0
 14 17  1  0  0  0  0
 17 18  1  0  0  0  0
 17 19  1  0  0  0  0
 17 20  1  0  0  0  0
M  END
> <VConfSearch Rank>
677

> <Conf_Id>
24

> <Delta U+W>
0.792

> <U+W>
16.130

> <U>
70.374

> <W>
-54.243

> <W(PB)>
-56.130

> <W(SA)>
1.887

> <Valence>
1.257

> <Coulomb>
69.240

> <VdW>
-0.123

> <VdW6>
-4.336

> <VdW12>
4.213

> <Bond>
0.128

> <Angle>
0.603

> <Pdih>
0.526

> <Idih>
0.000

> <Tether>
0.000

$$$$
VeraChem MOL file


 20 19  0  0  0  0  0  0  0  0999 V2000     
   20.3404   18.4049   19.9256 C   0  0  0  0  0  0  0  0  0  0  0  0
   20.6406   17.9261   18.9844 H   0  0  0  0  0  0  0  0  0  0  0  0
   19.6029   17.7465   20.3994 H   0  0  0  0  0  0  0  0  0  0  0  0
   19.8572   19.3580   19.6738 H   0  0  0  0  0  0  0  0  0  0  0  0
   21.5734   18.6220   20.8322 C   0  0  0  0  0  0  0  0  0  0  0  0
   22.3646   19.1019   20.2389 H   0  0  0  0  0  0  0  0  0  0  0  0
   21.9756   17.6471   21.1419 H   0  0  0  0  0  0  0  0  0  0  0  0
   21.3041   19.4956   22.0841 C   0  0  0  0  0  0  0  0  0  0  0  0
   22.2581   19.6372   22.6089 H   0  0  0  0  0  0  0  0  0  0  0  0
   20.9727   20.4990   21.7859 H   0  0  0  0  0  0  0  0  0  0  0  0
   20.3014   18.8840   23.0855 C   0  0  0  0  0  0  0  0  0  0  0  0
   20.4483   19.3459   24.0652 H   0  0  0  0  0  0  0  0  0  0  0  0
   20.4867   17.8116   23.1853 H   0  0  0  0  0  0  0  0  0  0  0  0
   18.8445   19.0875   22.7154 N   0  3  0  0  0  0  0  0  0  0  0  0
   18.6652   18.7148   21.7722 H   0  0  0  0  0  0  0  0  0  0  0  0
   18.6309   20.0950   22.6574 H   0  0  0  0  0  0  0  0  0  0  0  0
   17.9465   18.4087   23.7406 C   0  0  0  0  0  0  0  0  0  0  0  0
   18.1677   17.3393   23.7609 H   0  0  0  0  0  0  0  0  0  0  0  0
   18.1325   18.8431   24.7252 H   0  0  0  0  0  0  0  0  0  0  0  0
   16.9020   18.5635   23.4614 H   0  0  0  0  0  0  0  0  0  0  0  0
  1  2  1  0  0  0  0
  1  3  1  0  0  0  0
  1  4  1  0  0  0  0
  1  5  1  0  0  0  0
  5  6  1  0  0  0  0
  5  7  1  0  0  0  0
  5  8  1  0  0  0  0
  8  9  1  0  0  0  0
  8 10  1  0  0  0  0
  8 11  1  0  0  0  0
 11 12  1  0  0  0  0
 11 13  1  0  0  0  0
 11 14  1  0  0  0  0
 14 15  1  0  0  0  0
 14 16  1  0  0  0  0
 14 17  1  0  0  0  0
 17 18  1  0  0  0  0
 17 19  1  0  0  0  0
 17 20  1  0  0  0  0
M  END
> <VConfSearch Rank>
678

> <Conf_Id>
26

> <Delta U+W>
2.888

> <U+W>
18.226

> <U>
72.042

> <W>
-53.816

> <W(PB)>
-55.689

> <W(SA)>
1.873

> <Valence>
2.428

> <Coulomb>
69.829

> <VdW>
-0.215

> <VdW6>
-4.563

> <VdW12>
4.348

> <Bond>
0.137

> <Angle>
0.936

> <Pdih>
1.356

> <Idih>
0.000

> <Tether>
0.000

$$$$
VeraChem MOL file


 20 19  0  0  0  0  0  0  0  0999 V2000     
   18.1535   19.5578   22.7973 C   0  0  0  0  0  0  0  0  0  0  0  0
   17.0713   19.6767   22.9381 H   0  0  0  0  0  0  0  0  0  0  0  0
   18.6552   20.2758   23.4591 H   0  0  0  0  0  0  0  0  0  0  0  0
   18.3723   19.8212   21.7558 H   0  0  0  0  0  0  0  0  0  0  0  0
   18.5782   18.1064   23.1174 C   0  0  0  0  0  0  0  0  0  0  0  0
   18.1338   17.4242   22.3789 H   0  0  0  0  0  0  0  0  0  0  0  0
   18.1503   17.8221   24.0890 H   0  0  0  0  0  0  0  0  0  0  0  0
   20.1112   17.8838   23.1751 C   0  0  0  0  0  0  0  0  0  0  0  0
   20.5583   18.5057   23.9620 H   0  0  0  0  0  0  0  0  0  0  0  0
   20.2905   16.8431   23.4759 H   0  0  0  0  0  0  0  0  0  0  0  0
   20.8415   18.1201   21.8361 C   0  0  0  0  0  0  0  0  0  0  0  0
   20.2503   17.7069   21.0151 H   0  0  0  0  0  0  0  0  0  0  0  0
   21.8026   17.6001   21.8569 H   0  0  0  0  0  0  0  0  0  0  0  0
   21.1341   19.5771   21.5317 N   0  3  0  0  0  0  0  0  0  0  0  0
   21.7291   19.9811   22.2711 H   0  0  0  0  0  0  0  0  0  0  0  0
   20.2615   20.1237   21.5530 H   0  0  0  0  0  0  0  0  0  0  0  0
   21.8115   19.6999   20.1735 C   0  0  0  0  0  0  0  0  0  0  0  0
   21.1503   19.2961   19.4037 H   0  0  0  0  0  0  0  0  0  0  0  0
   22.0159   20.7530   19.9682 H   0  0  0  0  0  0  0  0  0  0  0  0
   22.7485   19.1390   20.1870 H   0  0  0  0  0  0  0  0  0  0  0  0
  1  2  1  0  0  0  0
  1  3  1  0  0  0  0
  1  4  1  0  0  0  0
  1  5  1  0  0  0  0
  5  6  1  0  0  0  0
  5  7  1  0  0  0  0
  5  8  1  0  0  0  0
  8  9  1  0  0  0  0
  8 10  1  0  0  0  0
  8 11  1  0  0  0  0
 11 12  1  0  0  0  0
 11 13  1  0  0  0  0
 11 14  1  0  0  0  0
 14 15  1  0  0  0  0
 14 16  1  0  0  0  0
 14 17  1  0  0  0  0
 17 18  1  0  0  0  0
 17 19  1  0  0  0  0
 17 20  1  0  0  0  0
M  END
> <VConfSearch Rank>
679

> <Conf_Id>
5

> <Delta U+W>
2.950

> <U+W>
18.289

> <U>
72.042

> <W>
-53.753

> <W(PB)>
-55.644

> <W(SA)>
1.891

> <Valence>
2.428

> <Coulomb>
69.829

> <VdW>
-0.215

> <VdW6>
-4.563

> <VdW12>
4.348

> <Bond>
0.137

> <Angle>
0.936

> <Pdih>
1.356

> <Idih>
0.000

> <Tether>
0.000

$$$$
VeraChem MOL file


 20 19  0  0  0  0  0  0  0  0999 V2000     
   22.2555   19.9089   21.6934 C   0  0  0  0  0  0  0  0  0  0  0  0
   22.2236   20.7623   21.0036 H   0  0  0  0  0  0  0  0  0  0  0  0
   21.8736   20.2414   22.6667 H   0  0  0  0  0  0  0  0  0  0  0  0
   23.3080   19.6282   21.8293 H   0  0  0  0  0  0  0  0  0  0  0  0
   21.4433   18.7160   21.1390 C   0  0  0  0  0  0  0  0  0  0  0  0
   21.4929   17.8743   21.8432 H   0  0  0  0  0  0  0  0  0  0  0  0
   21.9154   18.3628   20.2115 H   0  0  0  0  0  0  0  0  0  0  0  0
   19.9657   19.0733   20.8417 C   0  0  0  0  0  0  0  0  0  0  0  0
   19.9314   19.8498   20.0662 H   0  0  0  0  0  0  0  0  0  0  0  0
   19.4583   18.1986   20.4148 H   0  0  0  0  0  0  0  0  0  0  0  0
   19.1797   19.5747   22.0746 C   0  0  0  0  0  0  0  0  0  0  0  0
   18.1509   19.8021   21.7843 H   0  0  0  0  0  0  0  0  0  0  0  0
   19.6365   20.4994   22.4356 H   0  0  0  0  0  0  0  0  0  0  0  0
   19.1260   18.6063   23.2462 N   0  3  0  0  0  0  0  0  0  0  0  0
   18.7073   19.0758   24.0643 H   0  0  0  0  0  0  0  0  0  0  0  0
   20.0813   18.3565   23.5412 H   0  0  0  0  0  0  0  0  0  0  0  0
   18.3230   17.3583   22.8964 C   0  0  0  0  0  0  0  0  0  0  0  0
   18.8085   16.8355   22.0700 H   0  0  0  0  0  0  0  0  0  0  0  0
   18.2802   16.7038   23.7697 H   0  0  0  0  0  0  0  0  0  0  0  0
   17.3117   17.6514   22.6064 H   0  0  0  0  0  0  0  0  0  0  0  0
  1  2  1  0  0  0  0
  1  3  1  0  0  0  0
  1  4  1  0  0  0  0
  1  5  1  0  0  0  0
  5  6  1  0  0  0  0
  5  7  1  0  0  0  0
  5  8  1  0  0  0  0
  8  9  1  0  0  0  0
  8 10  1  0  0  0  0
  8 11  1  0  0  0  0
 11 12  1  0  0  0  0
 11 13  1  0  0  0  0
 11 14  1  0  0  0  0
 14 15  1  0  0  0  0
 14 16  1  0  0  0  0
 14 17  1  0  0  0  0
 17 18  1  0  0  0  0
 17 19  1  0  0  0  0
 17 20  1  0  0  0  0
M  END
> <VConfSearch Rank>
680

> <Conf_Id>
52

> <Delta U+W>
0.784

> <U+W>
16.122

> <U>
70.777

> <W>
-54.655

> <W(PB)>
-56.491

> <W(SA)>
1.836

> <Valence>
1.529

> <Coulomb>
69.166

> <VdW>
0.082

> <VdW6>
-5.166

> <VdW12>
5.248

> <Bond>
0.171

> <Angle>
0.752

> <Pdih>
0.605

> <Idih>
0.000

> <Tether>
0.000

$$$$
VeraChem MOL file


 20 19  0  0  0  0  0  0  0  0999 V2000     
   18.4102   17.6254   21.6870 C   0  0  0  0  0  0  0  0  0  0  0  0
   17.4980   17.0149   21.6689 H   0  0  0  0  0  0  0  0  0  0  0  0
   18.2163   18.5092   21.0686 H   0  0  0  0  0  0  0  0  0  0  0  0
   19.2134   17.0373   21.2241 H   0  0  0  0  0  0  0  0  0  0  0  0
   18.7648   18.0147   23.1404 C   0  0  0  0  0  0  0  0  0  0  0  0
   18.7185   17.1112   23.7645 H   0  0  0  0  0  0  0  0  0  0  0  0
   17.9983   18.6960   23.5357 H   0  0  0  0  0  0  0  0  0  0  0  0
   20.1681   18.6509   23.3101 C   0  0  0  0  0  0  0  0  0  0  0  0
   20.3437   18.7958   24.3842 H   0  0  0  0  0  0  0  0  0  0  0  0
   20.9448   17.9525   22.9741 H   0  0  0  0  0  0  0  0  0  0  0  0
   20.3395   20.0242   22.6199 C   0  0  0  0  0  0  0  0  0  0  0  0
   21.1998   20.5399   23.0539 H   0  0  0  0  0  0  0  0  0  0  0  0
   19.4532   20.6337   22.8136 H   0  0  0  0  0  0  0  0  0  0  0  0
   20.5591   19.9848   21.1156 N   0  3  0  0  0  0  0  0  0  0  0  0
   20.4705   20.9375   20.7286 H   0  0  0  0  0  0  0  0  0  0  0  0
   19.8125   19.4387   20.6639 H   0  0  0  0  0  0  0  0  0  0  0  0
   21.9300   19.4128   20.7717 C   0  0  0  0  0  0  0  0  0  0  0  0
   22.7024   20.0187   21.2502 H   0  0  0  0  0  0  0  0  0  0  0  0
   21.9937   18.3830   21.1280 H   0  0  0  0  0  0  0  0  0  0  0  0
   22.0648   19.4342   19.6881 H   0  0  0  0  0  0  0  0  0  0  0  0
  1  2  1  0  0  0  0
  1  3  1  0  0  0  0
  1  4  1  0  0  0  0
  1  5  1  0  0  0  0
  5  6  1  0  0  0  0
  5  7  1  0  0  0  0
  5  8  1  0  0  0  0
  8  9  1  0  0  0  0
  8 10  1  0  0  0  0
  8 11  1  0  0  0  0
 11 12  1  0  0  0  0
 11 13  1  0  0  0  0
 11 14  1  0  0  0  0
 14 15  1  0  0  0  0
 14 16  1  0  0  0  0
 14 17  1  0  0  0  0
 17 18  1  0  0  0  0
 17 19  1  0  0  0  0
 17 20  1  0  0  0  0
M  END
> <VConfSearch Rank>
681

> <Conf_Id>
55

> <Delta U+W>
2.745

> <U+W>
18.083

> <U>
72.490

> <W>
-54.407

> <W(PB)>
-56.269

> <W(SA)>
1.861

> <Valence>
2.738

> <Coulomb>
69.795

> <VdW>
-0.043

> <VdW6>
-5.333

> <VdW12>
5.290

> <Bond>
0.182

> <Angle>
1.135

> <Pdih>
1.422

> <Idih>
0.000

> <Tether>
0.000

$$$$
VeraChem MOL file


 20 19  0  0  0  0  0  0  0  0999 V2000     
   19.5788   17.1858   20.7672 C   0  0  0  0  0  0  0  0  0  0  0  0
   19.5344   16.3786   20.0245 H   0  0  0  0  0  0  0  0  0  0  0  0
   19.2009   16.7852   21.7170 H   0  0  0  0  0  0  0  0  0  0  0  0
   18.9027   17.9762   20.4218 H   0  0  0  0  0  0  0  0  0  0  0  0
   21.0291   17.7007   20.9119 C   0  0  0  0  0  0  0  0  0  0  0  0
   21.3370   18.1981   19.9814 H   0  0  0  0  0  0  0  0  0  0  0  0
   21.6964   16.8351   21.0281 H   0  0  0  0  0  0  0  0  0  0  0  0
   21.2551   18.6530   22.1139 C   0  0  0  0  0  0  0  0  0  0  0  0
   21.0078   18.1436   23.0537 H   0  0  0  0  0  0  0  0  0  0  0  0
   22.3291   18.8744   22.1700 H   0  0  0  0  0  0  0  0  0  0  0  0
   20.5052   20.0020   22.0156 C   0  0  0  0  0  0  0  0  0  0  0  0
   20.6088   20.3943   21.0008 H   0  0  0  0  0  0  0  0  0  0  0  0
   20.9657   20.7200   22.6988 H   0  0  0  0  0  0  0  0  0  0  0  0
   19.0225   19.9597   22.3506 N   0  3  0  0  0  0  0  0  0  0  0  0
   18.5533   19.2381   21.7858 H   0  0  0  0  0  0  0  0  0  0  0  0
   18.5804   20.8504   22.0742 H   0  0  0  0  0  0  0  0  0  0  0  0
   18.7985   19.7113   23.8382 C   0  0  0  0  0  0  0  0  0  0  0  0
   19.2124   18.7386   24.1104 H   0  0  0  0  0  0  0  0  0  0  0  0
   19.2929   20.4979   24.4121 H   0  0  0  0  0  0  0  0  0  0  0  0
   17.7262   19.7237   24.0453 H   0  0  0  0  0  0  0  0  0  0  0  0
  1  2  1  0  0  0  0
  1  3  1  0  0  0  0
  1  4  1  0  0  0  0
  1  5  1  0  0  0  0
  5  6  1  0  0  0  0
  5  7  1  0  0  0  0
  5  8  1  0  0  0  0
  8  9  1  0  0  0  0
  8 10  1  0  0  0  0
  8 11  1  0  0  0  0
 11 12  1  0  0  0  0
 11 13  1  0  0  0  0
 11 14  1  0  0  0  0
 14 15  1  0  0  0  0
 14 16  1  0  0  0  0
 14 17  1  0  0  0  0
 17 18  1  0  0  0  0
 17 19  1  0  0  0  0
 17 20  1  0  0  0  0
M  END
> <VConfSearch Rank>
682

> <Conf_Id>
76

> <Delta U+W>
2.799

> <U+W>
18.137

> <U>
72.490

> <W>
-54.353

> <W(PB)>
-56.201

> <W(SA)>
1.848

> <Valence>
2.738

> <Coulomb>
69.795

> <VdW>
-0.043

> <VdW6>
-5.334

> <VdW12>
5.290

> <Bond>
0.182

> <Angle>
1.135

> <Pdih>
1.421

> <Idih>
0.000

> <Tether>
0.000

$$$$
VeraChem MOL file


 20 19  0  0  0  0  0  0  0  0999 V2000     
   18.1459   17.8218   21.7907 C   0  0  0  0  0  0  0  0  0  0  0  0
   18.4542   18.4558   20.9504 H   0  0  0  0  0  0  0  0  0  0  0  0
   18.1308   16.7803   21.4443 H   0  0  0  0  0  0  0  0  0  0  0  0
   17.1181   18.1006   22.0567 H   0  0  0  0  0  0  0  0  0  0  0  0
   19.0853   17.9880   23.0074 C   0  0  0  0  0  0  0  0  0  0  0  0
   18.6931   17.3898   23.8418 H   0  0  0  0  0  0  0  0  0  0  0  0
   19.0720   19.0289   23.3556 H   0  0  0  0  0  0  0  0  0  0  0  0
   20.5391   17.5405   22.7180 C   0  0  0  0  0  0  0  0  0  0  0  0
   21.1396   17.6433   23.6313 H   0  0  0  0  0  0  0  0  0  0  0  0
   20.5353   16.4686   22.4799 H   0  0  0  0  0  0  0  0  0  0  0  0
   21.2447   18.2886   21.5625 C   0  0  0  0  0  0  0  0  0  0  0  0
   20.6622   18.2100   20.6416 H   0  0  0  0  0  0  0  0  0  0  0  0
   22.2064   17.7999   21.3867 H   0  0  0  0  0  0  0  0  0  0  0  0
   21.5473   19.7576   21.8181 N   0  3  0  0  0  0  0  0  0  0  0  0
   22.4086   20.0192   21.3136 H   0  0  0  0  0  0  0  0  0  0  0  0
   21.7691   19.9107   22.8131 H   0  0  0  0  0  0  0  0  0  0  0  0
   20.4056   20.6577   21.3580 C   0  0  0  0  0  0  0  0  0  0  0  0
   20.6803   21.7001   21.5333 H   0  0  0  0  0  0  0  0  0  0  0  0
   20.2323   20.4989   20.2915 H   0  0  0  0  0  0  0  0  0  0  0  0
   19.5001   20.4197   21.9170 H   0  0  0  0  0  0  0  0  0  0  0  0
  1  2  1  0  0  0  0
  1  3  1  0  0  0  0
  1  4  1  0  0  0  0
  1  5  1  0  0  0  0
  5  6  1  0  0  0  0
  5  7  1  0  0  0  0
  5  8  1  0  0  0  0
  8  9  1  0  0  0  0
  8 10  1  0  0  0  0
  8 11  1  0  0  0  0
 11 12  1  0  0  0  0
 11 13  1  0  0  0  0
 11 14  1  0  0  0  0
 14 15  1  0  0  0  0
 14 16  1  0  0  0  0
 14 17  1  0  0  0  0
 17 18  1  0  0  0  0
 17 19  1  0  0  0  0
 17 20  1  0  0  0  0
M  END
> <VConfSearch Rank>
683

> <Conf_Id>
60

> <Delta U+W>
1.788

> <U+W>
17.127

> <U>
72.122

> <W>
-54.995

> <W(PB)>
-56.810

> <W(SA)>
1.815

> <Valence>
3.197

> <Coulomb>
69.115

> <VdW>
-0.190

> <VdW6>
-5.585

> <VdW12>
5.395

> <Bond>
0.177

> <Angle>
1.207

> <Pdih>
1.813

> <Idih>
0.000

> <Tether>
0.000

$$$$
VeraChem MOL file


 20 19  0  0  0  0  0  0  0  0999 V2000     
   19.4460   16.9646   22.8774 C   0  0  0  0  0  0  0  0  0  0  0  0
   18.9877   16.6797   23.8333 H   0  0  0  0  0  0  0  0  0  0  0  0
   19.4099   16.0898   22.2154 H   0  0  0  0  0  0  0  0  0  0  0  0
   20.4991   17.2010   23.0724 H   0  0  0  0  0  0  0  0  0  0  0  0
   18.6967   18.1642   22.2527 C   0  0  0  0  0  0  0  0  0  0  0  0
   18.7224   19.0229   22.9358 H   0  0  0  0  0  0  0  0  0  0  0  0
   17.6351   17.9011   22.1448 H   0  0  0  0  0  0  0  0  0  0  0  0
   19.2498   18.5695   20.8644 C   0  0  0  0  0  0  0  0  0  0  0  0
   19.1102   17.7287   20.1721 H   0  0  0  0  0  0  0  0  0  0  0  0
   18.6485   19.3944   20.4604 H   0  0  0  0  0  0  0  0  0  0  0  0
   20.7429   18.9728   20.8384 C   0  0  0  0  0  0  0  0  0  0  0  0
   21.0316   19.1163   19.7940 H   0  0  0  0  0  0  0  0  0  0  0  0
   21.3644   18.1714   21.2447 H   0  0  0  0  0  0  0  0  0  0  0  0
   21.0877   20.2654   21.5631 N   0  3  0  0  0  0  0  0  0  0  0  0
   20.3149   20.9422   21.4775 H   0  0  0  0  0  0  0  0  0  0  0  0
   21.8861   20.7167   21.0902 H   0  0  0  0  0  0  0  0  0  0  0  0
   21.4483   20.0149   23.0235 C   0  0  0  0  0  0  0  0  0  0  0  0
   22.2978   19.3303   23.0700 H   0  0  0  0  0  0  0  0  0  0  0  0
   21.7166   20.9641   23.4925 H   0  0  0  0  0  0  0  0  0  0  0  0
   20.5955   19.5785   23.5444 H   0  0  0  0  0  0  0  0  0  0  0  0
  1  2  1  0  0  0  0
  1  3  1  0  0  0  0
  1  4  1  0  0  0  0
  1  5  1  0  0  0  0
  5  6  1  0  0  0  0
  5  7  1  0  0  0  0
  5  8  1  0  0  0  0
  8  9  1  0  0  0  0
  8 10  1  0  0  0  0
  8 11  1  0  0  0  0
 11 12  1  0  0  0  0
 11 13  1  0  0  0  0
 11 14  1  0  0  0  0
 14 15  1  0  0  0  0
 14 16  1  0  0  0  0
 14 17  1  0  0  0  0
 17 18  1  0  0  0  0
 17 19  1  0  0  0  0
 17 20  1  0  0  0  0
M  END
> <VConfSearch Rank>
684

> <Conf_Id>
54

> <Delta U+W>
1.880

> <U+W>
17.218

> <U>
72.122

> <W>
-54.903

> <W(PB)>
-56.724

> <W(SA)>
1.821

> <Valence>
3.197

> <Coulomb>
69.115

> <VdW>
-0.190

> <VdW6>
-5.585

> <VdW12>
5.395

> <Bond>
0.177

> <Angle>
1.207

> <Pdih>
1.813

> <Idih>
0.000

> <Tether>
0.000

$$$$
VeraChem MOL file


 20 19  0  0  0  0  0  0  0  0999 V2000     
   20.6754   16.2925   23.8844 C   0  0  0  0  0  0  0  0  0  0  0  0
   21.5097   16.7396   24.4405 H   0  0  0  0  0  0  0  0  0  0  0  0
   20.1086   15.6600   24.5799 H   0  0  0  0  0  0  0  0  0  0  0  0
   21.0939   15.6432   23.1045 H   0  0  0  0  0  0  0  0  0  0  0  0
   19.7670   17.3815   23.2735 C   0  0  0  0  0  0  0  0  0  0  0  0
   19.3364   17.9923   24.0796 H   0  0  0  0  0  0  0  0  0  0  0  0
   18.9239   16.9044   22.7540 H   0  0  0  0  0  0  0  0  0  0  0  0
   20.5389   18.2879   22.2894 C   0  0  0  0  0  0  0  0  0  0  0  0
   21.3789   18.7669   22.8100 H   0  0  0  0  0  0  0  0  0  0  0  0
   20.9660   17.6775   21.4826 H   0  0  0  0  0  0  0  0  0  0  0  0
   19.6263   19.3709   21.6845 C   0  0  0  0  0  0  0  0  0  0  0  0
   19.2117   19.9902   22.4839 H   0  0  0  0  0  0  0  0  0  0  0  0
   18.7976   18.8974   21.1522 H   0  0  0  0  0  0  0  0  0  0  0  0
   20.3422   20.2863   20.7107 N   0  3  0  0  0  0  0  0  0  0  0  0
   20.7558   19.7362   19.9423 H   0  0  0  0  0  0  0  0  0  0  0  0
   21.1392   20.7481   21.1753 H   0  0  0  0  0  0  0  0  0  0  0  0
   19.3709   21.3230   20.1620 C   0  0  0  0  0  0  0  0  0  0  0  0
   18.9723   21.9156   20.9883 H   0  0  0  0  0  0  0  0  0  0  0  0
   19.8991   21.9750   19.4628 H   0  0  0  0  0  0  0  0  0  0  0  0
   18.5547   20.8135   19.6452 H   0  0  0  0  0  0  0  0  0  0  0  0
  1  2  1  0  0  0  0
  1  3  1  0  0  0  0
  1  4  1  0  0  0  0
  1  5  1  0  0  0  0
  5  6  1  0  0  0  0
  5  7  1  0  0  0  0
  5  8  1  0  0  0  0
  8  9  1  0  0  0  0
  8 10  1  0  0  0  0
  8 11  1  0  0  0  0
 11 12  1  0  0  0  0
 11 13  1  0  0  0  0
 11 14  1  0  0  0  0
 14 15  1  0  0  0  0
 14 16  1  0  0  0  0
 14 17  1  0  0  0  0
 17 18  1  0  0  0  0
 17 19  1  0  0  0  0
 17 20  1  0  0  0  0
M  END
> <VConfSearch Rank>
685

> <Conf_Id>
67

> <Delta U+W>
0.000

> <U+W>
15.338

> <U>
69.277

> <W>
-53.939

> <W(PB)>
-55.889

> <W(SA)>
1.950

> <Valence>
0.846

> <Coulomb>
68.557

> <VdW>
-0.127

> <VdW6>
-3.008

> <VdW12>
2.882

> <Bond>
0.088

> <Angle>
0.332

> <Pdih>
0.426

> <Idih>
0.000

> <Tether>
0.000

$$$$
VeraChem MOL file


 20 19  0  0  0  0  0  0  0  0999 V2000     
   17.9407   20.8817   21.3308 C   0  0  0  0  0  0  0  0  0  0  0  0
   17.1923   20.2527   21.8302 H   0  0  0  0  0  0  0  0  0  0  0  0
   17.6595   21.9305   21.4917 H   0  0  0  0  0  0  0  0  0  0  0  0
   17.8900   20.6818   20.2525 H   0  0  0  0  0  0  0  0  0  0  0  0
   19.3565   20.6056   21.8818 C   0  0  0  0  0  0  0  0  0  0  0  0
   19.3846   20.8472   22.9538 H   0  0  0  0  0  0  0  0  0  0  0  0
   20.0768   21.2736   21.3886 H   0  0  0  0  0  0  0  0  0  0  0  0
   19.7795   19.1355   21.6687 C   0  0  0  0  0  0  0  0  0  0  0  0
   19.0576   18.4725   22.1627 H   0  0  0  0  0  0  0  0  0  0  0  0
   19.7554   18.8962   20.5974 H   0  0  0  0  0  0  0  0  0  0  0  0
   21.1953   18.8701   22.2209 C   0  0  0  0  0  0  0  0  0  0  0  0
   21.2155   19.0595   23.2971 H   0  0  0  0  0  0  0  0  0  0  0  0
   21.8970   19.5587   21.7434 H   0  0  0  0  0  0  0  0  0  0  0  0
   21.7134   17.4608   21.9837 N   0  3  0  0  0  0  0  0  0  0  0  0
   22.7144   17.4150   22.2312 H   0  0  0  0  0  0  0  0  0  0  0  0
   21.6796   17.2321   20.9785 H   0  0  0  0  0  0  0  0  0  0  0  0
   20.9314   16.4374   22.8000 C   0  0  0  0  0  0  0  0  0  0  0  0
   19.8859   16.4451   22.4858 H   0  0  0  0  0  0  0  0  0  0  0  0
   21.3567   15.4455   22.6320 H   0  0  0  0  0  0  0  0  0  0  0  0
   21.0018   16.6930   23.8595 H   0  0  0  0  0  0  0  0  0  0  0  0
  1  2  1  0  0  0  0
  1  3  1  0  0  0  0
  1  4  1  0  0  0  0
  1  5  1  0  0  0  0
  5  6  1  0  0  0  0
  5  7  1  0  0  0  0
  5  8  1  0  0  0  0
  8  9  1  0  0  0  0
  8 10  1  0  0  0  0
  8 11  1  0  0  0  0
 11 12  1  0  0  0  0
 11 13  1  0  0  0  0
 11 14  1  0  0  0  0
 14 15  1  0  0  0  0
 14 16  1  0  0  0  0
 14 17  1  0  0  0  0
 17 18  1  0  0  0  0
 17 19  1  0  0  0  0
 17 20  1  0  0  0  0
M  END
> <VConfSearch Rank>
686

> <Conf_Id>
37

> <Delta U+W>
-0.021

> <U+W>
15.318

> <U>
69.657

> <W>
-54.340

> <W(PB)>
-56.238

> <W(SA)>
1.899

> <Valence>
1.137

> <Coulomb>
68.383

> <VdW>
0.138

> <VdW6>
-3.703

> <VdW12>
3.841

> <Bond>
0.125

> <Angle>
0.468

> <Pdih>
0.543

> <Idih>
0.000

> <Tether>
0.000

$$$$
VeraChem MOL file


 20 19  0  0  0  0  0  0  0  0999 V2000     
   17.7140   20.4071   23.0949 C   0  0  0  0  0  0  0  0  0  0  0  0
   16.9122   20.3709   23.8438 H   0  0  0  0  0  0  0  0  0  0  0  0
   18.4152   21.1981   23.3912 H   0  0  0  0  0  0  0  0  0  0  0  0
   17.2644   20.6914   22.1346 H   0  0  0  0  0  0  0  0  0  0  0  0
   18.4270   19.0413   22.9926 C   0  0  0  0  0  0  0  0  0  0  0  0
   17.6940   18.2656   22.7294 H   0  0  0  0  0  0  0  0  0  0  0  0
   18.8363   18.7685   23.9757 H   0  0  0  0  0  0  0  0  0  0  0  0
   19.5615   19.0624   21.9447 C   0  0  0  0  0  0  0  0  0  0  0  0
   19.1513   19.3307   20.9622 H   0  0  0  0  0  0  0  0  0  0  0  0
   20.2908   19.8381   22.2115 H   0  0  0  0  0  0  0  0  0  0  0  0
   20.2665   17.6935   21.8487 C   0  0  0  0  0  0  0  0  0  0  0  0
   19.5231   16.9275   21.6140 H   0  0  0  0  0  0  0  0  0  0  0  0
   20.7197   17.4412   22.8107 H   0  0  0  0  0  0  0  0  0  0  0  0
   21.3496   17.6125   20.7852 N   0  3  0  0  0  0  0  0  0  0  0  0
   20.9669   17.8761   19.8644 H   0  0  0  0  0  0  0  0  0  0  0  0
   21.6518   16.6318   20.6745 H   0  0  0  0  0  0  0  0  0  0  0  0
   22.5472   18.4852   21.1453 C   0  0  0  0  0  0  0  0  0  0  0  0
   22.9431   18.1706   22.1133 H   0  0  0  0  0  0  0  0  0  0  0  0
   23.3166   18.3707   20.3785 H   0  0  0  0  0  0  0  0  0  0  0  0
   22.2332   19.5296   21.1953 H   0  0  0  0  0  0  0  0  0  0  0  0
  1  2  1  0  0  0  0
  1  3  1  0  0  0  0
  1  4  1  0  0  0  0
  1  5  1  0  0  0  0
  5  6  1  0  0  0  0
  5  7  1  0  0  0  0
  5  8  1  0  0  0  0
  8  9  1  0  0  0  0
  8 10  1  0  0  0  0
  8 11  1  0  0  0  0
 11 12  1  0  0  0  0
 11 13  1  0  0  0  0
 11 14  1  0  0  0  0
 14 15  1  0  0  0  0
 14 16  1  0  0  0  0
 14 17  1  0  0  0  0
 17 18  1  0  0  0  0
 17 19  1  0  0  0  0
 17 20  1  0  0  0  0
M  END
> <VConfSearch Rank>
687

> <Conf_Id>
2

> <Delta U+W>
0.069

> <U+W>
15.407

> <U>
69.657

> <W>
-54.250

> <W(PB)>
-56.176

> <W(SA)>
1.926

> <Valence>
1.137

> <Coulomb>
68.383

> <VdW>
0.138

> <VdW6>
-3.703

> <VdW12>
3.841

> <Bond>
0.125

> <Angle>
0.468

> <Pdih>
0.543

> <Idih>
0.000

> <Tether>
0.000

$$$$
VeraChem MOL file


 20 19  0  0  0  0  0  0  0  0999 V2000     
   18.3171   16.6974   22.0692 C   0  0  0  0  0  0  0  0  0  0  0  0
   17.8195   17.6204   21.7460 H   0  0  0  0  0  0  0  0  0  0  0  0
   18.7169   16.1936   21.1795 H   0  0  0  0  0  0  0  0  0  0  0  0
   17.5508   16.0447   22.5072 H   0  0  0  0  0  0  0  0  0  0  0  0
   19.4364   16.9843   23.0965 C   0  0  0  0  0  0  0  0  0  0  0  0
   19.8418   16.0299   23.4608 H   0  0  0  0  0  0  0  0  0  0  0  0
   19.0112   17.4935   23.9729 H   0  0  0  0  0  0  0  0  0  0  0  0
   20.5916   17.8303   22.5117 C   0  0  0  0  0  0  0  0  0  0  0  0
   21.3812   17.9284   23.2685 H   0  0  0  0  0  0  0  0  0  0  0  0
   21.0378   17.3035   21.6577 H   0  0  0  0  0  0  0  0  0  0  0  0
   20.1353   19.2353   22.0723 C   0  0  0  0  0  0  0  0  0  0  0  0
   19.6935   19.7602   22.9230 H   0  0  0  0  0  0  0  0  0  0  0  0
   19.3771   19.1486   21.2904 H   0  0  0  0  0  0  0  0  0  0  0  0
   21.2625   20.0922   21.5306 N   0  3  0  0  0  0  0  0  0  0  0  0
   21.7127   19.6241   20.7291 H   0  0  0  0  0  0  0  0  0  0  0  0
   22.0051   20.1944   22.2393 H   0  0  0  0  0  0  0  0  0  0  0  0
   20.7261   21.4568   21.1192 C   0  0  0  0  0  0  0  0  0  0  0  0
   20.2855   21.9476   21.9897 H   0  0  0  0  0  0  0  0  0  0  0  0
   21.5477   22.0632   20.7314 H   0  0  0  0  0  0  0  0  0  0  0  0
   19.9672   21.3266   20.3447 H   0  0  0  0  0  0  0  0  0  0  0  0
  1  2  1  0  0  0  0
  1  3  1  0  0  0  0
  1  4  1  0  0  0  0
  1  5  1  0  0  0  0
  5  6  1  0  0  0  0
  5  7  1  0  0  0  0
  5  8  1  0  0  0  0
  8  9  1  0  0  0  0
  8 10  1  0  0  0  0
  8 11  1  0  0  0  0
 11 12  1  0  0  0  0
 11 13  1  0  0  0  0
 11 14  1  0  0  0  0
 14 15  1  0  0  0  0
 14 16  1  0  0  0  0
 14 17  1  0  0  0  0
 17 18  1  0  0  0  0
 17 19  1  0  0  0  0
 17 20  1  0  0  0  0
M  END
> <VConfSearch Rank>
688

> <Conf_Id>
34

> <Delta U+W>
0.276

> <U+W>
15.615

> <U>
69.798

> <W>
-54.184

> <W(PB)>
-56.116

> <W(SA)>
1.933

> <Valence>
1.134

> <Coulomb>
68.735

> <VdW>
-0.070

> <VdW6>
-3.565

> <VdW12>
3.494

> <Bond>
0.108

> <Angle>
0.456

> <Pdih>
0.569

> <Idih>
0.000

> <Tether>
0.000

$$$$
VeraChem MOL file


 20 19  0  0  0  0  0  0  0  0999 V2000     
   19.7296   18.0929   24.9427 C   0  0  0  0  0  0  0  0  0  0  0  0
   19.2751   17.0971   25.0257 H   0  0  0  0  0  0  0  0  0  0  0  0
   20.5296   18.1604   25.6914 H   0  0  0  0  0  0  0  0  0  0  0  0
   18.9660   18.8391   25.1986 H   0  0  0  0  0  0  0  0  0  0  0  0
   20.2885   18.3333   23.5236 C   0  0  0  0  0  0  0  0  0  0  0  0
   21.0711   17.5915   23.3101 H   0  0  0  0  0  0  0  0  0  0  0  0
   20.7695   19.3202   23.4901 H   0  0  0  0  0  0  0  0  0  0  0  0
   19.1794   18.2440   22.4489 C   0  0  0  0  0  0  0  0  0  0  0  0
   18.6824   17.2674   22.5208 H   0  0  0  0  0  0  0  0  0  0  0  0
   18.4077   19.0015   22.6399 H   0  0  0  0  0  0  0  0  0  0  0  0
   19.7212   18.4100   21.0149 C   0  0  0  0  0  0  0  0  0  0  0  0
   18.9095   18.2484   20.3011 H   0  0  0  0  0  0  0  0  0  0  0  0
   20.4946   17.6614   20.8254 H   0  0  0  0  0  0  0  0  0  0  0  0
   20.3134   19.7779   20.7316 N   0  3  0  0  0  0  0  0  0  0  0  0
   21.0875   19.9721   21.3838 H   0  0  0  0  0  0  0  0  0  0  0  0
   19.6120   20.5128   20.9105 H   0  0  0  0  0  0  0  0  0  0  0  0
   20.8012   19.8446   19.2906 C   0  0  0  0  0  0  0  0  0  0  0  0
   21.5655   19.0804   19.1336 H   0  0  0  0  0  0  0  0  0  0  0  0
   19.9594   19.6690   18.6173 H   0  0  0  0  0  0  0  0  0  0  0  0
   21.2246   20.8333   19.1004 H   0  0  0  0  0  0  0  0  0  0  0  0
  1  2  1  0  0  0  0
  1  3  1  0  0  0  0
  1  4  1  0  0  0  0
  1  5  1  0  0  0  0
  5  6  1  0  0  0  0
  5  7  1  0  0  0  0
  5  8  1  0  0  0  0
  8  9  1  0  0  0  0
  8 10  1  0  0  0  0
  8 11  1  0  0  0  0
 11 12  1  0  0  0  0
 11 13  1  0  0  0  0
 11 14  1  0  0  0  0
 14 15  1  0  0  0  0
 14 16  1  0  0  0  0
 14 17  1  0  0  0  0
 17 18  1  0  0  0  0
 17 19  1  0  0  0  0
 17 20  1  0  0  0  0
M  END
> <VConfSearch Rank>
689

> <Conf_Id>
50

> <Delta U+W>
0.319

> <U+W>
15.657

> <U>
69.962

> <W>
-54.305

> <W(PB)>
-56.223

> <W(SA)>
1.918

> <Valence>
0.982

> <Coulomb>
69.058

> <VdW>
-0.078

> <VdW6>
-3.548

> <VdW12>
3.471

> <Bond>
0.105

> <Angle>
0.408

> <Pdih>
0.469

> <Idih>
0.000

> <Tether>
0.000

$$$$
VeraChem MOL file


 20 19  0  0  0  0  0  0  0  0999 V2000     
   18.3955   21.3485   22.3409 C   0  0  0  0  0  0  0  0  0  0  0  0
   18.7319   22.3664   22.1045 H   0  0  0  0  0  0  0  0  0  0  0  0
   17.4229   21.1951   21.8553 H   0  0  0  0  0  0  0  0  0  0  0  0
   18.2484   21.2869   23.4270 H   0  0  0  0  0  0  0  0  0  0  0  0
   19.4285   20.3068   21.8596 C   0  0  0  0  0  0  0  0  0  0  0  0
   20.3966   20.5159   22.3345 H   0  0  0  0  0  0  0  0  0  0  0  0
   19.5769   20.4150   20.7758 H   0  0  0  0  0  0  0  0  0  0  0  0
   18.9776   18.8625   22.1817 C   0  0  0  0  0  0  0  0  0  0  0  0
   18.8546   18.7390   23.2659 H   0  0  0  0  0  0  0  0  0  0  0  0
   17.9916   18.6818   21.7334 H   0  0  0  0  0  0  0  0  0  0  0  0
   19.9570   17.7972   21.6493 C   0  0  0  0  0  0  0  0  0  0  0  0
   20.0861   17.9230   20.5714 H   0  0  0  0  0  0  0  0  0  0  0  0
   19.5408   16.8024   21.8280 H   0  0  0  0  0  0  0  0  0  0  0  0
   21.3296   17.8410   22.2942 N   0  3  0  0  0  0  0  0  0  0  0  0
   21.2454   17.7354   23.3169 H   0  0  0  0  0  0  0  0  0  0  0  0
   21.7616   18.7654   22.1480 H   0  0  0  0  0  0  0  0  0  0  0  0
   22.2114   16.7431   21.7146 C   0  0  0  0  0  0  0  0  0  0  0  0
   23.1953   16.7862   22.1869 H   0  0  0  0  0  0  0  0  0  0  0  0
   21.7517   15.7719   21.9099 H   0  0  0  0  0  0  0  0  0  0  0  0
   22.3130   16.8940   20.6378 H   0  0  0  0  0  0  0  0  0  0  0  0
  1  2  1  0  0  0  0
  1  3  1  0  0  0  0
  1  4  1  0  0  0  0
  1  5  1  0  0  0  0
  5  6  1  0  0  0  0
  5  7  1  0  0  0  0
  5  8  1  0  0  0  0
  8  9  1  0  0  0  0
  8 10  1  0  0  0  0
  8 11  1  0  0  0  0
 11 12  1  0  0  0  0
 11 13  1  0  0  0  0
 11 14  1  0  0  0  0
 14 15  1  0  0  0  0
 14 16  1  0  0  0  0
 14 17  1  0  0  0  0
 17 18  1  0  0  0  0
 17 19  1  0  0  0  0
 17 20  1  0  0  0  0
M  END
> <VConfSearch Rank>
690

> <Conf_Id>
35

> <Delta U+W>
0.360

> <U+W>
15.698

> <U>
69.962

> <W>
-54.264

> <W(PB)>
-56.166

> <W(SA)>
1.902

> <Valence>
0.982

> <Coulomb>
69.058

> <VdW>
-0.078

> <VdW6>
-3.548

> <VdW12>
3.471

> <Bond>
0.105

> <Angle>
0.408

> <Pdih>
0.469

> <Idih>
0.000

> <Tether>
0.000

$$$$
VeraChem MOL file


 20 19  0  0  0  0  0  0  0  0999 V2000     
   20.6780   20.1781   24.0452 C   0  0  0  0  0  0  0  0  0  0  0  0
   19.7271   19.7111   24.3309 H   0  0  0  0  0  0  0  0  0  0  0  0
   21.1722   20.5126   24.9666 H   0  0  0  0  0  0  0  0  0  0  0  0
   20.4554   21.0684   23.4428 H   0  0  0  0  0  0  0  0  0  0  0  0
   21.5845   19.1943   23.2703 C   0  0  0  0  0  0  0  0  0  0  0  0
   21.7877   18.3112   23.8924 H   0  0  0  0  0  0  0  0  0  0  0  0
   22.5569   19.6720   23.0856 H   0  0  0  0  0  0  0  0  0  0  0  0
   20.9774   18.7512   21.9186 C   0  0  0  0  0  0  0  0  0  0  0  0
   20.8116   19.6337   21.2874 H   0  0  0  0  0  0  0  0  0  0  0  0
   21.7034   18.1188   21.3908 H   0  0  0  0  0  0  0  0  0  0  0  0
   19.6570   17.9697   22.0898 C   0  0  0  0  0  0  0  0  0  0  0  0
   18.9032   18.6101   22.5539 H   0  0  0  0  0  0  0  0  0  0  0  0
   19.8325   17.1183   22.7523 H   0  0  0  0  0  0  0  0  0  0  0  0
   19.0728   17.4244   20.7968 N   0  3  0  0  0  0  0  0  0  0  0  0
   18.2929   16.7840   21.0133 H   0  0  0  0  0  0  0  0  0  0  0  0
   19.7679   16.8386   20.3096 H   0  0  0  0  0  0  0  0  0  0  0  0
   18.5822   18.5502   19.8928 C   0  0  0  0  0  0  0  0  0  0  0  0
   19.4253   19.1856   19.6148 H   0  0  0  0  0  0  0  0  0  0  0  0
   18.1371   18.1185   18.9936 H   0  0  0  0  0  0  0  0  0  0  0  0
   17.8341   19.1399   20.4268 H   0  0  0  0  0  0  0  0  0  0  0  0
  1  2  1  0  0  0  0
  1  3  1  0  0  0  0
  1  4  1  0  0  0  0
  1  5  1  0  0  0  0
  5  6  1  0  0  0  0
  5  7  1  0  0  0  0
  5  8  1  0  0  0  0
  8  9  1  0  0  0  0
  8 10  1  0  0  0  0
  8 11  1  0  0  0  0
 11 12  1  0  0  0  0
 11 13  1  0  0  0  0
 11 14  1  0  0  0  0
 14 15  1  0  0  0  0
 14 16  1  0  0  0  0
 14 17  1  0  0  0  0
 17 18  1  0  0  0  0
 17 19  1  0  0  0  0
 17 20  1  0  0  0  0
M  END
> <VConfSearch Rank>
691

> <Conf_Id>
33

> <Delta U+W>
0.372

> <U+W>
15.711

> <U>
70.163

> <W>
-54.452

> <W(PB)>
-56.363

> <W(SA)>
1.911

> <Valence>
1.420

> <Coulomb>
68.566

> <VdW>
0.177

> <VdW6>
-4.267

> <VdW12>
4.445

> <Bond>
0.146

> <Angle>
0.581

> <Pdih>
0.693

> <Idih>
0.000

> <Tether>
0.000

$$$$
VeraChem MOL file


 20 19  0  0  0  0  0  0  0  0999 V2000     
   18.7313   16.8329   22.8629 C   0  0  0  0  0  0  0  0  0  0  0  0
   18.0846   16.2161   23.5002 H   0  0  0  0  0  0  0  0  0  0  0  0
   18.0973   17.2908   22.0933 H   0  0  0  0  0  0  0  0  0  0  0  0
   19.4461   16.1647   22.3652 H   0  0  0  0  0  0  0  0  0  0  0  0
   19.4633   17.9019   23.7065 C   0  0  0  0  0  0  0  0  0  0  0  0
   20.0115   17.4042   24.5188 H   0  0  0  0  0  0  0  0  0  0  0  0
   18.7266   18.5596   24.1890 H   0  0  0  0  0  0  0  0  0  0  0  0
   20.4553   18.7502   22.8768 C   0  0  0  0  0  0  0  0  0  0  0  0
   20.9921   19.4321   23.5494 H   0  0  0  0  0  0  0  0  0  0  0  0
   21.2103   18.0920   22.4281 H   0  0  0  0  0  0  0  0  0  0  0  0
   19.7534   19.5749   21.7764 C   0  0  0  0  0  0  0  0  0  0  0  0
   18.9794   20.1940   22.2369 H   0  0  0  0  0  0  0  0  0  0  0  0
   19.2702   18.9053   21.0610 H   0  0  0  0  0  0  0  0  0  0  0  0
   20.6723   20.5028   20.9986 N   0  3  0  0  0  0  0  0  0  0  0  0
   21.1744   21.1318   21.6436 H   0  0  0  0  0  0  0  0  0  0  0  0
   20.1075   21.1299   20.4045 H   0  0  0  0  0  0  0  0  0  0  0  0
   21.6522   19.7157   20.1351 C   0  0  0  0  0  0  0  0  0  0  0  0
   22.2683   20.4149   19.5654 H   0  0  0  0  0  0  0  0  0  0  0  0
   22.2903   19.1043   20.7761 H   0  0  0  0  0  0  0  0  0  0  0  0
   21.0931   19.0752   19.4497 H   0  0  0  0  0  0  0  0  0  0  0  0
  1  2  1  0  0  0  0
  1  3  1  0  0  0  0
  1  4  1  0  0  0  0
  1  5  1  0  0  0  0
  5  6  1  0  0  0  0
  5  7  1  0  0  0  0
  5  8  1  0  0  0  0
  8  9  1  0  0  0  0
  8 10  1  0  0  0  0
  8 11  1  0  0  0  0
 11 12  1  0  0  0  0
 11 13  1  0  0  0  0
 11 14  1  0  0  0  0
 14 15  1  0  0  0  0
 14 16  1  0  0  0  0
 14 17  1  0  0  0  0
 17 18  1  0  0  0  0
 17 19  1  0  0  0  0
 17 20  1  0  0  0  0
M  END
> <VConfSearch Rank>
692

> <Conf_Id>
53

> <Delta U+W>
0.379

> <U+W>
15.717

> <U>
70.163

> <W>
-54.446

> <W(PB)>
-56.322

> <W(SA)>
1.876

> <Valence>
1.420

> <Coulomb>
68.566

> <VdW>
0.177

> <VdW6>
-4.267

> <VdW12>
4.445

> <Bond>
0.146

> <Angle>
0.581

> <Pdih>
0.693

> <Idih>
0.000

> <Tether>
0.000

$$$$
VeraChem MOL file


 20 19  0  0  0  0  0  0  0  0999 V2000     
   19.7545   16.5292   23.5085 C   0  0  0  0  0  0  0  0  0  0  0  0
   19.9650   15.4914   23.2191 H   0  0  0  0  0  0  0  0  0  0  0  0
   20.0954   16.6652   24.5431 H   0  0  0  0  0  0  0  0  0  0  0  0
   18.6661   16.6702   23.4861 H   0  0  0  0  0  0  0  0  0  0  0  0
   20.4625   17.5158   22.5549 C   0  0  0  0  0  0  0  0  0  0  0  0
   20.1261   17.3246   21.5268 H   0  0  0  0  0  0  0  0  0  0  0  0
   21.5455   17.3290   22.5754 H   0  0  0  0  0  0  0  0  0  0  0  0
   20.1800   18.9870   22.9402 C   0  0  0  0  0  0  0  0  0  0  0  0
   19.1016   19.1867   22.8950 H   0  0  0  0  0  0  0  0  0  0  0  0
   20.4801   19.1529   23.9833 H   0  0  0  0  0  0  0  0  0  0  0  0
   20.9384   19.9972   22.0508 C   0  0  0  0  0  0  0  0  0  0  0  0
   22.0125   19.8220   22.1518 H   0  0  0  0  0  0  0  0  0  0  0  0
   20.7314   21.0134   22.3956 H   0  0  0  0  0  0  0  0  0  0  0  0
   20.6057   19.9382   20.5674 N   0  3  0  0  0  0  0  0  0  0  0  0
   20.7842   18.9920   20.2000 H   0  0  0  0  0  0  0  0  0  0  0  0
   21.2504   20.5518   20.0447 H   0  0  0  0  0  0  0  0  0  0  0  0
   19.1636   20.3582   20.3053 C   0  0  0  0  0  0  0  0  0  0  0  0
   19.0089   21.3698   20.6866 H   0  0  0  0  0  0  0  0  0  0  0  0
   18.9747   20.3376   19.2297 H   0  0  0  0  0  0  0  0  0  0  0  0
   18.4874   19.6649   20.8093 H   0  0  0  0  0  0  0  0  0  0  0  0
  1  2  1  0  0  0  0
  1  3  1  0  0  0  0
  1  4  1  0  0  0  0
  1  5  1  0  0  0  0
  5  6  1  0  0  0  0
  5  7  1  0  0  0  0
  5  8  1  0  0  0  0
  8  9  1  0  0  0  0
  8 10  1  0  0  0  0
  8 11  1  0  0  0  0
 11 12  1  0  0  0  0
 11 13  1  0  0  0  0
 11 14  1  0  0  0  0
 14 15  1  0  0  0  0
 14 16  1  0  0  0  0
 14 17  1  0  0  0  0
 17 18  1  0  0  0  0
 17 19  1  0  0  0  0
 17 20  1  0  0  0  0
M  END
> <VConfSearch Rank>
693

> <Conf_Id>
49

> <Delta U+W>
0.268

> <U+W>
15.607

> <U>
70.298

> <W>
-54.692

> <W(PB)>
-56.576

> <W(SA)>
1.885

> <Valence>
1.245

> <Coulomb>
68.933

> <VdW>
0.120

> <VdW6>
-4.430

> <VdW12>
4.550

> <Bond>
0.148

> <Angle>
0.587

> <Pdih>
0.509

> <Idih>
0.000

> <Tether>
0.000

$$$$
VeraChem MOL file


 20 19  0  0  0  0  0  0  0  0999 V2000     
   21.7125   20.8093   21.1326 C   0  0  0  0  0  0  0  0  0  0  0  0
   22.0000   21.2647   22.0893 H   0  0  0  0  0  0  0  0  0  0  0  0
   22.6179   20.4063   20.6604 H   0  0  0  0  0  0  0  0  0  0  0  0
   21.3223   21.6053   20.4852 H   0  0  0  0  0  0  0  0  0  0  0  0
   20.6530   19.7052   21.3386 C   0  0  0  0  0  0  0  0  0  0  0  0
   20.3652   19.2885   20.3631 H   0  0  0  0  0  0  0  0  0  0  0  0
   19.7519   20.1561   21.7748 H   0  0  0  0  0  0  0  0  0  0  0  0
   21.1742   18.5754   22.2571 C   0  0  0  0  0  0  0  0  0  0  0  0
   22.1360   18.2140   21.8699 H   0  0  0  0  0  0  0  0  0  0  0  0
   21.3767   18.9754   23.2594 H   0  0  0  0  0  0  0  0  0  0  0  0
   20.2219   17.3634   22.3709 C   0  0  0  0  0  0  0  0  0  0  0  0
   20.7141   16.6051   22.9853 H   0  0  0  0  0  0  0  0  0  0  0  0
   20.0438   16.9261   21.3853 H   0  0  0  0  0  0  0  0  0  0  0  0
   18.8747   17.6439   23.0187 N   0  3  0  0  0  0  0  0  0  0  0  0
   18.9666   18.3781   23.7367 H   0  0  0  0  0  0  0  0  0  0  0  0
   18.5650   16.8064   23.5361 H   0  0  0  0  0  0  0  0  0  0  0  0
   17.8208   18.0087   21.9781 C   0  0  0  0  0  0  0  0  0  0  0  0
   16.8664   18.1790   22.4813 H   0  0  0  0  0  0  0  0  0  0  0  0
   18.1215   18.9135   21.4489 H   0  0  0  0  0  0  0  0  0  0  0  0
   17.7185   17.1848   21.2686 H   0  0  0  0  0  0  0  0  0  0  0  0
  1  2  1  0  0  0  0
  1  3  1  0  0  0  0
  1  4  1  0  0  0  0
  1  5  1  0  0  0  0
  5  6  1  0  0  0  0
  5  7  1  0  0  0  0
  5  8  1  0  0  0  0
  8  9  1  0  0  0  0
  8 10  1  0  0  0  0
  8 11  1  0  0  0  0
 11 12  1  0  0  0  0
 11 13  1  0  0  0  0
 11 14  1  0  0  0  0
 14 15  1  0  0  0  0
 14 16  1  0  0  0  0
 14 17  1  0  0  0  0
 17 18  1  0  0  0  0
 17 19  1  0  0  0  0
 17 20  1  0  0  0  0
M  END
> <VConfSearch Rank>
694

> <Conf_Id>
65

> <Delta U+W>
1.775

> <U+W>
17.114

> <U>
71.726

> <W>
-54.613

> <W(PB)>
-56.495

> <W(SA)>
1.883

> <Valence>
2.885

> <Coulomb>
68.822

> <VdW>
0.019

> <VdW6>
-4.600

> <VdW12>
4.619

> <Bond>
0.152

> <Angle>
0.862

> <Pdih>
1.871

> <Idih>
0.000

> <Tether>
0.000

$$$$
VeraChem MOL file


 20 19  0  0  0  0  0  0  0  0999 V2000     
   22.0645   19.2887   20.8203 C   0  0  0  0  0  0  0  0  0  0  0  0
   21.1084   19.5790   20.3669 H   0  0  0  0  0  0  0  0  0  0  0  0
   22.7705   20.1138   20.6598 H   0  0  0  0  0  0  0  0  0  0  0  0
   22.4469   18.4120   20.2815 H   0  0  0  0  0  0  0  0  0  0  0  0
   21.9126   18.9909   22.3297 C   0  0  0  0  0  0  0  0  0  0  0  0
   21.5301   19.8820   22.8458 H   0  0  0  0  0  0  0  0  0  0  0  0
   22.9065   18.7973   22.7571 H   0  0  0  0  0  0  0  0  0  0  0  0
   20.9997   17.7733   22.6196 C   0  0  0  0  0  0  0  0  0  0  0  0
   21.4509   16.8722   22.1836 H   0  0  0  0  0  0  0  0  0  0  0  0
   20.9565   17.5996   23.7030 H   0  0  0  0  0  0  0  0  0  0  0  0
   19.5647   17.9200   22.0716 C   0  0  0  0  0  0  0  0  0  0  0  0
   18.9990   17.0107   22.2897 H   0  0  0  0  0  0  0  0  0  0  0  0
   19.5963   18.0471   20.9869 H   0  0  0  0  0  0  0  0  0  0  0  0
   18.7980   19.0903   22.6576 N   0  3  0  0  0  0  0  0  0  0  0  0
   19.3055   19.9693   22.4782 H   0  0  0  0  0  0  0  0  0  0  0  0
   18.7488   19.0047   23.6843 H   0  0  0  0  0  0  0  0  0  0  0  0
   17.3998   19.1488   22.0576 C   0  0  0  0  0  0  0  0  0  0  0  0
   16.8709   18.2212   22.2868 H   0  0  0  0  0  0  0  0  0  0  0  0
   16.8602   19.9958   22.4871 H   0  0  0  0  0  0  0  0  0  0  0  0
   17.4774   19.2723   20.9753 H   0  0  0  0  0  0  0  0  0  0  0  0
  1  2  1  0  0  0  0
  1  3  1  0  0  0  0
  1  4  1  0  0  0  0
  1  5  1  0  0  0  0
  5  6  1  0  0  0  0
  5  7  1  0  0  0  0
  5  8  1  0  0  0  0
  8  9  1  0  0  0  0
  8 10  1  0  0  0  0
  8 11  1  0  0  0  0
 11 12  1  0  0  0  0
 11 13  1  0  0  0  0
 11 14  1  0  0  0  0
 14 15  1  0  0  0  0
 14 16  1  0  0  0  0
 14 17  1  0  0  0  0
 17 18  1  0  0  0  0
 17 19  1  0  0  0  0
 17 20  1  0  0  0  0
M  END
> <VConfSearch Rank>
695

> <Conf_Id>
23

> <Delta U+W>
0.896

> <U+W>
16.234

> <U>
70.374

> <W>
-54.140

> <W(PB)>
-56.046

> <W(SA)>
1.907

> <Valence>
1.257

> <Coulomb>
69.240

> <VdW>
-0.123

> <VdW6>
-4.336

> <VdW12>
4.213

> <Bond>
0.128

> <Angle>
0.603

> <Pdih>
0.526

> <Idih>
0.000

> <Tether>
0.000

$$$$
VeraChem MOL file


 20 19  0  0  0  0  0  0  0  0999 V2000     
   21.1635   20.9015   22.2543 C   0  0  0  0  0  0  0  0  0  0  0  0
   21.9016   21.0621   21.4578 H   0  0  0  0  0  0  0  0  0  0  0  0
   21.1202   21.8165   22.8593 H   0  0  0  0  0  0  0  0  0  0  0  0
   21.5285   20.0943   22.9017 H   0  0  0  0  0  0  0  0  0  0  0  0
   19.7721   20.5747   21.6651 C   0  0  0  0  0  0  0  0  0  0  0  0
   19.4087   21.4465   21.1030 H   0  0  0  0  0  0  0  0  0  0  0  0
   19.0525   20.4194   22.4803 H   0  0  0  0  0  0  0  0  0  0  0  0
   19.7851   19.3447   20.7233 C   0  0  0  0  0  0  0  0  0  0  0  0
   18.7769   19.1842   20.3189 H   0  0  0  0  0  0  0  0  0  0  0  0
   20.4298   19.5579   19.8603 H   0  0  0  0  0  0  0  0  0  0  0  0
   20.2752   18.0449   21.3949 C   0  0  0  0  0  0  0  0  0  0  0  0
   21.2961   18.1814   21.7595 H   0  0  0  0  0  0  0  0  0  0  0  0
   20.2838   17.2375   20.6583 H   0  0  0  0  0  0  0  0  0  0  0  0
   19.4182   17.5933   22.5621 N   0  3  0  0  0  0  0  0  0  0  0  0
   18.4434   17.4550   22.2548 H   0  0  0  0  0  0  0  0  0  0  0  0
   19.3791   18.3340   23.2779 H   0  0  0  0  0  0  0  0  0  0  0  0
   19.9805   16.3079   23.1538 C   0  0  0  0  0  0  0  0  0  0  0  0
   21.0001   16.4876   23.5014 H   0  0  0  0  0  0  0  0  0  0  0  0
   19.3551   15.9955   23.9929 H   0  0  0  0  0  0  0  0  0  0  0  0
   19.9831   15.5301   22.3871 H   0  0  0  0  0  0  0  0  0  0  0  0
  1  2  1  0  0  0  0
  1  3  1  0  0  0  0
  1  4  1  0  0  0  0
  1  5  1  0  0  0  0
  5  6  1  0  0  0  0
  5  7  1  0  0  0  0
  5  8  1  0  0  0  0
  8  9  1  0  0  0  0
  8 10  1  0  0  0  0
  8 11  1  0  0  0  0
 11 12  1  0  0  0  0
 11 13  1  0  0  0  0
 11 14  1  0  0  0  0
 14 15  1  0  0  0  0
 14 16  1  0  0  0  0
 14 17  1  0  0  0  0
 17 18  1  0  0  0  0
 17 19  1  0  0  0  0
 17 20  1  0  0  0  0
M  END
> <VConfSearch Rank>
696

> <Conf_Id>
24

> <Delta U+W>
0.792

> <U+W>
16.130

> <U>
70.374

> <W>
-54.243

> <W(PB)>
-56.130

> <W(SA)>
1.887

> <Valence>
1.257

> <Coulomb>
69.240

> <VdW>
-0.123

> <VdW6>
-4.336

> <VdW12>
4.213

> <Bond>
0.128

> <Angle>
0.603

> <Pdih>
0.526

> <Idih>
0.000

> <Tether>
0.000

$$$$
VeraChem MOL file


 20 19  0  0  0  0  0  0  0  0999 V2000     
   18.1649   19.2910   20.9336 C   0  0  0  0  0  0  0  0  0  0  0  0
   17.2587   19.2180   20.3182 H   0  0  0  0  0  0  0  0  0  0  0  0
   18.0168   18.6377   21.8014 H   0  0  0  0  0  0  0  0  0  0  0  0
   18.2481   20.3295   21.2797 H   0  0  0  0  0  0  0  0  0  0  0  0
   19.4049   18.8713   20.1115 C   0  0  0  0  0  0  0  0  0  0  0  0
   19.3880   19.4084   19.1527 H   0  0  0  0  0  0  0  0  0  0  0  0
   19.3337   17.8032   19.8622 H   0  0  0  0  0  0  0  0  0  0  0  0
   20.7615   19.1545   20.8060 C   0  0  0  0  0  0  0  0  0  0  0  0
   21.5627   18.8824   20.1061 H   0  0  0  0  0  0  0  0  0  0  0  0
   20.8779   20.2302   20.9931 H   0  0  0  0  0  0  0  0  0  0  0  0
   20.9876   18.3636   22.1119 C   0  0  0  0  0  0  0  0  0  0  0  0
   22.0589   18.3246   22.3250 H   0  0  0  0  0  0  0  0  0  0  0  0
   20.6289   17.3385   21.9897 H   0  0  0  0  0  0  0  0  0  0  0  0
   20.3162   18.9652   23.3319 N   0  3  0  0  0  0  0  0  0  0  0  0
   19.3064   19.0732   23.1611 H   0  0  0  0  0  0  0  0  0  0  0  0
   20.6703   19.9199   23.4966 H   0  0  0  0  0  0  0  0  0  0  0  0
   20.5637   18.0856   24.5499 C   0  0  0  0  0  0  0  0  0  0  0  0
   20.1521   17.0910   24.3652 H   0  0  0  0  0  0  0  0  0  0  0  0
   21.6387   18.0132   24.7287 H   0  0  0  0  0  0  0  0  0  0  0  0
   20.0752   18.5308   25.4195 H   0  0  0  0  0  0  0  0  0  0  0  0
  1  2  1  0  0  0  0
  1  3  1  0  0  0  0
  1  4  1  0  0  0  0
  1  5  1  0  0  0  0
  5  6  1  0  0  0  0
  5  7  1  0  0  0  0
  5  8  1  0  0  0  0
  8  9  1  0  0  0  0
  8 10  1  0  0  0  0
  8 11  1  0  0  0  0
 11 12  1  0  0  0  0
 11 13  1  0  0  0  0
 11 14  1  0  0  0  0
 14 15  1  0  0  0  0
 14 16  1  0  0  0  0
 14 17  1  0  0  0  0
 17 18  1  0  0  0  0
 17 19  1  0  0  0  0
 17 20  1  0  0  0  0
M  END
> <VConfSearch Rank>
697

> <Conf_Id>
26

> <Delta U+W>
2.888

> <U+W>
18.226

> <U>
72.042

> <W>
-53.816

> <W(PB)>
-55.689

> <W(SA)>
1.873

> <Valence>
2.428

> <Coulomb>
69.829

> <VdW>
-0.215

> <VdW6>
-4.563

> <VdW12>
4.348

> <Bond>
0.137

> <Angle>
0.936

> <Pdih>
1.356

> <Idih>
0.000

> <Tether>
0.000

$$$$
VeraChem MOL file


 20 19  0  0  0  0  0  0  0  0999 V2000     
   18.1819   19.6179   22.8144 C   0  0  0  0  0  0  0  0  0  0  0  0
   17.1644   20.0261   22.8716 H   0  0  0  0  0  0  0  0  0  0  0  0
   18.5486   19.4954   23.8419 H   0  0  0  0  0  0  0  0  0  0  0  0
   18.7993   20.3659   22.3033 H   0  0  0  0  0  0  0  0  0  0  0  0
   18.1761   18.2713   22.0553 C   0  0  0  0  0  0  0  0  0  0  0  0
   17.8957   18.4442   21.0066 H   0  0  0  0  0  0  0  0  0  0  0  0
   17.3876   17.6335   22.4789 H   0  0  0  0  0  0  0  0  0  0  0  0
   19.5165   17.4950   22.1146 C   0  0  0  0  0  0  0  0  0  0  0  0
   19.7706   17.2501   23.1544 H   0  0  0  0  0  0  0  0  0  0  0  0
   19.3726   16.5329   21.6053 H   0  0  0  0  0  0  0  0  0  0  0  0
   20.7017   18.2148   21.4367 C   0  0  0  0  0  0  0  0  0  0  0  0
   20.3682   18.6778   20.5046 H   0  0  0  0  0  0  0  0  0  0  0  0
   21.4735   17.4803   21.1930 H   0  0  0  0  0  0  0  0  0  0  0  0
   21.3600   19.2794   22.2935 N   0  3  0  0  0  0  0  0  0  0  0  0
   21.7238   18.8599   23.1627 H   0  0  0  0  0  0  0  0  0  0  0  0
   20.6596   19.9715   22.5955 H   0  0  0  0  0  0  0  0  0  0  0  0
   22.4813   19.9547   21.5156 C   0  0  0  0  0  0  0  0  0  0  0  0
   22.0676   20.4189   20.6177 H   0  0  0  0  0  0  0  0  0  0  0  0
   22.9454   20.7178   22.1443 H   0  0  0  0  0  0  0  0  0  0  0  0
   23.2256   19.2064   21.2351 H   0  0  0  0  0  0  0  0  0  0  0  0
  1  2  1  0  0  0  0
  1  3  1  0  0  0  0
  1  4  1  0  0  0  0
  1  5  1  0  0  0  0
  5  6  1  0  0  0  0
  5  7  1  0  0  0  0
  5  8  1  0  0  0  0
  8  9  1  0  0  0  0
  8 10  1  0  0  0  0
  8 11  1  0  0  0  0
 11 12  1  0  0  0  0
 11 13  1  0  0  0  0
 11 14  1  0  0  0  0
 14 15  1  0  0  0  0
 14 16  1  0  0  0  0
 14 17  1  0  0  0  0
 17 18  1  0  0  0  0
 17 19  1  0  0  0  0
 17 20  1  0  0  0  0
M  END
> <VConfSearch Rank>
698

> <Conf_Id>
5

> <Delta U+W>
2.950

> <U+W>
18.289

> <U>
72.042

> <W>
-53.753

> <W(PB)>
-55.644

> <W(SA)>
1.891

> <Valence>
2.428

> <Coulomb>
69.829

> <VdW>
-0.215

> <VdW6>
-4.563

> <VdW12>
4.348

> <Bond>
0.137

> <Angle>
0.936

> <Pdih>
1.356

> <Idih>
0.000

> <Tether>
0.000

$$$$
VeraChem MOL file


 20 19  0  0  0  0  0  0  0  0999 V2000     
   21.4146   18.1472   20.0926 C   0  0  0  0  0  0  0  0  0  0  0  0
   21.5108   18.9265   19.3255 H   0  0  0  0  0  0  0  0  0  0  0  0
   22.1121   18.3807   20.9068 H   0  0  0  0  0  0  0  0  0  0  0  0
   21.7340   17.1969   19.6455 H   0  0  0  0  0  0  0  0  0  0  0  0
   19.9581   18.0448   20.6009 C   0  0  0  0  0  0  0  0  0  0  0  0
   19.8858   17.2575   21.3635 H   0  0  0  0  0  0  0  0  0  0  0  0
   19.3124   17.7233   19.7717 H   0  0  0  0  0  0  0  0  0  0  0  0
   19.4165   19.3819   21.1650 C   0  0  0  0  0  0  0  0  0  0  0  0
   19.4061   20.1334   20.3645 H   0  0  0  0  0  0  0  0  0  0  0  0
   18.3700   19.2515   21.4694 H   0  0  0  0  0  0  0  0  0  0  0  0
   20.2334   19.9402   22.3526 C   0  0  0  0  0  0  0  0  0  0  0  0
   19.7883   20.8785   22.6932 H   0  0  0  0  0  0  0  0  0  0  0  0
   21.2498   20.1565   22.0147 H   0  0  0  0  0  0  0  0  0  0  0  0
   20.3410   19.0161   23.5559 N   0  3  0  0  0  0  0  0  0  0  0  0
   21.0126   19.4082   24.2343 H   0  0  0  0  0  0  0  0  0  0  0  0
   20.7455   18.1120   23.2711 H   0  0  0  0  0  0  0  0  0  0  0  0
   18.9849   18.8168   24.2237 C   0  0  0  0  0  0  0  0  0  0  0  0
   18.2995   18.3449   23.5170 H   0  0  0  0  0  0  0  0  0  0  0  0
   19.1079   18.1754   25.0991 H   0  0  0  0  0  0  0  0  0  0  0  0
   18.5898   19.7873   24.5312 H   0  0  0  0  0  0  0  0  0  0  0  0
  1  2  1  0  0  0  0
  1  3  1  0  0  0  0
  1  4  1  0  0  0  0
  1  5  1  0  0  0  0
  5  6  1  0  0  0  0
  5  7  1  0  0  0  0
  5  8  1  0  0  0  0
  8  9  1  0  0  0  0
  8 10  1  0  0  0  0
  8 11  1  0  0  0  0
 11 12  1  0  0  0  0
 11 13  1  0  0  0  0
 11 14  1  0  0  0  0
 14 15  1  0  0  0  0
 14 16  1  0  0  0  0
 14 17  1  0  0  0  0
 17 18  1  0  0  0  0
 17 19  1  0  0  0  0
 17 20  1  0  0  0  0
M  END
> <VConfSearch Rank>
699

> <Conf_Id>
52

> <Delta U+W>
0.784

> <U+W>
16.122

> <U>
70.777

> <W>
-54.655

> <W(PB)>
-56.491

> <W(SA)>
1.836

> <Valence>
1.529

> <Coulomb>
69.166

> <VdW>
0.082

> <VdW6>
-5.166

> <VdW12>
5.248

> <Bond>
0.171

> <Angle>
0.752

> <Pdih>
0.605

> <Idih>
0.000

> <Tether>
0.000

$$$$
VeraChem MOL file


 20 19  0  0  0  0  0  0  0  0999 V2000     
   18.6433   17.6248   22.9357 C   0  0  0  0  0  0  0  0  0  0  0  0
   17.7898   17.0745   23.3527 H   0  0  0  0  0  0  0  0  0  0  0  0
   18.8906   17.1538   21.9775 H   0  0  0  0  0  0  0  0  0  0  0  0
   19.4896   17.4969   23.6233 H   0  0  0  0  0  0  0  0  0  0  0  0
   18.2830   19.1176   22.7596 C   0  0  0  0  0  0  0  0  0  0  0  0
   17.8233   19.4776   23.6908 H   0  0  0  0  0  0  0  0  0  0  0  0
   17.5132   19.2206   21.9819 H   0  0  0  0  0  0  0  0  0  0  0  0
   19.4884   20.0338   22.4271 C   0  0  0  0  0  0  0  0  0  0  0  0
   19.1297   21.0715   22.4195 H   0  0  0  0  0  0  0  0  0  0  0  0
   20.2356   19.9841   23.2290 H   0  0  0  0  0  0  0  0  0  0  0  0
   20.1470   19.7578   21.0554 C   0  0  0  0  0  0  0  0  0  0  0  0
   20.7394   20.6272   20.7595 H   0  0  0  0  0  0  0  0  0  0  0  0
   19.3642   19.6174   20.3058 H   0  0  0  0  0  0  0  0  0  0  0  0
   21.0709   18.5513   20.9969 N   0  3  0  0  0  0  0  0  0  0  0  0
   21.3039   18.3421   20.0134 H   0  0  0  0  0  0  0  0  0  0  0  0
   20.5813   17.7145   21.3429 H   0  0  0  0  0  0  0  0  0  0  0  0
   22.3499   18.7953   21.7902 C   0  0  0  0  0  0  0  0  0  0  0  0
   22.8560   19.6779   21.3933 H   0  0  0  0  0  0  0  0  0  0  0  0
   22.1010   18.9527   22.8414 H   0  0  0  0  0  0  0  0  0  0  0  0
   23.0016   17.9240   21.6949 H   0  0  0  0  0  0  0  0  0  0  0  0
  1  2  1  0  0  0  0
  1  3  1  0  0  0  0
  1  4  1  0  0  0  0
  1  5  1  0  0  0  0
  5  6  1  0  0  0  0
  5  7  1  0  0  0  0
  5  8  1  0  0  0  0
  8  9  1  0  0  0  0
  8 10  1  0  0  0  0
  8 11  1  0  0  0  0
 11 12  1  0  0  0  0
 11 13  1  0  0  0  0
 11 14  1  0  0  0  0
 14 15  1  0  0  0  0
 14 16  1  0  0  0  0
 14 17  1  0  0  0  0
 17 18  1  0  0  0  0
 17 19  1  0  0  0  0
 17 20  1  0  0  0  0
M  END
> <VConfSearch Rank>
700

> <Conf_Id>
55

> <Delta U+W>
2.745

> <U+W>
18.083

> <U>
72.490

> <W>
-54.407

> <W(PB)>
-56.269

> <W(SA)>
1.861

> <Valence>
2.738

> <Coulomb>
69.795

> <VdW>
-0.043

> <VdW6>
-5.333

> <VdW12>
5.290

> <Bond>
0.182

> <Angle>
1.135

> <Pdih>
1.422

> <Idih>
0.000

> <Tether>
0.000

$$$$
VeraChem MOL file


 20 19  0  0  0  0  0  0  0  0999 V2000     
   21.5033   19.8582   21.0396 C   0  0  0  0  0  0  0  0  0  0  0  0
   22.3983   20.2361   20.5284 H   0  0  0  0  0  0  0  0  0  0  0  0
   20.6325   20.3663   20.6050 H   0  0  0  0  0  0  0  0  0  0  0  0
   21.5916   20.1451   22.0937 H   0  0  0  0  0  0  0  0  0  0  0  0
   21.3997   18.3249   20.8740 C   0  0  0  0  0  0  0  0  0  0  0  0
   22.2230   17.8402   21.4173 H   0  0  0  0  0  0  0  0  0  0  0  0
   21.5494   18.0778   19.8135 H   0  0  0  0  0  0  0  0  0  0  0  0
   20.0462   17.7205   21.3272 C   0  0  0  0  0  0  0  0  0  0  0  0
   19.2229   18.1551   20.7465 H   0  0  0  0  0  0  0  0  0  0  0  0
   20.0546   16.6516   21.0761 H   0  0  0  0  0  0  0  0  0  0  0  0
   19.7629   17.8415   22.8426 C   0  0  0  0  0  0  0  0  0  0  0  0
   20.6700   17.5865   23.3964 H   0  0  0  0  0  0  0  0  0  0  0  0
   18.9888   17.1225   23.1223 H   0  0  0  0  0  0  0  0  0  0  0  0
   19.2929   19.2067   23.3200 N   0  3  0  0  0  0  0  0  0  0  0  0
   19.9521   19.9348   23.0116 H   0  0  0  0  0  0  0  0  0  0  0  0
   19.3164   19.2389   24.3513 H   0  0  0  0  0  0  0  0  0  0  0  0
   17.8830   19.5103   22.8255 C   0  0  0  0  0  0  0  0  0  0  0  0
   17.8788   19.5378   21.7342 H   0  0  0  0  0  0  0  0  0  0  0  0
   17.2030   18.7322   23.1789 H   0  0  0  0  0  0  0  0  0  0  0  0
   17.5675   20.4797   23.2173 H   0  0  0  0  0  0  0  0  0  0  0  0
  1  2  1  0  0  0  0
  1  3  1  0  0  0  0
  1  4  1  0  0  0  0
  1  5  1  0  0  0  0
  5  6  1  0  0  0  0
  5  7  1  0  0  0  0
  5  8  1  0  0  0  0
  8  9  1  0  0  0  0
  8 10  1  0  0  0  0
  8 11  1  0  0  0  0
 11 12  1  0  0  0  0
 11 13  1  0  0  0  0
 11 14  1  0  0  0  0
 14 15  1  0  0  0  0
 14 16  1  0  0  0  0
 14 17  1  0  0  0  0
 17 18  1  0  0  0  0
 17 19  1  0  0  0  0
 17 20  1  0  0  0  0
M  END
> <VConfSearch Rank>
701

> <Conf_Id>
76

> <Delta U+W>
2.799

> <U+W>
18.137

> <U>
72.490

> <W>
-54.353

> <W(PB)>
-56.201

> <W(SA)>
1.848

> <Valence>
2.738

> <Coulomb>
69.795

> <VdW>
-0.043

> <VdW6>
-5.334

> <VdW12>
5.290

> <Bond>
0.182

> <Angle>
1.135

> <Pdih>
1.421

> <Idih>
0.000

> <Tether>
0.000

$$$$
VeraChem MOL file


 20 19  0  0  0  0  0  0  0  0999 V2000     
   20.2172   19.3957   24.0255 C   0  0  0  0  0  0  0  0  0  0  0  0
   19.1959   19.2905   23.6395 H   0  0  0  0  0  0  0  0  0  0  0  0
   20.3766   18.6184   24.7840 H   0  0  0  0  0  0  0  0  0  0  0  0
   20.2837   20.3702   24.5262 H   0  0  0  0  0  0  0  0  0  0  0  0
   21.2687   19.2929   22.8966 C   0  0  0  0  0  0  0  0  0  0  0  0
   22.2649   19.4760   23.3231 H   0  0  0  0  0  0  0  0  0  0  0  0
   21.1099   20.0898   22.1587 H   0  0  0  0  0  0  0  0  0  0  0  0
   21.2759   17.9114   22.1973 C   0  0  0  0  0  0  0  0  0  0  0  0
   22.0705   17.8917   21.4399 H   0  0  0  0  0  0  0  0  0  0  0  0
   21.5461   17.1456   22.9363 H   0  0  0  0  0  0  0  0  0  0  0  0
   19.9396   17.4957   21.5384 C   0  0  0  0  0  0  0  0  0  0  0  0
   19.1281   17.5158   22.2697 H   0  0  0  0  0  0  0  0  0  0  0  0
   20.0451   16.4645   21.1918 H   0  0  0  0  0  0  0  0  0  0  0  0
   19.5193   18.3170   20.3285 N   0  3  0  0  0  0  0  0  0  0  0  0
   18.9894   17.7160   19.6782 H   0  0  0  0  0  0  0  0  0  0  0  0
   20.3474   18.6171   19.7931 H   0  0  0  0  0  0  0  0  0  0  0  0
   18.6535   19.5072   20.7273 C   0  0  0  0  0  0  0  0  0  0  0  0
   18.3525   20.0470   19.8267 H   0  0  0  0  0  0  0  0  0  0  0  0
   17.7663   19.1450   21.2509 H   0  0  0  0  0  0  0  0  0  0  0  0
   19.2194   20.1728   21.3798 H   0  0  0  0  0  0  0  0  0  0  0  0
  1  2  1  0  0  0  0
  1  3  1  0  0  0  0
  1  4  1  0  0  0  0
  1  5  1  0  0  0  0
  5  6  1  0  0  0  0
  5  7  1  0  0  0  0
  5  8  1  0  0  0  0
  8  9  1  0  0  0  0
  8 10  1  0  0  0  0
  8 11  1  0  0  0  0
 11 12  1  0  0  0  0
 11 13  1  0  0  0  0
 11 14  1  0  0  0  0
 14 15  1  0  0  0  0
 14 16  1  0  0  0  0
 14 17  1  0  0  0  0
 17 18  1  0  0  0  0
 17 19  1  0  0  0  0
 17 20  1  0  0  0  0
M  END
> <VConfSearch Rank>
702

> <Conf_Id>
60

> <Delta U+W>
1.788

> <U+W>
17.127

> <U>
72.122

> <W>
-54.995

> <W(PB)>
-56.810

> <W(SA)>
1.815

> <Valence>
3.197

> <Coulomb>
69.115

> <VdW>
-0.190

> <VdW6>
-5.585

> <VdW12>
5.395

> <Bond>
0.177

> <Angle>
1.207

> <Pdih>
1.813

> <Idih>
0.000

> <Tether>
0.000

$$$$
VeraChem MOL file


 20 19  0  0  0  0  0  0  0  0999 V2000     
   21.8516   19.2584   23.2053 C   0  0  0  0  0  0  0  0  0  0  0  0
   22.9152   18.9869   23.1987 H   0  0  0  0  0  0  0  0  0  0  0  0
   21.7115   20.0431   23.9600 H   0  0  0  0  0  0  0  0  0  0  0  0
   21.2860   18.3744   23.5239 H   0  0  0  0  0  0  0  0  0  0  0  0
   21.4081   19.7480   21.8073 C   0  0  0  0  0  0  0  0  0  0  0  0
   21.5754   18.9609   21.0608 H   0  0  0  0  0  0  0  0  0  0  0  0
   22.0513   20.5864   21.5054 H   0  0  0  0  0  0  0  0  0  0  0  0
   19.9329   20.2165   21.7677 C   0  0  0  0  0  0  0  0  0  0  0  0
   19.8196   21.0759   22.4418 H   0  0  0  0  0  0  0  0  0  0  0  0
   19.6971   20.5900   20.7625 H   0  0  0  0  0  0  0  0  0  0  0  0
   18.8878   19.1486   22.1678 C   0  0  0  0  0  0  0  0  0  0  0  0
   17.9116   19.6380   22.2138 H   0  0  0  0  0  0  0  0  0  0  0  0
   19.1048   18.7527   23.1627 H   0  0  0  0  0  0  0  0  0  0  0  0
   18.7401   17.9799   21.2050 N   0  3  0  0  0  0  0  0  0  0  0  0
   18.8889   18.2934   20.2343 H   0  0  0  0  0  0  0  0  0  0  0  0
   17.7645   17.6443   21.2262 H   0  0  0  0  0  0  0  0  0  0  0  0
   19.6726   16.8289   21.5668 C   0  0  0  0  0  0  0  0  0  0  0  0
   19.4531   16.4966   22.5836 H   0  0  0  0  0  0  0  0  0  0  0  0
   19.5096   16.0048   20.8688 H   0  0  0  0  0  0  0  0  0  0  0  0
   20.7095   17.1606   21.5043 H   0  0  0  0  0  0  0  0  0  0  0  0
  1  2  1  0  0  0  0
  1  3  1  0  0  0  0
  1  4  1  0  0  0  0
  1  5  1  0  0  0  0
  5  6  1  0  0  0  0
  5  7  1  0  0  0  0
  5  8  1  0  0  0  0
  8  9  1  0  0  0  0
  8 10  1  0  0  0  0
  8 11  1  0  0  0  0
 11 12  1  0  0  0  0
 11 13  1  0  0  0  0
 11 14  1  0  0  0  0
 14 15  1  0  0  0  0
 14 16  1  0  0  0  0
 14 17  1  0  0  0  0
 17 18  1  0  0  0  0
 17 19  1  0  0  0  0
 17 20  1  0  0  0  0
M  END
> <VConfSearch Rank>
703

> <Conf_Id>
54

> <Delta U+W>
1.880

> <U+W>
17.218

> <U>
72.122

> <W>
-54.903

> <W(PB)>
-56.724

> <W(SA)>
1.821

> <Valence>
3.197

> <Coulomb>
69.115

> <VdW>
-0.190

> <VdW6>
-5.585

> <VdW12>
5.395

> <Bond>
0.177

> <Angle>
1.207

> <Pdih>
1.813

> <Idih>
0.000

> <Tether>
0.000

$$$$
VeraChem MOL file


 20 19  0  0  0  0  0  0  0  0999 V2000     
   17.6054   16.7538   22.2787 C   0  0  0  0  0  0  0  0  0  0  0  0
   17.6232   16.3840   21.2452 H   0  0  0  0  0  0  0  0  0  0  0  0
   17.3477   15.9107   22.9328 H   0  0  0  0  0  0  0  0  0  0  0  0
   16.8043   17.4998   22.3607 H   0  0  0  0  0  0  0  0  0  0  0  0
   18.9699   17.3565   22.6775 C   0  0  0  0  0  0  0  0  0  0  0  0
   19.7440   16.5782   22.6190 H   0  0  0  0  0  0  0  0  0  0  0  0
   18.9315   17.6854   23.7257 H   0  0  0  0  0  0  0  0  0  0  0  0
   19.3589   18.5464   21.7727 C   0  0  0  0  0  0  0  0  0  0  0  0
   19.4005   18.2163   20.7262 H   0  0  0  0  0  0  0  0  0  0  0  0
   18.5867   19.3249   21.8343 H   0  0  0  0  0  0  0  0  0  0  0  0
   20.7204   19.1420   22.1767 C   0  0  0  0  0  0  0  0  0  0  0  0
   21.4940   18.3736   22.1016 H   0  0  0  0  0  0  0  0  0  0  0  0
   20.6776   19.4859   23.2133 H   0  0  0  0  0  0  0  0  0  0  0  0
   21.1442   20.3148   21.3145 N   0  3  0  0  0  0  0  0  0  0  0  0
   20.4331   21.0611   21.3529 H   0  0  0  0  0  0  0  0  0  0  0  0
   21.1890   20.0312   20.3237 H   0  0  0  0  0  0  0  0  0  0  0  0
   22.4953   20.8408   21.7805 C   0  0  0  0  0  0  0  0  0  0  0  0
   23.2390   20.0451   21.6988 H   0  0  0  0  0  0  0  0  0  0  0  0
   22.7882   21.6844   21.1515 H   0  0  0  0  0  0  0  0  0  0  0  0
   22.4156   21.1669   22.8198 H   0  0  0  0  0  0  0  0  0  0  0  0
  1  2  1  0  0  0  0
  1  3  1  0  0  0  0
  1  4  1  0  0  0  0
  1  5  1  0  0  0  0
  5  6  1  0  0  0  0
  5  7  1  0  0  0  0
  5  8  1  0  0  0  0
  8  9  1  0  0  0  0
  8 10  1  0  0  0  0
  8 11  1  0  0  0  0
 11 12  1  0  0  0  0
 11 13  1  0  0  0  0
 11 14  1  0  0  0  0
 14 15  1  0  0  0  0
 14 16  1  0  0  0  0
 14 17  1  0  0  0  0
 17 18  1  0  0  0  0
 17 19  1  0  0  0  0
 17 20  1  0  0  0  0
M  END
> <VConfSearch Rank>
704

> <Conf_Id>
67

> <Delta U+W>
0.000

> <U+W>
15.338

> <U>
69.277

> <W>
-53.939

> <W(PB)>
-55.889

> <W(SA)>
1.950

> <Valence>
0.846

> <Coulomb>
68.557

> <VdW>
-0.127

> <VdW6>
-3.008

> <VdW12>
2.882

> <Bond>
0.088

> <Angle>
0.332

> <Pdih>
0.426

> <Idih>
0.000

> <Tether>
0.000

$$$$
VeraChem MOL file


 20 19  0  0  0  0  0  0  0  0999 V2000     
   22.5038   17.6479   23.2798 C   0  0  0  0  0  0  0  0  0  0  0  0
   22.8611   18.6437   23.5727 H   0  0  0  0  0  0  0  0  0  0  0  0
   22.7974   16.9407   24.0663 H   0  0  0  0  0  0  0  0  0  0  0  0
   23.0213   17.3573   22.3563 H   0  0  0  0  0  0  0  0  0  0  0  0
   20.9721   17.6417   23.0846 C   0  0  0  0  0  0  0  0  0  0  0  0
   20.4820   17.9025   24.0333 H   0  0  0  0  0  0  0  0  0  0  0  0
   20.6410   16.6257   22.8269 H   0  0  0  0  0  0  0  0  0  0  0  0
   20.5293   18.6287   21.9820 C   0  0  0  0  0  0  0  0  0  0  0  0
   20.8620   19.6415   22.2434 H   0  0  0  0  0  0  0  0  0  0  0  0
   21.0158   18.3650   21.0337 H   0  0  0  0  0  0  0  0  0  0  0  0
   18.9982   18.6142   21.7935 C   0  0  0  0  0  0  0  0  0  0  0  0
   18.5072   18.9228   22.7198 H   0  0  0  0  0  0  0  0  0  0  0  0
   18.6787   17.5941   21.5653 H   0  0  0  0  0  0  0  0  0  0  0  0
   18.4898   19.5077   20.6737 N   0  3  0  0  0  0  0  0  0  0  0  0
   17.4893   19.3167   20.5071 H   0  0  0  0  0  0  0  0  0  0  0  0
   18.9557   19.2677   19.7854 H   0  0  0  0  0  0  0  0  0  0  0  0
   18.6860   20.9826   21.0083 C   0  0  0  0  0  0  0  0  0  0  0  0
   19.7520   21.1911   21.1177 H   0  0  0  0  0  0  0  0  0  0  0  0
   18.2752   21.5905   20.1992 H   0  0  0  0  0  0  0  0  0  0  0  0
   18.1660   21.2118   21.9409 H   0  0  0  0  0  0  0  0  0  0  0  0
  1  2  1  0  0  0  0
  1  3  1  0  0  0  0
  1  4  1  0  0  0  0
  1  5  1  0  0  0  0
  5  6  1  0  0  0  0
  5  7  1  0  0  0  0
  5  8  1  0  0  0  0
  8  9  1  0  0  0  0
  8 10  1  0  0  0  0
  8 11  1  0  0  0  0
 11 12  1  0  0  0  0
 11 13  1  0  0  0  0
 11 14  1  0  0  0  0
 14 15  1  0  0  0  0
 14 16  1  0  0  0  0
 14 17  1  0  0  0  0
 17 18  1  0  0  0  0
 17 19  1  0  0  0  0
 17 20  1  0  0  0  0
M  END
> <VConfSearch Rank>
705

> <Conf_Id>
37

> <Delta U+W>
-0.021

> <U+W>
15.318

> <U>
69.657

> <W>
-54.340

> <W(PB)>
-56.238

> <W(SA)>
1.899

> <Valence>
1.137

> <Coulomb>
68.383

> <VdW>
0.138

> <VdW6>
-3.703

> <VdW12>
3.841

> <Bond>
0.125

> <Angle>
0.468

> <Pdih>
0.543

> <Idih>
0.000

> <Tether>
0.000

$$$$
VeraChem MOL file


 20 19  0  0  0  0  0  0  0  0999 V2000     
   21.3575   21.2859   22.9410 C   0  0  0  0  0  0  0  0  0  0  0  0
   22.3538   21.7214   23.0921 H   0  0  0  0  0  0  0  0  0  0  0  0
   20.8513   21.8678   22.1599 H   0  0  0  0  0  0  0  0  0  0  0  0
   20.7935   21.4050   23.8753 H   0  0  0  0  0  0  0  0  0  0  0  0
   21.4672   19.7979   22.5432 C   0  0  0  0  0  0  0  0  0  0  0  0
   22.0084   19.2494   23.3272 H   0  0  0  0  0  0  0  0  0  0  0  0
   22.0650   19.7084   21.6251 H   0  0  0  0  0  0  0  0  0  0  0  0
   20.0786   19.1579   22.3241 C   0  0  0  0  0  0  0  0  0  0  0  0
   19.4836   19.2438   23.2429 H   0  0  0  0  0  0  0  0  0  0  0  0
   19.5421   19.7087   21.5408 H   0  0  0  0  0  0  0  0  0  0  0  0
   20.1985   17.6715   21.9287 C   0  0  0  0  0  0  0  0  0  0  0  0
   20.7619   17.1432   22.7021 H   0  0  0  0  0  0  0  0  0  0  0  0
   20.7483   17.5807   20.9886 H   0  0  0  0  0  0  0  0  0  0  0  0
   18.8701   16.9507   21.7659 N   0  3  0  0  0  0  0  0  0  0  0  0
   18.3064   17.0416   22.6248 H   0  0  0  0  0  0  0  0  0  0  0  0
   19.0375   15.9371   21.6661 H   0  0  0  0  0  0  0  0  0  0  0  0
   18.1020   17.4697   20.5550 C   0  0  0  0  0  0  0  0  0  0  0  0
   18.7139   17.3423   19.6595 H   0  0  0  0  0  0  0  0  0  0  0  0
   17.1743   16.9029   20.4502 H   0  0  0  0  0  0  0  0  0  0  0  0
   17.8706   18.5270   20.6981 H   0  0  0  0  0  0  0  0  0  0  0  0
  1  2  1  0  0  0  0
  1  3  1  0  0  0  0
  1  4  1  0  0  0  0
  1  5  1  0  0  0  0
  5  6  1  0  0  0  0
  5  7  1  0  0  0  0
  5  8  1  0  0  0  0
  8  9  1  0  0  0  0
  8 10  1  0  0  0  0
  8 11  1  0  0  0  0
 11 12  1  0  0  0  0
 11 13  1  0  0  0  0
 11 14  1  0  0  0  0
 14 15  1  0  0  0  0
 14 16  1  0  0  0  0
 14 17  1  0  0  0  0
 17 18  1  0  0  0  0
 17 19  1  0  0  0  0
 17 20  1  0  0  0  0
M  END
> <VConfSearch Rank>
706

> <Conf_Id>
2

> <Delta U+W>
0.069

> <U+W>
15.407

> <U>
69.657

> <W>
-54.250

> <W(PB)>
-56.176

> <W(SA)>
1.926

> <Valence>
1.137

> <Coulomb>
68.383

> <VdW>
0.138

> <VdW6>
-3.703

> <VdW12>
3.841

> <Bond>
0.125

> <Angle>
0.468

> <Pdih>
0.543

> <Idih>
0.000

> <Tether>
0.000

$$$$
VeraChem MOL file


 20 19  0  0  0  0  0  0  0  0999 V2000     
   22.3170   17.4665   21.5791 C   0  0  0  0  0  0  0  0  0  0  0  0
   21.8967   17.8633   20.6464 H   0  0  0  0  0  0  0  0  0  0  0  0
   22.9663   18.2356   22.0173 H   0  0  0  0  0  0  0  0  0  0  0  0
   22.9469   16.6062   21.3180 H   0  0  0  0  0  0  0  0  0  0  0  0
   21.2070   17.0449   22.5691 C   0  0  0  0  0  0  0  0  0  0  0  0
   21.6698   16.5694   23.4453 H   0  0  0  0  0  0  0  0  0  0  0  0
   20.5688   16.2801   22.1043 H   0  0  0  0  0  0  0  0  0  0  0  0
   20.3365   18.2322   23.0431 C   0  0  0  0  0  0  0  0  0  0  0  0
   19.6242   17.8740   23.7982 H   0  0  0  0  0  0  0  0  0  0  0  0
   20.9711   18.9792   23.5383 H   0  0  0  0  0  0  0  0  0  0  0  0
   19.5592   18.8963   21.8898 C   0  0  0  0  0  0  0  0  0  0  0  0
   18.9259   18.1533   21.3986 H   0  0  0  0  0  0  0  0  0  0  0  0
   20.2614   19.2913   21.1518 H   0  0  0  0  0  0  0  0  0  0  0  0
   18.6716   20.0392   22.3418 N   0  3  0  0  0  0  0  0  0  0  0  0
   19.2338   20.7594   22.8206 H   0  0  0  0  0  0  0  0  0  0  0  0
   17.9949   19.7081   23.0465 H   0  0  0  0  0  0  0  0  0  0  0  0
   17.9453   20.6377   21.1446 C   0  0  0  0  0  0  0  0  0  0  0  0
   17.3306   19.8670   20.6744 H   0  0  0  0  0  0  0  0  0  0  0  0
   17.3101   21.4588   21.4840 H   0  0  0  0  0  0  0  0  0  0  0  0
   18.6799   21.0124   20.4285 H   0  0  0  0  0  0  0  0  0  0  0  0
  1  2  1  0  0  0  0
  1  3  1  0  0  0  0
  1  4  1  0  0  0  0
  1  5  1  0  0  0  0
  5  6  1  0  0  0  0
  5  7  1  0  0  0  0
  5  8  1  0  0  0  0
  8  9  1  0  0  0  0
  8 10  1  0  0  0  0
  8 11  1  0  0  0  0
 11 12  1  0  0  0  0
 11 13  1  0  0  0  0
 11 14  1  0  0  0  0
 14 15  1  0  0  0  0
 14 16  1  0  0  0  0
 14 17  1  0  0  0  0
 17 18  1  0  0  0  0
 17 19  1  0  0  0  0
 17 20  1  0  0  0  0
M  END
> <VConfSearch Rank>
707

> <Conf_Id>
34

> <Delta U+W>
0.276

> <U+W>
15.615

> <U>
69.798

> <W>
-54.184

> <W(PB)>
-56.116

> <W(SA)>
1.933

> <Valence>
1.134

> <Coulomb>
68.735

> <VdW>
-0.070

> <VdW6>
-3.565

> <VdW12>
3.494

> <Bond>
0.108

> <Angle>
0.456

> <Pdih>
0.569

> <Idih>
0.000

> <Tether>
0.000

$$$$
VeraChem MOL file


 20 19  0  0  0  0  0  0  0  0999 V2000     
   18.1165   20.9687   21.0857 C   0  0  0  0  0  0  0  0  0  0  0  0
   17.4400   21.2212   21.9125 H   0  0  0  0  0  0  0  0  0  0  0  0
   18.4149   21.9057   20.5978 H   0  0  0  0  0  0  0  0  0  0  0  0
   17.5545   20.3731   20.3544 H   0  0  0  0  0  0  0  0  0  0  0  0
   19.3551   20.2000   21.5947 C   0  0  0  0  0  0  0  0  0  0  0  0
   19.9126   20.8335   22.2991 H   0  0  0  0  0  0  0  0  0  0  0  0
   20.0261   20.0006   20.7483 H   0  0  0  0  0  0  0  0  0  0  0  0
   18.9611   18.8737   22.2867 C   0  0  0  0  0  0  0  0  0  0  0  0
   18.2603   19.0858   23.1050 H   0  0  0  0  0  0  0  0  0  0  0  0
   18.4281   18.2238   21.5801 H   0  0  0  0  0  0  0  0  0  0  0  0
   20.1737   18.1189   22.8676 C   0  0  0  0  0  0  0  0  0  0  0  0
   19.8234   17.2420   23.4181 H   0  0  0  0  0  0  0  0  0  0  0  0
   20.7097   18.7667   23.5658 H   0  0  0  0  0  0  0  0  0  0  0  0
   21.1619   17.6374   21.8219 N   0  3  0  0  0  0  0  0  0  0  0  0
   21.5208   18.4358   21.2777 H   0  0  0  0  0  0  0  0  0  0  0  0
   20.6869   17.0293   21.1373 H   0  0  0  0  0  0  0  0  0  0  0  0
   22.3075   16.8923   22.4936 C   0  0  0  0  0  0  0  0  0  0  0  0
   22.8156   17.5645   23.1884 H   0  0  0  0  0  0  0  0  0  0  0  0
   21.9085   16.0326   23.0362 H   0  0  0  0  0  0  0  0  0  0  0  0
   23.0106   16.5517   21.7303 H   0  0  0  0  0  0  0  0  0  0  0  0
  1  2  1  0  0  0  0
  1  3  1  0  0  0  0
  1  4  1  0  0  0  0
  1  5  1  0  0  0  0
  5  6  1  0  0  0  0
  5  7  1  0  0  0  0
  5  8  1  0  0  0  0
  8  9  1  0  0  0  0
  8 10  1  0  0  0  0
  8 11  1  0  0  0  0
 11 12  1  0  0  0  0
 11 13  1  0  0  0  0
 11 14  1  0  0  0  0
 14 15  1  0  0  0  0
 14 16  1  0  0  0  0
 14 17  1  0  0  0  0
 17 18  1  0  0  0  0
 17 19  1  0  0  0  0
 17 20  1  0  0  0  0
M  END
> <VConfSearch Rank>
708

> <Conf_Id>
50

> <Delta U+W>
0.319

> <U+W>
15.657

> <U>
69.962

> <W>
-54.305

> <W(PB)>
-56.223

> <W(SA)>
1.918

> <Valence>
0.982

> <Coulomb>
69.058

> <VdW>
-0.078

> <VdW6>
-3.548

> <VdW12>
3.471

> <Bond>
0.105

> <Angle>
0.408

> <Pdih>
0.469

> <Idih>
0.000

> <Tether>
0.000

$$$$
VeraChem MOL file


 20 19  0  0  0  0  0  0  0  0999 V2000     
   19.1063   21.4642   20.8260 C   0  0  0  0  0  0  0  0  0  0  0  0
   19.1368   22.4343   21.3388 H   0  0  0  0  0  0  0  0  0  0  0  0
   19.5559   21.5949   19.8331 H   0  0  0  0  0  0  0  0  0  0  0  0
   18.0523   21.1889   20.6900 H   0  0  0  0  0  0  0  0  0  0  0  0
   19.8603   20.3917   21.6417 C   0  0  0  0  0  0  0  0  0  0  0  0
   19.4088   20.3175   22.6402 H   0  0  0  0  0  0  0  0  0  0  0  0
   20.9020   20.7109   21.7875 H   0  0  0  0  0  0  0  0  0  0  0  0
   19.8314   19.0134   20.9398 C   0  0  0  0  0  0  0  0  0  0  0  0
   18.7940   18.6751   20.8161 H   0  0  0  0  0  0  0  0  0  0  0  0
   20.2498   19.1122   19.9293 H   0  0  0  0  0  0  0  0  0  0  0  0
   20.6372   17.9392   21.6975 C   0  0  0  0  0  0  0  0  0  0  0  0
   21.6684   18.2773   21.8277 H   0  0  0  0  0  0  0  0  0  0  0  0
   20.6532   17.0180   21.1095 H   0  0  0  0  0  0  0  0  0  0  0  0
   20.0793   17.5980   23.0665 N   0  3  0  0  0  0  0  0  0  0  0  0
   19.1003   17.2838   22.9831 H   0  0  0  0  0  0  0  0  0  0  0  0
   20.0477   18.4417   23.6578 H   0  0  0  0  0  0  0  0  0  0  0  0
   20.9324   16.5200   23.7214 C   0  0  0  0  0  0  0  0  0  0  0  0
   20.5202   16.2844   24.7051 H   0  0  0  0  0  0  0  0  0  0  0  0
   20.9247   15.6253   23.0952 H   0  0  0  0  0  0  0  0  0  0  0  0
   21.9555   16.8868   23.8293 H   0  0  0  0  0  0  0  0  0  0  0  0
  1  2  1  0  0  0  0
  1  3  1  0  0  0  0
  1  4  1  0  0  0  0
  1  5  1  0  0  0  0
  5  6  1  0  0  0  0
  5  7  1  0  0  0  0
  5  8  1  0  0  0  0
  8  9  1  0  0  0  0
  8 10  1  0  0  0  0
  8 11  1  0  0  0  0
 11 12  1  0  0  0  0
 11 13  1  0  0  0  0
 11 14  1  0  0  0  0
 14 15  1  0  0  0  0
 14 16  1  0  0  0  0
 14 17  1  0  0  0  0
 17 18  1  0  0  0  0
 17 19  1  0  0  0  0
 17 20  1  0  0  0  0
M  END
> <VConfSearch Rank>
709

> <Conf_Id>
35

> <Delta U+W>
0.360

> <U+W>
15.698

> <U>
69.962

> <W>
-54.264

> <W(PB)>
-56.166

> <W(SA)>
1.902

> <Valence>
0.982

> <Coulomb>
69.058

> <VdW>
-0.078

> <VdW6>
-3.548

> <VdW12>
3.471

> <Bond>
0.105

> <Angle>
0.408

> <Pdih>
0.469

> <Idih>
0.000

> <Tether>
0.000

$$$$
VeraChem MOL file


 20 19  0  0  0  0  0  0  0  0999 V2000     
   17.8628   18.5634   20.6575 C   0  0  0  0  0  0  0  0  0  0  0  0
   17.9327   19.6290   20.9099 H   0  0  0  0  0  0  0  0  0  0  0  0
   17.1684   18.4684   19.8127 H   0  0  0  0  0  0  0  0  0  0  0  0
   17.4219   18.0366   21.5138 H   0  0  0  0  0  0  0  0  0  0  0  0
   19.2446   17.9737   20.2927 C   0  0  0  0  0  0  0  0  0  0  0  0
   19.6655   18.5210   19.4375 H   0  0  0  0  0  0  0  0  0  0  0  0
   19.1144   16.9343   19.9600 H   0  0  0  0  0  0  0  0  0  0  0  0
   20.2437   18.0022   21.4729 C   0  0  0  0  0  0  0  0  0  0  0  0
   19.8343   17.4227   22.3103 H   0  0  0  0  0  0  0  0  0  0  0  0
   21.1719   17.5014   21.1677 H   0  0  0  0  0  0  0  0  0  0  0  0
   20.5729   19.4377   21.9359 C   0  0  0  0  0  0  0  0  0  0  0  0
   19.6682   19.9259   22.3058 H   0  0  0  0  0  0  0  0  0  0  0  0
   20.9412   20.0102   21.0809 H   0  0  0  0  0  0  0  0  0  0  0  0
   21.6279   19.5239   23.0268 N   0  3  0  0  0  0  0  0  0  0  0  0
   21.9065   20.5086   23.1607 H   0  0  0  0  0  0  0  0  0  0  0  0
   22.4906   19.0438   22.7285 H   0  0  0  0  0  0  0  0  0  0  0  0
   21.1131   18.9484   24.3417 C   0  0  0  0  0  0  0  0  0  0  0  0
   20.8825   17.8896   24.2086 H   0  0  0  0  0  0  0  0  0  0  0  0
   21.8834   19.0618   25.1077 H   0  0  0  0  0  0  0  0  0  0  0  0
   20.2129   19.4885   24.6426 H   0  0  0  0  0  0  0  0  0  0  0  0
  1  2  1  0  0  0  0
  1  3  1  0  0  0  0
  1  4  1  0  0  0  0
  1  5  1  0  0  0  0
  5  6  1  0  0  0  0
  5  7  1  0  0  0  0
  5  8  1  0  0  0  0
  8  9  1  0  0  0  0
  8 10  1  0  0  0  0
  8 11  1  0  0  0  0
 11 12  1  0  0  0  0
 11 13  1  0  0  0  0
 11 14  1  0  0  0  0
 14 15  1  0  0  0  0
 14 16  1  0  0  0  0
 14 17  1  0  0  0  0
 17 18  1  0  0  0  0
 17 19  1  0  0  0  0
 17 20  1  0  0  0  0
M  END
> <VConfSearch Rank>
710

> <Conf_Id>
33

> <Delta U+W>
0.372

> <U+W>
15.711

> <U>
70.163

> <W>
-54.452

> <W(PB)>
-56.363

> <W(SA)>
1.911

> <Valence>
1.420

> <Coulomb>
68.566

> <VdW>
0.177

> <VdW6>
-4.267

> <VdW12>
4.445

> <Bond>
0.146

> <Angle>
0.581

> <Pdih>
0.693

> <Idih>
0.000

> <Tether>
0.000

$$$$
VeraChem MOL file


 20 19  0  0  0  0  0  0  0  0999 V2000     
   20.2158   18.6981   24.5752 C   0  0  0  0  0  0  0  0  0  0  0  0
   19.9054   18.5734   25.6207 H   0  0  0  0  0  0  0  0  0  0  0  0
   20.6616   17.7505   24.2475 H   0  0  0  0  0  0  0  0  0  0  0  0
   20.9948   19.4711   24.5474 H   0  0  0  0  0  0  0  0  0  0  0  0
   19.0082   19.0930   23.6944 C   0  0  0  0  0  0  0  0  0  0  0  0
   18.5391   19.9948   24.1123 H   0  0  0  0  0  0  0  0  0  0  0  0
   18.2466   18.3015   23.7357 H   0  0  0  0  0  0  0  0  0  0  0  0
   19.3979   19.3653   22.2227 C   0  0  0  0  0  0  0  0  0  0  0  0
   18.5112   19.7130   21.6765 H   0  0  0  0  0  0  0  0  0  0  0  0
   20.1306   20.1817   22.1853 H   0  0  0  0  0  0  0  0  0  0  0  0
   19.9662   18.1141   21.5191 C   0  0  0  0  0  0  0  0  0  0  0  0
   19.2402   17.3011   21.6008 H   0  0  0  0  0  0  0  0  0  0  0  0
   20.8876   17.7960   22.0126 H   0  0  0  0  0  0  0  0  0  0  0  0
   20.2702   18.3027   20.0418 N   0  3  0  0  0  0  0  0  0  0  0  0
   19.4308   18.6360   19.5437 H   0  0  0  0  0  0  0  0  0  0  0  0
   20.4856   17.3885   19.6140 H   0  0  0  0  0  0  0  0  0  0  0  0
   21.4398   19.2592   19.8349 C   0  0  0  0  0  0  0  0  0  0  0  0
   21.6512   19.3398   18.7664 H   0  0  0  0  0  0  0  0  0  0  0  0
   21.1788   20.2423   20.2315 H   0  0  0  0  0  0  0  0  0  0  0  0
   22.3180   18.8711   20.3553 H   0  0  0  0  0  0  0  0  0  0  0  0
  1  2  1  0  0  0  0
  1  3  1  0  0  0  0
  1  4  1  0  0  0  0
  1  5  1  0  0  0  0
  5  6  1  0  0  0  0
  5  7  1  0  0  0  0
  5  8  1  0  0  0  0
  8  9  1  0  0  0  0
  8 10  1  0  0  0  0
  8 11  1  0  0  0  0
 11 12  1  0  0  0  0
 11 13  1  0  0  0  0
 11 14  1  0  0  0  0
 14 15  1  0  0  0  0
 14 16  1  0  0  0  0
 14 17  1  0  0  0  0
 17 18  1  0  0  0  0
 17 19  1  0  0  0  0
 17 20  1  0  0  0  0
M  END
> <VConfSearch Rank>
711

> <Conf_Id>
53

> <Delta U+W>
0.379

> <U+W>
15.717

> <U>
70.163

> <W>
-54.446

> <W(PB)>
-56.322

> <W(SA)>
1.876

> <Valence>
1.420

> <Coulomb>
68.566

> <VdW>
0.177

> <VdW6>
-4.267

> <VdW12>
4.445

> <Bond>
0.146

> <Angle>
0.581

> <Pdih>
0.693

> <Idih>
0.000

> <Tether>
0.000

$$$$
VeraChem MOL file


 20 19  0  0  0  0  0  0  0  0999 V2000     
   17.8686   20.4662   22.3519 C   0  0  0  0  0  0  0  0  0  0  0  0
   17.8082   21.4250   22.8830 H   0  0  0  0  0  0  0  0  0  0  0  0
   17.2741   20.5532   21.4331 H   0  0  0  0  0  0  0  0  0  0  0  0
   17.4052   19.7002   22.9872 H   0  0  0  0  0  0  0  0  0  0  0  0
   19.3369   20.1104   22.0332 C   0  0  0  0  0  0  0  0  0  0  0  0
   19.9076   20.0702   22.9710 H   0  0  0  0  0  0  0  0  0  0  0  0
   19.7817   20.9098   21.4239 H   0  0  0  0  0  0  0  0  0  0  0  0
   19.4497   18.7609   21.2857 C   0  0  0  0  0  0  0  0  0  0  0  0
   19.0314   17.9543   21.9014 H   0  0  0  0  0  0  0  0  0  0  0  0
   18.8399   18.7994   20.3734 H   0  0  0  0  0  0  0  0  0  0  0  0
   20.9012   18.4160   20.8845 C   0  0  0  0  0  0  0  0  0  0  0  0
   21.2828   19.2001   20.2255 H   0  0  0  0  0  0  0  0  0  0  0  0
   20.9115   17.4761   20.3270 H   0  0  0  0  0  0  0  0  0  0  0  0
   21.8814   18.2762   22.0397 N   0  3  0  0  0  0  0  0  0  0  0  0
   21.9011   19.1432   22.5964 H   0  0  0  0  0  0  0  0  0  0  0  0
   22.8395   18.1770   21.6689 H   0  0  0  0  0  0  0  0  0  0  0  0
   21.5380   17.0768   22.9163 C   0  0  0  0  0  0  0  0  0  0  0  0
   21.5436   16.1717   22.3052 H   0  0  0  0  0  0  0  0  0  0  0  0
   22.2826   16.9892   23.7105 H   0  0  0  0  0  0  0  0  0  0  0  0
   20.5490   17.2211   23.3558 H   0  0  0  0  0  0  0  0  0  0  0  0
  1  2  1  0  0  0  0
  1  3  1  0  0  0  0
  1  4  1  0  0  0  0
  1  5  1  0  0  0  0
  5  6  1  0  0  0  0
  5  7  1  0  0  0  0
  5  8  1  0  0  0  0
  8  9  1  0  0  0  0
  8 10  1  0  0  0  0
  8 11  1  0  0  0  0
 11 12  1  0  0  0  0
 11 13  1  0  0  0  0
 11 14  1  0  0  0  0
 14 15  1  0  0  0  0
 14 16  1  0  0  0  0
 14 17  1  0  0  0  0
 17 18  1  0  0  0  0
 17 19  1  0  0  0  0
 17 20  1  0  0  0  0
M  END
> <VConfSearch Rank>
712

> <Conf_Id>
49

> <Delta U+W>
0.268

> <U+W>
15.607

> <U>
70.298

> <W>
-54.692

> <W(PB)>
-56.576

> <W(SA)>
1.885

> <Valence>
1.245

> <Coulomb>
68.933

> <VdW>
0.120

> <VdW6>
-4.430

> <VdW12>
4.550

> <Bond>
0.148

> <Angle>
0.587

> <Pdih>
0.509

> <Idih>
0.000

> <Tether>
0.000

$$$$
VeraChem MOL file


 20 19  0  0  0  0  0  0  0  0999 V2000     
   19.0242   20.0703   24.1873 C   0  0  0  0  0  0  0  0  0  0  0  0
   19.9037   20.6235   24.5416 H   0  0  0  0  0  0  0  0  0  0  0  0
   18.2619   20.7992   23.8829 H   0  0  0  0  0  0  0  0  0  0  0  0
   18.6229   19.4988   25.0342 H   0  0  0  0  0  0  0  0  0  0  0  0
   19.3927   19.1292   23.0198 C   0  0  0  0  0  0  0  0  0  0  0  0
   18.5002   18.5697   22.7060 H   0  0  0  0  0  0  0  0  0  0  0  0
   20.1256   18.3933   23.3760 H   0  0  0  0  0  0  0  0  0  0  0  0
   19.9715   19.9091   21.8163 C   0  0  0  0  0  0  0  0  0  0  0  0
   19.2784   20.7168   21.5460 H   0  0  0  0  0  0  0  0  0  0  0  0
   20.9122   20.3953   22.1066 H   0  0  0  0  0  0  0  0  0  0  0  0
   20.2079   19.0443   20.5573 C   0  0  0  0  0  0  0  0  0  0  0  0
   20.5527   19.7031   19.7562 H   0  0  0  0  0  0  0  0  0  0  0  0
   19.2712   18.5867   20.2292 H   0  0  0  0  0  0  0  0  0  0  0  0
   21.2507   17.9464   20.6998 N   0  3  0  0  0  0  0  0  0  0  0  0
   21.9955   18.2397   21.3495 H   0  0  0  0  0  0  0  0  0  0  0  0
   21.7283   17.8113   19.7950 H   0  0  0  0  0  0  0  0  0  0  0  0
   20.6172   16.6286   21.1341 C   0  0  0  0  0  0  0  0  0  0  0  0
   21.3945   15.8642   21.2018 H   0  0  0  0  0  0  0  0  0  0  0  0
   20.1394   16.7510   22.1068 H   0  0  0  0  0  0  0  0  0  0  0  0
   19.8723   16.3287   20.3940 H   0  0  0  0  0  0  0  0  0  0  0  0
  1  2  1  0  0  0  0
  1  3  1  0  0  0  0
  1  4  1  0  0  0  0
  1  5  1  0  0  0  0
  5  6  1  0  0  0  0
  5  7  1  0  0  0  0
  5  8  1  0  0  0  0
  8  9  1  0  0  0  0
  8 10  1  0  0  0  0
  8 11  1  0  0  0  0
 11 12  1  0  0  0  0
 11 13  1  0  0  0  0
 11 14  1  0  0  0  0
 14 15  1  0  0  0  0
 14 16  1  0  0  0  0
 14 17  1  0  0  0  0
 17 18  1  0  0  0  0
 17 19  1  0  0  0  0
 17 20  1  0  0  0  0
M  END
> <VConfSearch Rank>
713

> <Conf_Id>
65

> <Delta U+W>
1.775

> <U+W>
17.114

> <U>
71.726

> <W>
-54.613

> <W(PB)>
-56.495

> <W(SA)>
1.883

> <Valence>
2.885

> <Coulomb>
68.822

> <VdW>
0.019

> <VdW6>
-4.600

> <VdW12>
4.619

> <Bond>
0.152

> <Angle>
0.862

> <Pdih>
1.871

> <Idih>
0.000

> <Tether>
0.000

$$$$
VeraChem MOL file


 20 19  0  0  0  0  0  0  0  0999 V2000     
   19.1481   20.6181   23.1569 C   0  0  0  0  0  0  0  0  0  0  0  0
   18.4936   19.7527   22.9940 H   0  0  0  0  0  0  0  0  0  0  0  0
   18.9513   20.9958   24.1687 H   0  0  0  0  0  0  0  0  0  0  0  0
   18.8613   21.4033   22.4454 H   0  0  0  0  0  0  0  0  0  0  0  0
   20.6395   20.2426   22.9990 C   0  0  0  0  0  0  0  0  0  0  0  0
   20.9016   19.4574   23.7209 H   0  0  0  0  0  0  0  0  0  0  0  0
   21.2566   21.1133   23.2619 H   0  0  0  0  0  0  0  0  0  0  0  0
   21.0029   19.7898   21.5627 C   0  0  0  0  0  0  0  0  0  0  0  0
   20.8316   20.6225   20.8676 H   0  0  0  0  0  0  0  0  0  0  0  0
   22.0765   19.5654   21.5116 H   0  0  0  0  0  0  0  0  0  0  0  0
   20.2045   18.5649   21.0697 C   0  0  0  0  0  0  0  0  0  0  0  0
   20.4968   18.3312   20.0429 H   0  0  0  0  0  0  0  0  0  0  0  0
   19.1366   18.7959   21.0734 H   0  0  0  0  0  0  0  0  0  0  0  0
   20.4157   17.3155   21.9035 N   0  3  0  0  0  0  0  0  0  0  0  0
   20.1569   17.4985   22.8843 H   0  0  0  0  0  0  0  0  0  0  0  0
   21.4165   17.0668   21.9241 H   0  0  0  0  0  0  0  0  0  0  0  0
   19.5903   16.1674   21.3386 C   0  0  0  0  0  0  0  0  0  0  0  0
   19.9030   15.9712   20.3108 H   0  0  0  0  0  0  0  0  0  0  0  0
   19.7509   15.2758   21.9487 H   0  0  0  0  0  0  0  0  0  0  0  0
   18.5331   16.4409   21.3574 H   0  0  0  0  0  0  0  0  0  0  0  0
  1  2  1  0  0  0  0
  1  3  1  0  0  0  0
  1  4  1  0  0  0  0
  1  5  1  0  0  0  0
  5  6  1  0  0  0  0
  5  7  1  0  0  0  0
  5  8  1  0  0  0  0
  8  9  1  0  0  0  0
  8 10  1  0  0  0  0
  8 11  1  0  0  0  0
 11 12  1  0  0  0  0
 11 13  1  0  0  0  0
 11 14  1  0  0  0  0
 14 15  1  0  0  0  0
 14 16  1  0  0  0  0
 14 17  1  0  0  0  0
 17 18  1  0  0  0  0
 17 19  1  0  0  0  0
 17 20  1  0  0  0  0
M  END
> <VConfSearch Rank>
714

> <Conf_Id>
23

> <Delta U+W>
0.896

> <U+W>
16.234

> <U>
70.374

> <W>
-54.140

> <W(PB)>
-56.046

> <W(SA)>
1.907

> <Valence>
1.257

> <Coulomb>
69.240

> <VdW>
-0.123

> <VdW6>
-4.336

> <VdW12>
4.213

> <Bond>
0.128

> <Angle>
0.603

> <Pdih>
0.526

> <Idih>
0.000

> <Tether>
0.000

$$$$
VeraChem MOL file


 20 19  0  0  0  0  0  0  0  0999 V2000     
   18.5325   17.0067   22.0500 C   0  0  0  0  0  0  0  0  0  0  0  0
   18.9007   16.1580   22.6410 H   0  0  0  0  0  0  0  0  0  0  0  0
   17.5164   16.7637   21.7133 H   0  0  0  0  0  0  0  0  0  0  0  0
   19.1629   17.1011   21.1568 H   0  0  0  0  0  0  0  0  0  0  0  0
   18.5303   18.3070   22.8862 C   0  0  0  0  0  0  0  0  0  0  0  0
   17.8162   18.1976   23.7144 H   0  0  0  0  0  0  0  0  0  0  0  0
   18.1579   19.1396   22.2741 H   0  0  0  0  0  0  0  0  0  0  0  0
   19.9220   18.6554   23.4709 C   0  0  0  0  0  0  0  0  0  0  0  0
   19.8458   19.5699   24.0738 H   0  0  0  0  0  0  0  0  0  0  0  0
   20.2328   17.8598   24.1610 H   0  0  0  0  0  0  0  0  0  0  0  0
   21.0223   18.8405   22.4051 C   0  0  0  0  0  0  0  0  0  0  0  0
   21.1368   17.9184   21.8304 H   0  0  0  0  0  0  0  0  0  0  0  0
   21.9738   19.0517   22.8997 H   0  0  0  0  0  0  0  0  0  0  0  0
   20.7510   19.9694   21.4290 N   0  3  0  0  0  0  0  0  0  0  0  0
   20.6356   20.8592   21.9377 H   0  0  0  0  0  0  0  0  0  0  0  0
   19.8545   19.8098   20.9460 H   0  0  0  0  0  0  0  0  0  0  0  0
   21.8891   20.0718   20.4227 C   0  0  0  0  0  0  0  0  0  0  0  0
   21.9705   19.1308   19.8744 H   0  0  0  0  0  0  0  0  0  0  0  0
   21.6801   20.8868   19.7263 H   0  0  0  0  0  0  0  0  0  0  0  0
   22.8221   20.2718   20.9540 H   0  0  0  0  0  0  0  0  0  0  0  0
  1  2  1  0  0  0  0
  1  3  1  0  0  0  0
  1  4  1  0  0  0  0
  1  5  1  0  0  0  0
  5  6  1  0  0  0  0
  5  7  1  0  0  0  0
  5  8  1  0  0  0  0
  8  9  1  0  0  0  0
  8 10  1  0  0  0  0
  8 11  1  0  0  0  0
 11 12  1  0  0  0  0
 11 13  1  0  0  0  0
 11 14  1  0  0  0  0
 14 15  1  0  0  0  0
 14 16  1  0  0  0  0
 14 17  1  0  0  0  0
 17 18  1  0  0  0  0
 17 19  1  0  0  0  0
 17 20  1  0  0  0  0
M  END
> <VConfSearch Rank>
715

> <Conf_Id>
24

> <Delta U+W>
0.792

> <U+W>
16.130

> <U>
70.374

> <W>
-54.243

> <W(PB)>
-56.130

> <W(SA)>
1.887

> <Valence>
1.257

> <Coulomb>
69.240

> <VdW>
-0.123

> <VdW6>
-4.336

> <VdW12>
4.213

> <Bond>
0.128

> <Angle>
0.603

> <Pdih>
0.526

> <Idih>
0.000

> <Tether>
0.000

$$$$
VeraChem MOL file


 20 19  0  0  0  0  0  0  0  0999 V2000     
   21.0271   16.9450   22.5752 C   0  0  0  0  0  0  0  0  0  0  0  0
   21.8183   16.2377   22.8563 H   0  0  0  0  0  0  0  0  0  0  0  0
   20.9938   17.7154   23.3546 H   0  0  0  0  0  0  0  0  0  0  0  0
   20.0761   16.3965   22.5757 H   0  0  0  0  0  0  0  0  0  0  0  0
   21.3238   17.5547   21.1861 C   0  0  0  0  0  0  0  0  0  0  0  0
   21.5580   16.7388   20.4879 H   0  0  0  0  0  0  0  0  0  0  0  0
   22.2303   18.1735   21.2445 H   0  0  0  0  0  0  0  0  0  0  0  0
   20.1615   18.3891   20.5897 C   0  0  0  0  0  0  0  0  0  0  0  0
   20.4579   18.7096   19.5821 H   0  0  0  0  0  0  0  0  0  0  0  0
   19.2702   17.7620   20.4559 H   0  0  0  0  0  0  0  0  0  0  0  0
   19.8017   19.6528   21.3995 C   0  0  0  0  0  0  0  0  0  0  0  0
   19.2688   20.3529   20.7511 H   0  0  0  0  0  0  0  0  0  0  0  0
   20.7155   20.1413   21.7471 H   0  0  0  0  0  0  0  0  0  0  0  0
   18.9091   19.3944   22.5985 N   0  3  0  0  0  0  0  0  0  0  0  0
   19.3446   18.6965   23.2181 H   0  0  0  0  0  0  0  0  0  0  0  0
   18.0187   18.9726   22.2931 H   0  0  0  0  0  0  0  0  0  0  0  0
   18.6552   20.6947   23.3490 C   0  0  0  0  0  0  0  0  0  0  0  0
   19.6079   21.1052   23.6903 H   0  0  0  0  0  0  0  0  0  0  0  0
   18.1646   21.4057   22.6808 H   0  0  0  0  0  0  0  0  0  0  0  0
   18.0119   20.4933   24.2085 H   0  0  0  0  0  0  0  0  0  0  0  0
  1  2  1  0  0  0  0
  1  3  1  0  0  0  0
  1  4  1  0  0  0  0
  1  5  1  0  0  0  0
  5  6  1  0  0  0  0
  5  7  1  0  0  0  0
  5  8  1  0  0  0  0
  8  9  1  0  0  0  0
  8 10  1  0  0  0  0
  8 11  1  0  0  0  0
 11 12  1  0  0  0  0
 11 13  1  0  0  0  0
 11 14  1  0  0  0  0
 14 15  1  0  0  0  0
 14 16  1  0  0  0  0
 14 17  1  0  0  0  0
 17 18  1  0  0  0  0
 17 19  1  0  0  0  0
 17 20  1  0  0  0  0
M  END
> <VConfSearch Rank>
716

> <Conf_Id>
26

> <Delta U+W>
2.888

> <U+W>
18.226

> <U>
72.042

> <W>
-53.816

> <W(PB)>
-55.689

> <W(SA)>
1.873

> <Valence>
2.428

> <Coulomb>
69.829

> <VdW>
-0.215

> <VdW6>
-4.563

> <VdW12>
4.348

> <Bond>
0.137

> <Angle>
0.936

> <Pdih>
1.356

> <Idih>
0.000

> <Tether>
0.000

$$$$
VeraChem MOL file


 20 19  0  0  0  0  0  0  0  0999 V2000     
   18.9989   20.0750   20.5737 C   0  0  0  0  0  0  0  0  0  0  0  0
   18.2548   20.3936   19.8320 H   0  0  0  0  0  0  0  0  0  0  0  0
   19.7712   20.8535   20.6246 H   0  0  0  0  0  0  0  0  0  0  0  0
   19.4509   19.1497   20.1976 H   0  0  0  0  0  0  0  0  0  0  0  0
   18.3256   19.8603   21.9485 C   0  0  0  0  0  0  0  0  0  0  0  0
   17.6281   19.0132   21.8856 H   0  0  0  0  0  0  0  0  0  0  0  0
   17.7118   20.7422   22.1798 H   0  0  0  0  0  0  0  0  0  0  0  0
   19.3154   19.6337   23.1197 C   0  0  0  0  0  0  0  0  0  0  0  0
   19.9700   20.5069   23.2414 H   0  0  0  0  0  0  0  0  0  0  0  0
   18.7314   19.5639   24.0470 H   0  0  0  0  0  0  0  0  0  0  0  0
   20.1640   18.3500   22.9993 C   0  0  0  0  0  0  0  0  0  0  0  0
   19.5430   17.5302   22.6297 H   0  0  0  0  0  0  0  0  0  0  0  0
   20.5361   18.0737   23.9890 H   0  0  0  0  0  0  0  0  0  0  0  0
   21.3737   18.4825   22.0937 N   0  3  0  0  0  0  0  0  0  0  0  0
   22.0006   19.2222   22.4456 H   0  0  0  0  0  0  0  0  0  0  0  0
   21.0803   18.7946   21.1571 H   0  0  0  0  0  0  0  0  0  0  0  0
   22.1103   17.1525   22.0101 C   0  0  0  0  0  0  0  0  0  0  0  0
   21.4376   16.3934   21.6050 H   0  0  0  0  0  0  0  0  0  0  0  0
   22.9777   17.2630   21.3557 H   0  0  0  0  0  0  0  0  0  0  0  0
   22.4384   16.8597   23.0098 H   0  0  0  0  0  0  0  0  0  0  0  0
  1  2  1  0  0  0  0
  1  3  1  0  0  0  0
  1  4  1  0  0  0  0
  1  5  1  0  0  0  0
  5  6  1  0  0  0  0
  5  7  1  0  0  0  0
  5  8  1  0  0  0  0
  8  9  1  0  0  0  0
  8 10  1  0  0  0  0
  8 11  1  0  0  0  0
 11 12  1  0  0  0  0
 11 13  1  0  0  0  0
 11 14  1  0  0  0  0
 14 15  1  0  0  0  0
 14 16  1  0  0  0  0
 14 17  1  0  0  0  0
 17 18  1  0  0  0  0
 17 19  1  0  0  0  0
 17 20  1  0  0  0  0
M  END
> <VConfSearch Rank>
717

> <Conf_Id>
5

> <Delta U+W>
2.950

> <U+W>
18.289

> <U>
72.042

> <W>
-53.753

> <W(PB)>
-55.644

> <W(SA)>
1.891

> <Valence>
2.428

> <Coulomb>
69.829

> <VdW>
-0.215

> <VdW6>
-4.563

> <VdW12>
4.348

> <Bond>
0.137

> <Angle>
0.936

> <Pdih>
1.356

> <Idih>
0.000

> <Tether>
0.000

$$$$
VeraChem MOL file


 20 19  0  0  0  0  0  0  0  0999 V2000     
   22.1462   17.6569   22.5050 C   0  0  0  0  0  0  0  0  0  0  0  0
   22.8132   17.5763   21.6368 H   0  0  0  0  0  0  0  0  0  0  0  0
   22.2482   18.6665   22.9221 H   0  0  0  0  0  0  0  0  0  0  0  0
   22.4994   16.9477   23.2648 H   0  0  0  0  0  0  0  0  0  0  0  0
   20.6834   17.3469   22.1123 C   0  0  0  0  0  0  0  0  0  0  0  0
   20.0365   17.4300   22.9963 H   0  0  0  0  0  0  0  0  0  0  0  0
   20.6157   16.2999   21.7851 H   0  0  0  0  0  0  0  0  0  0  0  0
   20.1528   18.2590   20.9783 C   0  0  0  0  0  0  0  0  0  0  0  0
   20.7512   18.0938   20.0727 H   0  0  0  0  0  0  0  0  0  0  0  0
   19.1282   17.9613   20.7208 H   0  0  0  0  0  0  0  0  0  0  0  0
   20.1819   19.7666   21.3184 C   0  0  0  0  0  0  0  0  0  0  0  0
   19.7915   20.3393   20.4734 H   0  0  0  0  0  0  0  0  0  0  0  0
   21.2177   20.0747   21.4801 H   0  0  0  0  0  0  0  0  0  0  0  0
   19.3899   20.1672   22.5535 N   0  3  0  0  0  0  0  0  0  0  0  0
   19.5798   21.1558   22.7807 H   0  0  0  0  0  0  0  0  0  0  0  0
   19.7211   19.6362   23.3723 H   0  0  0  0  0  0  0  0  0  0  0  0
   17.8940   19.9611   22.3428 C   0  0  0  0  0  0  0  0  0  0  0  0
   17.6962   18.9023   22.1643 H   0  0  0  0  0  0  0  0  0  0  0  0
   17.3581   20.2886   23.2364 H   0  0  0  0  0  0  0  0  0  0  0  0
   17.5680   20.5490   21.4821 H   0  0  0  0  0  0  0  0  0  0  0  0
  1  2  1  0  0  0  0
  1  3  1  0  0  0  0
  1  4  1  0  0  0  0
  1  5  1  0  0  0  0
  5  6  1  0  0  0  0
  5  7  1  0  0  0  0
  5  8  1  0  0  0  0
  8  9  1  0  0  0  0
  8 10  1  0  0  0  0
  8 11  1  0  0  0  0
 11 12  1  0  0  0  0
 11 13  1  0  0  0  0
 11 14  1  0  0  0  0
 14 15  1  0  0  0  0
 14 16  1  0  0  0  0
 14 17  1  0  0  0  0
 17 18  1  0  0  0  0
 17 19  1  0  0  0  0
 17 20  1  0  0  0  0
M  END
> <VConfSearch Rank>
718

> <Conf_Id>
52

> <Delta U+W>
0.784

> <U+W>
16.122

> <U>
70.777

> <W>
-54.655

> <W(PB)>
-56.491

> <W(SA)>
1.836

> <Valence>
1.529

> <Coulomb>
69.166

> <VdW>
0.082

> <VdW6>
-5.166

> <VdW12>
5.248

> <Bond>
0.171

> <Angle>
0.752

> <Pdih>
0.605

> <Idih>
0.000

> <Tether>
0.000

$$$$
VeraChem MOL file


 20 19  0  0  0  0  0  0  0  0999 V2000     
   20.9365   18.1270   20.2952 C   0  0  0  0  0  0  0  0  0  0  0  0
   21.2383   17.7322   19.3163 H   0  0  0  0  0  0  0  0  0  0  0  0
   21.2238   19.1844   20.3164 H   0  0  0  0  0  0  0  0  0  0  0  0
   21.5085   17.5881   21.0619 H   0  0  0  0  0  0  0  0  0  0  0  0
   19.4149   17.9466   20.4990 C   0  0  0  0  0  0  0  0  0  0  0  0
   19.1485   16.9125   20.2387 H   0  0  0  0  0  0  0  0  0  0  0  0
   18.8709   18.5873   19.7908 H   0  0  0  0  0  0  0  0  0  0  0  0
   18.9231   18.2264   21.9421 C   0  0  0  0  0  0  0  0  0  0  0  0
   17.8549   17.9764   21.9875 H   0  0  0  0  0  0  0  0  0  0  0  0
   19.4168   17.5484   22.6496 H   0  0  0  0  0  0  0  0  0  0  0  0
   19.0785   19.6950   22.4012 C   0  0  0  0  0  0  0  0  0  0  0  0
   18.4250   19.8747   23.2586 H   0  0  0  0  0  0  0  0  0  0  0  0
   18.7573   20.3570   21.5931 H   0  0  0  0  0  0  0  0  0  0  0  0
   20.4803   20.1124   22.8174 N   0  3  0  0  0  0  0  0  0  0  0  0
   20.5190   21.1386   22.9198 H   0  0  0  0  0  0  0  0  0  0  0  0
   21.1517   19.8896   22.0694 H   0  0  0  0  0  0  0  0  0  0  0  0
   20.8899   19.4465   24.1264 C   0  0  0  0  0  0  0  0  0  0  0  0
   20.1706   19.7112   24.9044 H   0  0  0  0  0  0  0  0  0  0  0  0
   20.9087   18.3633   23.9927 H   0  0  0  0  0  0  0  0  0  0  0  0
   21.8844   19.7976   24.4104 H   0  0  0  0  0  0  0  0  0  0  0  0
  1  2  1  0  0  0  0
  1  3  1  0  0  0  0
  1  4  1  0  0  0  0
  1  5  1  0  0  0  0
  5  6  1  0  0  0  0
  5  7  1  0  0  0  0
  5  8  1  0  0  0  0
  8  9  1  0  0  0  0
  8 10  1  0  0  0  0
  8 11  1  0  0  0  0
 11 12  1  0  0  0  0
 11 13  1  0  0  0  0
 11 14  1  0  0  0  0
 14 15  1  0  0  0  0
 14 16  1  0  0  0  0
 14 17  1  0  0  0  0
 17 18  1  0  0  0  0
 17 19  1  0  0  0  0
 17 20  1  0  0  0  0
M  END
> <VConfSearch Rank>
719

> <Conf_Id>
55

> <Delta U+W>
2.745

> <U+W>
18.083

> <U>
72.490

> <W>
-54.407

> <W(PB)>
-56.269

> <W(SA)>
1.861

> <Valence>
2.738

> <Coulomb>
69.795

> <VdW>
-0.043

> <VdW6>
-5.333

> <VdW12>
5.290

> <Bond>
0.182

> <Angle>
1.135

> <Pdih>
1.422

> <Idih>
0.000

> <Tether>
0.000

$$$$
VeraChem MOL file


 20 19  0  0  0  0  0  0  0  0999 V2000     
   21.7614   18.9759   23.0971 C   0  0  0  0  0  0  0  0  0  0  0  0
   22.6385   19.2134   23.7132 H   0  0  0  0  0  0  0  0  0  0  0  0
   21.5929   17.8930   23.1617 H   0  0  0  0  0  0  0  0  0  0  0  0
   22.0172   19.2338   22.0631 H   0  0  0  0  0  0  0  0  0  0  0  0
   20.5293   19.7668   23.5927 C   0  0  0  0  0  0  0  0  0  0  0  0
   20.6828   20.8395   23.4084 H   0  0  0  0  0  0  0  0  0  0  0  0
   20.4581   19.6537   24.6836 H   0  0  0  0  0  0  0  0  0  0  0  0
   19.1839   19.3160   22.9687 C   0  0  0  0  0  0  0  0  0  0  0  0
   18.9929   18.2606   23.1998 H   0  0  0  0  0  0  0  0  0  0  0  0
   18.3797   19.8780   23.4617 H   0  0  0  0  0  0  0  0  0  0  0  0
   19.0640   19.5675   21.4475 C   0  0  0  0  0  0  0  0  0  0  0  0
   19.4466   20.5656   21.2199 H   0  0  0  0  0  0  0  0  0  0  0  0
   18.0097   19.5415   21.1607 H   0  0  0  0  0  0  0  0  0  0  0  0
   19.7908   18.5742   20.5543 N   0  3  0  0  0  0  0  0  0  0  0  0
   20.7781   18.5021   20.8367 H   0  0  0  0  0  0  0  0  0  0  0  0
   19.8110   18.9310   19.5860 H   0  0  0  0  0  0  0  0  0  0  0  0
   19.1185   17.2061   20.5871 C   0  0  0  0  0  0  0  0  0  0  0  0
   19.1574   16.8065   21.6021 H   0  0  0  0  0  0  0  0  0  0  0  0
   18.0788   17.3091   20.2692 H   0  0  0  0  0  0  0  0  0  0  0  0
   19.6454   16.5323   19.9079 H   0  0  0  0  0  0  0  0  0  0  0  0
  1  2  1  0  0  0  0
  1  3  1  0  0  0  0
  1  4  1  0  0  0  0
  1  5  1  0  0  0  0
  5  6  1  0  0  0  0
  5  7  1  0  0  0  0
  5  8  1  0  0  0  0
  8  9  1  0  0  0  0
  8 10  1  0  0  0  0
  8 11  1  0  0  0  0
 11 12  1  0  0  0  0
 11 13  1  0  0  0  0
 11 14  1  0  0  0  0
 14 15  1  0  0  0  0
 14 16  1  0  0  0  0
 14 17  1  0  0  0  0
 17 18  1  0  0  0  0
 17 19  1  0  0  0  0
 17 20  1  0  0  0  0
M  END
> <VConfSearch Rank>
720

> <Conf_Id>
76

> <Delta U+W>
2.799

> <U+W>
18.137

> <U>
72.490

> <W>
-54.353

> <W(PB)>
-56.201

> <W(SA)>
1.848

> <Valence>
2.738

> <Coulomb>
69.795

> <VdW>
-0.043

> <VdW6>
-5.334

> <VdW12>
5.290

> <Bond>
0.182

> <Angle>
1.135

> <Pdih>
1.421

> <Idih>
0.000

> <Tether>
0.000

$$$$
VeraChem MOL file


 20 19  0  0  0  0  0  0  0  0999 V2000     
   19.4003   18.2467   23.9712 C   0  0  0  0  0  0  0  0  0  0  0  0
   19.1543   19.2587   23.6273 H   0  0  0  0  0  0  0  0  0  0  0  0
   18.4667   17.6732   24.0384 H   0  0  0  0  0  0  0  0  0  0  0  0
   19.8139   18.3321   24.9843 H   0  0  0  0  0  0  0  0  0  0  0  0
   20.4109   17.5524   23.0293 C   0  0  0  0  0  0  0  0  0  0  0  0
   20.6778   16.5750   23.4552 H   0  0  0  0  0  0  0  0  0  0  0  0
   21.3463   18.1253   22.9905 H   0  0  0  0  0  0  0  0  0  0  0  0
   19.8582   17.3351   21.5994 C   0  0  0  0  0  0  0  0  0  0  0  0
   20.6059   16.8015   20.9980 H   0  0  0  0  0  0  0  0  0  0  0  0
   18.9878   16.6683   21.6573 H   0  0  0  0  0  0  0  0  0  0  0  0
   19.4322   18.6204   20.8516 C   0  0  0  0  0  0  0  0  0  0  0  0
   18.6937   19.1766   21.4337 H   0  0  0  0  0  0  0  0  0  0  0  0
   18.9549   18.3191   19.9156 H   0  0  0  0  0  0  0  0  0  0  0  0
   20.5621   19.5671   20.4748 N   0  3  0  0  0  0  0  0  0  0  0  0
   20.3177   20.0553   19.5992 H   0  0  0  0  0  0  0  0  0  0  0  0
   21.4160   19.0354   20.2495 H   0  0  0  0  0  0  0  0  0  0  0  0
   20.8217   20.5992   21.5669 C   0  0  0  0  0  0  0  0  0  0  0  0
   21.6171   21.2725   21.2397 H   0  0  0  0  0  0  0  0  0  0  0  0
   19.9080   21.1705   21.7439 H   0  0  0  0  0  0  0  0  0  0  0  0
   21.1243   20.0960   22.4857 H   0  0  0  0  0  0  0  0  0  0  0  0
  1  2  1  0  0  0  0
  1  3  1  0  0  0  0
  1  4  1  0  0  0  0
  1  5  1  0  0  0  0
  5  6  1  0  0  0  0
  5  7  1  0  0  0  0
  5  8  1  0  0  0  0
  8  9  1  0  0  0  0
  8 10  1  0  0  0  0
  8 11  1  0  0  0  0
 11 12  1  0  0  0  0
 11 13  1  0  0  0  0
 11 14  1  0  0  0  0
 14 15  1  0  0  0  0
 14 16  1  0  0  0  0
 14 17  1  0  0  0  0
 17 18  1  0  0  0  0
 17 19  1  0  0  0  0
 17 20  1  0  0  0  0
M  END
> <VConfSearch Rank>
721

> <Conf_Id>
60

> <Delta U+W>
1.788

> <U+W>
17.127

> <U>
72.122

> <W>
-54.995

> <W(PB)>
-56.810

> <W(SA)>
1.815

> <Valence>
3.197

> <Coulomb>
69.115

> <VdW>
-0.190

> <VdW6>
-5.585

> <VdW12>
5.395

> <Bond>
0.177

> <Angle>
1.207

> <Pdih>
1.813

> <Idih>
0.000

> <Tether>
0.000

$$$$
VeraChem MOL file


 20 19  0  0  0  0  0  0  0  0999 V2000     
   21.8918   18.2787   20.8683 C   0  0  0  0  0  0  0  0  0  0  0  0
   22.1713   18.2931   19.8069 H   0  0  0  0  0  0  0  0  0  0  0  0
   22.7943   18.0465   21.4486 H   0  0  0  0  0  0  0  0  0  0  0  0
   21.1752   17.4606   21.0112 H   0  0  0  0  0  0  0  0  0  0  0  0
   21.2960   19.6413   21.2910 C   0  0  0  0  0  0  0  0  0  0  0  0
   20.4085   19.8693   20.6869 H   0  0  0  0  0  0  0  0  0  0  0  0
   22.0237   20.4323   21.0616 H   0  0  0  0  0  0  0  0  0  0  0  0
   20.9482   19.7109   22.7982 C   0  0  0  0  0  0  0  0  0  0  0  0
   21.8730   19.5896   23.3776 H   0  0  0  0  0  0  0  0  0  0  0  0
   20.5725   20.7141   23.0385 H   0  0  0  0  0  0  0  0  0  0  0  0
   19.9283   18.6578   23.2918 C   0  0  0  0  0  0  0  0  0  0  0  0
   19.8650   18.7390   24.3800 H   0  0  0  0  0  0  0  0  0  0  0  0
   20.2739   17.6485   23.0565 H   0  0  0  0  0  0  0  0  0  0  0  0
   18.5103   18.8176   22.7638 N   0  3  0  0  0  0  0  0  0  0  0  0
   18.2827   19.8157   22.6426 H   0  0  0  0  0  0  0  0  0  0  0  0
   17.8435   18.4805   23.4754 H   0  0  0  0  0  0  0  0  0  0  0  0
   18.2982   18.0378   21.4707 C   0  0  0  0  0  0  0  0  0  0  0  0
   18.5053   16.9810   21.6520 H   0  0  0  0  0  0  0  0  0  0  0  0
   17.2618   18.1578   21.1476 H   0  0  0  0  0  0  0  0  0  0  0  0
   18.9677   18.4162   20.6976 H   0  0  0  0  0  0  0  0  0  0  0  0
  1  2  1  0  0  0  0
  1  3  1  0  0  0  0
  1  4  1  0  0  0  0
  1  5  1  0  0  0  0
  5  6  1  0  0  0  0
  5  7  1  0  0  0  0
  5  8  1  0  0  0  0
  8  9  1  0  0  0  0
  8 10  1  0  0  0  0
  8 11  1  0  0  0  0
 11 12  1  0  0  0  0
 11 13  1  0  0  0  0
 11 14  1  0  0  0  0
 14 15  1  0  0  0  0
 14 16  1  0  0  0  0
 14 17  1  0  0  0  0
 17 18  1  0  0  0  0
 17 19  1  0  0  0  0
 17 20  1  0  0  0  0
M  END
> <VConfSearch Rank>
722

> <Conf_Id>
54

> <Delta U+W>
1.880

> <U+W>
17.218

> <U>
72.122

> <W>
-54.903

> <W(PB)>
-56.724

> <W(SA)>
1.821

> <Valence>
3.197

> <Coulomb>
69.115

> <VdW>
-0.190

> <VdW6>
-5.585

> <VdW12>
5.395

> <Bond>
0.177

> <Angle>
1.207

> <Pdih>
1.813

> <Idih>
0.000

> <Tether>
0.000

$$$$
VeraChem MOL file


 20 19  0  0  0  0  0  0  0  0999 V2000     
   16.9783   19.5857   22.5538 C   0  0  0  0  0  0  0  0  0  0  0  0
   16.7553   19.9799   21.5538 H   0  0  0  0  0  0  0  0  0  0  0  0
   16.0827   19.0652   22.9172 H   0  0  0  0  0  0  0  0  0  0  0  0
   17.1670   20.4362   23.2218 H   0  0  0  0  0  0  0  0  0  0  0  0
   18.1888   18.6278   22.5170 C   0  0  0  0  0  0  0  0  0  0  0  0
   17.9566   17.7708   21.8689 H   0  0  0  0  0  0  0  0  0  0  0  0
   18.3652   18.2236   23.5239 H   0  0  0  0  0  0  0  0  0  0  0  0
   19.4650   19.3340   22.0087 C   0  0  0  0  0  0  0  0  0  0  0  0
   19.2890   19.7345   21.0014 H   0  0  0  0  0  0  0  0  0  0  0  0
   19.6981   20.1880   22.6586 H   0  0  0  0  0  0  0  0  0  0  0  0
   20.6674   18.3724   21.9750 C   0  0  0  0  0  0  0  0  0  0  0  0
   20.4446   17.5289   21.3167 H   0  0  0  0  0  0  0  0  0  0  0  0
   20.8551   17.9840   22.9792 H   0  0  0  0  0  0  0  0  0  0  0  0
   21.9449   19.0229   21.4815 N   0  3  0  0  0  0  0  0  0  0  0  0
   22.1856   19.8317   22.0749 H   0  0  0  0  0  0  0  0  0  0  0  0
   21.8055   19.4103   20.5357 H   0  0  0  0  0  0  0  0  0  0  0  0
   23.0787   18.0062   21.4799 C   0  0  0  0  0  0  0  0  0  0  0  0
   22.8173   17.1766   20.8194 H   0  0  0  0  0  0  0  0  0  0  0  0
   23.9918   18.4875   21.1227 H   0  0  0  0  0  0  0  0  0  0  0  0
   23.2313   17.6357   22.4959 H   0  0  0  0  0  0  0  0  0  0  0  0
  1  2  1  0  0  0  0
  1  3  1  0  0  0  0
  1  4  1  0  0  0  0
  1  5  1  0  0  0  0
  5  6  1  0  0  0  0
  5  7  1  0  0  0  0
  5  8  1  0  0  0  0
  8  9  1  0  0  0  0
  8 10  1  0  0  0  0
  8 11  1  0  0  0  0
 11 12  1  0  0  0  0
 11 13  1  0  0  0  0
 11 14  1  0  0  0  0
 14 15  1  0  0  0  0
 14 16  1  0  0  0  0
 14 17  1  0  0  0  0
 17 18  1  0  0  0  0
 17 19  1  0  0  0  0
 17 20  1  0  0  0  0
M  END
> <VConfSearch Rank>
723

> <Conf_Id>
67

> <Delta U+W>
0.000

> <U+W>
15.338

> <U>
69.277

> <W>
-53.939

> <W(PB)>
-55.889

> <W(SA)>
1.950

> <Valence>
0.846

> <Coulomb>
68.557

> <VdW>
-0.127

> <VdW6>
-3.008

> <VdW12>
2.882

> <Bond>
0.088

> <Angle>
0.332

> <Pdih>
0.426

> <Idih>
0.000

> <Tether>
0.000

$$$$
VeraChem MOL file


 20 19  0  0  0  0  0  0  0  0999 V2000     
   20.7194   20.6977   19.6812 C   0  0  0  0  0  0  0  0  0  0  0  0
   20.3392   19.9457   18.9775 H   0  0  0  0  0  0  0  0  0  0  0  0
   20.4847   21.6892   19.2728 H   0  0  0  0  0  0  0  0  0  0  0  0
   21.8121   20.6024   19.7255 H   0  0  0  0  0  0  0  0  0  0  0  0
   20.0884   20.5203   21.0794 C   0  0  0  0  0  0  0  0  0  0  0  0
   18.9998   20.6550   21.0085 H   0  0  0  0  0  0  0  0  0  0  0  0
   20.4609   21.3072   21.7504 H   0  0  0  0  0  0  0  0  0  0  0  0
   20.4026   19.1324   21.6798 C   0  0  0  0  0  0  0  0  0  0  0  0
   20.0291   18.3501   21.0065 H   0  0  0  0  0  0  0  0  0  0  0  0
   21.4901   19.0002   21.7543 H   0  0  0  0  0  0  0  0  0  0  0  0
   19.7695   18.9654   23.0767 C   0  0  0  0  0  0  0  0  0  0  0  0
   18.6822   19.0473   23.0035 H   0  0  0  0  0  0  0  0  0  0  0  0
   20.1261   19.7692   23.7259 H   0  0  0  0  0  0  0  0  0  0  0  0
   20.0948   17.6502   23.7660 N   0  3  0  0  0  0  0  0  0  0  0  0
   19.7760   17.6868   24.7470 H   0  0  0  0  0  0  0  0  0  0  0  0
   21.1164   17.5209   23.8253 H   0  0  0  0  0  0  0  0  0  0  0  0
   19.4390   16.4728   23.0526 C   0  0  0  0  0  0  0  0  0  0  0  0
   19.8310   16.4004   22.0362 H   0  0  0  0  0  0  0  0  0  0  0  0
   19.6644   15.5537   23.5980 H   0  0  0  0  0  0  0  0  0  0  0  0
   18.3583   16.6271   23.0228 H   0  0  0  0  0  0  0  0  0  0  0  0
  1  2  1  0  0  0  0
  1  3  1  0  0  0  0
  1  4  1  0  0  0  0
  1  5  1  0  0  0  0
  5  6  1  0  0  0  0
  5  7  1  0  0  0  0
  5  8  1  0  0  0  0
  8  9  1  0  0  0  0
  8 10  1  0  0  0  0
  8 11  1  0  0  0  0
 11 12  1  0  0  0  0
 11 13  1  0  0  0  0
 11 14  1  0  0  0  0
 14 15  1  0  0  0  0
 14 16  1  0  0  0  0
 14 17  1  0  0  0  0
 17 18  1  0  0  0  0
 17 19  1  0  0  0  0
 17 20  1  0  0  0  0
M  END
> <VConfSearch Rank>
724

> <Conf_Id>
37

> <Delta U+W>
-0.021

> <U+W>
15.318

> <U>
69.657

> <W>
-54.340

> <W(PB)>
-56.238

> <W(SA)>
1.899

> <Valence>
1.137

> <Coulomb>
68.383

> <VdW>
0.138

> <VdW6>
-3.703

> <VdW12>
3.841

> <Bond>
0.125

> <Angle>
0.468

> <Pdih>
0.543

> <Idih>
0.000

> <Tether>
0.000

$$$$
VeraChem MOL file


 20 19  0  0  0  0  0  0  0  0999 V2000     
   20.9982   16.0783   21.1558 C   0  0  0  0  0  0  0  0  0  0  0  0
   20.7042   15.1815   20.5950 H   0  0  0  0  0  0  0  0  0  0  0  0
   21.8359   16.5476   20.6237 H   0  0  0  0  0  0  0  0  0  0  0  0
   21.3576   15.7554   22.1416 H   0  0  0  0  0  0  0  0  0  0  0  0
   19.8080   17.0529   21.2894 C   0  0  0  0  0  0  0  0  0  0  0  0
   18.9743   16.5440   21.7936 H   0  0  0  0  0  0  0  0  0  0  0  0
   19.4492   17.3305   20.2881 H   0  0  0  0  0  0  0  0  0  0  0  0
   20.1929   18.3256   22.0753 C   0  0  0  0  0  0  0  0  0  0  0  0
   20.5470   18.0478   23.0768 H   0  0  0  0  0  0  0  0  0  0  0  0
   21.0254   18.8302   21.5683 H   0  0  0  0  0  0  0  0  0  0  0  0
   18.9973   19.2919   22.2047 C   0  0  0  0  0  0  0  0  0  0  0  0
   18.1665   18.7662   22.6822 H   0  0  0  0  0  0  0  0  0  0  0  0
   18.6693   19.6116   21.2125 H   0  0  0  0  0  0  0  0  0  0  0  0
   19.2769   20.5379   23.0295 N   0  3  0  0  0  0  0  0  0  0  0  0
   19.6209   20.2768   23.9661 H   0  0  0  0  0  0  0  0  0  0  0  0
   18.3931   21.0417   23.2039 H   0  0  0  0  0  0  0  0  0  0  0  0
   20.2670   21.4591   22.3249 C   0  0  0  0  0  0  0  0  0  0  0  0
   19.8679   21.7347   21.3464 H   0  0  0  0  0  0  0  0  0  0  0  0
   20.4121   22.3573   22.9291 H   0  0  0  0  0  0  0  0  0  0  0  0
   21.2207   20.9418   22.2035 H   0  0  0  0  0  0  0  0  0  0  0  0
  1  2  1  0  0  0  0
  1  3  1  0  0  0  0
  1  4  1  0  0  0  0
  1  5  1  0  0  0  0
  5  6  1  0  0  0  0
  5  7  1  0  0  0  0
  5  8  1  0  0  0  0
  8  9  1  0  0  0  0
  8 10  1  0  0  0  0
  8 11  1  0  0  0  0
 11 12  1  0  0  0  0
 11 13  1  0  0  0  0
 11 14  1  0  0  0  0
 14 15  1  0  0  0  0
 14 16  1  0  0  0  0
 14 17  1  0  0  0  0
 17 18  1  0  0  0  0
 17 19  1  0  0  0  0
 17 20  1  0  0  0  0
M  END
> <VConfSearch Rank>
725

> <Conf_Id>
2

> <Delta U+W>
0.069

> <U+W>
15.407

> <U>
69.657

> <W>
-54.250

> <W(PB)>
-56.176

> <W(SA)>
1.926

> <Valence>
1.137

> <Coulomb>
68.383

> <VdW>
0.138

> <VdW6>
-3.703

> <VdW12>
3.841

> <Bond>
0.125

> <Angle>
0.468

> <Pdih>
0.543

> <Idih>
0.000

> <Tether>
0.000

$$$$
VeraChem MOL file


 20 19  0  0  0  0  0  0  0  0999 V2000     
   20.8404   20.0995   19.8733 C   0  0  0  0  0  0  0  0  0  0  0  0
   19.7728   19.8548   19.8061 H   0  0  0  0  0  0  0  0  0  0  0  0
   20.9388   21.0701   20.3765 H   0  0  0  0  0  0  0  0  0  0  0  0
   21.2183   20.2139   18.8490 H   0  0  0  0  0  0  0  0  0  0  0  0
   21.6295   19.0013   20.6227 C   0  0  0  0  0  0  0  0  0  0  0  0
   22.7015   19.2409   20.5844 H   0  0  0  0  0  0  0  0  0  0  0  0
   21.5093   18.0404   20.1026 H   0  0  0  0  0  0  0  0  0  0  0  0
   21.2009   18.8509   22.1011 C   0  0  0  0  0  0  0  0  0  0  0  0
   21.8517   18.1128   22.5885 H   0  0  0  0  0  0  0  0  0  0  0  0
   21.3546   19.8023   22.6275 H   0  0  0  0  0  0  0  0  0  0  0  0
   19.7325   18.4074   22.2516 C   0  0  0  0  0  0  0  0  0  0  0  0
   19.5803   17.4593   21.7297 H   0  0  0  0  0  0  0  0  0  0  0  0
   19.0741   19.1557   21.8041 H   0  0  0  0  0  0  0  0  0  0  0  0
   19.3055   18.2188   23.6940 N   0  3  0  0  0  0  0  0  0  0  0  0
   19.4437   19.0930   24.2239 H   0  0  0  0  0  0  0  0  0  0  0  0
   19.9086   17.5212   24.1562 H   0  0  0  0  0  0  0  0  0  0  0  0
   17.8469   17.7849   23.7514 C   0  0  0  0  0  0  0  0  0  0  0  0
   17.7307   16.8413   23.2140 H   0  0  0  0  0  0  0  0  0  0  0  0
   17.5528   17.6528   24.7950 H   0  0  0  0  0  0  0  0  0  0  0  0
   17.2243   18.5533   23.2880 H   0  0  0  0  0  0  0  0  0  0  0  0
  1  2  1  0  0  0  0
  1  3  1  0  0  0  0
  1  4  1  0  0  0  0
  1  5  1  0  0  0  0
  5  6  1  0  0  0  0
  5  7  1  0  0  0  0
  5  8  1  0  0  0  0
  8  9  1  0  0  0  0
  8 10  1  0  0  0  0
  8 11  1  0  0  0  0
 11 12  1  0  0  0  0
 11 13  1  0  0  0  0
 11 14  1  0  0  0  0
 14 15  1  0  0  0  0
 14 16  1  0  0  0  0
 14 17  1  0  0  0  0
 17 18  1  0  0  0  0
 17 19  1  0  0  0  0
 17 20  1  0  0  0  0
M  END
> <VConfSearch Rank>
726

> <Conf_Id>
34

> <Delta U+W>
0.276

> <U+W>
15.615

> <U>
69.798

> <W>
-54.184

> <W(PB)>
-56.116

> <W(SA)>
1.933

> <Valence>
1.134

> <Coulomb>
68.735

> <VdW>
-0.070

> <VdW6>
-3.565

> <VdW12>
3.494

> <Bond>
0.108

> <Angle>
0.456

> <Pdih>
0.569

> <Idih>
0.000

> <Tether>
0.000

$$$$
VeraChem MOL file


 20 19  0  0  0  0  0  0  0  0999 V2000     
   18.9689   17.5066   24.5398 C   0  0  0  0  0  0  0  0  0  0  0  0
   19.6564   16.7080   24.8475 H   0  0  0  0  0  0  0  0  0  0  0  0
   18.6606   18.0505   25.4421 H   0  0  0  0  0  0  0  0  0  0  0  0
   18.0747   17.0394   24.1070 H   0  0  0  0  0  0  0  0  0  0  0  0
   19.6414   18.4617   23.5300 C   0  0  0  0  0  0  0  0  0  0  0  0
   20.5127   18.9366   24.0028 H   0  0  0  0  0  0  0  0  0  0  0  0
   18.9395   19.2678   23.2768 H   0  0  0  0  0  0  0  0  0  0  0  0
   20.0852   17.7189   22.2477 C   0  0  0  0  0  0  0  0  0  0  0  0
   20.7548   16.8925   22.5207 H   0  0  0  0  0  0  0  0  0  0  0  0
   19.2151   17.2654   21.7546 H   0  0  0  0  0  0  0  0  0  0  0  0
   20.8234   18.6348   21.2509 C   0  0  0  0  0  0  0  0  0  0  0  0
   21.1881   18.0362   20.4123 H   0  0  0  0  0  0  0  0  0  0  0  0
   21.6858   19.0926   21.7421 H   0  0  0  0  0  0  0  0  0  0  0  0
   19.9643   19.7469   20.6792 N   0  3  0  0  0  0  0  0  0  0  0  0
   19.5990   20.3402   21.4389 H   0  0  0  0  0  0  0  0  0  0  0  0
   19.1324   19.3508   20.2154 H   0  0  0  0  0  0  0  0  0  0  0  0
   20.7777   20.5795   19.6973 C   0  0  0  0  0  0  0  0  0  0  0  0
   21.6335   21.0151   20.2175 H   0  0  0  0  0  0  0  0  0  0  0  0
   21.1263   19.9385   18.8847 H   0  0  0  0  0  0  0  0  0  0  0  0
   20.1479   21.3754   19.2939 H   0  0  0  0  0  0  0  0  0  0  0  0
  1  2  1  0  0  0  0
  1  3  1  0  0  0  0
  1  4  1  0  0  0  0
  1  5  1  0  0  0  0
  5  6  1  0  0  0  0
  5  7  1  0  0  0  0
  5  8  1  0  0  0  0
  8  9  1  0  0  0  0
  8 10  1  0  0  0  0
  8 11  1  0  0  0  0
 11 12  1  0  0  0  0
 11 13  1  0  0  0  0
 11 14  1  0  0  0  0
 14 15  1  0  0  0  0
 14 16  1  0  0  0  0
 14 17  1  0  0  0  0
 17 18  1  0  0  0  0
 17 19  1  0  0  0  0
 17 20  1  0  0  0  0
M  END
> <VConfSearch Rank>
727

> <Conf_Id>
50

> <Delta U+W>
0.319

> <U+W>
15.657

> <U>
69.962

> <W>
-54.305

> <W(PB)>
-56.223

> <W(SA)>
1.918

> <Valence>
0.982

> <Coulomb>
69.058

> <VdW>
-0.078

> <VdW6>
-3.548

> <VdW12>
3.471

> <Bond>
0.105

> <Angle>
0.408

> <Pdih>
0.469

> <Idih>
0.000

> <Tether>
0.000

$$$$
VeraChem MOL file


 20 19  0  0  0  0  0  0  0  0999 V2000     
   21.0864   20.5245   24.3185 C   0  0  0  0  0  0  0  0  0  0  0  0
   20.5473   20.6927   25.2598 H   0  0  0  0  0  0  0  0  0  0  0  0
   22.1077   20.2086   24.5683 H   0  0  0  0  0  0  0  0  0  0  0  0
   21.1458   21.4844   23.7891 H   0  0  0  0  0  0  0  0  0  0  0  0
   20.3684   19.4600   23.4609 C   0  0  0  0  0  0  0  0  0  0  0  0
   19.3396   19.7914   23.2654 H   0  0  0  0  0  0  0  0  0  0  0  0
   20.2969   18.5221   24.0296 H   0  0  0  0  0  0  0  0  0  0  0  0
   21.1090   19.2049   22.1269 C   0  0  0  0  0  0  0  0  0  0  0  0
   21.1595   20.1320   21.5406 H   0  0  0  0  0  0  0  0  0  0  0  0
   22.1463   18.9126   22.3381 H   0  0  0  0  0  0  0  0  0  0  0  0
   20.4530   18.0949   21.2813 C   0  0  0  0  0  0  0  0  0  0  0  0
   20.3955   17.1733   21.8658 H   0  0  0  0  0  0  0  0  0  0  0  0
   21.0693   17.9006   20.3998 H   0  0  0  0  0  0  0  0  0  0  0  0
   19.0550   18.4307   20.7967 N   0  3  0  0  0  0  0  0  0  0  0  0
   19.0693   19.3040   20.2478 H   0  0  0  0  0  0  0  0  0  0  0  0
   18.4367   18.6206   21.5992 H   0  0  0  0  0  0  0  0  0  0  0  0
   18.5053   17.2831   19.9603 C   0  0  0  0  0  0  0  0  0  0  0  0
   17.4997   17.5376   19.6184 H   0  0  0  0  0  0  0  0  0  0  0  0
   19.1569   17.1214   19.0988 H   0  0  0  0  0  0  0  0  0  0  0  0
   18.4686   16.3782   20.5708 H   0  0  0  0  0  0  0  0  0  0  0  0
  1  2  1  0  0  0  0
  1  3  1  0  0  0  0
  1  4  1  0  0  0  0
  1  5  1  0  0  0  0
  5  6  1  0  0  0  0
  5  7  1  0  0  0  0
  5  8  1  0  0  0  0
  8  9  1  0  0  0  0
  8 10  1  0  0  0  0
  8 11  1  0  0  0  0
 11 12  1  0  0  0  0
 11 13  1  0  0  0  0
 11 14  1  0  0  0  0
 14 15  1  0  0  0  0
 14 16  1  0  0  0  0
 14 17  1  0  0  0  0
 17 18  1  0  0  0  0
 17 19  1  0  0  0  0
 17 20  1  0  0  0  0
M  END
> <VConfSearch Rank>
728

> <Conf_Id>
35

> <Delta U+W>
0.360

> <U+W>
15.698

> <U>
69.962

> <W>
-54.264

> <W(PB)>
-56.166

> <W(SA)>
1.902

> <Valence>
0.982

> <Coulomb>
69.058

> <VdW>
-0.078

> <VdW6>
-3.548

> <VdW12>
3.471

> <Bond>
0.105

> <Angle>
0.408

> <Pdih>
0.469

> <Idih>
0.000

> <Tether>
0.000

$$$$
VeraChem MOL file


 20 19  0  0  0  0  0  0  0  0999 V2000     
   22.0666   19.9847   21.0001 C   0  0  0  0  0  0  0  0  0  0  0  0
   21.9712   19.0849   20.3794 H   0  0  0  0  0  0  0  0  0  0  0  0
   22.6611   20.7145   20.4354 H   0  0  0  0  0  0  0  0  0  0  0  0
   22.6318   19.7197   21.9031 H   0  0  0  0  0  0  0  0  0  0  0  0
   20.6843   20.5750   21.3619 C   0  0  0  0  0  0  0  0  0  0  0  0
   20.1379   20.8265   20.4419 H   0  0  0  0  0  0  0  0  0  0  0  0
   20.8287   21.5205   21.9033 H   0  0  0  0  0  0  0  0  0  0  0  0
   19.8304   19.6231   22.2318 C   0  0  0  0  0  0  0  0  0  0  0  0
   20.3649   19.4055   23.1654 H   0  0  0  0  0  0  0  0  0  0  0  0
   18.9002   20.1340   22.5134 H   0  0  0  0  0  0  0  0  0  0  0  0
   19.4832   18.3067   21.5038 C   0  0  0  0  0  0  0  0  0  0  0  0
   20.3983   17.7546   21.2767 H   0  0  0  0  0  0  0  0  0  0  0  0
   18.9877   18.5441   20.5590 H   0  0  0  0  0  0  0  0  0  0  0  0
   18.5604   17.3801   22.2786 N   0  3  0  0  0  0  0  0  0  0  0  0
   18.2483   16.6112   21.6649 H   0  0  0  0  0  0  0  0  0  0  0  0
   17.6950   17.8755   22.5417 H   0  0  0  0  0  0  0  0  0  0  0  0
   19.2553   16.8095   23.5102 C   0  0  0  0  0  0  0  0  0  0  0  0
   19.5236   17.6245   24.1853 H   0  0  0  0  0  0  0  0  0  0  0  0
   18.5753   16.1222   24.0183 H   0  0  0  0  0  0  0  0  0  0  0  0
   20.1551   16.2742   23.1997 H   0  0  0  0  0  0  0  0  0  0  0  0
  1  2  1  0  0  0  0
  1  3  1  0  0  0  0
  1  4  1  0  0  0  0
  1  5  1  0  0  0  0
  5  6  1  0  0  0  0
  5  7  1  0  0  0  0
  5  8  1  0  0  0  0
  8  9  1  0  0  0  0
  8 10  1  0  0  0  0
  8 11  1  0  0  0  0
 11 12  1  0  0  0  0
 11 13  1  0  0  0  0
 11 14  1  0  0  0  0
 14 15  1  0  0  0  0
 14 16  1  0  0  0  0
 14 17  1  0  0  0  0
 17 18  1  0  0  0  0
 17 19  1  0  0  0  0
 17 20  1  0  0  0  0
M  END
> <VConfSearch Rank>
729

> <Conf_Id>
33

> <Delta U+W>
0.372

> <U+W>
15.711

> <U>
70.163

> <W>
-54.452

> <W(PB)>
-56.363

> <W(SA)>
1.911

> <Valence>
1.420

> <Coulomb>
68.566

> <VdW>
0.177

> <VdW6>
-4.267

> <VdW12>
4.445

> <Bond>
0.146

> <Angle>
0.581

> <Pdih>
0.693

> <Idih>
0.000

> <Tether>
0.000

$$$$
VeraChem MOL file


 20 19  0  0  0  0  0  0  0  0999 V2000     
   17.5870   18.9657   21.6041 C   0  0  0  0  0  0  0  0  0  0  0  0
   16.5813   18.7430   21.2249 H   0  0  0  0  0  0  0  0  0  0  0  0
   17.6732   18.5119   22.5994 H   0  0  0  0  0  0  0  0  0  0  0  0
   17.6691   20.0547   21.7157 H   0  0  0  0  0  0  0  0  0  0  0  0
   18.6638   18.4228   20.6366 C   0  0  0  0  0  0  0  0  0  0  0  0
   18.4838   18.8331   19.6330 H   0  0  0  0  0  0  0  0  0  0  0  0
   18.5631   17.3320   20.5467 H   0  0  0  0  0  0  0  0  0  0  0  0
   20.1036   18.7792   21.0745 C   0  0  0  0  0  0  0  0  0  0  0  0
   20.8072   18.4315   20.3067 H   0  0  0  0  0  0  0  0  0  0  0  0
   20.2087   19.8705   21.1262 H   0  0  0  0  0  0  0  0  0  0  0  0
   20.4837   18.1479   22.4311 C   0  0  0  0  0  0  0  0  0  0  0  0
   20.3353   17.0666   22.3728 H   0  0  0  0  0  0  0  0  0  0  0  0
   19.8330   18.5369   23.2178 H   0  0  0  0  0  0  0  0  0  0  0  0
   21.9232   18.3849   22.8577 N   0  3  0  0  0  0  0  0  0  0  0  0
   22.5716   18.0601   22.1243 H   0  0  0  0  0  0  0  0  0  0  0  0
   22.1405   17.8003   23.6801 H   0  0  0  0  0  0  0  0  0  0  0  0
   22.1683   19.8534   23.1875 C   0  0  0  0  0  0  0  0  0  0  0  0
   23.1999   19.9770   23.5244 H   0  0  0  0  0  0  0  0  0  0  0  0
   22.0000   20.4587   22.2946 H   0  0  0  0  0  0  0  0  0  0  0  0
   21.4832   20.1632   23.9795 H   0  0  0  0  0  0  0  0  0  0  0  0
  1  2  1  0  0  0  0
  1  3  1  0  0  0  0
  1  4  1  0  0  0  0
  1  5  1  0  0  0  0
  5  6  1  0  0  0  0
  5  7  1  0  0  0  0
  5  8  1  0  0  0  0
  8  9  1  0  0  0  0
  8 10  1  0  0  0  0
  8 11  1  0  0  0  0
 11 12  1  0  0  0  0
 11 13  1  0  0  0  0
 11 14  1  0  0  0  0
 14 15  1  0  0  0  0
 14 16  1  0  0  0  0
 14 17  1  0  0  0  0
 17 18  1  0  0  0  0
 17 19  1  0  0  0  0
 17 20  1  0  0  0  0
M  END
> <VConfSearch Rank>
730

> <Conf_Id>
53

> <Delta U+W>
0.379

> <U+W>
15.717

> <U>
70.163

> <W>
-54.446

> <W(PB)>
-56.322

> <W(SA)>
1.876

> <Valence>
1.420

> <Coulomb>
68.566

> <VdW>
0.177

> <VdW6>
-4.267

> <VdW12>
4.445

> <Bond>
0.146

> <Angle>
0.581

> <Pdih>
0.693

> <Idih>
0.000

> <Tether>
0.000

$$$$
VeraChem MOL file


 20 19  0  0  0  0  0  0  0  0999 V2000     
   17.9088   20.2643   21.0200 C   0  0  0  0  0  0  0  0  0  0  0  0
   16.9513   19.8621   20.6645 H   0  0  0  0  0  0  0  0  0  0  0  0
   17.6944   21.1496   21.6329 H   0  0  0  0  0  0  0  0  0  0  0  0
   18.4842   20.5874   20.1427 H   0  0  0  0  0  0  0  0  0  0  0  0
   18.6806   19.2002   21.8299 C   0  0  0  0  0  0  0  0  0  0  0  0
   18.8426   18.3165   21.1979 H   0  0  0  0  0  0  0  0  0  0  0  0
   18.0669   18.8743   22.6816 H   0  0  0  0  0  0  0  0  0  0  0  0
   20.0363   19.7419   22.3413 C   0  0  0  0  0  0  0  0  0  0  0  0
   20.6642   20.0438   21.4931 H   0  0  0  0  0  0  0  0  0  0  0  0
   19.8637   20.6496   22.9346 H   0  0  0  0  0  0  0  0  0  0  0  0
   20.7963   18.7246   23.2211 C   0  0  0  0  0  0  0  0  0  0  0  0
   20.1814   18.4786   24.0906 H   0  0  0  0  0  0  0  0  0  0  0  0
   21.7227   19.1772   23.5838 H   0  0  0  0  0  0  0  0  0  0  0  0
   21.1612   17.4155   22.5372 N   0  3  0  0  0  0  0  0  0  0  0  0
   20.3133   16.9546   22.1756 H   0  0  0  0  0  0  0  0  0  0  0  0
   21.5442   16.7575   23.2340 H   0  0  0  0  0  0  0  0  0  0  0  0
   22.1757   17.6369   21.4208 C   0  0  0  0  0  0  0  0  0  0  0  0
   23.0696   18.1077   21.8356 H   0  0  0  0  0  0  0  0  0  0  0  0
   22.4386   16.6729   20.9797 H   0  0  0  0  0  0  0  0  0  0  0  0
   21.7379   18.2821   20.6566 H   0  0  0  0  0  0  0  0  0  0  0  0
  1  2  1  0  0  0  0
  1  3  1  0  0  0  0
  1  4  1  0  0  0  0
  1  5  1  0  0  0  0
  5  6  1  0  0  0  0
  5  7  1  0  0  0  0
  5  8  1  0  0  0  0
  8  9  1  0  0  0  0
  8 10  1  0  0  0  0
  8 11  1  0  0  0  0
 11 12  1  0  0  0  0
 11 13  1  0  0  0  0
 11 14  1  0  0  0  0
 14 15  1  0  0  0  0
 14 16  1  0  0  0  0
 14 17  1  0  0  0  0
 17 18  1  0  0  0  0
 17 19  1  0  0  0  0
 17 20  1  0  0  0  0
M  END
> <VConfSearch Rank>
731

> <Conf_Id>
49

> <Delta U+W>
0.268

> <U+W>
15.607

> <U>
70.298

> <W>
-54.692

> <W(PB)>
-56.576

> <W(SA)>
1.885

> <Valence>
1.245

> <Coulomb>
68.933

> <VdW>
0.120

> <VdW6>
-4.430

> <VdW12>
4.550

> <Bond>
0.148

> <Angle>
0.587

> <Pdih>
0.509

> <Idih>
0.000

> <Tether>
0.000

$$$$
VeraChem MOL file


 20 19  0  0  0  0  0  0  0  0999 V2000     
   22.0588   18.1093   20.1659 C   0  0  0  0  0  0  0  0  0  0  0  0
   21.8941   17.0329   20.0262 H   0  0  0  0  0  0  0  0  0  0  0  0
   21.8862   18.6090   19.2038 H   0  0  0  0  0  0  0  0  0  0  0  0
   23.1126   18.2559   20.4359 H   0  0  0  0  0  0  0  0  0  0  0  0
   21.1308   18.6759   21.2623 C   0  0  0  0  0  0  0  0  0  0  0  0
   21.3380   19.7466   21.3988 H   0  0  0  0  0  0  0  0  0  0  0  0
   21.3624   18.1791   22.2137 H   0  0  0  0  0  0  0  0  0  0  0  0
   19.6386   18.4721   20.9112 C   0  0  0  0  0  0  0  0  0  0  0  0
   19.4492   18.8717   19.9061 H   0  0  0  0  0  0  0  0  0  0  0  0
   19.4115   17.3989   20.8634 H   0  0  0  0  0  0  0  0  0  0  0  0
   18.6594   19.1608   21.8888 C   0  0  0  0  0  0  0  0  0  0  0  0
   17.6447   19.0082   21.5123 H   0  0  0  0  0  0  0  0  0  0  0  0
   18.8438   20.2376   21.9158 H   0  0  0  0  0  0  0  0  0  0  0  0
   18.6790   18.6377   23.3168 N   0  3  0  0  0  0  0  0  0  0  0  0
   18.8959   17.6299   23.3279 H   0  0  0  0  0  0  0  0  0  0  0  0
   17.7308   18.7078   23.7179 H   0  0  0  0  0  0  0  0  0  0  0  0
   19.6511   19.4281   24.1869 C   0  0  0  0  0  0  0  0  0  0  0  0
   19.6174   19.0365   25.2060 H   0  0  0  0  0  0  0  0  0  0  0  0
   20.6630   19.3319   23.7917 H   0  0  0  0  0  0  0  0  0  0  0  0
   19.3558   20.4795   24.1888 H   0  0  0  0  0  0  0  0  0  0  0  0
  1  2  1  0  0  0  0
  1  3  1  0  0  0  0
  1  4  1  0  0  0  0
  1  5  1  0  0  0  0
  5  6  1  0  0  0  0
  5  7  1  0  0  0  0
  5  8  1  0  0  0  0
  8  9  1  0  0  0  0
  8 10  1  0  0  0  0
  8 11  1  0  0  0  0
 11 12  1  0  0  0  0
 11 13  1  0  0  0  0
 11 14  1  0  0  0  0
 14 15  1  0  0  0  0
 14 16  1  0  0  0  0
 14 17  1  0  0  0  0
 17 18  1  0  0  0  0
 17 19  1  0  0  0  0
 17 20  1  0  0  0  0
M  END
> <VConfSearch Rank>
732

> <Conf_Id>
65

> <Delta U+W>
1.775

> <U+W>
17.114

> <U>
71.726

> <W>
-54.613

> <W(PB)>
-56.495

> <W(SA)>
1.883

> <Valence>
2.885

> <Coulomb>
68.822

> <VdW>
0.019

> <VdW6>
-4.600

> <VdW12>
4.619

> <Bond>
0.152

> <Angle>
0.862

> <Pdih>
1.871

> <Idih>
0.000

> <Tether>
0.000

$$$$
VeraChem MOL file


 20 19  0  0  0  0  0  0  0  0999 V2000     
   18.1351   17.4197   22.2895 C   0  0  0  0  0  0  0  0  0  0  0  0
   18.7722   17.2045   21.4224 H   0  0  0  0  0  0  0  0  0  0  0  0
   17.8038   16.4583   22.7031 H   0  0  0  0  0  0  0  0  0  0  0  0
   17.2449   17.9559   21.9358 H   0  0  0  0  0  0  0  0  0  0  0  0
   18.8889   18.2402   23.3612 C   0  0  0  0  0  0  0  0  0  0  0  0
   19.7733   17.6831   23.6990 H   0  0  0  0  0  0  0  0  0  0  0  0
   18.2449   18.3500   24.2451 H   0  0  0  0  0  0  0  0  0  0  0  0
   19.3022   19.6493   22.8677 C   0  0  0  0  0  0  0  0  0  0  0  0
   18.3994   20.2282   22.6320 H   0  0  0  0  0  0  0  0  0  0  0  0
   19.8062   20.1875   23.6814 H   0  0  0  0  0  0  0  0  0  0  0  0
   20.2171   19.6360   21.6252 C   0  0  0  0  0  0  0  0  0  0  0  0
   20.4351   20.6640   21.3249 H   0  0  0  0  0  0  0  0  0  0  0  0
   19.7044   19.1426   20.7960 H   0  0  0  0  0  0  0  0  0  0  0  0
   21.5417   18.9299   21.8428 N   0  3  0  0  0  0  0  0  0  0  0  0
   21.3775   17.9553   22.1356 H   0  0  0  0  0  0  0  0  0  0  0  0
   22.0550   19.3693   22.6221 H   0  0  0  0  0  0  0  0  0  0  0  0
   22.3695   18.9716   20.5655 C   0  0  0  0  0  0  0  0  0  0  0  0
   22.5571   20.0122   20.2923 H   0  0  0  0  0  0  0  0  0  0  0  0
   23.3187   18.4590   20.7362 H   0  0  0  0  0  0  0  0  0  0  0  0
   21.8203   18.4724   19.7643 H   0  0  0  0  0  0  0  0  0  0  0  0
  1  2  1  0  0  0  0
  1  3  1  0  0  0  0
  1  4  1  0  0  0  0
  1  5  1  0  0  0  0
  5  6  1  0  0  0  0
  5  7  1  0  0  0  0
  5  8  1  0  0  0  0
  8  9  1  0  0  0  0
  8 10  1  0  0  0  0
  8 11  1  0  0  0  0
 11 12  1  0  0  0  0
 11 13  1  0  0  0  0
 11 14  1  0  0  0  0
 14 15  1  0  0  0  0
 14 16  1  0  0  0  0
 14 17  1  0  0  0  0
 17 18  1  0  0  0  0
 17 19  1  0  0  0  0
 17 20  1  0  0  0  0
M  END
> <VConfSearch Rank>
733

> <Conf_Id>
23

> <Delta U+W>
0.896

> <U+W>
16.234

> <U>
70.374

> <W>
-54.140

> <W(PB)>
-56.046

> <W(SA)>
1.907

> <Valence>
1.257

> <Coulomb>
69.240

> <VdW>
-0.123

> <VdW6>
-4.336

> <VdW12>
4.213

> <Bond>
0.128

> <Angle>
0.603

> <Pdih>
0.526

> <Idih>
0.000

> <Tether>
0.000

$$$$
VeraChem MOL file


 20 19  0  0  0  0  0  0  0  0999 V2000     
   21.0567   18.0536   19.9680 C   0  0  0  0  0  0  0  0  0  0  0  0
   20.6381   17.0851   19.6652 H   0  0  0  0  0  0  0  0  0  0  0  0
   21.7352   18.3879   19.1724 H   0  0  0  0  0  0  0  0  0  0  0  0
   21.6586   17.8989   20.8723 H   0  0  0  0  0  0  0  0  0  0  0  0
   19.9377   19.0949   20.1993 C   0  0  0  0  0  0  0  0  0  0  0  0
   19.4243   19.2849   19.2463 H   0  0  0  0  0  0  0  0  0  0  0  0
   20.3812   20.0538   20.5000 H   0  0  0  0  0  0  0  0  0  0  0  0
   18.8912   18.6392   21.2468 C   0  0  0  0  0  0  0  0  0  0  0  0
   18.1129   19.4078   21.3432 H   0  0  0  0  0  0  0  0  0  0  0  0
   18.3847   17.7360   20.8814 H   0  0  0  0  0  0  0  0  0  0  0  0
   19.4854   18.3413   22.6393 C   0  0  0  0  0  0  0  0  0  0  0  0
   20.2284   17.5443   22.5595 H   0  0  0  0  0  0  0  0  0  0  0  0
   18.6907   17.9978   23.3063 H   0  0  0  0  0  0  0  0  0  0  0  0
   20.1504   19.5370   23.2941 N   0  3  0  0  0  0  0  0  0  0  0  0
   19.4768   20.3128   23.3853 H   0  0  0  0  0  0  0  0  0  0  0  0
   20.9041   19.8960   22.6894 H   0  0  0  0  0  0  0  0  0  0  0  0
   20.7016   19.1436   24.6579 C   0  0  0  0  0  0  0  0  0  0  0  0
   21.4355   18.3446   24.5327 H   0  0  0  0  0  0  0  0  0  0  0  0
   21.1781   20.0128   25.1167 H   0  0  0  0  0  0  0  0  0  0  0  0
   19.8818   18.7965   25.2906 H   0  0  0  0  0  0  0  0  0  0  0  0
  1  2  1  0  0  0  0
  1  3  1  0  0  0  0
  1  4  1  0  0  0  0
  1  5  1  0  0  0  0
  5  6  1  0  0  0  0
  5  7  1  0  0  0  0
  5  8  1  0  0  0  0
  8  9  1  0  0  0  0
  8 10  1  0  0  0  0
  8 11  1  0  0  0  0
 11 12  1  0  0  0  0
 11 13  1  0  0  0  0
 11 14  1  0  0  0  0
 14 15  1  0  0  0  0
 14 16  1  0  0  0  0
 14 17  1  0  0  0  0
 17 18  1  0  0  0  0
 17 19  1  0  0  0  0
 17 20  1  0  0  0  0
M  END
> <VConfSearch Rank>
734

> <Conf_Id>
24

> <Delta U+W>
0.792

> <U+W>
16.130

> <U>
70.374

> <W>
-54.243

> <W(PB)>
-56.130

> <W(SA)>
1.887

> <Valence>
1.257

> <Coulomb>
69.240

> <VdW>
-0.123

> <VdW6>
-4.336

> <VdW12>
4.213

> <Bond>
0.128

> <Angle>
0.603

> <Pdih>
0.526

> <Idih>
0.000

> <Tether>
0.000

$$$$
VeraChem MOL file


 20 19  0  0  0  0  0  0  0  0999 V2000     
   21.7790   17.7356   21.4086 C   0  0  0  0  0  0  0  0  0  0  0  0
   22.4749   17.0860   20.8618 H   0  0  0  0  0  0  0  0  0  0  0  0
   21.3603   18.4411   20.6813 H   0  0  0  0  0  0  0  0  0  0  0  0
   22.3616   18.2946   22.1524 H   0  0  0  0  0  0  0  0  0  0  0  0
   20.6735   16.8895   22.0805 C   0  0  0  0  0  0  0  0  0  0  0  0
   21.1487   16.0646   22.6300 H   0  0  0  0  0  0  0  0  0  0  0  0
   20.0515   16.4192   21.3059 H   0  0  0  0  0  0  0  0  0  0  0  0
   19.7719   17.6767   23.0655 C   0  0  0  0  0  0  0  0  0  0  0  0
   19.0762   16.9649   23.5293 H   0  0  0  0  0  0  0  0  0  0  0  0
   20.3724   18.0894   23.8869 H   0  0  0  0  0  0  0  0  0  0  0  0
   18.9344   18.7951   22.4096 C   0  0  0  0  0  0  0  0  0  0  0  0
   18.0876   19.0341   23.0580 H   0  0  0  0  0  0  0  0  0  0  0  0
   18.5401   18.4476   21.4515 H   0  0  0  0  0  0  0  0  0  0  0  0
   19.6914   20.0889   22.1769 N   0  3  0  0  0  0  0  0  0  0  0  0
   20.5331   19.9079   21.6119 H   0  0  0  0  0  0  0  0  0  0  0  0
   20.0380   20.4629   23.0736 H   0  0  0  0  0  0  0  0  0  0  0  0
   18.7896   21.1035   21.4872 C   0  0  0  0  0  0  0  0  0  0  0  0
   18.4618   20.6995   20.5269 H   0  0  0  0  0  0  0  0  0  0  0  0
   17.9219   21.3021   22.1199 H   0  0  0  0  0  0  0  0  0  0  0  0
   19.3473   22.0287   21.3264 H   0  0  0  0  0  0  0  0  0  0  0  0
  1  2  1  0  0  0  0
  1  3  1  0  0  0  0
  1  4  1  0  0  0  0
  1  5  1  0  0  0  0
  5  6  1  0  0  0  0
  5  7  1  0  0  0  0
  5  8  1  0  0  0  0
  8  9  1  0  0  0  0
  8 10  1  0  0  0  0
  8 11  1  0  0  0  0
 11 12  1  0  0  0  0
 11 13  1  0  0  0  0
 11 14  1  0  0  0  0
 14 15  1  0  0  0  0
 14 16  1  0  0  0  0
 14 17  1  0  0  0  0
 17 18  1  0  0  0  0
 17 19  1  0  0  0  0
 17 20  1  0  0  0  0
M  END
> <VConfSearch Rank>
735

> <Conf_Id>
26

> <Delta U+W>
2.888

> <U+W>
18.226

> <U>
72.042

> <W>
-53.816

> <W(PB)>
-55.689

> <W(SA)>
1.873

> <Valence>
2.428

> <Coulomb>
69.829

> <VdW>
-0.215

> <VdW6>
-4.563

> <VdW12>
4.348

> <Bond>
0.137

> <Angle>
0.936

> <Pdih>
1.356

> <Idih>
0.000

> <Tether>
0.000

$$$$
VeraChem MOL file


 20 19  0  0  0  0  0  0  0  0999 V2000     
   20.5874   17.4664   23.6175 C   0  0  0  0  0  0  0  0  0  0  0  0
   20.5885   16.9114   24.5646 H   0  0  0  0  0  0  0  0  0  0  0  0
   21.4243   17.0931   23.0130 H   0  0  0  0  0  0  0  0  0  0  0  0
   20.7678   18.5197   23.8627 H   0  0  0  0  0  0  0  0  0  0  0  0
   19.2380   17.2762   22.8878 C   0  0  0  0  0  0  0  0  0  0  0  0
   18.4356   17.7442   23.4754 H   0  0  0  0  0  0  0  0  0  0  0  0
   19.0046   16.2026   22.8567 H   0  0  0  0  0  0  0  0  0  0  0  0
   19.2092   17.8244   21.4381 C   0  0  0  0  0  0  0  0  0  0  0  0
   19.9573   17.3104   20.8202 H   0  0  0  0  0  0  0  0  0  0  0  0
   18.2337   17.5728   21.0011 H   0  0  0  0  0  0  0  0  0  0  0  0
   19.3942   19.3529   21.3297 C   0  0  0  0  0  0  0  0  0  0  0  0
   18.8312   19.8502   22.1234 H   0  0  0  0  0  0  0  0  0  0  0  0
   18.9989   19.6933   20.3693 H   0  0  0  0  0  0  0  0  0  0  0  0
   20.8372   19.8150   21.4021 N   0  3  0  0  0  0  0  0  0  0  0  0
   21.3833   19.3935   20.6352 H   0  0  0  0  0  0  0  0  0  0  0  0
   21.2738   19.4725   22.2697 H   0  0  0  0  0  0  0  0  0  0  0  0
   20.9019   21.3347   21.3321 C   0  0  0  0  0  0  0  0  0  0  0  0
   20.3450   21.7577   22.1710 H   0  0  0  0  0  0  0  0  0  0  0  0
   21.9455   21.6524   21.3852 H   0  0  0  0  0  0  0  0  0  0  0  0
   20.4625   21.6703   20.3902 H   0  0  0  0  0  0  0  0  0  0  0  0
  1  2  1  0  0  0  0
  1  3  1  0  0  0  0
  1  4  1  0  0  0  0
  1  5  1  0  0  0  0
  5  6  1  0  0  0  0
  5  7  1  0  0  0  0
  5  8  1  0  0  0  0
  8  9  1  0  0  0  0
  8 10  1  0  0  0  0
  8 11  1  0  0  0  0
 11 12  1  0  0  0  0
 11 13  1  0  0  0  0
 11 14  1  0  0  0  0
 14 15  1  0  0  0  0
 14 16  1  0  0  0  0
 14 17  1  0  0  0  0
 17 18  1  0  0  0  0
 17 19  1  0  0  0  0
 17 20  1  0  0  0  0
M  END
> <VConfSearch Rank>
736

> <Conf_Id>
5

> <Delta U+W>
2.950

> <U+W>
18.289

> <U>
72.042

> <W>
-53.753

> <W(PB)>
-55.644

> <W(SA)>
1.891

> <Valence>
2.428

> <Coulomb>
69.829

> <VdW>
-0.215

> <VdW6>
-4.563

> <VdW12>
4.348

> <Bond>
0.137

> <Angle>
0.936

> <Pdih>
1.356

> <Idih>
0.000

> <Tether>
0.000

$$$$
VeraChem MOL file


 20 19  0  0  0  0  0  0  0  0999 V2000     
   22.1357   19.9260   22.7665 C   0  0  0  0  0  0  0  0  0  0  0  0
   22.3069   19.8139   23.8450 H   0  0  0  0  0  0  0  0  0  0  0  0
   22.4205   18.9870   22.2756 H   0  0  0  0  0  0  0  0  0  0  0  0
   22.8120   20.7092   22.4003 H   0  0  0  0  0  0  0  0  0  0  0  0
   20.6644   20.2995   22.4735 C   0  0  0  0  0  0  0  0  0  0  0  0
   20.5183   20.4097   21.3903 H   0  0  0  0  0  0  0  0  0  0  0  0
   20.4529   21.2860   22.9093 H   0  0  0  0  0  0  0  0  0  0  0  0
   19.6526   19.2749   23.0443 C   0  0  0  0  0  0  0  0  0  0  0  0
   19.7461   19.2465   24.1379 H   0  0  0  0  0  0  0  0  0  0  0  0
   18.6308   19.6185   22.8382 H   0  0  0  0  0  0  0  0  0  0  0  0
   19.8344   17.8404   22.4980 C   0  0  0  0  0  0  0  0  0  0  0  0
   19.0853   17.1817   22.9445 H   0  0  0  0  0  0  0  0  0  0  0  0
   20.8203   17.4708   22.7904 H   0  0  0  0  0  0  0  0  0  0  0  0
   19.7274   17.7045   20.9869 N   0  3  0  0  0  0  0  0  0  0  0  0
   19.9988   16.7495   20.7053 H   0  0  0  0  0  0  0  0  0  0  0  0
   20.4119   18.3233   20.5279 H   0  0  0  0  0  0  0  0  0  0  0  0
   18.3136   18.0066   20.5027 C   0  0  0  0  0  0  0  0  0  0  0  0
   18.0590   19.0388   20.7508 H   0  0  0  0  0  0  0  0  0  0  0  0
   18.2686   17.8679   19.4203 H   0  0  0  0  0  0  0  0  0  0  0  0
   17.6135   17.3248   20.9904 H   0  0  0  0  0  0  0  0  0  0  0  0
  1  2  1  0  0  0  0
  1  3  1  0  0  0  0
  1  4  1  0  0  0  0
  1  5  1  0  0  0  0
  5  6  1  0  0  0  0
  5  7  1  0  0  0  0
  5  8  1  0  0  0  0
  8  9  1  0  0  0  0
  8 10  1  0  0  0  0
  8 11  1  0  0  0  0
 11 12  1  0  0  0  0
 11 13  1  0  0  0  0
 11 14  1  0  0  0  0
 14 15  1  0  0  0  0
 14 16  1  0  0  0  0
 14 17  1  0  0  0  0
 17 18  1  0  0  0  0
 17 19  1  0  0  0  0
 17 20  1  0  0  0  0
M  END
> <VConfSearch Rank>
737

> <Conf_Id>
52

> <Delta U+W>
0.784

> <U+W>
16.122

> <U>
70.777

> <W>
-54.655

> <W(PB)>
-56.491

> <W(SA)>
1.836

> <Valence>
1.529

> <Coulomb>
69.166

> <VdW>
0.082

> <VdW6>
-5.166

> <VdW12>
5.248

> <Bond>
0.171

> <Angle>
0.752

> <Pdih>
0.605

> <Idih>
0.000

> <Tether>
0.000

$$$$
VeraChem MOL file


 20 19  0  0  0  0  0  0  0  0999 V2000     
   20.3863   17.4698   23.5227 C   0  0  0  0  0  0  0  0  0  0  0  0
   20.3951   16.7512   24.3526 H   0  0  0  0  0  0  0  0  0  0  0  0
   20.2037   16.8978   22.6058 H   0  0  0  0  0  0  0  0  0  0  0  0
   21.3842   17.9238   23.4653 H   0  0  0  0  0  0  0  0  0  0  0  0
   19.2945   18.5396   23.7528 C   0  0  0  0  0  0  0  0  0  0  0  0
   19.3875   18.9172   24.7808 H   0  0  0  0  0  0  0  0  0  0  0  0
   18.3022   18.0712   23.6904 H   0  0  0  0  0  0  0  0  0  0  0  0
   19.3650   19.7472   22.7835 C   0  0  0  0  0  0  0  0  0  0  0  0
   18.6087   20.4772   23.1006 H   0  0  0  0  0  0  0  0  0  0  0  0
   20.3308   20.2582   22.8832 H   0  0  0  0  0  0  0  0  0  0  0  0
   19.0865   19.4002   21.3024 C   0  0  0  0  0  0  0  0  0  0  0  0
   18.8267   20.3139   20.7618 H   0  0  0  0  0  0  0  0  0  0  0  0
   18.2276   18.7264   21.2495 H   0  0  0  0  0  0  0  0  0  0  0  0
   20.2363   18.7509   20.5483 N   0  3  0  0  0  0  0  0  0  0  0  0
   19.8956   18.3892   19.6437 H   0  0  0  0  0  0  0  0  0  0  0  0
   20.5726   17.9239   21.0610 H   0  0  0  0  0  0  0  0  0  0  0  0
   21.3728   19.7401   20.3143 C   0  0  0  0  0  0  0  0  0  0  0  0
   20.9927   20.5986   19.7566 H   0  0  0  0  0  0  0  0  0  0  0  0
   21.7709   20.0700   21.2757 H   0  0  0  0  0  0  0  0  0  0  0  0
   22.1618   19.2491   19.7405 H   0  0  0  0  0  0  0  0  0  0  0  0
  1  2  1  0  0  0  0
  1  3  1  0  0  0  0
  1  4  1  0  0  0  0
  1  5  1  0  0  0  0
  5  6  1  0  0  0  0
  5  7  1  0  0  0  0
  5  8  1  0  0  0  0
  8  9  1  0  0  0  0
  8 10  1  0  0  0  0
  8 11  1  0  0  0  0
 11 12  1  0  0  0  0
 11 13  1  0  0  0  0
 11 14  1  0  0  0  0
 14 15  1  0  0  0  0
 14 16  1  0  0  0  0
 14 17  1  0  0  0  0
 17 18  1  0  0  0  0
 17 19  1  0  0  0  0
 17 20  1  0  0  0  0
M  END
> <VConfSearch Rank>
738

> <Conf_Id>
55

> <Delta U+W>
2.745

> <U+W>
18.083

> <U>
72.490

> <W>
-54.407

> <W(PB)>
-56.269

> <W(SA)>
1.861

> <Valence>
2.738

> <Coulomb>
69.795

> <VdW>
-0.043

> <VdW6>
-5.333

> <VdW12>
5.290

> <Bond>
0.182

> <Angle>
1.135

> <Pdih>
1.422

> <Idih>
0.000

> <Tether>
0.000

$$$$
VeraChem MOL file


 20 19  0  0  0  0  0  0  0  0999 V2000     
   20.8492   19.6299   20.2979 C   0  0  0  0  0  0  0  0  0  0  0  0
   21.4411   19.9190   19.4197 H   0  0  0  0  0  0  0  0  0  0  0  0
   19.7905   19.7823   20.0503 H   0  0  0  0  0  0  0  0  0  0  0  0
   21.1255   20.3131   21.1091 H   0  0  0  0  0  0  0  0  0  0  0  0
   21.1322   18.1573   20.6729 C   0  0  0  0  0  0  0  0  0  0  0  0
   22.1687   18.0606   21.0256 H   0  0  0  0  0  0  0  0  0  0  0  0
   21.0636   17.5462   19.7619 H   0  0  0  0  0  0  0  0  0  0  0  0
   20.1630   17.5663   21.7285 C   0  0  0  0  0  0  0  0  0  0  0  0
   19.1306   17.6031   21.3588 H   0  0  0  0  0  0  0  0  0  0  0  0
   20.3997   16.5002   21.8424 H   0  0  0  0  0  0  0  0  0  0  0  0
   20.2607   18.2179   23.1276 C   0  0  0  0  0  0  0  0  0  0  0  0
   21.3142   18.3472   23.3879 H   0  0  0  0  0  0  0  0  0  0  0  0
   19.8144   17.5490   23.8677 H   0  0  0  0  0  0  0  0  0  0  0  0
   19.5739   19.5663   23.2779 N   0  3  0  0  0  0  0  0  0  0  0  0
   19.9037   20.2138   22.5487 H   0  0  0  0  0  0  0  0  0  0  0  0
   19.8543   19.9991   24.1719 H   0  0  0  0  0  0  0  0  0  0  0  0
   18.0568   19.4230   23.2265 C   0  0  0  0  0  0  0  0  0  0  0  0
   17.7622   19.0244   22.2539 H   0  0  0  0  0  0  0  0  0  0  0  0
   17.7331   18.7442   24.0184 H   0  0  0  0  0  0  0  0  0  0  0  0
   17.5997   20.4040   23.3737 H   0  0  0  0  0  0  0  0  0  0  0  0
  1  2  1  0  0  0  0
  1  3  1  0  0  0  0
  1  4  1  0  0  0  0
  1  5  1  0  0  0  0
  5  6  1  0  0  0  0
  5  7  1  0  0  0  0
  5  8  1  0  0  0  0
  8  9  1  0  0  0  0
  8 10  1  0  0  0  0
  8 11  1  0  0  0  0
 11 12  1  0  0  0  0
 11 13  1  0  0  0  0
 11 14  1  0  0  0  0
 14 15  1  0  0  0  0
 14 16  1  0  0  0  0
 14 17  1  0  0  0  0
 17 18  1  0  0  0  0
 17 19  1  0  0  0  0
 17 20  1  0  0  0  0
M  END
> <VConfSearch Rank>
739

> <Conf_Id>
76

> <Delta U+W>
2.799

> <U+W>
18.137

> <U>
72.490

> <W>
-54.353

> <W(PB)>
-56.201

> <W(SA)>
1.848

> <Valence>
2.738

> <Coulomb>
69.795

> <VdW>
-0.043

> <VdW6>
-5.334

> <VdW12>
5.290

> <Bond>
0.182

> <Angle>
1.135

> <Pdih>
1.421

> <Idih>
0.000

> <Tether>
0.000

$$$$
VeraChem MOL file


 20 19  0  0  0  0  0  0  0  0999 V2000     
   19.6749   20.8182   22.2013 C   0  0  0  0  0  0  0  0  0  0  0  0
   20.0329   20.5090   21.2117 H   0  0  0  0  0  0  0  0  0  0  0  0
   18.6245   21.1218   22.1042 H   0  0  0  0  0  0  0  0  0  0  0  0
   20.2521   21.7023   22.5014 H   0  0  0  0  0  0  0  0  0  0  0  0
   19.8313   19.6882   23.2450 C   0  0  0  0  0  0  0  0  0  0  0  0
   19.5272   20.0710   24.2293 H   0  0  0  0  0  0  0  0  0  0  0  0
   20.8886   19.4119   23.3469 H   0  0  0  0  0  0  0  0  0  0  0  0
   18.9815   18.4363   22.9167 C   0  0  0  0  0  0  0  0  0  0  0  0
   19.1047   17.6937   23.7159 H   0  0  0  0  0  0  0  0  0  0  0  0
   17.9206   18.7190   22.9302 H   0  0  0  0  0  0  0  0  0  0  0  0
   19.2852   17.7681   21.5551 C   0  0  0  0  0  0  0  0  0  0  0  0
   19.1789   18.4891   20.7411 H   0  0  0  0  0  0  0  0  0  0  0  0
   18.5436   16.9810   21.3968 H   0  0  0  0  0  0  0  0  0  0  0  0
   20.6498   17.1055   21.4375 N   0  3  0  0  0  0  0  0  0  0  0  0
   20.5802   16.2965   20.8008 H   0  0  0  0  0  0  0  0  0  0  0  0
   20.9328   16.7031   22.3434 H   0  0  0  0  0  0  0  0  0  0  0  0
   21.7025   18.0716   20.9050 C   0  0  0  0  0  0  0  0  0  0  0  0
   22.6545   17.5448   20.8095 H   0  0  0  0  0  0  0  0  0  0  0  0
   21.3879   18.4398   19.9262 H   0  0  0  0  0  0  0  0  0  0  0  0
   21.8164   18.9094   21.5936 H   0  0  0  0  0  0  0  0  0  0  0  0
  1  2  1  0  0  0  0
  1  3  1  0  0  0  0
  1  4  1  0  0  0  0
  1  5  1  0  0  0  0
  5  6  1  0  0  0  0
  5  7  1  0  0  0  0
  5  8  1  0  0  0  0
  8  9  1  0  0  0  0
  8 10  1  0  0  0  0
  8 11  1  0  0  0  0
 11 12  1  0  0  0  0
 11 13  1  0  0  0  0
 11 14  1  0  0  0  0
 14 15  1  0  0  0  0
 14 16  1  0  0  0  0
 14 17  1  0  0  0  0
 17 18  1  0  0  0  0
 17 19  1  0  0  0  0
 17 20  1  0  0  0  0
M  END
> <VConfSearch Rank>
740

> <Conf_Id>
60

> <Delta U+W>
1.788

> <U+W>
17.127

> <U>
72.122

> <W>
-54.995

> <W(PB)>
-56.810

> <W(SA)>
1.815

> <Valence>
3.197

> <Coulomb>
69.115

> <VdW>
-0.190

> <VdW6>
-5.585

> <VdW12>
5.395

> <Bond>
0.177

> <Angle>
1.207

> <Pdih>
1.813

> <Idih>
0.000

> <Tether>
0.000

$$$$
VeraChem MOL file


 20 19  0  0  0  0  0  0  0  0999 V2000     
   19.7383   19.6339   23.9251 C   0  0  0  0  0  0  0  0  0  0  0  0
   19.4049   20.6107   24.2988 H   0  0  0  0  0  0  0  0  0  0  0  0
   19.7391   18.9347   24.7713 H   0  0  0  0  0  0  0  0  0  0  0  0
   20.7720   19.7478   23.5764 H   0  0  0  0  0  0  0  0  0  0  0  0
   18.8053   19.1376   22.7965 C   0  0  0  0  0  0  0  0  0  0  0  0
   18.7980   19.8579   21.9683 H   0  0  0  0  0  0  0  0  0  0  0  0
   17.7743   19.1098   23.1762 H   0  0  0  0  0  0  0  0  0  0  0  0
   19.1791   17.7284   22.2752 C   0  0  0  0  0  0  0  0  0  0  0  0
   19.0708   17.0098   23.0983 H   0  0  0  0  0  0  0  0  0  0  0  0
   18.4546   17.4201   21.5100 H   0  0  0  0  0  0  0  0  0  0  0  0
   20.6090   17.5923   21.7011 C   0  0  0  0  0  0  0  0  0  0  0  0
   20.7821   16.5352   21.4839 H   0  0  0  0  0  0  0  0  0  0  0  0
   21.3509   17.9022   22.4407 H   0  0  0  0  0  0  0  0  0  0  0  0
   20.8728   18.3478   20.4071 N   0  3  0  0  0  0  0  0  0  0  0  0
   20.0247   18.3638   19.8214 H   0  0  0  0  0  0  0  0  0  0  0  0
   21.5686   17.8301   19.8480 H   0  0  0  0  0  0  0  0  0  0  0  0
   21.3924   19.7568   20.6718 C   0  0  0  0  0  0  0  0  0  0  0  0
   22.3137   19.6947   21.2548 H   0  0  0  0  0  0  0  0  0  0  0  0
   21.5952   20.2474   19.7173 H   0  0  0  0  0  0  0  0  0  0  0  0
   20.6455   20.3276   21.2244 H   0  0  0  0  0  0  0  0  0  0  0  0
  1  2  1  0  0  0  0
  1  3  1  0  0  0  0
  1  4  1  0  0  0  0
  1  5  1  0  0  0  0
  5  6  1  0  0  0  0
  5  7  1  0  0  0  0
  5  8  1  0  0  0  0
  8  9  1  0  0  0  0
  8 10  1  0  0  0  0
  8 11  1  0  0  0  0
 11 12  1  0  0  0  0
 11 13  1  0  0  0  0
 11 14  1  0  0  0  0
 14 15  1  0  0  0  0
 14 16  1  0  0  0  0
 14 17  1  0  0  0  0
 17 18  1  0  0  0  0
 17 19  1  0  0  0  0
 17 20  1  0  0  0  0
M  END
> <VConfSearch Rank>
741

> <Conf_Id>
54

> <Delta U+W>
1.880

> <U+W>
17.218

> <U>
72.122

> <W>
-54.903

> <W(PB)>
-56.724

> <W(SA)>
1.821

> <Valence>
3.197

> <Coulomb>
69.115

> <VdW>
-0.190

> <VdW6>
-5.585

> <VdW12>
5.395

> <Bond>
0.177

> <Angle>
1.207

> <Pdih>
1.813

> <Idih>
0.000

> <Tether>
0.000

$$$$
VeraChem MOL file


 20 19  0  0  0  0  0  0  0  0999 V2000     
   19.6782   17.3171   24.8190 C   0  0  0  0  0  0  0  0  0  0  0  0
   19.9540   18.1626   25.4626 H   0  0  0  0  0  0  0  0  0  0  0  0
   18.8778   16.7590   25.3220 H   0  0  0  0  0  0  0  0  0  0  0  0
   20.5488   16.6537   24.7349 H   0  0  0  0  0  0  0  0  0  0  0  0
   19.2135   17.8042   23.4293 C   0  0  0  0  0  0  0  0  0  0  0  0
   18.3216   18.4364   23.5435 H   0  0  0  0  0  0  0  0  0  0  0  0
   18.9118   16.9394   22.8214 H   0  0  0  0  0  0  0  0  0  0  0  0
   20.3210   18.5938   22.6974 C   0  0  0  0  0  0  0  0  0  0  0  0
   20.6193   19.4595   23.3037 H   0  0  0  0  0  0  0  0  0  0  0  0
   21.2105   17.9604   22.5808 H   0  0  0  0  0  0  0  0  0  0  0  0
   19.8500   19.0758   21.3127 C   0  0  0  0  0  0  0  0  0  0  0  0
   18.9739   19.7193   21.4263 H   0  0  0  0  0  0  0  0  0  0  0  0
   19.5671   18.2154   20.7011 H   0  0  0  0  0  0  0  0  0  0  0  0
   20.9061   19.8574   20.5560 N   0  3  0  0  0  0  0  0  0  0  0  0
   21.7553   19.2844   20.4348 H   0  0  0  0  0  0  0  0  0  0  0  0
   21.2061   20.6767   21.1062 H   0  0  0  0  0  0  0  0  0  0  0  0
   20.3597   20.2941   19.2032 C   0  0  0  0  0  0  0  0  0  0  0  0
   19.4828   20.9269   19.3566 H   0  0  0  0  0  0  0  0  0  0  0  0
   21.1298   20.8554   18.6694 H   0  0  0  0  0  0  0  0  0  0  0  0
   20.0812   19.4103   18.6252 H   0  0  0  0  0  0  0  0  0  0  0  0
  1  2  1  0  0  0  0
  1  3  1  0  0  0  0
  1  4  1  0  0  0  0
  1  5  1  0  0  0  0
  5  6  1  0  0  0  0
  5  7  1  0  0  0  0
  5  8  1  0  0  0  0
  8  9  1  0  0  0  0
  8 10  1  0  0  0  0
  8 11  1  0  0  0  0
 11 12  1  0  0  0  0
 11 13  1  0  0  0  0
 11 14  1  0  0  0  0
 14 15  1  0  0  0  0
 14 16  1  0  0  0  0
 14 17  1  0  0  0  0
 17 18  1  0  0  0  0
 17 19  1  0  0  0  0
 17 20  1  0  0  0  0
M  END
> <VConfSearch Rank>
742

> <Conf_Id>
67

> <Delta U+W>
0.000

> <U+W>
15.338

> <U>
69.277

> <W>
-53.939

> <W(PB)>
-55.889

> <W(SA)>
1.950

> <Valence>
0.846

> <Coulomb>
68.557

> <VdW>
-0.127

> <VdW6>
-3.008

> <VdW12>
2.882

> <Bond>
0.088

> <Angle>
0.332

> <Pdih>
0.426

> <Idih>
0.000

> <Tether>
0.000

$$$$
VeraChem MOL file


 20 19  0  0  0  0  0  0  0  0999 V2000     
   20.5815   21.7757   21.3553 C   0  0  0  0  0  0  0  0  0  0  0  0
   19.7029   22.0619   21.9479 H   0  0  0  0  0  0  0  0  0  0  0  0
   21.3339   22.5673   21.4661 H   0  0  0  0  0  0  0  0  0  0  0  0
   20.2843   21.7400   20.2991 H   0  0  0  0  0  0  0  0  0  0  0  0
   21.1473   20.4163   21.8202 C   0  0  0  0  0  0  0  0  0  0  0  0
   21.4673   20.4933   22.8690 H   0  0  0  0  0  0  0  0  0  0  0  0
   22.0447   20.1744   21.2333 H   0  0  0  0  0  0  0  0  0  0  0  0
   20.1092   19.2819   21.6752 C   0  0  0  0  0  0  0  0  0  0  0  0
   19.2152   19.5277   22.2627 H   0  0  0  0  0  0  0  0  0  0  0  0
   19.7933   19.2027   20.6266 H   0  0  0  0  0  0  0  0  0  0  0  0
   20.6840   17.9281   22.1406 C   0  0  0  0  0  0  0  0  0  0  0  0
   20.9562   17.9840   23.1975 H   0  0  0  0  0  0  0  0  0  0  0  0
   21.5905   17.7125   21.5691 H   0  0  0  0  0  0  0  0  0  0  0  0
   19.7451   16.7462   21.9606 N   0  3  0  0  0  0  0  0  0  0  0  0
   20.2578   15.8681   22.1380 H   0  0  0  0  0  0  0  0  0  0  0  0
   19.4393   16.6791   20.9779 H   0  0  0  0  0  0  0  0  0  0  0  0
   18.5455   16.8429   22.8972 C   0  0  0  0  0  0  0  0  0  0  0  0
   17.9709   17.7402   22.6592 H   0  0  0  0  0  0  0  0  0  0  0  0
   17.9166   15.9598   22.7651 H   0  0  0  0  0  0  0  0  0  0  0  0
   18.8984   16.8920   23.9295 H   0  0  0  0  0  0  0  0  0  0  0  0
  1  2  1  0  0  0  0
  1  3  1  0  0  0  0
  1  4  1  0  0  0  0
  1  5  1  0  0  0  0
  5  6  1  0  0  0  0
  5  7  1  0  0  0  0
  5  8  1  0  0  0  0
  8  9  1  0  0  0  0
  8 10  1  0  0  0  0
  8 11  1  0  0  0  0
 11 12  1  0  0  0  0
 11 13  1  0  0  0  0
 11 14  1  0  0  0  0
 14 15  1  0  0  0  0
 14 16  1  0  0  0  0
 14 17  1  0  0  0  0
 17 18  1  0  0  0  0
 17 19  1  0  0  0  0
 17 20  1  0  0  0  0
M  END
> <VConfSearch Rank>
743

> <Conf_Id>
37

> <Delta U+W>
-0.021

> <U+W>
15.318

> <U>
69.657

> <W>
-54.340

> <W(PB)>
-56.238

> <W(SA)>
1.899

> <Valence>
1.137

> <Coulomb>
68.383

> <VdW>
0.138

> <VdW6>
-3.703

> <VdW12>
3.841

> <Bond>
0.125

> <Angle>
0.468

> <Pdih>
0.543

> <Idih>
0.000

> <Tether>
0.000

$$$$
VeraChem MOL file


 20 19  0  0  0  0  0  0  0  0999 V2000     
   20.6909   19.8592   24.7042 C   0  0  0  0  0  0  0  0  0  0  0  0
   20.3642   19.8378   25.7520 H   0  0  0  0  0  0  0  0  0  0  0  0
   21.6735   19.3727   24.6486 H   0  0  0  0  0  0  0  0  0  0  0  0
   20.8131   20.9102   24.4117 H   0  0  0  0  0  0  0  0  0  0  0  0
   19.6646   19.1453   23.7981 C   0  0  0  0  0  0  0  0  0  0  0  0
   18.6847   19.6324   23.9021 H   0  0  0  0  0  0  0  0  0  0  0  0
   19.5386   18.1070   24.1365 H   0  0  0  0  0  0  0  0  0  0  0  0
   20.0985   19.1600   22.3158 C   0  0  0  0  0  0  0  0  0  0  0  0
   20.2200   20.1974   21.9772 H   0  0  0  0  0  0  0  0  0  0  0  0
   21.0771   18.6728   22.2169 H   0  0  0  0  0  0  0  0  0  0  0  0
   19.0664   18.4461   21.4186 C   0  0  0  0  0  0  0  0  0  0  0  0
   18.0915   18.9218   21.5518 H   0  0  0  0  0  0  0  0  0  0  0  0
   18.9753   17.3991   21.7183 H   0  0  0  0  0  0  0  0  0  0  0  0
   19.3870   18.4817   19.9330 N   0  3  0  0  0  0  0  0  0  0  0  0
   19.5128   19.4557   19.6178 H   0  0  0  0  0  0  0  0  0  0  0  0
   18.5768   18.1333   19.3968 H   0  0  0  0  0  0  0  0  0  0  0  0
   20.6195   17.6434   19.6111 C   0  0  0  0  0  0  0  0  0  0  0  0
   20.4499   16.6150   19.9370 H   0  0  0  0  0  0  0  0  0  0  0  0
   20.7941   17.6635   18.5331 H   0  0  0  0  0  0  0  0  0  0  0  0
   21.4860   18.0583   20.1298 H   0  0  0  0  0  0  0  0  0  0  0  0
  1  2  1  0  0  0  0
  1  3  1  0  0  0  0
  1  4  1  0  0  0  0
  1  5  1  0  0  0  0
  5  6  1  0  0  0  0
  5  7  1  0  0  0  0
  5  8  1  0  0  0  0
  8  9  1  0  0  0  0
  8 10  1  0  0  0  0
  8 11  1  0  0  0  0
 11 12  1  0  0  0  0
 11 13  1  0  0  0  0
 11 14  1  0  0  0  0
 14 15  1  0  0  0  0
 14 16  1  0  0  0  0
 14 17  1  0  0  0  0
 17 18  1  0  0  0  0
 17 19  1  0  0  0  0
 17 20  1  0  0  0  0
M  END
> <VConfSearch Rank>
744

> <Conf_Id>
2

> <Delta U+W>
0.069

> <U+W>
15.407

> <U>
69.657

> <W>
-54.250

> <W(PB)>
-56.176

> <W(SA)>
1.926

> <Valence>
1.137

> <Coulomb>
68.383

> <VdW>
0.138

> <VdW6>
-3.703

> <VdW12>
3.841

> <Bond>
0.125

> <Angle>
0.468

> <Pdih>
0.543

> <Idih>
0.000

> <Tether>
0.000

$$$$
VeraChem MOL file


 20 19  0  0  0  0  0  0  0  0999 V2000     
   21.8478   18.6678   23.9632 C   0  0  0  0  0  0  0  0  0  0  0  0
   21.5866   17.6587   23.6205 H   0  0  0  0  0  0  0  0  0  0  0  0
   22.6836   19.0320   23.3518 H   0  0  0  0  0  0  0  0  0  0  0  0
   22.2027   18.5837   24.9986 H   0  0  0  0  0  0  0  0  0  0  0  0
   20.6383   19.6273   23.8811 C   0  0  0  0  0  0  0  0  0  0  0  0
   20.9185   20.5955   24.3194 H   0  0  0  0  0  0  0  0  0  0  0  0
   19.8151   19.2370   24.4959 H   0  0  0  0  0  0  0  0  0  0  0  0
   20.1447   19.8554   22.4331 C   0  0  0  0  0  0  0  0  0  0  0  0
   19.3398   20.6023   22.4436 H   0  0  0  0  0  0  0  0  0  0  0  0
   20.9585   20.2781   21.8291 H   0  0  0  0  0  0  0  0  0  0  0  0
   19.6266   18.5633   21.7719 C   0  0  0  0  0  0  0  0  0  0  0  0
   18.8151   18.1440   22.3719 H   0  0  0  0  0  0  0  0  0  0  0  0
   20.4322   17.8270   21.7210 H   0  0  0  0  0  0  0  0  0  0  0  0
   19.1040   18.7751   20.3647 N   0  3  0  0  0  0  0  0  0  0  0  0
   19.8412   19.1803   19.7677 H   0  0  0  0  0  0  0  0  0  0  0  0
   18.3424   19.4708   20.3680 H   0  0  0  0  0  0  0  0  0  0  0  0
   18.6164   17.4530   19.7871 C   0  0  0  0  0  0  0  0  0  0  0  0
   17.8140   17.0600   20.4152 H   0  0  0  0  0  0  0  0  0  0  0  0
   18.2430   17.6199   18.7744 H   0  0  0  0  0  0  0  0  0  0  0  0
   19.4465   16.7437   19.7611 H   0  0  0  0  0  0  0  0  0  0  0  0
  1  2  1  0  0  0  0
  1  3  1  0  0  0  0
  1  4  1  0  0  0  0
  1  5  1  0  0  0  0
  5  6  1  0  0  0  0
  5  7  1  0  0  0  0
  5  8  1  0  0  0  0
  8  9  1  0  0  0  0
  8 10  1  0  0  0  0
  8 11  1  0  0  0  0
 11 12  1  0  0  0  0
 11 13  1  0  0  0  0
 11 14  1  0  0  0  0
 14 15  1  0  0  0  0
 14 16  1  0  0  0  0
 14 17  1  0  0  0  0
 17 18  1  0  0  0  0
 17 19  1  0  0  0  0
 17 20  1  0  0  0  0
M  END
> <VConfSearch Rank>
745

> <Conf_Id>
34

> <Delta U+W>
0.276

> <U+W>
15.615

> <U>
69.798

> <W>
-54.184

> <W(PB)>
-56.116

> <W(SA)>
1.933

> <Valence>
1.134

> <Coulomb>
68.735

> <VdW>
-0.070

> <VdW6>
-3.565

> <VdW12>
3.494

> <Bond>
0.108

> <Angle>
0.456

> <Pdih>
0.569

> <Idih>
0.000

> <Tether>
0.000

$$$$
VeraChem MOL file


 20 19  0  0  0  0  0  0  0  0999 V2000     
   21.6398   16.3170   22.6898 C   0  0  0  0  0  0  0  0  0  0  0  0
   22.7078   16.5709   22.6783 H   0  0  0  0  0  0  0  0  0  0  0  0
   21.4583   15.6676   23.5560 H   0  0  0  0  0  0  0  0  0  0  0  0
   21.4166   15.7388   21.7837 H   0  0  0  0  0  0  0  0  0  0  0  0
   20.7662   17.5878   22.7679 C   0  0  0  0  0  0  0  0  0  0  0  0
   20.9901   18.1268   23.6993 H   0  0  0  0  0  0  0  0  0  0  0  0
   19.7091   17.2937   22.8180 H   0  0  0  0  0  0  0  0  0  0  0  0
   21.0032   18.5206   21.5567 C   0  0  0  0  0  0  0  0  0  0  0  0
   22.0700   18.7739   21.4973 H   0  0  0  0  0  0  0  0  0  0  0  0
   20.7545   17.9974   20.6238 H   0  0  0  0  0  0  0  0  0  0  0  0
   20.1957   19.8312   21.6440 C   0  0  0  0  0  0  0  0  0  0  0  0
   20.4727   20.4823   20.8109 H   0  0  0  0  0  0  0  0  0  0  0  0
   20.4366   20.3498   22.5754 H   0  0  0  0  0  0  0  0  0  0  0  0
   18.6920   19.6363   21.5913 N   0  3  0  0  0  0  0  0  0  0  0  0
   18.3852   19.0269   22.3640 H   0  0  0  0  0  0  0  0  0  0  0  0
   18.4281   19.1386   20.7272 H   0  0  0  0  0  0  0  0  0  0  0  0
   17.9901   20.9856   21.6662 C   0  0  0  0  0  0  0  0  0  0  0  0
   18.2579   21.4791   22.6029 H   0  0  0  0  0  0  0  0  0  0  0  0
   18.3042   21.6019   20.8210 H   0  0  0  0  0  0  0  0  0  0  0  0
   16.9096   20.8308   21.6274 H   0  0  0  0  0  0  0  0  0  0  0  0
  1  2  1  0  0  0  0
  1  3  1  0  0  0  0
  1  4  1  0  0  0  0
  1  5  1  0  0  0  0
  5  6  1  0  0  0  0
  5  7  1  0  0  0  0
  5  8  1  0  0  0  0
  8  9  1  0  0  0  0
  8 10  1  0  0  0  0
  8 11  1  0  0  0  0
 11 12  1  0  0  0  0
 11 13  1  0  0  0  0
 11 14  1  0  0  0  0
 14 15  1  0  0  0  0
 14 16  1  0  0  0  0
 14 17  1  0  0  0  0
 17 18  1  0  0  0  0
 17 19  1  0  0  0  0
 17 20  1  0  0  0  0
M  END
> <VConfSearch Rank>
746

> <Conf_Id>
50

> <Delta U+W>
0.319

> <U+W>
15.657

> <U>
69.962

> <W>
-54.305

> <W(PB)>
-56.223

> <W(SA)>
1.918

> <Valence>
0.982

> <Coulomb>
69.058

> <VdW>
-0.078

> <VdW6>
-3.548

> <VdW12>
3.471

> <Bond>
0.105

> <Angle>
0.408

> <Pdih>
0.469

> <Idih>
0.000

> <Tether>
0.000

$$$$
VeraChem MOL file


 20 19  0  0  0  0  0  0  0  0999 V2000     
   17.5905   18.1340   20.4043 C   0  0  0  0  0  0  0  0  0  0  0  0
   17.5291   17.3291   19.6604 H   0  0  0  0  0  0  0  0  0  0  0  0
   16.7421   18.0213   21.0918 H   0  0  0  0  0  0  0  0  0  0  0  0
   17.4772   19.0895   19.8758 H   0  0  0  0  0  0  0  0  0  0  0  0
   18.9338   18.0743   21.1633 C   0  0  0  0  0  0  0  0  0  0  0  0
   19.7576   18.1496   20.4406 H   0  0  0  0  0  0  0  0  0  0  0  0
   19.0312   17.0957   21.6545 H   0  0  0  0  0  0  0  0  0  0  0  0
   19.0456   19.2000   22.2184 C   0  0  0  0  0  0  0  0  0  0  0  0
   18.9773   20.1816   21.7310 H   0  0  0  0  0  0  0  0  0  0  0  0
   18.1947   19.1351   22.9095 H   0  0  0  0  0  0  0  0  0  0  0  0
   20.3476   19.1220   23.0408 C   0  0  0  0  0  0  0  0  0  0  0  0
   20.4206   18.1430   23.5211 H   0  0  0  0  0  0  0  0  0  0  0  0
   20.3263   19.8841   23.8239 H   0  0  0  0  0  0  0  0  0  0  0  0
   21.6085   19.3395   22.2254 N   0  3  0  0  0  0  0  0  0  0  0  0
   21.5697   20.2530   21.7477 H   0  0  0  0  0  0  0  0  0  0  0  0
   21.6704   18.6381   21.4726 H   0  0  0  0  0  0  0  0  0  0  0  0
   22.8316   19.2607   23.1290 C   0  0  0  0  0  0  0  0  0  0  0  0
   23.7312   19.4187   22.5299 H   0  0  0  0  0  0  0  0  0  0  0  0
   22.7613   20.0331   23.8980 H   0  0  0  0  0  0  0  0  0  0  0  0
   22.8699   18.2750   23.5978 H   0  0  0  0  0  0  0  0  0  0  0  0
  1  2  1  0  0  0  0
  1  3  1  0  0  0  0
  1  4  1  0  0  0  0
  1  5  1  0  0  0  0
  5  6  1  0  0  0  0
  5  7  1  0  0  0  0
  5  8  1  0  0  0  0
  8  9  1  0  0  0  0
  8 10  1  0  0  0  0
  8 11  1  0  0  0  0
 11 12  1  0  0  0  0
 11 13  1  0  0  0  0
 11 14  1  0  0  0  0
 14 15  1  0  0  0  0
 14 16  1  0  0  0  0
 14 17  1  0  0  0  0
 17 18  1  0  0  0  0
 17 19  1  0  0  0  0
 17 20  1  0  0  0  0
M  END
> <VConfSearch Rank>
747

> <Conf_Id>
35

> <Delta U+W>
0.360

> <U+W>
15.698

> <U>
69.962

> <W>
-54.264

> <W(PB)>
-56.166

> <W(SA)>
1.902

> <Valence>
0.982

> <Coulomb>
69.058

> <VdW>
-0.078

> <VdW6>
-3.548

> <VdW12>
3.471

> <Bond>
0.105

> <Angle>
0.408

> <Pdih>
0.469

> <Idih>
0.000

> <Tether>
0.000

$$$$
VeraChem MOL file


 20 19  0  0  0  0  0  0  0  0999 V2000     
   18.0583   20.2084   22.7238 C   0  0  0  0  0  0  0  0  0  0  0  0
   18.7744   20.9227   22.2982 H   0  0  0  0  0  0  0  0  0  0  0  0
   17.0726   20.6915   22.7288 H   0  0  0  0  0  0  0  0  0  0  0  0
   18.3429   20.0180   23.7668 H   0  0  0  0  0  0  0  0  0  0  0  0
   18.0142   18.8945   21.9103 C   0  0  0  0  0  0  0  0  0  0  0  0
   17.7324   19.1132   20.8706 H   0  0  0  0  0  0  0  0  0  0  0  0
   17.2227   18.2484   22.3151 H   0  0  0  0  0  0  0  0  0  0  0  0
   19.3546   18.1234   21.9359 C   0  0  0  0  0  0  0  0  0  0  0  0
   19.6118   17.8751   22.9737 H   0  0  0  0  0  0  0  0  0  0  0  0
   19.2287   17.1699   21.4063 H   0  0  0  0  0  0  0  0  0  0  0  0
   20.5068   18.9161   21.2822 C   0  0  0  0  0  0  0  0  0  0  0  0
   20.6880   19.8377   21.8405 H   0  0  0  0  0  0  0  0  0  0  0  0
   20.2168   19.1884   20.2642 H   0  0  0  0  0  0  0  0  0  0  0  0
   21.8225   18.1603   21.1913 N   0  3  0  0  0  0  0  0  0  0  0  0
   22.4846   18.6891   20.6020 H   0  0  0  0  0  0  0  0  0  0  0  0
   21.6870   17.2649   20.6978 H   0  0  0  0  0  0  0  0  0  0  0  0
   22.4270   17.9329   22.5727 C   0  0  0  0  0  0  0  0  0  0  0  0
   21.7498   17.3173   23.1680 H   0  0  0  0  0  0  0  0  0  0  0  0
   23.3860   17.4217   22.4637 H   0  0  0  0  0  0  0  0  0  0  0  0
   22.5779   18.8974   23.0623 H   0  0  0  0  0  0  0  0  0  0  0  0
  1  2  1  0  0  0  0
  1  3  1  0  0  0  0
  1  4  1  0  0  0  0
  1  5  1  0  0  0  0
  5  6  1  0  0  0  0
  5  7  1  0  0  0  0
  5  8  1  0  0  0  0
  8  9  1  0  0  0  0
  8 10  1  0  0  0  0
  8 11  1  0  0  0  0
 11 12  1  0  0  0  0
 11 13  1  0  0  0  0
 11 14  1  0  0  0  0
 14 15  1  0  0  0  0
 14 16  1  0  0  0  0
 14 17  1  0  0  0  0
 17 18  1  0  0  0  0
 17 19  1  0  0  0  0
 17 20  1  0  0  0  0
M  END
> <VConfSearch Rank>
748

> <Conf_Id>
33

> <Delta U+W>
0.372

> <U+W>
15.711

> <U>
70.163

> <W>
-54.452

> <W(PB)>
-56.363

> <W(SA)>
1.911

> <Valence>
1.420

> <Coulomb>
68.566

> <VdW>
0.177

> <VdW6>
-4.267

> <VdW12>
4.445

> <Bond>
0.146

> <Angle>
0.581

> <Pdih>
0.693

> <Idih>
0.000

> <Tether>
0.000

$$$$
VeraChem MOL file


 20 19  0  0  0  0  0  0  0  0999 V2000     
   22.5690   19.6002   21.8272 C   0  0  0  0  0  0  0  0  0  0  0  0
   23.5978   19.8644   22.1042 H   0  0  0  0  0  0  0  0  0  0  0  0
   22.5859   18.5774   21.4300 H   0  0  0  0  0  0  0  0  0  0  0  0
   22.2556   20.2759   21.0208 H   0  0  0  0  0  0  0  0  0  0  0  0
   21.6304   19.7198   23.0498 C   0  0  0  0  0  0  0  0  0  0  0  0
   21.7145   20.7325   23.4688 H   0  0  0  0  0  0  0  0  0  0  0  0
   21.9625   19.0307   23.8391 H   0  0  0  0  0  0  0  0  0  0  0  0
   20.1492   19.4407   22.7033 C   0  0  0  0  0  0  0  0  0  0  0  0
   19.5339   19.6179   23.5952 H   0  0  0  0  0  0  0  0  0  0  0  0
   19.8126   20.1560   21.9419 H   0  0  0  0  0  0  0  0  0  0  0  0
   19.9183   17.9965   22.2090 C   0  0  0  0  0  0  0  0  0  0  0  0
   20.2951   17.2997   22.9620 H   0  0  0  0  0  0  0  0  0  0  0  0
   20.4732   17.8270   21.2832 H   0  0  0  0  0  0  0  0  0  0  0  0
   18.4630   17.6414   21.9514 N   0  3  0  0  0  0  0  0  0  0  0  0
   17.8969   17.8195   22.7949 H   0  0  0  0  0  0  0  0  0  0  0  0
   18.3792   16.6260   21.7867 H   0  0  0  0  0  0  0  0  0  0  0  0
   17.9096   18.4072   20.7545 C   0  0  0  0  0  0  0  0  0  0  0  0
   16.8768   18.0985   20.5788 H   0  0  0  0  0  0  0  0  0  0  0  0
   17.9409   19.4783   20.9633 H   0  0  0  0  0  0  0  0  0  0  0  0
   18.5152   18.1837   19.8735 H   0  0  0  0  0  0  0  0  0  0  0  0
  1  2  1  0  0  0  0
  1  3  1  0  0  0  0
  1  4  1  0  0  0  0
  1  5  1  0  0  0  0
  5  6  1  0  0  0  0
  5  7  1  0  0  0  0
  5  8  1  0  0  0  0
  8  9  1  0  0  0  0
  8 10  1  0  0  0  0
  8 11  1  0  0  0  0
 11 12  1  0  0  0  0
 11 13  1  0  0  0  0
 11 14  1  0  0  0  0
 14 15  1  0  0  0  0
 14 16  1  0  0  0  0
 14 17  1  0  0  0  0
 17 18  1  0  0  0  0
 17 19  1  0  0  0  0
 17 20  1  0  0  0  0
M  END
> <VConfSearch Rank>
749

> <Conf_Id>
53

> <Delta U+W>
0.379

> <U+W>
15.717

> <U>
70.163

> <W>
-54.446

> <W(PB)>
-56.322

> <W(SA)>
1.876

> <Valence>
1.420

> <Coulomb>
68.566

> <VdW>
0.177

> <VdW6>
-4.267

> <VdW12>
4.445

> <Bond>
0.146

> <Angle>
0.581

> <Pdih>
0.693

> <Idih>
0.000

> <Tether>
0.000

$$$$
VeraChem MOL file


 20 19  0  0  0  0  0  0  0  0999 V2000     
   22.5069   17.9937   20.8086 C   0  0  0  0  0  0  0  0  0  0  0  0
   22.6512   17.5633   19.8091 H   0  0  0  0  0  0  0  0  0  0  0  0
   23.3254   18.7023   20.9905 H   0  0  0  0  0  0  0  0  0  0  0  0
   22.5908   17.1796   21.5403 H   0  0  0  0  0  0  0  0  0  0  0  0
   21.1334   18.6919   20.9089 C   0  0  0  0  0  0  0  0  0  0  0  0
   20.3433   17.9628   20.6834 H   0  0  0  0  0  0  0  0  0  0  0  0
   21.0678   19.4790   20.1445 H   0  0  0  0  0  0  0  0  0  0  0  0
   20.9042   19.3057   22.3102 C   0  0  0  0  0  0  0  0  0  0  0  0
   20.9416   18.5196   23.0753 H   0  0  0  0  0  0  0  0  0  0  0  0
   21.7238   19.9989   22.5410 H   0  0  0  0  0  0  0  0  0  0  0  0
   19.5708   20.0786   22.4165 C   0  0  0  0  0  0  0  0  0  0  0  0
   19.5738   20.8930   21.6875 H   0  0  0  0  0  0  0  0  0  0  0  0
   19.4847   20.5212   23.4121 H   0  0  0  0  0  0  0  0  0  0  0  0
   18.3169   19.2528   22.1704 N   0  3  0  0  0  0  0  0  0  0  0  0
   18.3578   18.8127   21.2395 H   0  0  0  0  0  0  0  0  0  0  0  0
   17.4952   19.8762   22.1335 H   0  0  0  0  0  0  0  0  0  0  0  0
   18.1222   18.2025   23.2585 C   0  0  0  0  0  0  0  0  0  0  0  0
   18.0629   18.6980   24.2299 H   0  0  0  0  0  0  0  0  0  0  0  0
   17.1960   17.6563   23.0669 H   0  0  0  0  0  0  0  0  0  0  0  0
   18.9654   17.5090   23.2471 H   0  0  0  0  0  0  0  0  0  0  0  0
  1  2  1  0  0  0  0
  1  3  1  0  0  0  0
  1  4  1  0  0  0  0
  1  5  1  0  0  0  0
  5  6  1  0  0  0  0
  5  7  1  0  0  0  0
  5  8  1  0  0  0  0
  8  9  1  0  0  0  0
  8 10  1  0  0  0  0
  8 11  1  0  0  0  0
 11 12  1  0  0  0  0
 11 13  1  0  0  0  0
 11 14  1  0  0  0  0
 14 15  1  0  0  0  0
 14 16  1  0  0  0  0
 14 17  1  0  0  0  0
 17 18  1  0  0  0  0
 17 19  1  0  0  0  0
 17 20  1  0  0  0  0
M  END
> <VConfSearch Rank>
750

> <Conf_Id>
49

> <Delta U+W>
0.268

> <U+W>
15.607

> <U>
70.298

> <W>
-54.692

> <W(PB)>
-56.576

> <W(SA)>
1.885

> <Valence>
1.245

> <Coulomb>
68.933

> <VdW>
0.120

> <VdW6>
-4.430

> <VdW12>
4.550

> <Bond>
0.148

> <Angle>
0.587

> <Pdih>
0.509

> <Idih>
0.000

> <Tether>
0.000

$$$$
VeraChem MOL file


 20 19  0  0  0  0  0  0  0  0999 V2000     
   22.4628   18.0391   20.7966 C   0  0  0  0  0  0  0  0  0  0  0  0
   22.8266   17.2684   21.4887 H   0  0  0  0  0  0  0  0  0  0  0  0
   22.2918   17.5679   19.8199 H   0  0  0  0  0  0  0  0  0  0  0  0
   23.2594   18.7845   20.6747 H   0  0  0  0  0  0  0  0  0  0  0  0
   21.1734   18.7008   21.3293 C   0  0  0  0  0  0  0  0  0  0  0  0
   20.8498   19.4852   20.6307 H   0  0  0  0  0  0  0  0  0  0  0  0
   21.3967   19.1927   22.2852 H   0  0  0  0  0  0  0  0  0  0  0  0
   20.0372   17.6692   21.5206 C   0  0  0  0  0  0  0  0  0  0  0  0
   19.9050   17.1048   20.5881 H   0  0  0  0  0  0  0  0  0  0  0  0
   20.3259   16.9363   22.2855 H   0  0  0  0  0  0  0  0  0  0  0  0
   18.6738   18.2929   21.8961 C   0  0  0  0  0  0  0  0  0  0  0  0
   17.9362   17.4875   21.9416 H   0  0  0  0  0  0  0  0  0  0  0  0
   18.3507   18.9940   21.1226 H   0  0  0  0  0  0  0  0  0  0  0  0
   18.6245   19.0072   23.2380 N   0  3  0  0  0  0  0  0  0  0  0  0
   19.2586   18.5519   23.9114 H   0  0  0  0  0  0  0  0  0  0  0  0
   17.6833   18.8983   23.6470 H   0  0  0  0  0  0  0  0  0  0  0  0
   18.9384   20.4926   23.0909 C   0  0  0  0  0  0  0  0  0  0  0  0
   18.8698   20.9706   24.0705 H   0  0  0  0  0  0  0  0  0  0  0  0
   19.9454   20.6197   22.6919 H   0  0  0  0  0  0  0  0  0  0  0  0
   18.2139   20.9457   22.4109 H   0  0  0  0  0  0  0  0  0  0  0  0
  1  2  1  0  0  0  0
  1  3  1  0  0  0  0
  1  4  1  0  0  0  0
  1  5  1  0  0  0  0
  5  6  1  0  0  0  0
  5  7  1  0  0  0  0
  5  8  1  0  0  0  0
  8  9  1  0  0  0  0
  8 10  1  0  0  0  0
  8 11  1  0  0  0  0
 11 12  1  0  0  0  0
 11 13  1  0  0  0  0
 11 14  1  0  0  0  0
 14 15  1  0  0  0  0
 14 16  1  0  0  0  0
 14 17  1  0  0  0  0
 17 18  1  0  0  0  0
 17 19  1  0  0  0  0
 17 20  1  0  0  0  0
M  END
> <VConfSearch Rank>
751

> <Conf_Id>
65

> <Delta U+W>
1.775

> <U+W>
17.114

> <U>
71.726

> <W>
-54.613

> <W(PB)>
-56.495

> <W(SA)>
1.883

> <Valence>
2.885

> <Coulomb>
68.822

> <VdW>
0.019

> <VdW6>
-4.600

> <VdW12>
4.619

> <Bond>
0.152

> <Angle>
0.862

> <Pdih>
1.871

> <Idih>
0.000

> <Tether>
0.000

$$$$
VeraChem MOL file


 20 19  0  0  0  0  0  0  0  0999 V2000     
   18.8423   18.3982   20.0330 C   0  0  0  0  0  0  0  0  0  0  0  0
   18.6272   19.3120   20.6012 H   0  0  0  0  0  0  0  0  0  0  0  0
   18.8402   18.6630   18.9677 H   0  0  0  0  0  0  0  0  0  0  0  0
   18.0222   17.6884   20.2026 H   0  0  0  0  0  0  0  0  0  0  0  0
   20.2021   17.7831   20.4362 C   0  0  0  0  0  0  0  0  0  0  0  0
   21.0050   18.5110   20.2567 H   0  0  0  0  0  0  0  0  0  0  0  0
   20.4163   16.9285   19.7790 H   0  0  0  0  0  0  0  0  0  0  0  0
   20.2381   17.3011   21.9080 C   0  0  0  0  0  0  0  0  0  0  0  0
   19.4988   16.5006   22.0437 H   0  0  0  0  0  0  0  0  0  0  0  0
   21.2172   16.8518   22.1209 H   0  0  0  0  0  0  0  0  0  0  0  0
   19.9551   18.4129   22.9398 C   0  0  0  0  0  0  0  0  0  0  0  0
   19.9680   17.9855   23.9457 H   0  0  0  0  0  0  0  0  0  0  0  0
   18.9625   18.8343   22.7638 H   0  0  0  0  0  0  0  0  0  0  0  0
   20.9580   19.5504   22.9107 N   0  3  0  0  0  0  0  0  0  0  0  0
   20.9806   19.9764   21.9724 H   0  0  0  0  0  0  0  0  0  0  0  0
   21.9104   19.1890   23.0726 H   0  0  0  0  0  0  0  0  0  0  0  0
   20.5948   20.5912   23.9611 C   0  0  0  0  0  0  0  0  0  0  0  0
   20.6078   20.1252   24.9488 H   0  0  0  0  0  0  0  0  0  0  0  0
   21.3237   21.4040   23.9281 H   0  0  0  0  0  0  0  0  0  0  0  0
   19.5972   20.9825   23.7502 H   0  0  0  0  0  0  0  0  0  0  0  0
  1  2  1  0  0  0  0
  1  3  1  0  0  0  0
  1  4  1  0  0  0  0
  1  5  1  0  0  0  0
  5  6  1  0  0  0  0
  5  7  1  0  0  0  0
  5  8  1  0  0  0  0
  8  9  1  0  0  0  0
  8 10  1  0  0  0  0
  8 11  1  0  0  0  0
 11 12  1  0  0  0  0
 11 13  1  0  0  0  0
 11 14  1  0  0  0  0
 14 15  1  0  0  0  0
 14 16  1  0  0  0  0
 14 17  1  0  0  0  0
 17 18  1  0  0  0  0
 17 19  1  0  0  0  0
 17 20  1  0  0  0  0
M  END
> <VConfSearch Rank>
752

> <Conf_Id>
23

> <Delta U+W>
0.896

> <U+W>
16.234

> <U>
70.374

> <W>
-54.140

> <W(PB)>
-56.046

> <W(SA)>
1.907

> <Valence>
1.257

> <Coulomb>
69.240

> <VdW>
-0.123

> <VdW6>
-4.336

> <VdW12>
4.213

> <Bond>
0.128

> <Angle>
0.603

> <Pdih>
0.526

> <Idih>
0.000

> <Tether>
0.000

$$$$
VeraChem MOL file


 20 19  0  0  0  0  0  0  0  0999 V2000     
   18.7272   16.8512   21.9581 C   0  0  0  0  0  0  0  0  0  0  0  0
   17.6671   17.1335   21.9192 H   0  0  0  0  0  0  0  0  0  0  0  0
   18.7845   15.7570   21.8924 H   0  0  0  0  0  0  0  0  0  0  0  0
   19.1239   17.1447   22.9382 H   0  0  0  0  0  0  0  0  0  0  0  0
   19.5196   17.5059   20.8032 C   0  0  0  0  0  0  0  0  0  0  0  0
   19.1483   17.1113   19.8470 H   0  0  0  0  0  0  0  0  0  0  0  0
   20.5752   17.2082   20.8636 H   0  0  0  0  0  0  0  0  0  0  0  0
   19.4010   19.0505   20.7846 C   0  0  0  0  0  0  0  0  0  0  0  0
   19.9611   19.4490   19.9283 H   0  0  0  0  0  0  0  0  0  0  0  0
   18.3519   19.3299   20.6200 H   0  0  0  0  0  0  0  0  0  0  0  0
   19.8957   19.7337   22.0766 C   0  0  0  0  0  0  0  0  0  0  0  0
   19.3118   19.3768   22.9284 H   0  0  0  0  0  0  0  0  0  0  0  0
   19.7491   20.8137   21.9943 H   0  0  0  0  0  0  0  0  0  0  0  0
   21.3619   19.4905   22.3798 N   0  3  0  0  0  0  0  0  0  0  0  0
   21.9460   19.8152   21.5942 H   0  0  0  0  0  0  0  0  0  0  0  0
   21.5425   18.4787   22.4579 H   0  0  0  0  0  0  0  0  0  0  0  0
   21.7521   20.2036   23.6673 C   0  0  0  0  0  0  0  0  0  0  0  0
   21.1439   19.8204   24.4896 H   0  0  0  0  0  0  0  0  0  0  0  0
   22.8087   20.0191   23.8737 H   0  0  0  0  0  0  0  0  0  0  0  0
   21.5819   21.2760   23.5504 H   0  0  0  0  0  0  0  0  0  0  0  0
  1  2  1  0  0  0  0
  1  3  1  0  0  0  0
  1  4  1  0  0  0  0
  1  5  1  0  0  0  0
  5  6  1  0  0  0  0
  5  7  1  0  0  0  0
  5  8  1  0  0  0  0
  8  9  1  0  0  0  0
  8 10  1  0  0  0  0
  8 11  1  0  0  0  0
 11 12  1  0  0  0  0
 11 13  1  0  0  0  0
 11 14  1  0  0  0  0
 14 15  1  0  0  0  0
 14 16  1  0  0  0  0
 14 17  1  0  0  0  0
 17 18  1  0  0  0  0
 17 19  1  0  0  0  0
 17 20  1  0  0  0  0
M  END
> <VConfSearch Rank>
753

> <Conf_Id>
24

> <Delta U+W>
0.792

> <U+W>
16.130

> <U>
70.374

> <W>
-54.243

> <W(PB)>
-56.130

> <W(SA)>
1.887

> <Valence>
1.257

> <Coulomb>
69.240

> <VdW>
-0.123

> <VdW6>
-4.336

> <VdW12>
4.213

> <Bond>
0.128

> <Angle>
0.603

> <Pdih>
0.526

> <Idih>
0.000

> <Tether>
0.000

$$$$
VeraChem MOL file


 20 19  0  0  0  0  0  0  0  0999 V2000     
   20.7102   17.9832   20.1505 C   0  0  0  0  0  0  0  0  0  0  0  0
   20.9725   17.8830   19.0892 H   0  0  0  0  0  0  0  0  0  0  0  0
   21.2330   18.8700   20.5278 H   0  0  0  0  0  0  0  0  0  0  0  0
   21.0923   17.0958   20.6719 H   0  0  0  0  0  0  0  0  0  0  0  0
   19.1786   18.1147   20.3127 C   0  0  0  0  0  0  0  0  0  0  0  0
   18.6950   17.3142   19.7353 H   0  0  0  0  0  0  0  0  0  0  0  0
   18.8431   19.0592   19.8618 H   0  0  0  0  0  0  0  0  0  0  0  0
   18.6786   18.0305   21.7776 C   0  0  0  0  0  0  0  0  0  0  0  0
   17.5811   18.0656   21.7625 H   0  0  0  0  0  0  0  0  0  0  0  0
   18.9427   17.0593   22.2164 H   0  0  0  0  0  0  0  0  0  0  0  0
   19.1743   19.1740   22.6881 C   0  0  0  0  0  0  0  0  0  0  0  0
   18.5093   19.2570   23.5514 H   0  0  0  0  0  0  0  0  0  0  0  0
   19.1417   20.1206   22.1430 H   0  0  0  0  0  0  0  0  0  0  0  0
   20.5780   18.9792   23.2290 N   0  3  0  0  0  0  0  0  0  0  0  0
   21.2394   18.8420   22.4515 H   0  0  0  0  0  0  0  0  0  0  0  0
   20.6261   18.1124   23.7862 H   0  0  0  0  0  0  0  0  0  0  0  0
   20.9828   20.1803   24.0727 C   0  0  0  0  0  0  0  0  0  0  0  0
   20.9561   21.0800   23.4542 H   0  0  0  0  0  0  0  0  0  0  0  0
   20.2860   20.2848   24.9072 H   0  0  0  0  0  0  0  0  0  0  0  0
   21.9943   20.0260   24.4550 H   0  0  0  0  0  0  0  0  0  0  0  0
  1  2  1  0  0  0  0
  1  3  1  0  0  0  0
  1  4  1  0  0  0  0
  1  5  1  0  0  0  0
  5  6  1  0  0  0  0
  5  7  1  0  0  0  0
  5  8  1  0  0  0  0
  8  9  1  0  0  0  0
  8 10  1  0  0  0  0
  8 11  1  0  0  0  0
 11 12  1  0  0  0  0
 11 13  1  0  0  0  0
 11 14  1  0  0  0  0
 14 15  1  0  0  0  0
 14 16  1  0  0  0  0
 14 17  1  0  0  0  0
 17 18  1  0  0  0  0
 17 19  1  0  0  0  0
 17 20  1  0  0  0  0
M  END
> <VConfSearch Rank>
754

> <Conf_Id>
26

> <Delta U+W>
2.888

> <U+W>
18.226

> <U>
72.042

> <W>
-53.816

> <W(PB)>
-55.689

> <W(SA)>
1.873

> <Valence>
2.428

> <Coulomb>
69.829

> <VdW>
-0.215

> <VdW6>
-4.563

> <VdW12>
4.348

> <Bond>
0.137

> <Angle>
0.936

> <Pdih>
1.356

> <Idih>
0.000

> <Tether>
0.000

$$$$
VeraChem MOL file


 20 19  0  0  0  0  0  0  0  0999 V2000     
   20.5452   17.0117   21.0477 C   0  0  0  0  0  0  0  0  0  0  0  0
   20.4662   15.9879   20.6593 H   0  0  0  0  0  0  0  0  0  0  0  0
   21.5560   17.3754   20.8217 H   0  0  0  0  0  0  0  0  0  0  0  0
   20.4236   16.9522   22.1357 H   0  0  0  0  0  0  0  0  0  0  0  0
   19.4665   17.9125   20.4040 C   0  0  0  0  0  0  0  0  0  0  0  0
   18.4706   17.5778   20.7269 H   0  0  0  0  0  0  0  0  0  0  0  0
   19.4958   17.7706   19.3145 H   0  0  0  0  0  0  0  0  0  0  0  0
   19.6301   19.4245   20.7040 C   0  0  0  0  0  0  0  0  0  0  0  0
   20.5916   19.7888   20.3186 H   0  0  0  0  0  0  0  0  0  0  0  0
   18.8566   19.9659   20.1434 H   0  0  0  0  0  0  0  0  0  0  0  0
   19.4819   19.7995   22.1939 C   0  0  0  0  0  0  0  0  0  0  0  0
   18.6617   19.2302   22.6381 H   0  0  0  0  0  0  0  0  0  0  0  0
   19.2384   20.8621   22.2722 H   0  0  0  0  0  0  0  0  0  0  0  0
   20.7307   19.5703   23.0239 N   0  3  0  0  0  0  0  0  0  0  0  0
   21.5119   20.1317   22.6515 H   0  0  0  0  0  0  0  0  0  0  0  0
   21.0342   18.5897   22.9406 H   0  0  0  0  0  0  0  0  0  0  0  0
   20.4620   19.9274   24.4794 C   0  0  0  0  0  0  0  0  0  0  0  0
   19.6546   19.2987   24.8611 H   0  0  0  0  0  0  0  0  0  0  0  0
   21.3688   19.7577   25.0641 H   0  0  0  0  0  0  0  0  0  0  0  0
   20.1737   20.9788   24.5444 H   0  0  0  0  0  0  0  0  0  0  0  0
  1  2  1  0  0  0  0
  1  3  1  0  0  0  0
  1  4  1  0  0  0  0
  1  5  1  0  0  0  0
  5  6  1  0  0  0  0
  5  7  1  0  0  0  0
  5  8  1  0  0  0  0
  8  9  1  0  0  0  0
  8 10  1  0  0  0  0
  8 11  1  0  0  0  0
 11 12  1  0  0  0  0
 11 13  1  0  0  0  0
 11 14  1  0  0  0  0
 14 15  1  0  0  0  0
 14 16  1  0  0  0  0
 14 17  1  0  0  0  0
 17 18  1  0  0  0  0
 17 19  1  0  0  0  0
 17 20  1  0  0  0  0
M  END
> <VConfSearch Rank>
755

> <Conf_Id>
5

> <Delta U+W>
2.950

> <U+W>
18.289

> <U>
72.042

> <W>
-53.753

> <W(PB)>
-55.644

> <W(SA)>
1.891

> <Valence>
2.428

> <Coulomb>
69.829

> <VdW>
-0.215

> <VdW6>
-4.563

> <VdW12>
4.348

> <Bond>
0.137

> <Angle>
0.936

> <Pdih>
1.356

> <Idih>
0.000

> <Tether>
0.000

$$$$
VeraChem MOL file


 20 19  0  0  0  0  0  0  0  0999 V2000     
   20.7055   16.7191   23.0183 C   0  0  0  0  0  0  0  0  0  0  0  0
   21.0519   15.9824   22.2819 H   0  0  0  0  0  0  0  0  0  0  0  0
   21.5252   17.4227   23.2101 H   0  0  0  0  0  0  0  0  0  0  0  0
   20.5020   16.1847   23.9553 H   0  0  0  0  0  0  0  0  0  0  0  0
   19.4345   17.4457   22.5215 C   0  0  0  0  0  0  0  0  0  0  0  0
   19.1050   18.1738   23.2752 H   0  0  0  0  0  0  0  0  0  0  0  0
   18.6186   16.7152   22.4293 H   0  0  0  0  0  0  0  0  0  0  0  0
   19.6316   18.1481   21.1551 C   0  0  0  0  0  0  0  0  0  0  0  0
   19.8672   17.3941   20.3925 H   0  0  0  0  0  0  0  0  0  0  0  0
   18.6853   18.6076   20.8419 H   0  0  0  0  0  0  0  0  0  0  0  0
   20.7492   19.2159   21.1523 C   0  0  0  0  0  0  0  0  0  0  0  0
   20.8235   19.6645   20.1585 H   0  0  0  0  0  0  0  0  0  0  0  0
   21.7040   18.7319   21.3720 H   0  0  0  0  0  0  0  0  0  0  0  0
   20.5694   20.3441   22.1564 N   0  3  0  0  0  0  0  0  0  0  0  0
   21.4221   20.9250   22.1805 H   0  0  0  0  0  0  0  0  0  0  0  0
   20.4817   19.9585   23.1081 H   0  0  0  0  0  0  0  0  0  0  0  0
   19.3623   21.2079   21.8082 C   0  0  0  0  0  0  0  0  0  0  0  0
   18.4578   20.5976   21.8459 H   0  0  0  0  0  0  0  0  0  0  0  0
   19.2850   22.0231   22.5310 H   0  0  0  0  0  0  0  0  0  0  0  0
   19.4913   21.6175   20.8041 H   0  0  0  0  0  0  0  0  0  0  0  0
  1  2  1  0  0  0  0
  1  3  1  0  0  0  0
  1  4  1  0  0  0  0
  1  5  1  0  0  0  0
  5  6  1  0  0  0  0
  5  7  1  0  0  0  0
  5  8  1  0  0  0  0
  8  9  1  0  0  0  0
  8 10  1  0  0  0  0
  8 11  1  0  0  0  0
 11 12  1  0  0  0  0
 11 13  1  0  0  0  0
 11 14  1  0  0  0  0
 14 15  1  0  0  0  0
 14 16  1  0  0  0  0
 14 17  1  0  0  0  0
 17 18  1  0  0  0  0
 17 19  1  0  0  0  0
 17 20  1  0  0  0  0
M  END
> <VConfSearch Rank>
756

> <Conf_Id>
52

> <Delta U+W>
0.784

> <U+W>
16.122

> <U>
70.777

> <W>
-54.655

> <W(PB)>
-56.491

> <W(SA)>
1.836

> <Valence>
1.529

> <Coulomb>
69.166

> <VdW>
0.082

> <VdW6>
-5.166

> <VdW12>
5.248

> <Bond>
0.171

> <Angle>
0.752

> <Pdih>
0.605

> <Idih>
0.000

> <Tether>
0.000

$$$$
VeraChem MOL file


 20 19  0  0  0  0  0  0  0  0999 V2000     
   18.8169   20.3404   21.0884 C   0  0  0  0  0  0  0  0  0  0  0  0
   18.0572   21.0456   20.7269 H   0  0  0  0  0  0  0  0  0  0  0  0
   19.5350   20.9193   21.6804 H   0  0  0  0  0  0  0  0  0  0  0  0
   19.3314   19.9270   20.2111 H   0  0  0  0  0  0  0  0  0  0  0  0
   18.1548   19.2249   21.9290 C   0  0  0  0  0  0  0  0  0  0  0  0
   17.2910   18.8350   21.3723 H   0  0  0  0  0  0  0  0  0  0  0  0
   17.7493   19.6548   22.8557 H   0  0  0  0  0  0  0  0  0  0  0  0
   19.0903   18.0366   22.2689 C   0  0  0  0  0  0  0  0  0  0  0  0
   18.4904   17.2723   22.7804 H   0  0  0  0  0  0  0  0  0  0  0  0
   19.4518   17.5624   21.3478 H   0  0  0  0  0  0  0  0  0  0  0  0
   20.2760   18.3957   23.1944 C   0  0  0  0  0  0  0  0  0  0  0  0
   20.6709   17.4812   23.6441 H   0  0  0  0  0  0  0  0  0  0  0  0
   19.9156   19.0359   24.0035 H   0  0  0  0  0  0  0  0  0  0  0  0
   21.4455   19.1017   22.5262 N   0  3  0  0  0  0  0  0  0  0  0  0
   22.0882   19.4640   23.2479 H   0  0  0  0  0  0  0  0  0  0  0  0
   21.1126   19.9330   22.0184 H   0  0  0  0  0  0  0  0  0  0  0  0
   22.1969   18.1619   21.5898 C   0  0  0  0  0  0  0  0  0  0  0  0
   22.5512   17.2981   22.1562 H   0  0  0  0  0  0  0  0  0  0  0  0
   21.5283   17.8327   20.7922 H   0  0  0  0  0  0  0  0  0  0  0  0
   23.0482   18.6927   21.1580 H   0  0  0  0  0  0  0  0  0  0  0  0
  1  2  1  0  0  0  0
  1  3  1  0  0  0  0
  1  4  1  0  0  0  0
  1  5  1  0  0  0  0
  5  6  1  0  0  0  0
  5  7  1  0  0  0  0
  5  8  1  0  0  0  0
  8  9  1  0  0  0  0
  8 10  1  0  0  0  0
  8 11  1  0  0  0  0
 11 12  1  0  0  0  0
 11 13  1  0  0  0  0
 11 14  1  0  0  0  0
 14 15  1  0  0  0  0
 14 16  1  0  0  0  0
 14 17  1  0  0  0  0
 17 18  1  0  0  0  0
 17 19  1  0  0  0  0
 17 20  1  0  0  0  0
M  END
> <VConfSearch Rank>
757

> <Conf_Id>
55

> <Delta U+W>
2.745

> <U+W>
18.083

> <U>
72.490

> <W>
-54.407

> <W(PB)>
-56.269

> <W(SA)>
1.861

> <Valence>
2.738

> <Coulomb>
69.795

> <VdW>
-0.043

> <VdW6>
-5.333

> <VdW12>
5.290

> <Bond>
0.182

> <Angle>
1.135

> <Pdih>
1.422

> <Idih>
0.000

> <Tether>
0.000

$$$$
VeraChem MOL file


 20 19  0  0  0  0  0  0  0  0999 V2000     
   19.9692   20.5846   23.1840 C   0  0  0  0  0  0  0  0  0  0  0  0
   20.0820   21.5690   23.6567 H   0  0  0  0  0  0  0  0  0  0  0  0
   18.9499   20.2320   23.3888 H   0  0  0  0  0  0  0  0  0  0  0  0
   20.6822   19.9111   23.6730 H   0  0  0  0  0  0  0  0  0  0  0  0
   20.2337   20.6872   21.6645 C   0  0  0  0  0  0  0  0  0  0  0  0
   21.2916   20.9295   21.4912 H   0  0  0  0  0  0  0  0  0  0  0  0
   19.6592   21.5358   21.2671 H   0  0  0  0  0  0  0  0  0  0  0  0
   19.8483   19.4201   20.8591 C   0  0  0  0  0  0  0  0  0  0  0  0
   18.7788   19.2055   20.9776 H   0  0  0  0  0  0  0  0  0  0  0  0
   19.9899   19.6433   19.7934 H   0  0  0  0  0  0  0  0  0  0  0  0
   20.6919   18.1667   21.1893 C   0  0  0  0  0  0  0  0  0  0  0  0
   21.7445   18.4530   21.2567 H   0  0  0  0  0  0  0  0  0  0  0  0
   20.5950   17.4434   20.3757 H   0  0  0  0  0  0  0  0  0  0  0  0
   20.3225   17.4411   22.4736 N   0  3  0  0  0  0  0  0  0  0  0  0
   20.3218   18.1006   23.2641 H   0  0  0  0  0  0  0  0  0  0  0  0
   21.0518   16.7469   22.7002 H   0  0  0  0  0  0  0  0  0  0  0  0
   18.9703   16.7479   22.3478 C   0  0  0  0  0  0  0  0  0  0  0  0
   18.1941   17.4949   22.1717 H   0  0  0  0  0  0  0  0  0  0  0  0
   19.0036   16.0445   21.5131 H   0  0  0  0  0  0  0  0  0  0  0  0
   18.7569   16.2095   23.2738 H   0  0  0  0  0  0  0  0  0  0  0  0
  1  2  1  0  0  0  0
  1  3  1  0  0  0  0
  1  4  1  0  0  0  0
  1  5  1  0  0  0  0
  5  6  1  0  0  0  0
  5  7  1  0  0  0  0
  5  8  1  0  0  0  0
  8  9  1  0  0  0  0
  8 10  1  0  0  0  0
  8 11  1  0  0  0  0
 11 12  1  0  0  0  0
 11 13  1  0  0  0  0
 11 14  1  0  0  0  0
 14 15  1  0  0  0  0
 14 16  1  0  0  0  0
 14 17  1  0  0  0  0
 17 18  1  0  0  0  0
 17 19  1  0  0  0  0
 17 20  1  0  0  0  0
M  END
> <VConfSearch Rank>
758

> <Conf_Id>
76

> <Delta U+W>
2.799

> <U+W>
18.137

> <U>
72.490

> <W>
-54.353

> <W(PB)>
-56.201

> <W(SA)>
1.848

> <Valence>
2.738

> <Coulomb>
69.795

> <VdW>
-0.043

> <VdW6>
-5.334

> <VdW12>
5.290

> <Bond>
0.182

> <Angle>
1.135

> <Pdih>
1.421

> <Idih>
0.000

> <Tether>
0.000

$$$$
VeraChem MOL file


 20 19  0  0  0  0  0  0  0  0999 V2000     
   21.3911   17.3013   21.0769 C   0  0  0  0  0  0  0  0  0  0  0  0
   21.7972   17.8033   21.9636 H   0  0  0  0  0  0  0  0  0  0  0  0
   21.2187   16.2474   21.3309 H   0  0  0  0  0  0  0  0  0  0  0  0
   22.1607   17.3352   20.2951 H   0  0  0  0  0  0  0  0  0  0  0  0
   20.0884   17.9735   20.5854 C   0  0  0  0  0  0  0  0  0  0  0  0
   19.7637   17.4806   19.6583 H   0  0  0  0  0  0  0  0  0  0  0  0
   20.2820   19.0193   20.3142 H   0  0  0  0  0  0  0  0  0  0  0  0
   18.9370   17.8940   21.6176 C   0  0  0  0  0  0  0  0  0  0  0  0
   18.0339   18.3492   21.1903 H   0  0  0  0  0  0  0  0  0  0  0  0
   18.6899   16.8377   21.7868 H   0  0  0  0  0  0  0  0  0  0  0  0
   19.2309   18.5462   22.9891 C   0  0  0  0  0  0  0  0  0  0  0  0
   20.1321   18.1171   23.4333 H   0  0  0  0  0  0  0  0  0  0  0  0
   18.3944   18.3163   23.6540 H   0  0  0  0  0  0  0  0  0  0  0  0
   19.3716   20.0612   22.9803 N   0  3  0  0  0  0  0  0  0  0  0  0
   19.0420   20.4376   23.8828 H   0  0  0  0  0  0  0  0  0  0  0  0
   18.7422   20.4761   22.2772 H   0  0  0  0  0  0  0  0  0  0  0  0
   20.8169   20.4927   22.7566 C   0  0  0  0  0  0  0  0  0  0  0  0
   20.8727   21.5830   22.7884 H   0  0  0  0  0  0  0  0  0  0  0  0
   21.4427   20.0707   23.5458 H   0  0  0  0  0  0  0  0  0  0  0  0
   21.1617   20.1377   21.7849 H   0  0  0  0  0  0  0  0  0  0  0  0
  1  2  1  0  0  0  0
  1  3  1  0  0  0  0
  1  4  1  0  0  0  0
  1  5  1  0  0  0  0
  5  6  1  0  0  0  0
  5  7  1  0  0  0  0
  5  8  1  0  0  0  0
  8  9  1  0  0  0  0
  8 10  1  0  0  0  0
  8 11  1  0  0  0  0
 11 12  1  0  0  0  0
 11 13  1  0  0  0  0
 11 14  1  0  0  0  0
 14 15  1  0  0  0  0
 14 16  1  0  0  0  0
 14 17  1  0  0  0  0
 17 18  1  0  0  0  0
 17 19  1  0  0  0  0
 17 20  1  0  0  0  0
M  END
> <VConfSearch Rank>
759

> <Conf_Id>
60

> <Delta U+W>
1.788

> <U+W>
17.127

> <U>
72.122

> <W>
-54.995

> <W(PB)>
-56.810

> <W(SA)>
1.815

> <Valence>
3.197

> <Coulomb>
69.115

> <VdW>
-0.190

> <VdW6>
-5.585

> <VdW12>
5.395

> <Bond>
0.177

> <Angle>
1.207

> <Pdih>
1.813

> <Idih>
0.000

> <Tether>
0.000

$$$$
VeraChem MOL file


 20 19  0  0  0  0  0  0  0  0999 V2000     
   18.1312   19.2368   21.4178 C   0  0  0  0  0  0  0  0  0  0  0  0
   17.3089   19.8327   21.8343 H   0  0  0  0  0  0  0  0  0  0  0  0
   17.8315   18.9090   20.4139 H   0  0  0  0  0  0  0  0  0  0  0  0
   18.2464   18.3457   22.0468 H   0  0  0  0  0  0  0  0  0  0  0  0
   19.4322   20.0706   21.3635 C   0  0  0  0  0  0  0  0  0  0  0  0
   19.7060   20.4095   22.3709 H   0  0  0  0  0  0  0  0  0  0  0  0
   19.2429   20.9844   20.7829 H   0  0  0  0  0  0  0  0  0  0  0  0
   20.6150   19.3092   20.7164 C   0  0  0  0  0  0  0  0  0  0  0  0
   20.3563   19.0796   19.6743 H   0  0  0  0  0  0  0  0  0  0  0  0
   21.4906   19.9699   20.6701 H   0  0  0  0  0  0  0  0  0  0  0  0
   21.0148   17.9889   21.4162 C   0  0  0  0  0  0  0  0  0  0  0  0
   21.7707   17.4988   20.7972 H   0  0  0  0  0  0  0  0  0  0  0  0
   20.1575   17.3152   21.4841 H   0  0  0  0  0  0  0  0  0  0  0  0
   21.6227   18.1375   22.8031 N   0  3  0  0  0  0  0  0  0  0  0  0
   22.1812   19.0021   22.8595 H   0  0  0  0  0  0  0  0  0  0  0  0
   22.3009   17.3757   22.9595 H   0  0  0  0  0  0  0  0  0  0  0  0
   20.5582   18.0909   23.8940 C   0  0  0  0  0  0  0  0  0  0  0  0
   20.0203   17.1427   23.8288 H   0  0  0  0  0  0  0  0  0  0  0  0
   21.0433   18.1706   24.8693 H   0  0  0  0  0  0  0  0  0  0  0  0
   19.8607   18.9189   23.7643 H   0  0  0  0  0  0  0  0  0  0  0  0
  1  2  1  0  0  0  0
  1  3  1  0  0  0  0
  1  4  1  0  0  0  0
  1  5  1  0  0  0  0
  5  6  1  0  0  0  0
  5  7  1  0  0  0  0
  5  8  1  0  0  0  0
  8  9  1  0  0  0  0
  8 10  1  0  0  0  0
  8 11  1  0  0  0  0
 11 12  1  0  0  0  0
 11 13  1  0  0  0  0
 11 14  1  0  0  0  0
 14 15  1  0  0  0  0
 14 16  1  0  0  0  0
 14 17  1  0  0  0  0
 17 18  1  0  0  0  0
 17 19  1  0  0  0  0
 17 20  1  0  0  0  0
M  END
> <VConfSearch Rank>
760

> <Conf_Id>
54

> <Delta U+W>
1.880

> <U+W>
17.218

> <U>
72.122

> <W>
-54.903

> <W(PB)>
-56.724

> <W(SA)>
1.821

> <Valence>
3.197

> <Coulomb>
69.115

> <VdW>
-0.190

> <VdW6>
-5.585

> <VdW12>
5.395

> <Bond>
0.177

> <Angle>
1.207

> <Pdih>
1.813

> <Idih>
0.000

> <Tether>
0.000

$$$$
VeraChem MOL file


 20 19  0  0  0  0  0  0  0  0999 V2000     
   21.6489   21.4100   23.0270 C   0  0  0  0  0  0  0  0  0  0  0  0
   20.8328   22.1332   22.9008 H   0  0  0  0  0  0  0  0  0  0  0  0
   22.2119   21.6921   23.9261 H   0  0  0  0  0  0  0  0  0  0  0  0
   22.3232   21.5022   22.1656 H   0  0  0  0  0  0  0  0  0  0  0  0
   21.1027   19.9713   23.1543 C   0  0  0  0  0  0  0  0  0  0  0  0
   20.4602   19.9021   24.0436 H   0  0  0  0  0  0  0  0  0  0  0  0
   21.9389   19.2760   23.3141 H   0  0  0  0  0  0  0  0  0  0  0  0
   20.3049   19.5467   21.9017 C   0  0  0  0  0  0  0  0  0  0  0  0
   19.4676   20.2397   21.7448 H   0  0  0  0  0  0  0  0  0  0  0  0
   20.9483   19.6129   21.0142 H   0  0  0  0  0  0  0  0  0  0  0  0
   19.7637   18.1112   22.0364 C   0  0  0  0  0  0  0  0  0  0  0  0
   19.1104   18.0456   22.9101 H   0  0  0  0  0  0  0  0  0  0  0  0
   20.5959   17.4168   22.1770 H   0  0  0  0  0  0  0  0  0  0  0  0
   18.9723   17.6503   20.8281 N   0  3  0  0  0  0  0  0  0  0  0  0
   19.5545   17.7052   19.9783 H   0  0  0  0  0  0  0  0  0  0  0  0
   18.1792   18.2874   20.6571 H   0  0  0  0  0  0  0  0  0  0  0  0
   18.4763   16.2268   21.0440 C   0  0  0  0  0  0  0  0  0  0  0  0
   17.8351   16.1992   21.9276 H   0  0  0  0  0  0  0  0  0  0  0  0
   17.9085   15.9078   20.1671 H   0  0  0  0  0  0  0  0  0  0  0  0
   19.3331   15.5651   21.1882 H   0  0  0  0  0  0  0  0  0  0  0  0
  1  2  1  0  0  0  0
  1  3  1  0  0  0  0
  1  4  1  0  0  0  0
  1  5  1  0  0  0  0
  5  6  1  0  0  0  0
  5  7  1  0  0  0  0
  5  8  1  0  0  0  0
  8  9  1  0  0  0  0
  8 10  1  0  0  0  0
  8 11  1  0  0  0  0
 11 12  1  0  0  0  0
 11 13  1  0  0  0  0
 11 14  1  0  0  0  0
 14 15  1  0  0  0  0
 14 16  1  0  0  0  0
 14 17  1  0  0  0  0
 17 18  1  0  0  0  0
 17 19  1  0  0  0  0
 17 20  1  0  0  0  0
M  END
> <VConfSearch Rank>
761

> <Conf_Id>
67

> <Delta U+W>
0.000

> <U+W>
15.338

> <U>
69.277

> <W>
-53.939

> <W(PB)>
-55.889

> <W(SA)>
1.950

> <Valence>
0.846

> <Coulomb>
68.557

> <VdW>
-0.127

> <VdW6>
-3.008

> <VdW12>
2.882

> <Bond>
0.088

> <Angle>
0.332

> <Pdih>
0.426

> <Idih>
0.000

> <Tether>
0.000

$$$$
VeraChem MOL file


 20 19  0  0  0  0  0  0  0  0999 V2000     
   19.2283   16.5667   20.2708 C   0  0  0  0  0  0  0  0  0  0  0  0
   19.9056   15.9004   20.8209 H   0  0  0  0  0  0  0  0  0  0  0  0
   18.3429   15.9843   19.9848 H   0  0  0  0  0  0  0  0  0  0  0  0
   19.7344   16.8831   19.3494 H   0  0  0  0  0  0  0  0  0  0  0  0
   18.8260   17.7845   21.1307 C   0  0  0  0  0  0  0  0  0  0  0  0
   18.2923   17.4382   22.0271 H   0  0  0  0  0  0  0  0  0  0  0  0
   18.1219   18.4128   20.5670 H   0  0  0  0  0  0  0  0  0  0  0  0
   20.0536   18.6239   21.5482 C   0  0  0  0  0  0  0  0  0  0  0  0
   20.7536   17.9926   22.1104 H   0  0  0  0  0  0  0  0  0  0  0  0
   20.5837   18.9731   20.6523 H   0  0  0  0  0  0  0  0  0  0  0  0
   19.6414   19.8385   22.4054 C   0  0  0  0  0  0  0  0  0  0  0  0
   19.1558   19.4975   23.3231 H   0  0  0  0  0  0  0  0  0  0  0  0
   18.9208   20.4398   21.8451 H   0  0  0  0  0  0  0  0  0  0  0  0
   20.7886   20.7563   22.7957 N   0  3  0  0  0  0  0  0  0  0  0  0
   20.4117   21.6186   23.2195 H   0  0  0  0  0  0  0  0  0  0  0  0
   21.2937   21.0747   21.9547 H   0  0  0  0  0  0  0  0  0  0  0  0
   21.7386   20.0722   23.7729 C   0  0  0  0  0  0  0  0  0  0  0  0
   22.1842   19.1981   23.2941 H   0  0  0  0  0  0  0  0  0  0  0  0
   22.5253   20.7743   24.0577 H   0  0  0  0  0  0  0  0  0  0  0  0
   21.1814   19.7647   24.6604 H   0  0  0  0  0  0  0  0  0  0  0  0
  1  2  1  0  0  0  0
  1  3  1  0  0  0  0
  1  4  1  0  0  0  0
  1  5  1  0  0  0  0
  5  6  1  0  0  0  0
  5  7  1  0  0  0  0
  5  8  1  0  0  0  0
  8  9  1  0  0  0  0
  8 10  1  0  0  0  0
  8 11  1  0  0  0  0
 11 12  1  0  0  0  0
 11 13  1  0  0  0  0
 11 14  1  0  0  0  0
 14 15  1  0  0  0  0
 14 16  1  0  0  0  0
 14 17  1  0  0  0  0
 17 18  1  0  0  0  0
 17 19  1  0  0  0  0
 17 20  1  0  0  0  0
M  END
> <VConfSearch Rank>
762

> <Conf_Id>
37

> <Delta U+W>
-0.021

> <U+W>
15.318

> <U>
69.657

> <W>
-54.340

> <W(PB)>
-56.238

> <W(SA)>
1.899

> <Valence>
1.137

> <Coulomb>
68.383

> <VdW>
0.138

> <VdW6>
-3.703

> <VdW12>
3.841

> <Bond>
0.125

> <Angle>
0.468

> <Pdih>
0.543

> <Idih>
0.000

> <Tether>
0.000

$$$$
VeraChem MOL file


 20 19  0  0  0  0  0  0  0  0999 V2000     
   21.9885   17.0177   20.6022 C   0  0  0  0  0  0  0  0  0  0  0  0
   23.0687   16.8545   20.4950 H   0  0  0  0  0  0  0  0  0  0  0  0
   21.5635   16.1373   21.1016 H   0  0  0  0  0  0  0  0  0  0  0  0
   21.5565   17.0806   19.5949 H   0  0  0  0  0  0  0  0  0  0  0  0
   21.7084   18.3042   21.4088 C   0  0  0  0  0  0  0  0  0  0  0  0
   22.1753   19.1612   20.9030 H   0  0  0  0  0  0  0  0  0  0  0  0
   22.1815   18.2253   22.3979 H   0  0  0  0  0  0  0  0  0  0  0  0
   20.1943   18.5598   21.5755 C   0  0  0  0  0  0  0  0  0  0  0  0
   19.7232   18.6428   20.5872 H   0  0  0  0  0  0  0  0  0  0  0  0
   19.7325   17.7018   22.0809 H   0  0  0  0  0  0  0  0  0  0  0  0
   19.9248   19.8476   22.3811 C   0  0  0  0  0  0  0  0  0  0  0  0
   20.4169   20.6869   21.8830 H   0  0  0  0  0  0  0  0  0  0  0  0
   20.3491   19.7537   23.3839 H   0  0  0  0  0  0  0  0  0  0  0  0
   18.4550   20.2074   22.5262 N   0  3  0  0  0  0  0  0  0  0  0  0
   18.0099   20.2737   21.5982 H   0  0  0  0  0  0  0  0  0  0  0  0
   18.3697   21.1543   22.9280 H   0  0  0  0  0  0  0  0  0  0  0  0
   17.7224   19.2029   23.4093 C   0  0  0  0  0  0  0  0  0  0  0  0
   18.2023   19.1691   24.3897 H   0  0  0  0  0  0  0  0  0  0  0  0
   16.6819   19.5161   23.5198 H   0  0  0  0  0  0  0  0  0  0  0  0
   17.7600   18.2159   22.9442 H   0  0  0  0  0  0  0  0  0  0  0  0
  1  2  1  0  0  0  0
  1  3  1  0  0  0  0
  1  4  1  0  0  0  0
  1  5  1  0  0  0  0
  5  6  1  0  0  0  0
  5  7  1  0  0  0  0
  5  8  1  0  0  0  0
  8  9  1  0  0  0  0
  8 10  1  0  0  0  0
  8 11  1  0  0  0  0
 11 12  1  0  0  0  0
 11 13  1  0  0  0  0
 11 14  1  0  0  0  0
 14 15  1  0  0  0  0
 14 16  1  0  0  0  0
 14 17  1  0  0  0  0
 17 18  1  0  0  0  0
 17 19  1  0  0  0  0
 17 20  1  0  0  0  0
M  END
> <VConfSearch Rank>
763

> <Conf_Id>
2

> <Delta U+W>
0.069

> <U+W>
15.407

> <U>
69.657

> <W>
-54.250

> <W(PB)>
-56.176

> <W(SA)>
1.926

> <Valence>
1.137

> <Coulomb>
68.383

> <VdW>
0.138

> <VdW6>
-3.703

> <VdW12>
3.841

> <Bond>
0.125

> <Angle>
0.468

> <Pdih>
0.543

> <Idih>
0.000

> <Tether>
0.000

$$$$
VeraChem MOL file


 20 19  0  0  0  0  0  0  0  0999 V2000     
   18.2682   19.2070   20.0646 C   0  0  0  0  0  0  0  0  0  0  0  0
   19.1682   19.8233   19.9451 H   0  0  0  0  0  0  0  0  0  0  0  0
   18.4304   18.2573   19.5384 H   0  0  0  0  0  0  0  0  0  0  0  0
   17.4416   19.7290   19.5654 H   0  0  0  0  0  0  0  0  0  0  0  0
   17.9366   18.9677   21.5556 C   0  0  0  0  0  0  0  0  0  0  0  0
   16.9816   18.4286   21.6284 H   0  0  0  0  0  0  0  0  0  0  0  0
   17.7853   19.9328   22.0595 H   0  0  0  0  0  0  0  0  0  0  0  0
   19.0277   18.1589   22.2955 C   0  0  0  0  0  0  0  0  0  0  0  0
   18.6916   17.9613   23.3221 H   0  0  0  0  0  0  0  0  0  0  0  0
   19.1527   17.1811   21.8116 H   0  0  0  0  0  0  0  0  0  0  0  0
   20.3828   18.8917   22.3396 C   0  0  0  0  0  0  0  0  0  0  0  0
   20.2587   19.8637   22.8234 H   0  0  0  0  0  0  0  0  0  0  0  0
   20.7450   19.0578   21.3223 H   0  0  0  0  0  0  0  0  0  0  0  0
   21.4548   18.1297   23.0936 N   0  3  0  0  0  0  0  0  0  0  0  0
   21.5948   17.1991   22.6711 H   0  0  0  0  0  0  0  0  0  0  0  0
   21.1485   17.9466   24.0615 H   0  0  0  0  0  0  0  0  0  0  0  0
   22.7564   18.9202   23.0864 C   0  0  0  0  0  0  0  0  0  0  0  0
   22.5933   19.8865   23.5686 H   0  0  0  0  0  0  0  0  0  0  0  0
   23.5191   18.3605   23.6324 H   0  0  0  0  0  0  0  0  0  0  0  0
   23.0796   19.0721   22.0543 H   0  0  0  0  0  0  0  0  0  0  0  0
  1  2  1  0  0  0  0
  1  3  1  0  0  0  0
  1  4  1  0  0  0  0
  1  5  1  0  0  0  0
  5  6  1  0  0  0  0
  5  7  1  0  0  0  0
  5  8  1  0  0  0  0
  8  9  1  0  0  0  0
  8 10  1  0  0  0  0
  8 11  1  0  0  0  0
 11 12  1  0  0  0  0
 11 13  1  0  0  0  0
 11 14  1  0  0  0  0
 14 15  1  0  0  0  0
 14 16  1  0  0  0  0
 14 17  1  0  0  0  0
 17 18  1  0  0  0  0
 17 19  1  0  0  0  0
 17 20  1  0  0  0  0
M  END
> <VConfSearch Rank>
764

> <Conf_Id>
34

> <Delta U+W>
0.276

> <U+W>
15.615

> <U>
69.798

> <W>
-54.184

> <W(PB)>
-56.116

> <W(SA)>
1.933

> <Valence>
1.134

> <Coulomb>
68.735

> <VdW>
-0.070

> <VdW6>
-3.565

> <VdW12>
3.494

> <Bond>
0.108

> <Angle>
0.456

> <Pdih>
0.569

> <Idih>
0.000

> <Tether>
0.000

$$$$
VeraChem MOL file


 20 19  0  0  0  0  0  0  0  0999 V2000     
   19.2713   21.4641   23.2432 C   0  0  0  0  0  0  0  0  0  0  0  0
   19.3496   22.2475   22.4782 H   0  0  0  0  0  0  0  0  0  0  0  0
   18.3590   21.6521   23.8241 H   0  0  0  0  0  0  0  0  0  0  0  0
   20.1283   21.5630   23.9221 H   0  0  0  0  0  0  0  0  0  0  0  0
   19.2298   20.0607   22.6008 C   0  0  0  0  0  0  0  0  0  0  0  0
   18.3451   19.9828   21.9530 H   0  0  0  0  0  0  0  0  0  0  0  0
   19.1109   19.3077   23.3916 H   0  0  0  0  0  0  0  0  0  0  0  0
   20.5061   19.7708   21.7761 C   0  0  0  0  0  0  0  0  0  0  0  0
   20.6321   20.5530   21.0157 H   0  0  0  0  0  0  0  0  0  0  0  0
   21.3920   19.8191   22.4231 H   0  0  0  0  0  0  0  0  0  0  0  0
   20.4610   18.4034   21.0649 C   0  0  0  0  0  0  0  0  0  0  0  0
   21.3449   18.2967   20.4309 H   0  0  0  0  0  0  0  0  0  0  0  0
   19.5760   18.3508   20.4258 H   0  0  0  0  0  0  0  0  0  0  0  0
   20.4293   17.2158   22.0085 N   0  3  0  0  0  0  0  0  0  0  0  0
   19.6067   17.2750   22.6268 H   0  0  0  0  0  0  0  0  0  0  0  0
   21.2475   17.2387   22.6363 H   0  0  0  0  0  0  0  0  0  0  0  0
   20.4041   15.9189   21.2109 C   0  0  0  0  0  0  0  0  0  0  0  0
   19.5134   15.9022   20.5790 H   0  0  0  0  0  0  0  0  0  0  0  0
   21.2997   15.8618   20.5885 H   0  0  0  0  0  0  0  0  0  0  0  0
   20.3813   15.0731   21.9016 H   0  0  0  0  0  0  0  0  0  0  0  0
  1  2  1  0  0  0  0
  1  3  1  0  0  0  0
  1  4  1  0  0  0  0
  1  5  1  0  0  0  0
  5  6  1  0  0  0  0
  5  7  1  0  0  0  0
  5  8  1  0  0  0  0
  8  9  1  0  0  0  0
  8 10  1  0  0  0  0
  8 11  1  0  0  0  0
 11 12  1  0  0  0  0
 11 13  1  0  0  0  0
 11 14  1  0  0  0  0
 14 15  1  0  0  0  0
 14 16  1  0  0  0  0
 14 17  1  0  0  0  0
 17 18  1  0  0  0  0
 17 19  1  0  0  0  0
 17 20  1  0  0  0  0
M  END
> <VConfSearch Rank>
765

> <Conf_Id>
50

> <Delta U+W>
0.319

> <U+W>
15.657

> <U>
69.962

> <W>
-54.305

> <W(PB)>
-56.223

> <W(SA)>
1.918

> <Valence>
0.982

> <Coulomb>
69.058

> <VdW>
-0.078

> <VdW6>
-3.548

> <VdW12>
3.471

> <Bond>
0.105

> <Angle>
0.408

> <Pdih>
0.469

> <Idih>
0.000

> <Tether>
0.000

$$$$
VeraChem MOL file


 20 19  0  0  0  0  0  0  0  0999 V2000     
   19.5189   19.3939   19.0735 C   0  0  0  0  0  0  0  0  0  0  0  0
   19.4384   20.3930   18.6259 H   0  0  0  0  0  0  0  0  0  0  0  0
   20.2171   18.8073   18.4623 H   0  0  0  0  0  0  0  0  0  0  0  0
   18.5310   18.9186   19.0145 H   0  0  0  0  0  0  0  0  0  0  0  0
   20.0039   19.4887   20.5363 C   0  0  0  0  0  0  0  0  0  0  0  0
   19.3038   20.1144   21.1064 H   0  0  0  0  0  0  0  0  0  0  0  0
   20.9784   19.9964   20.5647 H   0  0  0  0  0  0  0  0  0  0  0  0
   20.1251   18.0922   21.1908 C   0  0  0  0  0  0  0  0  0  0  0  0
   19.1485   17.5902   21.1914 H   0  0  0  0  0  0  0  0  0  0  0  0
   20.7970   17.4665   20.5884 H   0  0  0  0  0  0  0  0  0  0  0  0
   20.6753   18.1518   22.6300 C   0  0  0  0  0  0  0  0  0  0  0  0
   21.6442   18.6574   22.6323 H   0  0  0  0  0  0  0  0  0  0  0  0
   20.8216   17.1349   23.0031 H   0  0  0  0  0  0  0  0  0  0  0  0
   19.7682   18.8721   23.6100 N   0  3  0  0  0  0  0  0  0  0  0  0
   18.8379   18.4267   23.6265 H   0  0  0  0  0  0  0  0  0  0  0  0
   19.6039   19.8402   23.2966 H   0  0  0  0  0  0  0  0  0  0  0  0
   20.3909   18.8602   24.9995 C   0  0  0  0  0  0  0  0  0  0  0  0
   19.7285   19.3815   25.6941 H   0  0  0  0  0  0  0  0  0  0  0  0
   20.5252   17.8263   25.3249 H   0  0  0  0  0  0  0  0  0  0  0  0
   21.3587   19.3652   24.9646 H   0  0  0  0  0  0  0  0  0  0  0  0
  1  2  1  0  0  0  0
  1  3  1  0  0  0  0
  1  4  1  0  0  0  0
  1  5  1  0  0  0  0
  5  6  1  0  0  0  0
  5  7  1  0  0  0  0
  5  8  1  0  0  0  0
  8  9  1  0  0  0  0
  8 10  1  0  0  0  0
  8 11  1  0  0  0  0
 11 12  1  0  0  0  0
 11 13  1  0  0  0  0
 11 14  1  0  0  0  0
 14 15  1  0  0  0  0
 14 16  1  0  0  0  0
 14 17  1  0  0  0  0
 17 18  1  0  0  0  0
 17 19  1  0  0  0  0
 17 20  1  0  0  0  0
M  END
> <VConfSearch Rank>
766

> <Conf_Id>
35

> <Delta U+W>
0.360

> <U+W>
15.698

> <U>
69.962

> <W>
-54.264

> <W(PB)>
-56.166

> <W(SA)>
1.902

> <Valence>
0.982

> <Coulomb>
69.058

> <VdW>
-0.078

> <VdW6>
-3.548

> <VdW12>
3.471

> <Bond>
0.105

> <Angle>
0.408

> <Pdih>
0.469

> <Idih>
0.000

> <Tether>
0.000

$$$$
VeraChem MOL file


 20 19  0  0  0  0  0  0  0  0999 V2000     
   22.0521   20.2076   22.6842 C   0  0  0  0  0  0  0  0  0  0  0  0
   21.3266   20.3562   23.4939 H   0  0  0  0  0  0  0  0  0  0  0  0
   23.0374   20.5075   23.0639 H   0  0  0  0  0  0  0  0  0  0  0  0
   21.7904   20.8848   21.8609 H   0  0  0  0  0  0  0  0  0  0  0  0
   22.0791   18.7370   22.2080 C   0  0  0  0  0  0  0  0  0  0  0  0
   22.3381   18.0806   23.0508 H   0  0  0  0  0  0  0  0  0  0  0  0
   22.8796   18.6153   21.4648 H   0  0  0  0  0  0  0  0  0  0  0  0
   20.7400   18.2800   21.5836 C   0  0  0  0  0  0  0  0  0  0  0  0
   20.5056   18.9154   20.7198 H   0  0  0  0  0  0  0  0  0  0  0  0
   20.8548   17.2576   21.2001 H   0  0  0  0  0  0  0  0  0  0  0  0
   19.5734   18.3125   22.5942 C   0  0  0  0  0  0  0  0  0  0  0  0
   19.4040   19.3370   22.9340 H   0  0  0  0  0  0  0  0  0  0  0  0
   19.8410   17.7071   23.4640 H   0  0  0  0  0  0  0  0  0  0  0  0
   18.2564   17.7762   22.0572 N   0  3  0  0  0  0  0  0  0  0  0  0
   17.5814   17.6792   22.8318 H   0  0  0  0  0  0  0  0  0  0  0  0
   18.3816   16.8187   21.6947 H   0  0  0  0  0  0  0  0  0  0  0  0
   17.6823   18.6929   20.9823 C   0  0  0  0  0  0  0  0  0  0  0  0
   18.3726   18.7381   20.1377 H   0  0  0  0  0  0  0  0  0  0  0  0
   16.7214   18.2949   20.6488 H   0  0  0  0  0  0  0  0  0  0  0  0
   17.5417   19.6922   21.3997 H   0  0  0  0  0  0  0  0  0  0  0  0
  1  2  1  0  0  0  0
  1  3  1  0  0  0  0
  1  4  1  0  0  0  0
  1  5  1  0  0  0  0
  5  6  1  0  0  0  0
  5  7  1  0  0  0  0
  5  8  1  0  0  0  0
  8  9  1  0  0  0  0
  8 10  1  0  0  0  0
  8 11  1  0  0  0  0
 11 12  1  0  0  0  0
 11 13  1  0  0  0  0
 11 14  1  0  0  0  0
 14 15  1  0  0  0  0
 14 16  1  0  0  0  0
 14 17  1  0  0  0  0
 17 18  1  0  0  0  0
 17 19  1  0  0  0  0
 17 20  1  0  0  0  0
M  END
> <VConfSearch Rank>
767

> <Conf_Id>
33

> <Delta U+W>
0.372

> <U+W>
15.711

> <U>
70.163

> <W>
-54.452

> <W(PB)>
-56.363

> <W(SA)>
1.911

> <Valence>
1.420

> <Coulomb>
68.566

> <VdW>
0.177

> <VdW6>
-4.267

> <VdW12>
4.445

> <Bond>
0.146

> <Angle>
0.581

> <Pdih>
0.693

> <Idih>
0.000

> <Tether>
0.000

$$$$
VeraChem MOL file


 20 19  0  0  0  0  0  0  0  0999 V2000     
   19.1742   16.7906   20.7419 C   0  0  0  0  0  0  0  0  0  0  0  0
   19.1176   15.8328   20.2085 H   0  0  0  0  0  0  0  0  0  0  0  0
   18.9036   16.6026   21.7886 H   0  0  0  0  0  0  0  0  0  0  0  0
   18.4203   17.4603   20.3080 H   0  0  0  0  0  0  0  0  0  0  0  0
   20.5917   17.3957   20.6209 C   0  0  0  0  0  0  0  0  0  0  0  0
   20.8555   17.4815   19.5574 H   0  0  0  0  0  0  0  0  0  0  0  0
   21.3254   16.7092   21.0665 H   0  0  0  0  0  0  0  0  0  0  0  0
   20.7119   18.7884   21.2825 C   0  0  0  0  0  0  0  0  0  0  0  0
   21.7164   19.1890   21.0926 H   0  0  0  0  0  0  0  0  0  0  0  0
   20.0031   19.4791   20.8079 H   0  0  0  0  0  0  0  0  0  0  0  0
   20.4655   18.7441   22.8059 C   0  0  0  0  0  0  0  0  0  0  0  0
   21.1529   18.0229   23.2552 H   0  0  0  0  0  0  0  0  0  0  0  0
   19.4449   18.4103   23.0081 H   0  0  0  0  0  0  0  0  0  0  0  0
   20.6715   20.0707   23.5187 N   0  3  0  0  0  0  0  0  0  0  0  0
   21.6158   20.4375   23.3254 H   0  0  0  0  0  0  0  0  0  0  0  0
   20.6501   19.9211   24.5397 H   0  0  0  0  0  0  0  0  0  0  0  0
   19.6035   21.0842   23.1217 C   0  0  0  0  0  0  0  0  0  0  0  0
   19.7628   22.0090   23.6806 H   0  0  0  0  0  0  0  0  0  0  0  0
   19.6756   21.2866   22.0513 H   0  0  0  0  0  0  0  0  0  0  0  0
   18.6174   20.6779   23.3563 H   0  0  0  0  0  0  0  0  0  0  0  0
  1  2  1  0  0  0  0
  1  3  1  0  0  0  0
  1  4  1  0  0  0  0
  1  5  1  0  0  0  0
  5  6  1  0  0  0  0
  5  7  1  0  0  0  0
  5  8  1  0  0  0  0
  8  9  1  0  0  0  0
  8 10  1  0  0  0  0
  8 11  1  0  0  0  0
 11 12  1  0  0  0  0
 11 13  1  0  0  0  0
 11 14  1  0  0  0  0
 14 15  1  0  0  0  0
 14 16  1  0  0  0  0
 14 17  1  0  0  0  0
 17 18  1  0  0  0  0
 17 19  1  0  0  0  0
 17 20  1  0  0  0  0
M  END
> <VConfSearch Rank>
768

> <Conf_Id>
53

> <Delta U+W>
0.379

> <U+W>
15.717

> <U>
70.163

> <W>
-54.446

> <W(PB)>
-56.322

> <W(SA)>
1.876

> <Valence>
1.420

> <Coulomb>
68.566

> <VdW>
0.177

> <VdW6>
-4.267

> <VdW12>
4.445

> <Bond>
0.146

> <Angle>
0.581

> <Pdih>
0.693

> <Idih>
0.000

> <Tether>
0.000

$$$$
VeraChem MOL file


 20 19  0  0  0  0  0  0  0  0999 V2000     
   22.0399   17.0933   20.9582 C   0  0  0  0  0  0  0  0  0  0  0  0
   22.3184   16.9375   19.9079 H   0  0  0  0  0  0  0  0  0  0  0  0
   22.9632   17.1091   21.5517 H   0  0  0  0  0  0  0  0  0  0  0  0
   21.4423   16.2301   21.2790 H   0  0  0  0  0  0  0  0  0  0  0  0
   21.2492   18.4091   21.1236 C   0  0  0  0  0  0  0  0  0  0  0  0
   20.3547   18.3722   20.4870 H   0  0  0  0  0  0  0  0  0  0  0  0
   21.8605   19.2493   20.7650 H   0  0  0  0  0  0  0  0  0  0  0  0
   20.8424   18.6514   22.5961 C   0  0  0  0  0  0  0  0  0  0  0  0
   20.2089   17.8283   22.9511 H   0  0  0  0  0  0  0  0  0  0  0  0
   21.7410   18.6421   23.2270 H   0  0  0  0  0  0  0  0  0  0  0  0
   20.1172   19.9995   22.8049 C   0  0  0  0  0  0  0  0  0  0  0  0
   20.7829   20.8111   22.5006 H   0  0  0  0  0  0  0  0  0  0  0  0
   19.8922   20.1315   23.8663 H   0  0  0  0  0  0  0  0  0  0  0  0
   18.8157   20.1660   22.0348 N   0  3  0  0  0  0  0  0  0  0  0  0
   18.9820   20.0456   21.0249 H   0  0  0  0  0  0  0  0  0  0  0  0
   18.4778   21.1361   22.1344 H   0  0  0  0  0  0  0  0  0  0  0  0
   17.7507   19.1928   22.5285 C   0  0  0  0  0  0  0  0  0  0  0  0
   17.5815   19.3560   23.5950 H   0  0  0  0  0  0  0  0  0  0  0  0
   16.8237   19.3673   21.9780 H   0  0  0  0  0  0  0  0  0  0  0  0
   18.0899   18.1689   22.3596 H   0  0  0  0  0  0  0  0  0  0  0  0
  1  2  1  0  0  0  0
  1  3  1  0  0  0  0
  1  4  1  0  0  0  0
  1  5  1  0  0  0  0
  5  6  1  0  0  0  0
  5  7  1  0  0  0  0
  5  8  1  0  0  0  0
  8  9  1  0  0  0  0
  8 10  1  0  0  0  0
  8 11  1  0  0  0  0
 11 12  1  0  0  0  0
 11 13  1  0  0  0  0
 11 14  1  0  0  0  0
 14 15  1  0  0  0  0
 14 16  1  0  0  0  0
 14 17  1  0  0  0  0
 17 18  1  0  0  0  0
 17 19  1  0  0  0  0
 17 20  1  0  0  0  0
M  END
> <VConfSearch Rank>
769

> <Conf_Id>
49

> <Delta U+W>
0.268

> <U+W>
15.607

> <U>
70.298

> <W>
-54.692

> <W(PB)>
-56.576

> <W(SA)>
1.885

> <Valence>
1.245

> <Coulomb>
68.933

> <VdW>
0.120

> <VdW6>
-4.430

> <VdW12>
4.550

> <Bond>
0.148

> <Angle>
0.587

> <Pdih>
0.509

> <Idih>
0.000

> <Tether>
0.000

$$$$
VeraChem MOL file


 20 19  0  0  0  0  0  0  0  0999 V2000     
   18.7058   16.6837   20.6984 C   0  0  0  0  0  0  0  0  0  0  0  0
   18.7222   15.9020   21.4691 H   0  0  0  0  0  0  0  0  0  0  0  0
   17.6594   16.9601   20.5144 H   0  0  0  0  0  0  0  0  0  0  0  0
   19.1065   16.2512   19.7724 H   0  0  0  0  0  0  0  0  0  0  0  0
   19.5379   17.9098   21.1325 C   0  0  0  0  0  0  0  0  0  0  0  0
   19.5257   18.6618   20.3310 H   0  0  0  0  0  0  0  0  0  0  0  0
   20.5823   17.5992   21.2672 H   0  0  0  0  0  0  0  0  0  0  0  0
   19.0003   18.5322   22.4422 C   0  0  0  0  0  0  0  0  0  0  0  0
   17.9260   18.7300   22.3303 H   0  0  0  0  0  0  0  0  0  0  0  0
   19.0961   17.8096   23.2634 H   0  0  0  0  0  0  0  0  0  0  0  0
   19.6886   19.8572   22.8415 C   0  0  0  0  0  0  0  0  0  0  0  0
   19.1911   20.2385   23.7370 H   0  0  0  0  0  0  0  0  0  0  0  0
   19.5653   20.6025   22.0519 H   0  0  0  0  0  0  0  0  0  0  0  0
   21.1693   19.7550   23.1739 N   0  3  0  0  0  0  0  0  0  0  0  0
   21.3798   18.8409   23.6015 H   0  0  0  0  0  0  0  0  0  0  0  0
   21.4028   20.4472   23.9029 H   0  0  0  0  0  0  0  0  0  0  0  0
   22.0356   20.0099   21.9447 C   0  0  0  0  0  0  0  0  0  0  0  0
   23.0879   19.9502   22.2311 H   0  0  0  0  0  0  0  0  0  0  0  0
   21.8219   19.2619   21.1804 H   0  0  0  0  0  0  0  0  0  0  0  0
   21.8185   21.0065   21.5543 H   0  0  0  0  0  0  0  0  0  0  0  0
  1  2  1  0  0  0  0
  1  3  1  0  0  0  0
  1  4  1  0  0  0  0
  1  5  1  0  0  0  0
  5  6  1  0  0  0  0
  5  7  1  0  0  0  0
  5  8  1  0  0  0  0
  8  9  1  0  0  0  0
  8 10  1  0  0  0  0
  8 11  1  0  0  0  0
 11 12  1  0  0  0  0
 11 13  1  0  0  0  0
 11 14  1  0  0  0  0
 14 15  1  0  0  0  0
 14 16  1  0  0  0  0
 14 17  1  0  0  0  0
 17 18  1  0  0  0  0
 17 19  1  0  0  0  0
 17 20  1  0  0  0  0
M  END
> <VConfSearch Rank>
770

> <Conf_Id>
65

> <Delta U+W>
1.775

> <U+W>
17.114

> <U>
71.726

> <W>
-54.613

> <W(PB)>
-56.495

> <W(SA)>
1.883

> <Valence>
2.885

> <Coulomb>
68.822

> <VdW>
0.019

> <VdW6>
-4.600

> <VdW12>
4.619

> <Bond>
0.152

> <Angle>
0.862

> <Pdih>
1.871

> <Idih>
0.000

> <Tether>
0.000

$$$$
VeraChem MOL file


 20 19  0  0  0  0  0  0  0  0999 V2000     
   21.3047   19.8198   20.2871 C   0  0  0  0  0  0  0  0  0  0  0  0
   20.3008   19.4518   20.0406 H   0  0  0  0  0  0  0  0  0  0  0  0
   21.4258   20.7985   19.8049 H   0  0  0  0  0  0  0  0  0  0  0  0
   22.0390   19.1352   19.8432 H   0  0  0  0  0  0  0  0  0  0  0  0
   21.5087   19.9392   21.8150 C   0  0  0  0  0  0  0  0  0  0  0  0
   20.7639   20.6288   22.2347 H   0  0  0  0  0  0  0  0  0  0  0  0
   22.4886   20.3974   22.0095 H   0  0  0  0  0  0  0  0  0  0  0  0
   21.4432   18.5743   22.5449 C   0  0  0  0  0  0  0  0  0  0  0  0
   22.2596   17.9336   22.1859 H   0  0  0  0  0  0  0  0  0  0  0  0
   21.6227   18.7253   23.6176 H   0  0  0  0  0  0  0  0  0  0  0  0
   20.1084   17.8240   22.3544 C   0  0  0  0  0  0  0  0  0  0  0  0
   20.1562   16.8626   22.8722 H   0  0  0  0  0  0  0  0  0  0  0  0
   19.9445   17.6285   21.2920 H   0  0  0  0  0  0  0  0  0  0  0  0
   18.9000   18.5720   22.8844 N   0  3  0  0  0  0  0  0  0  0  0  0
   18.8245   19.4910   22.4237 H   0  0  0  0  0  0  0  0  0  0  0  0
   19.0202   18.7758   23.8884 H   0  0  0  0  0  0  0  0  0  0  0  0
   17.6378   17.7527   22.6519 C   0  0  0  0  0  0  0  0  0  0  0  0
   17.7275   16.7978   23.1743 H   0  0  0  0  0  0  0  0  0  0  0  0
   16.7766   18.3032   23.0367 H   0  0  0  0  0  0  0  0  0  0  0  0
   17.5144   17.5778   21.5809 H   0  0  0  0  0  0  0  0  0  0  0  0
  1  2  1  0  0  0  0
  1  3  1  0  0  0  0
  1  4  1  0  0  0  0
  1  5  1  0  0  0  0
  5  6  1  0  0  0  0
  5  7  1  0  0  0  0
  5  8  1  0  0  0  0
  8  9  1  0  0  0  0
  8 10  1  0  0  0  0
  8 11  1  0  0  0  0
 11 12  1  0  0  0  0
 11 13  1  0  0  0  0
 11 14  1  0  0  0  0
 14 15  1  0  0  0  0
 14 16  1  0  0  0  0
 14 17  1  0  0  0  0
 17 18  1  0  0  0  0
 17 19  1  0  0  0  0
 17 20  1  0  0  0  0
M  END
> <VConfSearch Rank>
771

> <Conf_Id>
23

> <Delta U+W>
0.896

> <U+W>
16.234

> <U>
70.374

> <W>
-54.140

> <W(PB)>
-56.046

> <W(SA)>
1.907

> <Valence>
1.257

> <Coulomb>
69.240

> <VdW>
-0.123

> <VdW6>
-4.336

> <VdW12>
4.213

> <Bond>
0.128

> <Angle>
0.603

> <Pdih>
0.526

> <Idih>
0.000

> <Tether>
0.000

$$$$
VeraChem MOL file


 20 19  0  0  0  0  0  0  0  0999 V2000     
   19.7001   20.5353   23.5747 C   0  0  0  0  0  0  0  0  0  0  0  0
   19.1702   21.3662   23.0910 H   0  0  0  0  0  0  0  0  0  0  0  0
   19.8065   20.7813   24.6392 H   0  0  0  0  0  0  0  0  0  0  0  0
   20.7087   20.4769   23.1466 H   0  0  0  0  0  0  0  0  0  0  0  0
   18.9287   19.2070   23.3997 C   0  0  0  0  0  0  0  0  0  0  0  0
   17.9653   19.2820   23.9233 H   0  0  0  0  0  0  0  0  0  0  0  0
   19.4777   18.3929   23.8921 H   0  0  0  0  0  0  0  0  0  0  0  0
   18.6628   18.8502   21.9158 C   0  0  0  0  0  0  0  0  0  0  0  0
   18.0901   17.9148   21.8625 H   0  0  0  0  0  0  0  0  0  0  0  0
   18.0260   19.6241   21.4671 H   0  0  0  0  0  0  0  0  0  0  0  0
   19.9423   18.7109   21.0646 C   0  0  0  0  0  0  0  0  0  0  0  0
   20.4952   19.6532   21.0745 H   0  0  0  0  0  0  0  0  0  0  0  0
   19.6669   18.4907   20.0301 H   0  0  0  0  0  0  0  0  0  0  0  0
   20.8786   17.6141   21.5346 N   0  3  0  0  0  0  0  0  0  0  0  0
   20.3889   16.7063   21.5395 H   0  0  0  0  0  0  0  0  0  0  0  0
   21.1561   17.7829   22.5128 H   0  0  0  0  0  0  0  0  0  0  0  0
   22.1050   17.5557   20.6340 C   0  0  0  0  0  0  0  0  0  0  0  0
   22.6245   18.5157   20.6707 H   0  0  0  0  0  0  0  0  0  0  0  0
   22.7702   16.7635   20.9844 H   0  0  0  0  0  0  0  0  0  0  0  0
   21.7895   17.3452   19.6098 H   0  0  0  0  0  0  0  0  0  0  0  0
  1  2  1  0  0  0  0
  1  3  1  0  0  0  0
  1  4  1  0  0  0  0
  1  5  1  0  0  0  0
  5  6  1  0  0  0  0
  5  7  1  0  0  0  0
  5  8  1  0  0  0  0
  8  9  1  0  0  0  0
  8 10  1  0  0  0  0
  8 11  1  0  0  0  0
 11 12  1  0  0  0  0
 11 13  1  0  0  0  0
 11 14  1  0  0  0  0
 14 15  1  0  0  0  0
 14 16  1  0  0  0  0
 14 17  1  0  0  0  0
 17 18  1  0  0  0  0
 17 19  1  0  0  0  0
 17 20  1  0  0  0  0
M  END
> <VConfSearch Rank>
772

> <Conf_Id>
24

> <Delta U+W>
0.792

> <U+W>
16.130

> <U>
70.374

> <W>
-54.243

> <W(PB)>
-56.130

> <W(SA)>
1.887

> <Valence>
1.257

> <Coulomb>
69.240

> <VdW>
-0.123

> <VdW6>
-4.336

> <VdW12>
4.213

> <Bond>
0.128

> <Angle>
0.603

> <Pdih>
0.526

> <Idih>
0.000

> <Tether>
0.000

$$$$
VeraChem MOL file


 20 19  0  0  0  0  0  0  0  0999 V2000     
   20.4849   19.0105   24.1483 C   0  0  0  0  0  0  0  0  0  0  0  0
   20.4103   19.0910   25.2407 H   0  0  0  0  0  0  0  0  0  0  0  0
   20.0667   18.0362   23.8692 H   0  0  0  0  0  0  0  0  0  0  0  0
   21.5508   19.0288   23.8862 H   0  0  0  0  0  0  0  0  0  0  0  0
   19.7198   20.1716   23.4731 C   0  0  0  0  0  0  0  0  0  0  0  0
   20.0296   21.1157   23.9430 H   0  0  0  0  0  0  0  0  0  0  0  0
   18.6448   20.0692   23.6783 H   0  0  0  0  0  0  0  0  0  0  0  0
   19.9492   20.2887   21.9446 C   0  0  0  0  0  0  0  0  0  0  0  0
   19.4169   21.1814   21.5903 H   0  0  0  0  0  0  0  0  0  0  0  0
   21.0113   20.4667   21.7300 H   0  0  0  0  0  0  0  0  0  0  0  0
   19.4404   19.0815   21.1283 C   0  0  0  0  0  0  0  0  0  0  0  0
   19.2946   19.3887   20.0896 H   0  0  0  0  0  0  0  0  0  0  0  0
   18.4765   18.7494   21.5220 H   0  0  0  0  0  0  0  0  0  0  0  0
   20.3861   17.8957   21.1096 N   0  3  0  0  0  0  0  0  0  0  0  0
   20.5990   17.5994   22.0727 H   0  0  0  0  0  0  0  0  0  0  0  0
   21.2922   18.1713   20.7008 H   0  0  0  0  0  0  0  0  0  0  0  0
   19.7694   16.7496   20.3193 C   0  0  0  0  0  0  0  0  0  0  0  0
   18.8288   16.4537   20.7889 H   0  0  0  0  0  0  0  0  0  0  0  0
   19.5832   17.0787   19.2947 H   0  0  0  0  0  0  0  0  0  0  0  0
   20.4607   15.9040   20.3144 H   0  0  0  0  0  0  0  0  0  0  0  0
  1  2  1  0  0  0  0
  1  3  1  0  0  0  0
  1  4  1  0  0  0  0
  1  5  1  0  0  0  0
  5  6  1  0  0  0  0
  5  7  1  0  0  0  0
  5  8  1  0  0  0  0
  8  9  1  0  0  0  0
  8 10  1  0  0  0  0
  8 11  1  0  0  0  0
 11 12  1  0  0  0  0
 11 13  1  0  0  0  0
 11 14  1  0  0  0  0
 14 15  1  0  0  0  0
 14 16  1  0  0  0  0
 14 17  1  0  0  0  0
 17 18  1  0  0  0  0
 17 19  1  0  0  0  0
 17 20  1  0  0  0  0
M  END
> <VConfSearch Rank>
773

> <Conf_Id>
26

> <Delta U+W>
2.888

> <U+W>
18.226

> <U>
72.042

> <W>
-53.816

> <W(PB)>
-55.689

> <W(SA)>
1.873

> <Valence>
2.428

> <Coulomb>
69.829

> <VdW>
-0.215

> <VdW6>
-4.563

> <VdW12>
4.348

> <Bond>
0.137

> <Angle>
0.936

> <Pdih>
1.356

> <Idih>
0.000

> <Tether>
0.000

$$$$
VeraChem MOL file


 20 19  0  0  0  0  0  0  0  0999 V2000     
   19.5035   19.1345   19.9610 C   0  0  0  0  0  0  0  0  0  0  0  0
   19.5287   19.3537   18.8856 H   0  0  0  0  0  0  0  0  0  0  0  0
   18.4699   18.8725   20.2221 H   0  0  0  0  0  0  0  0  0  0  0  0
   19.7790   20.0584   20.4832 H   0  0  0  0  0  0  0  0  0  0  0  0
   20.4774   17.9814   20.2947 C   0  0  0  0  0  0  0  0  0  0  0  0
   21.5099   18.3102   20.1108 H   0  0  0  0  0  0  0  0  0  0  0  0
   20.2935   17.1538   19.5952 H   0  0  0  0  0  0  0  0  0  0  0  0
   20.3546   17.4353   21.7402 C   0  0  0  0  0  0  0  0  0  0  0  0
   19.3471   17.0342   21.9130 H   0  0  0  0  0  0  0  0  0  0  0  0
   21.0391   16.5823   21.8385 H   0  0  0  0  0  0  0  0  0  0  0  0
   20.7126   18.4563   22.8409 C   0  0  0  0  0  0  0  0  0  0  0  0
   21.5891   19.0343   22.5376 H   0  0  0  0  0  0  0  0  0  0  0  0
   20.9623   17.9188   23.7592 H   0  0  0  0  0  0  0  0  0  0  0  0
   19.5953   19.4229   23.1850 N   0  3  0  0  0  0  0  0  0  0  0  0
   18.7678   18.9044   23.5172 H   0  0  0  0  0  0  0  0  0  0  0  0
   19.2855   19.9195   22.3376 H   0  0  0  0  0  0  0  0  0  0  0  0
   20.0679   20.4104   24.2433 C   0  0  0  0  0  0  0  0  0  0  0  0
   20.9229   20.9697   23.8575 H   0  0  0  0  0  0  0  0  0  0  0  0
   19.2540   21.0990   24.4808 H   0  0  0  0  0  0  0  0  0  0  0  0
   20.3600   19.8622   25.1417 H   0  0  0  0  0  0  0  0  0  0  0  0
  1  2  1  0  0  0  0
  1  3  1  0  0  0  0
  1  4  1  0  0  0  0
  1  5  1  0  0  0  0
  5  6  1  0  0  0  0
  5  7  1  0  0  0  0
  5  8  1  0  0  0  0
  8  9  1  0  0  0  0
  8 10  1  0  0  0  0
  8 11  1  0  0  0  0
 11 12  1  0  0  0  0
 11 13  1  0  0  0  0
 11 14  1  0  0  0  0
 14 15  1  0  0  0  0
 14 16  1  0  0  0  0
 14 17  1  0  0  0  0
 17 18  1  0  0  0  0
 17 19  1  0  0  0  0
 17 20  1  0  0  0  0
M  END
> <VConfSearch Rank>
774

> <Conf_Id>
5

> <Delta U+W>
2.950

> <U+W>
18.289

> <U>
72.042

> <W>
-53.753

> <W(PB)>
-55.644

> <W(SA)>
1.891

> <Valence>
2.428

> <Coulomb>
69.829

> <VdW>
-0.215

> <VdW6>
-4.563

> <VdW12>
4.348

> <Bond>
0.137

> <Angle>
0.936

> <Pdih>
1.356

> <Idih>
0.000

> <Tether>
0.000

$$$$
VeraChem MOL file


 20 19  0  0  0  0  0  0  0  0999 V2000     
   20.9942   17.7829   20.0152 C   0  0  0  0  0  0  0  0  0  0  0  0
   20.7878   18.3425   19.0936 H   0  0  0  0  0  0  0  0  0  0  0  0
   21.8281   18.2728   20.5333 H   0  0  0  0  0  0  0  0  0  0  0  0
   21.3280   16.7774   19.7280 H   0  0  0  0  0  0  0  0  0  0  0  0
   19.7356   17.7016   20.9093 C   0  0  0  0  0  0  0  0  0  0  0  0
   19.9650   17.1350   21.8220 H   0  0  0  0  0  0  0  0  0  0  0  0
   18.9604   17.1271   20.3832 H   0  0  0  0  0  0  0  0  0  0  0  0
   19.1617   19.0924   21.2777 C   0  0  0  0  0  0  0  0  0  0  0  0
   18.8489   19.6082   20.3603 H   0  0  0  0  0  0  0  0  0  0  0  0
   18.2508   18.9636   21.8764 H   0  0  0  0  0  0  0  0  0  0  0  0
   20.1545   20.0009   22.0383 C   0  0  0  0  0  0  0  0  0  0  0  0
   19.6760   20.9575   22.2628 H   0  0  0  0  0  0  0  0  0  0  0  0
   21.0161   20.2014   21.3968 H   0  0  0  0  0  0  0  0  0  0  0  0
   20.6834   19.4307   23.3453 N   0  3  0  0  0  0  0  0  0  0  0  0
   21.4367   20.0361   23.7073 H   0  0  0  0  0  0  0  0  0  0  0  0
   21.1318   18.5183   23.1761 H   0  0  0  0  0  0  0  0  0  0  0  0
   19.5740   19.3051   24.3836 C   0  0  0  0  0  0  0  0  0  0  0  0
   18.8120   18.6144   24.0172 H   0  0  0  0  0  0  0  0  0  0  0  0
   19.9972   18.9235   25.3153 H   0  0  0  0  0  0  0  0  0  0  0  0
   19.1306   20.2881   24.5563 H   0  0  0  0  0  0  0  0  0  0  0  0
  1  2  1  0  0  0  0
  1  3  1  0  0  0  0
  1  4  1  0  0  0  0
  1  5  1  0  0  0  0
  5  6  1  0  0  0  0
  5  7  1  0  0  0  0
  5  8  1  0  0  0  0
  8  9  1  0  0  0  0
  8 10  1  0  0  0  0
  8 11  1  0  0  0  0
 11 12  1  0  0  0  0
 11 13  1  0  0  0  0
 11 14  1  0  0  0  0
 14 15  1  0  0  0  0
 14 16  1  0  0  0  0
 14 17  1  0  0  0  0
 17 18  1  0  0  0  0
 17 19  1  0  0  0  0
 17 20  1  0  0  0  0
M  END
> <VConfSearch Rank>
775

> <Conf_Id>
52

> <Delta U+W>
0.784

> <U+W>
16.122

> <U>
70.777

> <W>
-54.655

> <W(PB)>
-56.491

> <W(SA)>
1.836

> <Valence>
1.529

> <Coulomb>
69.166

> <VdW>
0.082

> <VdW6>
-5.166

> <VdW12>
5.248

> <Bond>
0.171

> <Angle>
0.752

> <Pdih>
0.605

> <Idih>
0.000

> <Tether>
0.000

$$$$
VeraChem MOL file


 20 19  0  0  0  0  0  0  0  0999 V2000     
   21.7118   18.8554   23.3055 C   0  0  0  0  0  0  0  0  0  0  0  0
   22.6448   18.6945   23.8612 H   0  0  0  0  0  0  0  0  0  0  0  0
   21.8702   19.7263   22.6593 H   0  0  0  0  0  0  0  0  0  0  0  0
   20.9267   19.0927   24.0352 H   0  0  0  0  0  0  0  0  0  0  0  0
   21.3538   17.5954   22.4847 C   0  0  0  0  0  0  0  0  0  0  0  0
   21.4363   16.7171   23.1403 H   0  0  0  0  0  0  0  0  0  0  0  0
   22.0986   17.4512   21.6894 H   0  0  0  0  0  0  0  0  0  0  0  0
   19.9302   17.6121   21.8716 C   0  0  0  0  0  0  0  0  0  0  0  0
   19.7570   16.6370   21.3975 H   0  0  0  0  0  0  0  0  0  0  0  0
   19.1763   17.6944   22.6646 H   0  0  0  0  0  0  0  0  0  0  0  0
   19.7057   18.7003   20.7960 C   0  0  0  0  0  0  0  0  0  0  0  0
   18.8308   18.4377   20.1959 H   0  0  0  0  0  0  0  0  0  0  0  0
   20.5713   18.7264   20.1292 H   0  0  0  0  0  0  0  0  0  0  0  0
   19.4772   20.1096   21.3195 N   0  3  0  0  0  0  0  0  0  0  0  0
   19.5295   20.7812   20.5376 H   0  0  0  0  0  0  0  0  0  0  0  0
   20.2395   20.3773   21.9575 H   0  0  0  0  0  0  0  0  0  0  0  0
   18.1250   20.2291   22.0138 C   0  0  0  0  0  0  0  0  0  0  0  0
   17.3351   19.9547   21.3114 H   0  0  0  0  0  0  0  0  0  0  0  0
   18.1001   19.5625   22.8778 H   0  0  0  0  0  0  0  0  0  0  0  0
   17.9819   21.2606   22.3431 H   0  0  0  0  0  0  0  0  0  0  0  0
  1  2  1  0  0  0  0
  1  3  1  0  0  0  0
  1  4  1  0  0  0  0
  1  5  1  0  0  0  0
  5  6  1  0  0  0  0
  5  7  1  0  0  0  0
  5  8  1  0  0  0  0
  8  9  1  0  0  0  0
  8 10  1  0  0  0  0
  8 11  1  0  0  0  0
 11 12  1  0  0  0  0
 11 13  1  0  0  0  0
 11 14  1  0  0  0  0
 14 15  1  0  0  0  0
 14 16  1  0  0  0  0
 14 17  1  0  0  0  0
 17 18  1  0  0  0  0
 17 19  1  0  0  0  0
 17 20  1  0  0  0  0
M  END
> <VConfSearch Rank>
776

> <Conf_Id>
55

> <Delta U+W>
2.745

> <U+W>
18.083

> <U>
72.490

> <W>
-54.407

> <W(PB)>
-56.269

> <W(SA)>
1.861

> <Valence>
2.738

> <Coulomb>
69.795

> <VdW>
-0.043

> <VdW6>
-5.333

> <VdW12>
5.290

> <Bond>
0.182

> <Angle>
1.135

> <Pdih>
1.422

> <Idih>
0.000

> <Tether>
0.000

$$$$
VeraChem MOL file


 20 19  0  0  0  0  0  0  0  0999 V2000     
   21.4157   19.9948   22.9938 C   0  0  0  0  0  0  0  0  0  0  0  0
   22.2947   20.5234   23.3850 H   0  0  0  0  0  0  0  0  0  0  0  0
   20.5674   20.6910   23.0256 H   0  0  0  0  0  0  0  0  0  0  0  0
   21.2149   19.1599   23.6748 H   0  0  0  0  0  0  0  0  0  0  0  0
   21.6846   19.5023   21.5535 C   0  0  0  0  0  0  0  0  0  0  0  0
   22.4596   18.7231   21.5703 H   0  0  0  0  0  0  0  0  0  0  0  0
   22.1050   20.3355   20.9729 H   0  0  0  0  0  0  0  0  0  0  0  0
   20.4300   18.9765   20.8103 C   0  0  0  0  0  0  0  0  0  0  0  0
   19.6738   19.7679   20.7352 H   0  0  0  0  0  0  0  0  0  0  0  0
   20.7229   18.7468   19.7774 H   0  0  0  0  0  0  0  0  0  0  0  0
   19.8136   17.6943   21.4165 C   0  0  0  0  0  0  0  0  0  0  0  0
   20.6164   16.9948   21.6630 H   0  0  0  0  0  0  0  0  0  0  0  0
   19.1727   17.2164   20.6713 H   0  0  0  0  0  0  0  0  0  0  0  0
   18.9686   17.8937   22.6650 N   0  3  0  0  0  0  0  0  0  0  0  0
   19.5040   18.4132   23.3744 H   0  0  0  0  0  0  0  0  0  0  0  0
   18.7661   16.9776   23.0950 H   0  0  0  0  0  0  0  0  0  0  0  0
   17.6635   18.6122   22.3405 C   0  0  0  0  0  0  0  0  0  0  0  0
   17.8842   19.6056   21.9456 H   0  0  0  0  0  0  0  0  0  0  0  0
   17.1096   18.0332   21.5985 H   0  0  0  0  0  0  0  0  0  0  0  0
   17.0698   18.7045   23.2526 H   0  0  0  0  0  0  0  0  0  0  0  0
  1  2  1  0  0  0  0
  1  3  1  0  0  0  0
  1  4  1  0  0  0  0
  1  5  1  0  0  0  0
  5  6  1  0  0  0  0
  5  7  1  0  0  0  0
  5  8  1  0  0  0  0
  8  9  1  0  0  0  0
  8 10  1  0  0  0  0
  8 11  1  0  0  0  0
 11 12  1  0  0  0  0
 11 13  1  0  0  0  0
 11 14  1  0  0  0  0
 14 15  1  0  0  0  0
 14 16  1  0  0  0  0
 14 17  1  0  0  0  0
 17 18  1  0  0  0  0
 17 19  1  0  0  0  0
 17 20  1  0  0  0  0
M  END
> <VConfSearch Rank>
777

> <Conf_Id>
76

> <Delta U+W>
2.799

> <U+W>
18.137

> <U>
72.490

> <W>
-54.353

> <W(PB)>
-56.201

> <W(SA)>
1.848

> <Valence>
2.738

> <Coulomb>
69.795

> <VdW>
-0.043

> <VdW6>
-5.334

> <VdW12>
5.290

> <Bond>
0.182

> <Angle>
1.135

> <Pdih>
1.421

> <Idih>
0.000

> <Tether>
0.000

$$$$
VeraChem MOL file


 20 19  0  0  0  0  0  0  0  0999 V2000     
   18.4623   19.3546   23.2529 C   0  0  0  0  0  0  0  0  0  0  0  0
   19.1162   20.1603   22.8976 H   0  0  0  0  0  0  0  0  0  0  0  0
   17.4850   19.4692   22.7663 H   0  0  0  0  0  0  0  0  0  0  0  0
   18.3173   19.4967   24.3317 H   0  0  0  0  0  0  0  0  0  0  0  0
   19.0648   17.9600   22.9655 C   0  0  0  0  0  0  0  0  0  0  0  0
   18.4092   17.1942   23.4030 H   0  0  0  0  0  0  0  0  0  0  0  0
   20.0301   17.8528   23.4769 H   0  0  0  0  0  0  0  0  0  0  0  0
   19.2264   17.6682   21.4535 C   0  0  0  0  0  0  0  0  0  0  0  0
   19.6164   16.6506   21.3195 H   0  0  0  0  0  0  0  0  0  0  0  0
   18.2324   17.6728   20.9871 H   0  0  0  0  0  0  0  0  0  0  0  0
   20.1267   18.6601   20.6800 C   0  0  0  0  0  0  0  0  0  0  0  0
   19.7656   19.6837   20.8043 H   0  0  0  0  0  0  0  0  0  0  0  0
   20.0586   18.4136   19.6174 H   0  0  0  0  0  0  0  0  0  0  0  0
   21.6050   18.6231   21.0380 N   0  3  0  0  0  0  0  0  0  0  0  0
   22.1621   18.8646   20.2036 H   0  0  0  0  0  0  0  0  0  0  0  0
   21.8927   17.6625   21.2767 H   0  0  0  0  0  0  0  0  0  0  0  0
   21.9385   19.5989   22.1613 C   0  0  0  0  0  0  0  0  0  0  0  0
   23.0114   19.5590   22.3617 H   0  0  0  0  0  0  0  0  0  0  0  0
   21.6610   20.6089   21.8521 H   0  0  0  0  0  0  0  0  0  0  0  0
   21.3883   19.3262   23.0623 H   0  0  0  0  0  0  0  0  0  0  0  0
  1  2  1  0  0  0  0
  1  3  1  0  0  0  0
  1  4  1  0  0  0  0
  1  5  1  0  0  0  0
  5  6  1  0  0  0  0
  5  7  1  0  0  0  0
  5  8  1  0  0  0  0
  8  9  1  0  0  0  0
  8 10  1  0  0  0  0
  8 11  1  0  0  0  0
 11 12  1  0  0  0  0
 11 13  1  0  0  0  0
 11 14  1  0  0  0  0
 14 15  1  0  0  0  0
 14 16  1  0  0  0  0
 14 17  1  0  0  0  0
 17 18  1  0  0  0  0
 17 19  1  0  0  0  0
 17 20  1  0  0  0  0
M  END
> <VConfSearch Rank>
778

> <Conf_Id>
60

> <Delta U+W>
1.788

> <U+W>
17.127

> <U>
72.122

> <W>
-54.995

> <W(PB)>
-56.810

> <W(SA)>
1.815

> <Valence>
3.197

> <Coulomb>
69.115

> <VdW>
-0.190

> <VdW6>
-5.585

> <VdW12>
5.395

> <Bond>
0.177

> <Angle>
1.207

> <Pdih>
1.813

> <Idih>
0.000

> <Tether>
0.000

$$$$
VeraChem MOL file


 20 19  0  0  0  0  0  0  0  0999 V2000     
   19.7467   17.9946   23.9479 C   0  0  0  0  0  0  0  0  0  0  0  0
   19.3303   17.0592   24.3434 H   0  0  0  0  0  0  0  0  0  0  0  0
   20.1359   18.5725   24.7962 H   0  0  0  0  0  0  0  0  0  0  0  0
   18.9214   18.5613   23.4998 H   0  0  0  0  0  0  0  0  0  0  0  0
   20.8627   17.6995   22.9193 C   0  0  0  0  0  0  0  0  0  0  0  0
   20.4633   17.1025   22.0894 H   0  0  0  0  0  0  0  0  0  0  0  0
   21.6274   17.0712   23.3972 H   0  0  0  0  0  0  0  0  0  0  0  0
   21.5428   18.9803   22.3767 C   0  0  0  0  0  0  0  0  0  0  0  0
   22.0286   19.5005   23.2128 H   0  0  0  0  0  0  0  0  0  0  0  0
   22.3503   18.6991   21.6880 H   0  0  0  0  0  0  0  0  0  0  0  0
   20.6001   19.9813   21.6682 C   0  0  0  0  0  0  0  0  0  0  0  0
   21.1773   20.8821   21.4445 H   0  0  0  0  0  0  0  0  0  0  0  0
   19.7804   20.2712   22.3297 H   0  0  0  0  0  0  0  0  0  0  0  0
   20.0103   19.5076   20.3480 N   0  3  0  0  0  0  0  0  0  0  0  0
   20.6850   18.9105   19.8471 H   0  0  0  0  0  0  0  0  0  0  0  0
   19.8686   20.3208   19.7288 H   0  0  0  0  0  0  0  0  0  0  0  0
   18.6779   18.7938   20.5488 C   0  0  0  0  0  0  0  0  0  0  0  0
   17.9784   19.4733   21.0404 H   0  0  0  0  0  0  0  0  0  0  0  0
   18.2801   18.5003   19.5748 H   0  0  0  0  0  0  0  0  0  0  0  0
   18.8239   17.9068   21.1659 H   0  0  0  0  0  0  0  0  0  0  0  0
  1  2  1  0  0  0  0
  1  3  1  0  0  0  0
  1  4  1  0  0  0  0
  1  5  1  0  0  0  0
  5  6  1  0  0  0  0
  5  7  1  0  0  0  0
  5  8  1  0  0  0  0
  8  9  1  0  0  0  0
  8 10  1  0  0  0  0
  8 11  1  0  0  0  0
 11 12  1  0  0  0  0
 11 13  1  0  0  0  0
 11 14  1  0  0  0  0
 14 15  1  0  0  0  0
 14 16  1  0  0  0  0
 14 17  1  0  0  0  0
 17 18  1  0  0  0  0
 17 19  1  0  0  0  0
 17 20  1  0  0  0  0
M  END
> <VConfSearch Rank>
779

> <Conf_Id>
54

> <Delta U+W>
1.880

> <U+W>
17.218

> <U>
72.122

> <W>
-54.903

> <W(PB)>
-56.724

> <W(SA)>
1.821

> <Valence>
3.197

> <Coulomb>
69.115

> <VdW>
-0.190

> <VdW6>
-5.585

> <VdW12>
5.395

> <Bond>
0.177

> <Angle>
1.207

> <Pdih>
1.813

> <Idih>
0.000

> <Tether>
0.000

$$$$
VeraChem MOL file


 20 19  0  0  0  0  0  0  0  0999 V2000     
   18.6031   17.3122   24.4446 C   0  0  0  0  0  0  0  0  0  0  0  0
   18.3152   16.4071   23.8941 H   0  0  0  0  0  0  0  0  0  0  0  0
   18.8738   17.0128   25.4654 H   0  0  0  0  0  0  0  0  0  0  0  0
   17.7244   17.9672   24.5083 H   0  0  0  0  0  0  0  0  0  0  0  0
   19.7835   18.0306   23.7556 C   0  0  0  0  0  0  0  0  0  0  0  0
   20.6570   17.3634   23.7382 H   0  0  0  0  0  0  0  0  0  0  0  0
   20.0707   18.9112   24.3476 H   0  0  0  0  0  0  0  0  0  0  0  0
   19.4309   18.4640   22.3156 C   0  0  0  0  0  0  0  0  0  0  0  0
   19.1475   17.5832   21.7240 H   0  0  0  0  0  0  0  0  0  0  0  0
   18.5603   19.1331   22.3342 H   0  0  0  0  0  0  0  0  0  0  0  0
   20.6128   19.1795   21.6355 C   0  0  0  0  0  0  0  0  0  0  0  0
   21.4765   18.5107   21.6014 H   0  0  0  0  0  0  0  0  0  0  0  0
   20.8873   20.0656   22.2135 H   0  0  0  0  0  0  0  0  0  0  0  0
   20.3123   19.6239   20.2174 N   0  3  0  0  0  0  0  0  0  0  0  0
   19.4949   20.2531   20.2065 H   0  0  0  0  0  0  0  0  0  0  0  0
   20.0405   18.8135   19.6398 H   0  0  0  0  0  0  0  0  0  0  0  0
   21.5292   20.3194   19.6219 C   0  0  0  0  0  0  0  0  0  0  0  0
   22.3718   19.6247   19.6118 H   0  0  0  0  0  0  0  0  0  0  0  0
   21.2991   20.6338   18.6015 H   0  0  0  0  0  0  0  0  0  0  0  0
   21.7775   21.1927   20.2290 H   0  0  0  0  0  0  0  0  0  0  0  0
  1  2  1  0  0  0  0
  1  3  1  0  0  0  0
  1  4  1  0  0  0  0
  1  5  1  0  0  0  0
  5  6  1  0  0  0  0
  5  7  1  0  0  0  0
  5  8  1  0  0  0  0
  8  9  1  0  0  0  0
  8 10  1  0  0  0  0
  8 11  1  0  0  0  0
 11 12  1  0  0  0  0
 11 13  1  0  0  0  0
 11 14  1  0  0  0  0
 14 15  1  0  0  0  0
 14 16  1  0  0  0  0
 14 17  1  0  0  0  0
 17 18  1  0  0  0  0
 17 19  1  0  0  0  0
 17 20  1  0  0  0  0
M  END
> <VConfSearch Rank>
780

> <Conf_Id>
67

> <Delta U+W>
0.000

> <U+W>
15.338

> <U>
69.277

> <W>
-53.939

> <W(PB)>
-55.889

> <W(SA)>
1.950

> <Valence>
0.846

> <Coulomb>
68.557

> <VdW>
-0.127

> <VdW6>
-3.008

> <VdW12>
2.882

> <Bond>
0.088

> <Angle>
0.332

> <Pdih>
0.426

> <Idih>
0.000

> <Tether>
0.000

$$$$
VeraChem MOL file


 20 19  0  0  0  0  0  0  0  0999 V2000     
   18.7228   16.8359   23.7232 C   0  0  0  0  0  0  0  0  0  0  0  0
   19.3720   17.1097   24.5650 H   0  0  0  0  0  0  0  0  0  0  0  0
   17.7399   16.5659   24.1307 H   0  0  0  0  0  0  0  0  0  0  0  0
   19.1442   15.9431   23.2431 H   0  0  0  0  0  0  0  0  0  0  0  0
   18.5952   18.0005   22.7173 C   0  0  0  0  0  0  0  0  0  0  0  0
   18.1395   18.8667   23.2175 H   0  0  0  0  0  0  0  0  0  0  0  0
   17.9128   17.7092   21.9062 H   0  0  0  0  0  0  0  0  0  0  0  0
   19.9646   18.4021   22.1265 C   0  0  0  0  0  0  0  0  0  0  0  0
   20.6423   18.6920   22.9398 H   0  0  0  0  0  0  0  0  0  0  0  0
   20.4172   17.5375   21.6233 H   0  0  0  0  0  0  0  0  0  0  0  0
   19.8266   19.5649   21.1221 C   0  0  0  0  0  0  0  0  0  0  0  0
   19.4216   20.4454   21.6270 H   0  0  0  0  0  0  0  0  0  0  0  0
   19.1249   19.2733   20.3363 H   0  0  0  0  0  0  0  0  0  0  0  0
   21.1237   19.9706   20.4413 N   0  3  0  0  0  0  0  0  0  0  0  0
   20.9194   20.6315   19.6752 H   0  0  0  0  0  0  0  0  0  0  0  0
   21.5547   19.1557   19.9787 H   0  0  0  0  0  0  0  0  0  0  0  0
   22.0933   20.6090   21.4302 C   0  0  0  0  0  0  0  0  0  0  0  0
   22.3566   19.8820   22.2008 H   0  0  0  0  0  0  0  0  0  0  0  0
   22.9945   20.9201   20.8973 H   0  0  0  0  0  0  0  0  0  0  0  0
   21.6183   21.4791   21.8885 H   0  0  0  0  0  0  0  0  0  0  0  0
  1  2  1  0  0  0  0
  1  3  1  0  0  0  0
  1  4  1  0  0  0  0
  1  5  1  0  0  0  0
  5  6  1  0  0  0  0
  5  7  1  0  0  0  0
  5  8  1  0  0  0  0
  8  9  1  0  0  0  0
  8 10  1  0  0  0  0
  8 11  1  0  0  0  0
 11 12  1  0  0  0  0
 11 13  1  0  0  0  0
 11 14  1  0  0  0  0
 14 15  1  0  0  0  0
 14 16  1  0  0  0  0
 14 17  1  0  0  0  0
 17 18  1  0  0  0  0
 17 19  1  0  0  0  0
 17 20  1  0  0  0  0
M  END
> <VConfSearch Rank>
781

> <Conf_Id>
37

> <Delta U+W>
-0.021

> <U+W>
15.318

> <U>
69.657

> <W>
-54.340

> <W(PB)>
-56.238

> <W(SA)>
1.899

> <Valence>
1.137

> <Coulomb>
68.383

> <VdW>
0.138

> <VdW6>
-3.703

> <VdW12>
3.841

> <Bond>
0.125

> <Angle>
0.468

> <Pdih>
0.543

> <Idih>
0.000

> <Tether>
0.000

$$$$
VeraChem MOL file


 20 19  0  0  0  0  0  0  0  0999 V2000     
   19.6041   21.1291   20.1427 C   0  0  0  0  0  0  0  0  0  0  0  0
   19.7067   22.2212   20.1011 H   0  0  0  0  0  0  0  0  0  0  0  0
   20.3226   20.6968   19.4341 H   0  0  0  0  0  0  0  0  0  0  0  0
   18.5923   20.8735   19.8018 H   0  0  0  0  0  0  0  0  0  0  0  0
   19.8557   20.6116   21.5755 C   0  0  0  0  0  0  0  0  0  0  0  0
   19.1452   21.0880   22.2658 H   0  0  0  0  0  0  0  0  0  0  0  0
   20.8618   20.9120   21.9009 H   0  0  0  0  0  0  0  0  0  0  0  0
   19.7175   19.0758   21.6644 C   0  0  0  0  0  0  0  0  0  0  0  0
   18.7109   18.7768   21.3433 H   0  0  0  0  0  0  0  0  0  0  0  0
   20.4286   18.6045   20.9737 H   0  0  0  0  0  0  0  0  0  0  0  0
   19.9691   18.5687   23.0995 C   0  0  0  0  0  0  0  0  0  0  0  0
   19.2755   19.0700   23.7794 H   0  0  0  0  0  0  0  0  0  0  0  0
   20.9866   18.8201   23.4089 H   0  0  0  0  0  0  0  0  0  0  0  0
   19.7798   17.0717   23.2841 N   0  3  0  0  0  0  0  0  0  0  0  0
   18.8384   16.7893   22.9714 H   0  0  0  0  0  0  0  0  0  0  0  0
   19.8035   16.8425   24.2902 H   0  0  0  0  0  0  0  0  0  0  0  0
   20.8563   16.2813   22.5480 C   0  0  0  0  0  0  0  0  0  0  0  0
   21.8393   16.5864   22.9133 H   0  0  0  0  0  0  0  0  0  0  0  0
   20.7087   15.2155   22.7357 H   0  0  0  0  0  0  0  0  0  0  0  0
   20.7819   16.4779   21.4767 H   0  0  0  0  0  0  0  0  0  0  0  0
  1  2  1  0  0  0  0
  1  3  1  0  0  0  0
  1  4  1  0  0  0  0
  1  5  1  0  0  0  0
  5  6  1  0  0  0  0
  5  7  1  0  0  0  0
  5  8  1  0  0  0  0
  8  9  1  0  0  0  0
  8 10  1  0  0  0  0
  8 11  1  0  0  0  0
 11 12  1  0  0  0  0
 11 13  1  0  0  0  0
 11 14  1  0  0  0  0
 14 15  1  0  0  0  0
 14 16  1  0  0  0  0
 14 17  1  0  0  0  0
 17 18  1  0  0  0  0
 17 19  1  0  0  0  0
 17 20  1  0  0  0  0
M  END
> <VConfSearch Rank>
782

> <Conf_Id>
2

> <Delta U+W>
0.069

> <U+W>
15.407

> <U>
69.657

> <W>
-54.250

> <W(PB)>
-56.176

> <W(SA)>
1.926

> <Valence>
1.137

> <Coulomb>
68.383

> <VdW>
0.138

> <VdW6>
-3.703

> <VdW12>
3.841

> <Bond>
0.125

> <Angle>
0.468

> <Pdih>
0.543

> <Idih>
0.000

> <Tether>
0.000

$$$$
VeraChem MOL file


 20 19  0  0  0  0  0  0  0  0999 V2000     
   17.8820   19.7493   20.7822 C   0  0  0  0  0  0  0  0  0  0  0  0
   17.6422   19.4503   21.8103 H   0  0  0  0  0  0  0  0  0  0  0  0
   18.2166   20.7947   20.7982 H   0  0  0  0  0  0  0  0  0  0  0  0
   16.9527   19.7045   20.1996 H   0  0  0  0  0  0  0  0  0  0  0  0
   18.9574   18.8300   20.1587 C   0  0  0  0  0  0  0  0  0  0  0  0
   19.0974   19.1063   19.1041 H   0  0  0  0  0  0  0  0  0  0  0  0
   18.6004   17.7904   20.1605 H   0  0  0  0  0  0  0  0  0  0  0  0
   20.3202   18.9144   20.8853 C   0  0  0  0  0  0  0  0  0  0  0  0
   21.0518   18.2991   20.3450 H   0  0  0  0  0  0  0  0  0  0  0  0
   20.6917   19.9472   20.8519 H   0  0  0  0  0  0  0  0  0  0  0  0
   20.2429   18.4391   22.3493 C   0  0  0  0  0  0  0  0  0  0  0  0
   19.8754   17.4104   22.3822 H   0  0  0  0  0  0  0  0  0  0  0  0
   19.5463   19.0709   22.9054 H   0  0  0  0  0  0  0  0  0  0  0  0
   21.5780   18.4799   23.0665 N   0  3  0  0  0  0  0  0  0  0  0  0
   21.9633   19.4366   23.0485 H   0  0  0  0  0  0  0  0  0  0  0  0
   22.2686   17.8980   22.5680 H   0  0  0  0  0  0  0  0  0  0  0  0
   21.4115   17.9986   24.5017 C   0  0  0  0  0  0  0  0  0  0  0  0
   21.0356   16.9732   24.4962 H   0  0  0  0  0  0  0  0  0  0  0  0
   22.3796   18.0330   25.0062 H   0  0  0  0  0  0  0  0  0  0  0  0
   20.7033   18.6491   25.0196 H   0  0  0  0  0  0  0  0  0  0  0  0
  1  2  1  0  0  0  0
  1  3  1  0  0  0  0
  1  4  1  0  0  0  0
  1  5  1  0  0  0  0
  5  6  1  0  0  0  0
  5  7  1  0  0  0  0
  5  8  1  0  0  0  0
  8  9  1  0  0  0  0
  8 10  1  0  0  0  0
  8 11  1  0  0  0  0
 11 12  1  0  0  0  0
 11 13  1  0  0  0  0
 11 14  1  0  0  0  0
 14 15  1  0  0  0  0
 14 16  1  0  0  0  0
 14 17  1  0  0  0  0
 17 18  1  0  0  0  0
 17 19  1  0  0  0  0
 17 20  1  0  0  0  0
M  END
> <VConfSearch Rank>
783

> <Conf_Id>
34

> <Delta U+W>
0.276

> <U+W>
15.615

> <U>
69.798

> <W>
-54.184

> <W(PB)>
-56.116

> <W(SA)>
1.933

> <Valence>
1.134

> <Coulomb>
68.735

> <VdW>
-0.070

> <VdW6>
-3.565

> <VdW12>
3.494

> <Bond>
0.108

> <Angle>
0.456

> <Pdih>
0.569

> <Idih>
0.000

> <Tether>
0.000

$$$$
VeraChem MOL file


 20 19  0  0  0  0  0  0  0  0999 V2000     
   17.3894   20.1311   22.6903 C   0  0  0  0  0  0  0  0  0  0  0  0
   16.6181   19.3579   22.8024 H   0  0  0  0  0  0  0  0  0  0  0  0
   17.2451   20.8678   23.4912 H   0  0  0  0  0  0  0  0  0  0  0  0
   17.2256   20.6403   21.7317 H   0  0  0  0  0  0  0  0  0  0  0  0
   18.8053   19.5193   22.7602 C   0  0  0  0  0  0  0  0  0  0  0  0
   18.9492   19.0455   23.7416 H   0  0  0  0  0  0  0  0  0  0  0  0
   19.5481   20.3249   22.6851 H   0  0  0  0  0  0  0  0  0  0  0  0
   19.0343   18.4769   21.6403 C   0  0  0  0  0  0  0  0  0  0  0  0
   18.2613   17.6997   21.7046 H   0  0  0  0  0  0  0  0  0  0  0  0
   18.9198   18.9500   20.6559 H   0  0  0  0  0  0  0  0  0  0  0  0
   20.4159   17.7979   21.7285 C   0  0  0  0  0  0  0  0  0  0  0  0
   20.4818   17.0134   20.9703 H   0  0  0  0  0  0  0  0  0  0  0  0
   20.5345   17.3325   22.7102 H   0  0  0  0  0  0  0  0  0  0  0  0
   21.5841   18.7415   21.5127 N   0  3  0  0  0  0  0  0  0  0  0  0
   21.5622   19.4998   22.2105 H   0  0  0  0  0  0  0  0  0  0  0  0
   21.4995   19.2083   20.5967 H   0  0  0  0  0  0  0  0  0  0  0  0
   22.8959   17.9733   21.6016 C   0  0  0  0  0  0  0  0  0  0  0  0
   22.9788   17.5158   22.5898 H   0  0  0  0  0  0  0  0  0  0  0  0
   22.9115   17.1977   20.8328 H   0  0  0  0  0  0  0  0  0  0  0  0
   23.7275   18.6638   21.4446 H   0  0  0  0  0  0  0  0  0  0  0  0
  1  2  1  0  0  0  0
  1  3  1  0  0  0  0
  1  4  1  0  0  0  0
  1  5  1  0  0  0  0
  5  6  1  0  0  0  0
  5  7  1  0  0  0  0
  5  8  1  0  0  0  0
  8  9  1  0  0  0  0
  8 10  1  0  0  0  0
  8 11  1  0  0  0  0
 11 12  1  0  0  0  0
 11 13  1  0  0  0  0
 11 14  1  0  0  0  0
 14 15  1  0  0  0  0
 14 16  1  0  0  0  0
 14 17  1  0  0  0  0
 17 18  1  0  0  0  0
 17 19  1  0  0  0  0
 17 20  1  0  0  0  0
M  END
> <VConfSearch Rank>
784

> <Conf_Id>
50

> <Delta U+W>
0.319

> <U+W>
15.657

> <U>
69.962

> <W>
-54.305

> <W(PB)>
-56.223

> <W(SA)>
1.918

> <Valence>
0.982

> <Coulomb>
69.058

> <VdW>
-0.078

> <VdW6>
-3.548

> <VdW12>
3.471

> <Bond>
0.105

> <Angle>
0.408

> <Pdih>
0.469

> <Idih>
0.000

> <Tether>
0.000

$$$$
VeraChem MOL file


 20 19  0  0  0  0  0  0  0  0999 V2000     
   22.4702   17.9051   20.3981 C   0  0  0  0  0  0  0  0  0  0  0  0
   23.1668   18.5654   19.8654 H   0  0  0  0  0  0  0  0  0  0  0  0
   23.0641   17.2152   21.0118 H   0  0  0  0  0  0  0  0  0  0  0  0
   21.9273   17.3144   19.6487 H   0  0  0  0  0  0  0  0  0  0  0  0
   21.4966   18.7279   21.2694 C   0  0  0  0  0  0  0  0  0  0  0  0
   20.9502   19.4329   20.6285 H   0  0  0  0  0  0  0  0  0  0  0  0
   22.0710   19.3310   21.9869 H   0  0  0  0  0  0  0  0  0  0  0  0
   20.5027   17.8195   22.0311 C   0  0  0  0  0  0  0  0  0  0  0  0
   19.9055   17.2343   21.3193 H   0  0  0  0  0  0  0  0  0  0  0  0
   21.0640   17.0954   22.6366 H   0  0  0  0  0  0  0  0  0  0  0  0
   19.5639   18.6103   22.9642 C   0  0  0  0  0  0  0  0  0  0  0  0
   20.1567   19.1989   23.6689 H   0  0  0  0  0  0  0  0  0  0  0  0
   18.9508   17.9102   23.5375 H   0  0  0  0  0  0  0  0  0  0  0  0
   18.6230   19.5547   22.2398 N   0  3  0  0  0  0  0  0  0  0  0  0
   18.0527   19.0334   21.5564 H   0  0  0  0  0  0  0  0  0  0  0  0
   19.1613   20.2366   21.6851 H   0  0  0  0  0  0  0  0  0  0  0  0
   17.7306   20.2710   23.2444 C   0  0  0  0  0  0  0  0  0  0  0  0
   17.0593   20.9470   22.7102 H   0  0  0  0  0  0  0  0  0  0  0  0
   17.1459   19.5324   23.7970 H   0  0  0  0  0  0  0  0  0  0  0  0
   18.3536   20.8419   23.9364 H   0  0  0  0  0  0  0  0  0  0  0  0
  1  2  1  0  0  0  0
  1  3  1  0  0  0  0
  1  4  1  0  0  0  0
  1  5  1  0  0  0  0
  5  6  1  0  0  0  0
  5  7  1  0  0  0  0
  5  8  1  0  0  0  0
  8  9  1  0  0  0  0
  8 10  1  0  0  0  0
  8 11  1  0  0  0  0
 11 12  1  0  0  0  0
 11 13  1  0  0  0  0
 11 14  1  0  0  0  0
 14 15  1  0  0  0  0
 14 16  1  0  0  0  0
 14 17  1  0  0  0  0
 17 18  1  0  0  0  0
 17 19  1  0  0  0  0
 17 20  1  0  0  0  0
M  END
> <VConfSearch Rank>
785

> <Conf_Id>
35

> <Delta U+W>
0.360

> <U+W>
15.698

> <U>
69.962

> <W>
-54.264

> <W(PB)>
-56.166

> <W(SA)>
1.902

> <Valence>
0.982

> <Coulomb>
69.058

> <VdW>
-0.078

> <VdW6>
-3.548

> <VdW12>
3.471

> <Bond>
0.105

> <Angle>
0.408

> <Pdih>
0.469

> <Idih>
0.000

> <Tether>
0.000

$$$$
VeraChem MOL file


 20 19  0  0  0  0  0  0  0  0999 V2000     
   17.5300   19.2066   22.2611 C   0  0  0  0  0  0  0  0  0  0  0  0
   17.9911   19.7837   23.0726 H   0  0  0  0  0  0  0  0  0  0  0  0
   16.5271   19.6190   22.0905 H   0  0  0  0  0  0  0  0  0  0  0  0
   17.4119   18.1698   22.6020 H   0  0  0  0  0  0  0  0  0  0  0  0
   18.3716   19.2741   20.9660 C   0  0  0  0  0  0  0  0  0  0  0  0
   18.4789   20.3213   20.6496 H   0  0  0  0  0  0  0  0  0  0  0  0
   17.8295   18.7618   20.1589 H   0  0  0  0  0  0  0  0  0  0  0  0
   19.7693   18.6302   21.1203 C   0  0  0  0  0  0  0  0  0  0  0  0
   19.6550   17.5750   21.3998 H   0  0  0  0  0  0  0  0  0  0  0  0
   20.2789   18.6447   20.1478 H   0  0  0  0  0  0  0  0  0  0  0  0
   20.6461   19.3595   22.1609 C   0  0  0  0  0  0  0  0  0  0  0  0
   20.1829   19.2948   23.1483 H   0  0  0  0  0  0  0  0  0  0  0  0
   20.7156   20.4155   21.8880 H   0  0  0  0  0  0  0  0  0  0  0  0
   22.0652   18.8273   22.2764 N   0  3  0  0  0  0  0  0  0  0  0  0
   22.6263   19.4644   22.8631 H   0  0  0  0  0  0  0  0  0  0  0  0
   22.5281   18.8407   21.3548 H   0  0  0  0  0  0  0  0  0  0  0  0
   22.0834   17.4239   22.8727 C   0  0  0  0  0  0  0  0  0  0  0  0
   21.5434   16.7423   22.2126 H   0  0  0  0  0  0  0  0  0  0  0  0
   23.1190   17.0918   22.9739 H   0  0  0  0  0  0  0  0  0  0  0  0
   21.6061   17.4444   23.8547 H   0  0  0  0  0  0  0  0  0  0  0  0
  1  2  1  0  0  0  0
  1  3  1  0  0  0  0
  1  4  1  0  0  0  0
  1  5  1  0  0  0  0
  5  6  1  0  0  0  0
  5  7  1  0  0  0  0
  5  8  1  0  0  0  0
  8  9  1  0  0  0  0
  8 10  1  0  0  0  0
  8 11  1  0  0  0  0
 11 12  1  0  0  0  0
 11 13  1  0  0  0  0
 11 14  1  0  0  0  0
 14 15  1  0  0  0  0
 14 16  1  0  0  0  0
 14 17  1  0  0  0  0
 17 18  1  0  0  0  0
 17 19  1  0  0  0  0
 17 20  1  0  0  0  0
M  END
> <VConfSearch Rank>
786

> <Conf_Id>
33

> <Delta U+W>
0.372

> <U+W>
15.711

> <U>
70.163

> <W>
-54.452

> <W(PB)>
-56.363

> <W(SA)>
1.911

> <Valence>
1.420

> <Coulomb>
68.566

> <VdW>
0.177

> <VdW6>
-4.267

> <VdW12>
4.445

> <Bond>
0.146

> <Angle>
0.581

> <Pdih>
0.693

> <Idih>
0.000

> <Tether>
0.000

$$$$
VeraChem MOL file


 20 19  0  0  0  0  0  0  0  0999 V2000     
   21.2440   16.5644   21.4787 C   0  0  0  0  0  0  0  0  0  0  0  0
   21.4099   15.4830   21.3895 H   0  0  0  0  0  0  0  0  0  0  0  0
   20.9036   16.9284   20.5010 H   0  0  0  0  0  0  0  0  0  0  0  0
   22.2109   17.0341   21.7015 H   0  0  0  0  0  0  0  0  0  0  0  0
   20.2105   16.8648   22.5885 C   0  0  0  0  0  0  0  0  0  0  0  0
   20.5486   16.4045   23.5275 H   0  0  0  0  0  0  0  0  0  0  0  0
   19.2518   16.3884   22.3390 H   0  0  0  0  0  0  0  0  0  0  0  0
   19.9958   18.3788   22.8197 C   0  0  0  0  0  0  0  0  0  0  0  0
   19.3123   18.5177   23.6677 H   0  0  0  0  0  0  0  0  0  0  0  0
   20.9490   18.8422   23.1049 H   0  0  0  0  0  0  0  0  0  0  0  0
   19.4135   19.0908   21.5797 C   0  0  0  0  0  0  0  0  0  0  0  0
   18.4863   18.5916   21.2872 H   0  0  0  0  0  0  0  0  0  0  0  0
   20.1151   19.0180   20.7453 H   0  0  0  0  0  0  0  0  0  0  0  0
   19.0895   20.5611   21.7888 N   0  3  0  0  0  0  0  0  0  0  0  0
   18.4530   20.6762   22.5921 H   0  0  0  0  0  0  0  0  0  0  0  0
   18.5587   20.9165   20.9782 H   0  0  0  0  0  0  0  0  0  0  0  0
   20.3579   21.3861   21.9787 C   0  0  0  0  0  0  0  0  0  0  0  0
   20.0870   22.4385   22.0883 H   0  0  0  0  0  0  0  0  0  0  0  0
   20.8800   21.0473   22.8756 H   0  0  0  0  0  0  0  0  0  0  0  0
   21.0020   21.2611   21.1057 H   0  0  0  0  0  0  0  0  0  0  0  0
  1  2  1  0  0  0  0
  1  3  1  0  0  0  0
  1  4  1  0  0  0  0
  1  5  1  0  0  0  0
  5  6  1  0  0  0  0
  5  7  1  0  0  0  0
  5  8  1  0  0  0  0
  8  9  1  0  0  0  0
  8 10  1  0  0  0  0
  8 11  1  0  0  0  0
 11 12  1  0  0  0  0
 11 13  1  0  0  0  0
 11 14  1  0  0  0  0
 14 15  1  0  0  0  0
 14 16  1  0  0  0  0
 14 17  1  0  0  0  0
 17 18  1  0  0  0  0
 17 19  1  0  0  0  0
 17 20  1  0  0  0  0
M  END
> <VConfSearch Rank>
787

> <Conf_Id>
53

> <Delta U+W>
0.379

> <U+W>
15.717

> <U>
70.163

> <W>
-54.446

> <W(PB)>
-56.322

> <W(SA)>
1.876

> <Valence>
1.420

> <Coulomb>
68.566

> <VdW>
0.177

> <VdW6>
-4.267

> <VdW12>
4.445

> <Bond>
0.146

> <Angle>
0.581

> <Pdih>
0.693

> <Idih>
0.000

> <Tether>
0.000

$$$$
VeraChem MOL file


 20 19  0  0  0  0  0  0  0  0999 V2000     
   20.7002   19.0075   19.2540 C   0  0  0  0  0  0  0  0  0  0  0  0
   21.3361   19.7420   18.7428 H   0  0  0  0  0  0  0  0  0  0  0  0
   20.9145   18.0206   18.8236 H   0  0  0  0  0  0  0  0  0  0  0  0
   19.6542   19.2567   19.0329 H   0  0  0  0  0  0  0  0  0  0  0  0
   20.9654   19.0210   20.7750 C   0  0  0  0  0  0  0  0  0  0  0  0
   20.7781   20.0316   21.1626 H   0  0  0  0  0  0  0  0  0  0  0  0
   22.0256   18.7997   20.9622 H   0  0  0  0  0  0  0  0  0  0  0  0
   20.0793   17.9949   21.5198 C   0  0  0  0  0  0  0  0  0  0  0  0
   19.0188   18.2273   21.3584 H   0  0  0  0  0  0  0  0  0  0  0  0
   20.2437   16.9965   21.0933 H   0  0  0  0  0  0  0  0  0  0  0  0
   20.3780   17.9306   23.0341 C   0  0  0  0  0  0  0  0  0  0  0  0
   21.4223   17.6419   23.1777 H   0  0  0  0  0  0  0  0  0  0  0  0
   19.7522   17.1631   23.4966 H   0  0  0  0  0  0  0  0  0  0  0  0
   20.1556   19.2272   23.7983 N   0  3  0  0  0  0  0  0  0  0  0  0
   20.7269   19.9824   23.3916 H   0  0  0  0  0  0  0  0  0  0  0  0
   20.5033   19.1222   24.7643 H   0  0  0  0  0  0  0  0  0  0  0  0
   18.6807   19.6138   23.8174 C   0  0  0  0  0  0  0  0  0  0  0  0
   18.1031   18.8051   24.2703 H   0  0  0  0  0  0  0  0  0  0  0  0
   18.5577   20.5270   24.4037 H   0  0  0  0  0  0  0  0  0  0  0  0
   18.3384   19.7860   22.7950 H   0  0  0  0  0  0  0  0  0  0  0  0
  1  2  1  0  0  0  0
  1  3  1  0  0  0  0
  1  4  1  0  0  0  0
  1  5  1  0  0  0  0
  5  6  1  0  0  0  0
  5  7  1  0  0  0  0
  5  8  1  0  0  0  0
  8  9  1  0  0  0  0
  8 10  1  0  0  0  0
  8 11  1  0  0  0  0
 11 12  1  0  0  0  0
 11 13  1  0  0  0  0
 11 14  1  0  0  0  0
 14 15  1  0  0  0  0
 14 16  1  0  0  0  0
 14 17  1  0  0  0  0
 17 18  1  0  0  0  0
 17 19  1  0  0  0  0
 17 20  1  0  0  0  0
M  END
> <VConfSearch Rank>
788

> <Conf_Id>
49

> <Delta U+W>
0.268

> <U+W>
15.607

> <U>
70.298

> <W>
-54.692

> <W(PB)>
-56.576

> <W(SA)>
1.885

> <Valence>
1.245

> <Coulomb>
68.933

> <VdW>
0.120

> <VdW6>
-4.430

> <VdW12>
4.550

> <Bond>
0.148

> <Angle>
0.587

> <Pdih>
0.509

> <Idih>
0.000

> <Tether>
0.000

$$$$
VeraChem MOL file


 20 19  0  0  0  0  0  0  0  0999 V2000     
   22.7725   18.9257   21.4547 C   0  0  0  0  0  0  0  0  0  0  0  0
   22.7982   18.7998   20.3644 H   0  0  0  0  0  0  0  0  0  0  0  0
   23.1462   19.9304   21.6915 H   0  0  0  0  0  0  0  0  0  0  0  0
   23.4665   18.1973   21.8937 H   0  0  0  0  0  0  0  0  0  0  0  0
   21.3445   18.7186   22.0047 C   0  0  0  0  0  0  0  0  0  0  0  0
   21.3558   18.8229   23.0987 H   0  0  0  0  0  0  0  0  0  0  0  0
   21.0248   17.6921   21.7821 H   0  0  0  0  0  0  0  0  0  0  0  0
   20.3435   19.7264   21.3931 C   0  0  0  0  0  0  0  0  0  0  0  0
   20.7357   20.7439   21.5220 H   0  0  0  0  0  0  0  0  0  0  0  0
   20.2654   19.5617   20.3104 H   0  0  0  0  0  0  0  0  0  0  0  0
   18.9329   19.6774   22.0229 C   0  0  0  0  0  0  0  0  0  0  0  0
   18.3323   20.4677   21.5653 H   0  0  0  0  0  0  0  0  0  0  0  0
   18.9879   19.8823   23.0949 H   0  0  0  0  0  0  0  0  0  0  0  0
   18.1689   18.3773   21.8245 N   0  3  0  0  0  0  0  0  0  0  0  0
   18.4143   17.9503   20.9188 H   0  0  0  0  0  0  0  0  0  0  0  0
   17.1600   18.5828   21.7544 H   0  0  0  0  0  0  0  0  0  0  0  0
   18.4044   17.4102   22.9803 C   0  0  0  0  0  0  0  0  0  0  0  0
   17.8216   16.5022   22.8104 H   0  0  0  0  0  0  0  0  0  0  0  0
   19.4637   17.1584   23.0416 H   0  0  0  0  0  0  0  0  0  0  0  0
   18.0842   17.8816   23.9120 H   0  0  0  0  0  0  0  0  0  0  0  0
  1  2  1  0  0  0  0
  1  3  1  0  0  0  0
  1  4  1  0  0  0  0
  1  5  1  0  0  0  0
  5  6  1  0  0  0  0
  5  7  1  0  0  0  0
  5  8  1  0  0  0  0
  8  9  1  0  0  0  0
  8 10  1  0  0  0  0
  8 11  1  0  0  0  0
 11 12  1  0  0  0  0
 11 13  1  0  0  0  0
 11 14  1  0  0  0  0
 14 15  1  0  0  0  0
 14 16  1  0  0  0  0
 14 17  1  0  0  0  0
 17 18  1  0  0  0  0
 17 19  1  0  0  0  0
 17 20  1  0  0  0  0
M  END
> <VConfSearch Rank>
789

> <Conf_Id>
65

> <Delta U+W>
1.775

> <U+W>
17.114

> <U>
71.726

> <W>
-54.613

> <W(PB)>
-56.495

> <W(SA)>
1.883

> <Valence>
2.885

> <Coulomb>
68.822

> <VdW>
0.019

> <VdW6>
-4.600

> <VdW12>
4.619

> <Bond>
0.152

> <Angle>
0.862

> <Pdih>
1.871

> <Idih>
0.000

> <Tether>
0.000

$$$$
VeraChem MOL file


 20 19  0  0  0  0  0  0  0  0999 V2000     
   19.2068   16.6860   21.2413 C   0  0  0  0  0  0  0  0  0  0  0  0
   20.0426   16.6336   21.9502 H   0  0  0  0  0  0  0  0  0  0  0  0
   18.4899   15.9017   21.5168 H   0  0  0  0  0  0  0  0  0  0  0  0
   19.5913   16.4508   20.2403 H   0  0  0  0  0  0  0  0  0  0  0  0
   18.5267   18.0743   21.2633 C   0  0  0  0  0  0  0  0  0  0  0  0
   18.1504   18.2856   22.2734 H   0  0  0  0  0  0  0  0  0  0  0  0
   17.6429   18.0493   20.6105 H   0  0  0  0  0  0  0  0  0  0  0  0
   19.4619   19.2161   20.7925 C   0  0  0  0  0  0  0  0  0  0  0  0
   19.7458   19.0417   19.7462 H   0  0  0  0  0  0  0  0  0  0  0  0
   18.9121   20.1666   20.8054 H   0  0  0  0  0  0  0  0  0  0  0  0
   20.7472   19.3621   21.6337 C   0  0  0  0  0  0  0  0  0  0  0  0
   21.3626   20.1642   21.2187 H   0  0  0  0  0  0  0  0  0  0  0  0
   21.3238   18.4351   21.5885 H   0  0  0  0  0  0  0  0  0  0  0  0
   20.4946   19.6850   23.0940 N   0  3  0  0  0  0  0  0  0  0  0  0
   19.9087   18.9521   23.5208 H   0  0  0  0  0  0  0  0  0  0  0  0
   19.9493   20.5567   23.1763 H   0  0  0  0  0  0  0  0  0  0  0  0
   21.8184   19.8098   23.8359 C   0  0  0  0  0  0  0  0  0  0  0  0
   22.4082   20.6118   23.3867 H   0  0  0  0  0  0  0  0  0  0  0  0
   21.6215   20.0409   24.8850 H   0  0  0  0  0  0  0  0  0  0  0  0
   22.3624   18.8656   23.7626 H   0  0  0  0  0  0  0  0  0  0  0  0
  1  2  1  0  0  0  0
  1  3  1  0  0  0  0
  1  4  1  0  0  0  0
  1  5  1  0  0  0  0
  5  6  1  0  0  0  0
  5  7  1  0  0  0  0
  5  8  1  0  0  0  0
  8  9  1  0  0  0  0
  8 10  1  0  0  0  0
  8 11  1  0  0  0  0
 11 12  1  0  0  0  0
 11 13  1  0  0  0  0
 11 14  1  0  0  0  0
 14 15  1  0  0  0  0
 14 16  1  0  0  0  0
 14 17  1  0  0  0  0
 17 18  1  0  0  0  0
 17 19  1  0  0  0  0
 17 20  1  0  0  0  0
M  END
> <VConfSearch Rank>
790

> <Conf_Id>
23

> <Delta U+W>
0.896

> <U+W>
16.234

> <U>
70.374

> <W>
-54.140

> <W(PB)>
-56.046

> <W(SA)>
1.907

> <Valence>
1.257

> <Coulomb>
69.240

> <VdW>
-0.123

> <VdW6>
-4.336

> <VdW12>
4.213

> <Bond>
0.128

> <Angle>
0.603

> <Pdih>
0.526

> <Idih>
0.000

> <Tether>
0.000

$$$$
VeraChem MOL file


 20 19  0  0  0  0  0  0  0  0999 V2000     
   19.2898   16.6204   21.4715 C   0  0  0  0  0  0  0  0  0  0  0  0
   18.2159   16.6581   21.2471 H   0  0  0  0  0  0  0  0  0  0  0  0
   19.6306   15.5906   21.3032 H   0  0  0  0  0  0  0  0  0  0  0  0
   19.4248   16.8431   22.5375 H   0  0  0  0  0  0  0  0  0  0  0  0
   20.0791   17.6056   20.5789 C   0  0  0  0  0  0  0  0  0  0  0  0
   19.9896   17.2876   19.5306 H   0  0  0  0  0  0  0  0  0  0  0  0
   21.1489   17.5487   20.8217 H   0  0  0  0  0  0  0  0  0  0  0  0
   19.5813   19.0676   20.7005 C   0  0  0  0  0  0  0  0  0  0  0  0
   20.1622   19.7082   20.0238 H   0  0  0  0  0  0  0  0  0  0  0  0
   18.5403   19.1241   20.3557 H   0  0  0  0  0  0  0  0  0  0  0  0
   19.6579   19.6399   22.1314 C   0  0  0  0  0  0  0  0  0  0  0  0
   19.0445   19.0347   22.8031 H   0  0  0  0  0  0  0  0  0  0  0  0
   19.2611   20.6583   22.1359 H   0  0  0  0  0  0  0  0  0  0  0  0
   21.0631   19.6915   22.7000 N   0  3  0  0  0  0  0  0  0  0  0  0
   21.6734   20.2557   22.0892 H   0  0  0  0  0  0  0  0  0  0  0  0
   21.4759   18.7470   22.7055 H   0  0  0  0  0  0  0  0  0  0  0  0
   21.0335   20.2696   24.1084 C   0  0  0  0  0  0  0  0  0  0  0  0
   20.4088   19.6381   24.7437 H   0  0  0  0  0  0  0  0  0  0  0  0
   22.0506   20.2996   24.5054 H   0  0  0  0  0  0  0  0  0  0  0  0
   20.6220   21.2807   24.0736 H   0  0  0  0  0  0  0  0  0  0  0  0
  1  2  1  0  0  0  0
  1  3  1  0  0  0  0
  1  4  1  0  0  0  0
  1  5  1  0  0  0  0
  5  6  1  0  0  0  0
  5  7  1  0  0  0  0
  5  8  1  0  0  0  0
  8  9  1  0  0  0  0
  8 10  1  0  0  0  0
  8 11  1  0  0  0  0
 11 12  1  0  0  0  0
 11 13  1  0  0  0  0
 11 14  1  0  0  0  0
 14 15  1  0  0  0  0
 14 16  1  0  0  0  0
 14 17  1  0  0  0  0
 17 18  1  0  0  0  0
 17 19  1  0  0  0  0
 17 20  1  0  0  0  0
M  END
> <VConfSearch Rank>
791

> <Conf_Id>
24

> <Delta U+W>
0.792

> <U+W>
16.130

> <U>
70.374

> <W>
-54.243

> <W(PB)>
-56.130

> <W(SA)>
1.887

> <Valence>
1.257

> <Coulomb>
69.240

> <VdW>
-0.123

> <VdW6>
-4.336

> <VdW12>
4.213

> <Bond>
0.128

> <Angle>
0.603

> <Pdih>
0.526

> <Idih>
0.000

> <Tether>
0.000

$$$$
VeraChem MOL file


 20 19  0  0  0  0  0  0  0  0999 V2000     
   21.0618   16.9797   21.4628 C   0  0  0  0  0  0  0  0  0  0  0  0
   21.2970   15.9616   21.1261 H   0  0  0  0  0  0  0  0  0  0  0  0
   20.4737   17.4527   20.6675 H   0  0  0  0  0  0  0  0  0  0  0  0
   22.0109   17.5203   21.5733 H   0  0  0  0  0  0  0  0  0  0  0  0
   20.2816   16.9351   22.7965 C   0  0  0  0  0  0  0  0  0  0  0  0
   20.8147   16.2720   23.4924 H   0  0  0  0  0  0  0  0  0  0  0  0
   19.2987   16.4725   22.6296 H   0  0  0  0  0  0  0  0  0  0  0  0
   20.0986   18.3144   23.4797 C   0  0  0  0  0  0  0  0  0  0  0  0
   19.5970   18.1506   24.4427 H   0  0  0  0  0  0  0  0  0  0  0  0
   21.0754   18.7544   23.7202 H   0  0  0  0  0  0  0  0  0  0  0  0
   19.2508   19.3197   22.6716 C   0  0  0  0  0  0  0  0  0  0  0  0
   18.8645   20.0862   23.3482 H   0  0  0  0  0  0  0  0  0  0  0  0
   18.3987   18.8053   22.2204 H   0  0  0  0  0  0  0  0  0  0  0  0
   20.0120   20.0410   21.5756 N   0  3  0  0  0  0  0  0  0  0  0  0
   20.4430   19.3574   20.9372 H   0  0  0  0  0  0  0  0  0  0  0  0
   20.7982   20.5720   21.9805 H   0  0  0  0  0  0  0  0  0  0  0  0
   19.0752   20.9696   20.8149 C   0  0  0  0  0  0  0  0  0  0  0  0
   18.2702   20.3819   20.3684 H   0  0  0  0  0  0  0  0  0  0  0  0
   18.6567   21.7038   21.5066 H   0  0  0  0  0  0  0  0  0  0  0  0
   19.6364   21.4815   20.0300 H   0  0  0  0  0  0  0  0  0  0  0  0
  1  2  1  0  0  0  0
  1  3  1  0  0  0  0
  1  4  1  0  0  0  0
  1  5  1  0  0  0  0
  5  6  1  0  0  0  0
  5  7  1  0  0  0  0
  5  8  1  0  0  0  0
  8  9  1  0  0  0  0
  8 10  1  0  0  0  0
  8 11  1  0  0  0  0
 11 12  1  0  0  0  0
 11 13  1  0  0  0  0
 11 14  1  0  0  0  0
 14 15  1  0  0  0  0
 14 16  1  0  0  0  0
 14 17  1  0  0  0  0
 17 18  1  0  0  0  0
 17 19  1  0  0  0  0
 17 20  1  0  0  0  0
M  END
> <VConfSearch Rank>
792

> <Conf_Id>
26

> <Delta U+W>
2.888

> <U+W>
18.226

> <U>
72.042

> <W>
-53.816

> <W(PB)>
-55.689

> <W(SA)>
1.873

> <Valence>
2.428

> <Coulomb>
69.829

> <VdW>
-0.215

> <VdW6>
-4.563

> <VdW12>
4.348

> <Bond>
0.137

> <Angle>
0.936

> <Pdih>
1.356

> <Idih>
0.000

> <Tether>
0.000

$$$$
VeraChem MOL file


 20 19  0  0  0  0  0  0  0  0999 V2000     
   21.7696   18.1909   23.2474 C   0  0  0  0  0  0  0  0  0  0  0  0
   22.7850   17.9378   23.5793 H   0  0  0  0  0  0  0  0  0  0  0  0
   21.0707   17.8322   24.0142 H   0  0  0  0  0  0  0  0  0  0  0  0
   21.5898   17.6400   22.3166 H   0  0  0  0  0  0  0  0  0  0  0  0
   21.6402   19.7170   23.0383 C   0  0  0  0  0  0  0  0  0  0  0  0
   22.2824   20.0271   22.2019 H   0  0  0  0  0  0  0  0  0  0  0  0
   22.0340   20.2274   23.9285 H   0  0  0  0  0  0  0  0  0  0  0  0
   20.1915   20.2109   22.7933 C   0  0  0  0  0  0  0  0  0  0  0  0
   19.5555   19.9732   23.6562 H   0  0  0  0  0  0  0  0  0  0  0  0
   20.2144   21.3069   22.7291 H   0  0  0  0  0  0  0  0  0  0  0  0
   19.5453   19.6763   21.4975 C   0  0  0  0  0  0  0  0  0  0  0  0
   20.2796   19.6840   20.6882 H   0  0  0  0  0  0  0  0  0  0  0  0
   18.7199   20.3336   21.2125 H   0  0  0  0  0  0  0  0  0  0  0  0
   18.9743   18.2759   21.6149 N   0  3  0  0  0  0  0  0  0  0  0  0
   18.2452   18.2503   22.3441 H   0  0  0  0  0  0  0  0  0  0  0  0
   19.7042   17.6233   21.9343 H   0  0  0  0  0  0  0  0  0  0  0  0
   18.4056   17.8309   20.2744 C   0  0  0  0  0  0  0  0  0  0  0  0
   19.2016   17.8345   19.5266 H   0  0  0  0  0  0  0  0  0  0  0  0
   17.9985   16.8222   20.3741 H   0  0  0  0  0  0  0  0  0  0  0  0
   17.6130   18.5195   19.9736 H   0  0  0  0  0  0  0  0  0  0  0  0
  1  2  1  0  0  0  0
  1  3  1  0  0  0  0
  1  4  1  0  0  0  0
  1  5  1  0  0  0  0
  5  6  1  0  0  0  0
  5  7  1  0  0  0  0
  5  8  1  0  0  0  0
  8  9  1  0  0  0  0
  8 10  1  0  0  0  0
  8 11  1  0  0  0  0
 11 12  1  0  0  0  0
 11 13  1  0  0  0  0
 11 14  1  0  0  0  0
 14 15  1  0  0  0  0
 14 16  1  0  0  0  0
 14 17  1  0  0  0  0
 17 18  1  0  0  0  0
 17 19  1  0  0  0  0
 17 20  1  0  0  0  0
M  END
> <VConfSearch Rank>
793

> <Conf_Id>
5

> <Delta U+W>
2.950

> <U+W>
18.289

> <U>
72.042

> <W>
-53.753

> <W(PB)>
-55.644

> <W(SA)>
1.891

> <Valence>
2.428

> <Coulomb>
69.829

> <VdW>
-0.215

> <VdW6>
-4.563

> <VdW12>
4.348

> <Bond>
0.137

> <Angle>
0.936

> <Pdih>
1.356

> <Idih>
0.000

> <Tether>
0.000

$$$$
VeraChem MOL file


 20 19  0  0  0  0  0  0  0  0999 V2000     
   21.9679   17.7572   23.0975 C   0  0  0  0  0  0  0  0  0  0  0  0
   21.8752   16.6636   23.1205 H   0  0  0  0  0  0  0  0  0  0  0  0
   22.2974   18.0515   22.0932 H   0  0  0  0  0  0  0  0  0  0  0  0
   22.7605   18.0404   23.8021 H   0  0  0  0  0  0  0  0  0  0  0  0
   20.6330   18.4359   23.4816 C   0  0  0  0  0  0  0  0  0  0  0  0
   20.7510   19.5278   23.4553 H   0  0  0  0  0  0  0  0  0  0  0  0
   20.3904   18.1827   24.5232 H   0  0  0  0  0  0  0  0  0  0  0  0
   19.4514   18.0075   22.5763 C   0  0  0  0  0  0  0  0  0  0  0  0
   19.2852   16.9278   22.6868 H   0  0  0  0  0  0  0  0  0  0  0  0
   18.5304   18.4914   22.9261 H   0  0  0  0  0  0  0  0  0  0  0  0
   19.6616   18.3215   21.0774 C   0  0  0  0  0  0  0  0  0  0  0  0
   18.7878   17.9930   20.5092 H   0  0  0  0  0  0  0  0  0  0  0  0
   20.5260   17.7601   20.7143 H   0  0  0  0  0  0  0  0  0  0  0  0
   19.9013   19.7874   20.7503 N   0  3  0  0  0  0  0  0  0  0  0  0
   20.1680   19.8814   19.7577 H   0  0  0  0  0  0  0  0  0  0  0  0
   20.7128   20.1387   21.2796 H   0  0  0  0  0  0  0  0  0  0  0  0
   18.6621   20.6282   21.0367 C   0  0  0  0  0  0  0  0  0  0  0  0
   18.4245   20.5717   22.1008 H   0  0  0  0  0  0  0  0  0  0  0  0
   18.8618   21.6658   20.7603 H   0  0  0  0  0  0  0  0  0  0  0  0
   17.8247   20.2457   20.4493 H   0  0  0  0  0  0  0  0  0  0  0  0
  1  2  1  0  0  0  0
  1  3  1  0  0  0  0
  1  4  1  0  0  0  0
  1  5  1  0  0  0  0
  5  6  1  0  0  0  0
  5  7  1  0  0  0  0
  5  8  1  0  0  0  0
  8  9  1  0  0  0  0
  8 10  1  0  0  0  0
  8 11  1  0  0  0  0
 11 12  1  0  0  0  0
 11 13  1  0  0  0  0
 11 14  1  0  0  0  0
 14 15  1  0  0  0  0
 14 16  1  0  0  0  0
 14 17  1  0  0  0  0
 17 18  1  0  0  0  0
 17 19  1  0  0  0  0
 17 20  1  0  0  0  0
M  END
> <VConfSearch Rank>
794

> <Conf_Id>
52

> <Delta U+W>
0.784

> <U+W>
16.122

> <U>
70.777

> <W>
-54.655

> <W(PB)>
-56.491

> <W(SA)>
1.836

> <Valence>
1.529

> <Coulomb>
69.166

> <VdW>
0.082

> <VdW6>
-5.166

> <VdW12>
5.248

> <Bond>
0.171

> <Angle>
0.752

> <Pdih>
0.605

> <Idih>
0.000

> <Tether>
0.000

$$$$
VeraChem MOL file


 20 19  0  0  0  0  0  0  0  0999 V2000     
   19.6976   17.1390   20.9482 C   0  0  0  0  0  0  0  0  0  0  0  0
   19.6934   16.2296   20.3333 H   0  0  0  0  0  0  0  0  0  0  0  0
   19.8308   16.8214   21.9886 H   0  0  0  0  0  0  0  0  0  0  0  0
   18.7135   17.6147   20.8453 H   0  0  0  0  0  0  0  0  0  0  0  0
   20.8305   18.0872   20.4933 C   0  0  0  0  0  0  0  0  0  0  0  0
   20.7842   18.1862   19.3996 H   0  0  0  0  0  0  0  0  0  0  0  0
   21.8045   17.6290   20.7153 H   0  0  0  0  0  0  0  0  0  0  0  0
   20.7667   19.5067   21.1127 C   0  0  0  0  0  0  0  0  0  0  0  0
   21.5564   20.1119   20.6483 H   0  0  0  0  0  0  0  0  0  0  0  0
   19.8218   19.9958   20.8447 H   0  0  0  0  0  0  0  0  0  0  0  0
   20.9842   19.5510   22.6432 C   0  0  0  0  0  0  0  0  0  0  0  0
   21.2551   20.5678   22.9386 H   0  0  0  0  0  0  0  0  0  0  0  0
   21.8185   18.8950   22.9039 H   0  0  0  0  0  0  0  0  0  0  0  0
   19.7893   19.1464   23.4924 N   0  3  0  0  0  0  0  0  0  0  0  0
   20.0877   19.0249   24.4729 H   0  0  0  0  0  0  0  0  0  0  0  0
   19.4439   18.2223   23.1983 H   0  0  0  0  0  0  0  0  0  0  0  0
   18.6782   20.1877   23.4155 C   0  0  0  0  0  0  0  0  0  0  0  0
   19.0671   21.1530   23.7467 H   0  0  0  0  0  0  0  0  0  0  0  0
   18.3234   20.2649   22.3861 H   0  0  0  0  0  0  0  0  0  0  0  0
   17.8550   19.8808   24.0644 H   0  0  0  0  0  0  0  0  0  0  0  0
  1  2  1  0  0  0  0
  1  3  1  0  0  0  0
  1  4  1  0  0  0  0
  1  5  1  0  0  0  0
  5  6  1  0  0  0  0
  5  7  1  0  0  0  0
  5  8  1  0  0  0  0
  8  9  1  0  0  0  0
  8 10  1  0  0  0  0
  8 11  1  0  0  0  0
 11 12  1  0  0  0  0
 11 13  1  0  0  0  0
 11 14  1  0  0  0  0
 14 15  1  0  0  0  0
 14 16  1  0  0  0  0
 14 17  1  0  0  0  0
 17 18  1  0  0  0  0
 17 19  1  0  0  0  0
 17 20  1  0  0  0  0
M  END
> <VConfSearch Rank>
795

> <Conf_Id>
55

> <Delta U+W>
2.745

> <U+W>
18.083

> <U>
72.490

> <W>
-54.407

> <W(PB)>
-56.269

> <W(SA)>
1.861

> <Valence>
2.738

> <Coulomb>
69.795

> <VdW>
-0.043

> <VdW6>
-5.333

> <VdW12>
5.290

> <Bond>
0.182

> <Angle>
1.135

> <Pdih>
1.422

> <Idih>
0.000

> <Tether>
0.000

$$$$
VeraChem MOL file


 20 19  0  0  0  0  0  0  0  0999 V2000     
   19.9551   17.1620   23.3101 C   0  0  0  0  0  0  0  0  0  0  0  0
   20.0334   16.2046   23.8415 H   0  0  0  0  0  0  0  0  0  0  0  0
   20.1169   17.9634   24.0429 H   0  0  0  0  0  0  0  0  0  0  0  0
   18.9306   17.2330   22.9274 H   0  0  0  0  0  0  0  0  0  0  0  0
   20.9948   17.2267   22.1681 C   0  0  0  0  0  0  0  0  0  0  0  0
   20.7381   16.4886   21.3952 H   0  0  0  0  0  0  0  0  0  0  0  0
   21.9715   16.9198   22.5679 H   0  0  0  0  0  0  0  0  0  0  0  0
   21.1526   18.6271   21.5224 C   0  0  0  0  0  0  0  0  0  0  0  0
   21.4684   19.3593   22.2761 H   0  0  0  0  0  0  0  0  0  0  0  0
   21.9761   18.5725   20.7983 H   0  0  0  0  0  0  0  0  0  0  0  0
   19.9007   19.1323   20.7680 C   0  0  0  0  0  0  0  0  0  0  0  0
   19.4913   18.3149   20.1692 H   0  0  0  0  0  0  0  0  0  0  0  0
   20.1921   19.9330   20.0836 H   0  0  0  0  0  0  0  0  0  0  0  0
   18.7805   19.6795   21.6388 N   0  3  0  0  0  0  0  0  0  0  0  0
   18.5213   18.9883   22.3564 H   0  0  0  0  0  0  0  0  0  0  0  0
   17.9307   19.8090   21.0675 H   0  0  0  0  0  0  0  0  0  0  0  0
   19.1770   21.0034   22.2827 C   0  0  0  0  0  0  0  0  0  0  0  0
   20.0376   20.8465   22.9357 H   0  0  0  0  0  0  0  0  0  0  0  0
   19.4318   21.7214   21.5003 H   0  0  0  0  0  0  0  0  0  0  0  0
   18.3368   21.3817   22.8692 H   0  0  0  0  0  0  0  0  0  0  0  0
  1  2  1  0  0  0  0
  1  3  1  0  0  0  0
  1  4  1  0  0  0  0
  1  5  1  0  0  0  0
  5  6  1  0  0  0  0
  5  7  1  0  0  0  0
  5  8  1  0  0  0  0
  8  9  1  0  0  0  0
  8 10  1  0  0  0  0
  8 11  1  0  0  0  0
 11 12  1  0  0  0  0
 11 13  1  0  0  0  0
 11 14  1  0  0  0  0
 14 15  1  0  0  0  0
 14 16  1  0  0  0  0
 14 17  1  0  0  0  0
 17 18  1  0  0  0  0
 17 19  1  0  0  0  0
 17 20  1  0  0  0  0
M  END
> <VConfSearch Rank>
796

> <Conf_Id>
76

> <Delta U+W>
2.799

> <U+W>
18.137

> <U>
72.490

> <W>
-54.353

> <W(PB)>
-56.201

> <W(SA)>
1.848

> <Valence>
2.738

> <Coulomb>
69.795

> <VdW>
-0.043

> <VdW6>
-5.334

> <VdW12>
5.290

> <Bond>
0.182

> <Angle>
1.135

> <Pdih>
1.421

> <Idih>
0.000

> <Tether>
0.000

$$$$
VeraChem MOL file


 20 19  0  0  0  0  0  0  0  0999 V2000     
   22.0102   19.5318   21.5407 C   0  0  0  0  0  0  0  0  0  0  0  0
   21.3835   19.3070   20.6691 H   0  0  0  0  0  0  0  0  0  0  0  0
   22.1103   20.6223   21.6164 H   0  0  0  0  0  0  0  0  0  0  0  0
   23.0080   19.1171   21.3476 H   0  0  0  0  0  0  0  0  0  0  0  0
   21.4179   18.9378   22.8395 C   0  0  0  0  0  0  0  0  0  0  0  0
   22.1163   19.1281   23.6665 H   0  0  0  0  0  0  0  0  0  0  0  0
   21.3454   17.8457   22.7567 H   0  0  0  0  0  0  0  0  0  0  0  0
   20.0390   19.5380   23.2082 C   0  0  0  0  0  0  0  0  0  0  0  0
   19.6973   19.1068   24.1584 H   0  0  0  0  0  0  0  0  0  0  0  0
   20.1626   20.6132   23.3934 H   0  0  0  0  0  0  0  0  0  0  0  0
   18.9315   19.3562   22.1437 C   0  0  0  0  0  0  0  0  0  0  0  0
   19.2499   19.7692   21.1837 H   0  0  0  0  0  0  0  0  0  0  0  0
   18.0566   19.9230   22.4723 H   0  0  0  0  0  0  0  0  0  0  0  0
   18.4612   17.9264   21.9216 N   0  3  0  0  0  0  0  0  0  0  0  0
   17.4644   17.9348   21.6548 H   0  0  0  0  0  0  0  0  0  0  0  0
   18.4918   17.3969   22.8056 H   0  0  0  0  0  0  0  0  0  0  0  0
   19.2654   17.2308   20.8286 C   0  0  0  0  0  0  0  0  0  0  0  0
   18.8732   16.2217   20.6845 H   0  0  0  0  0  0  0  0  0  0  0  0
   19.1706   17.7967   19.8995 H   0  0  0  0  0  0  0  0  0  0  0  0
   20.3146   17.1765   21.1205 H   0  0  0  0  0  0  0  0  0  0  0  0
  1  2  1  0  0  0  0
  1  3  1  0  0  0  0
  1  4  1  0  0  0  0
  1  5  1  0  0  0  0
  5  6  1  0  0  0  0
  5  7  1  0  0  0  0
  5  8  1  0  0  0  0
  8  9  1  0  0  0  0
  8 10  1  0  0  0  0
  8 11  1  0  0  0  0
 11 12  1  0  0  0  0
 11 13  1  0  0  0  0
 11 14  1  0  0  0  0
 14 15  1  0  0  0  0
 14 16  1  0  0  0  0
 14 17  1  0  0  0  0
 17 18  1  0  0  0  0
 17 19  1  0  0  0  0
 17 20  1  0  0  0  0
M  END
> <VConfSearch Rank>
797

> <Conf_Id>
60

> <Delta U+W>
1.788

> <U+W>
17.127

> <U>
72.122

> <W>
-54.995

> <W(PB)>
-56.810

> <W(SA)>
1.815

> <Valence>
3.197

> <Coulomb>
69.115

> <VdW>
-0.190

> <VdW6>
-5.585

> <VdW12>
5.395

> <Bond>
0.177

> <Angle>
1.207

> <Pdih>
1.813

> <Idih>
0.000

> <Tether>
0.000

$$$$
VeraChem MOL file


 20 19  0  0  0  0  0  0  0  0999 V2000     
   21.5383   19.5455   23.4394 C   0  0  0  0  0  0  0  0  0  0  0  0
   21.5142   20.3080   24.2287 H   0  0  0  0  0  0  0  0  0  0  0  0
   22.4857   18.9989   23.5314 H   0  0  0  0  0  0  0  0  0  0  0  0
   21.5384   20.0673   22.4746 H   0  0  0  0  0  0  0  0  0  0  0  0
   20.3309   18.5889   23.5722 C   0  0  0  0  0  0  0  0  0  0  0  0
   19.3921   19.1532   23.5008 H   0  0  0  0  0  0  0  0  0  0  0  0
   20.3376   18.1481   24.5789 H   0  0  0  0  0  0  0  0  0  0  0  0
   20.3459   17.4436   22.5303 C   0  0  0  0  0  0  0  0  0  0  0  0
   21.2410   16.8298   22.6967 H   0  0  0  0  0  0  0  0  0  0  0  0
   19.4894   16.7800   22.7073 H   0  0  0  0  0  0  0  0  0  0  0  0
   20.3385   17.8943   21.0506 C   0  0  0  0  0  0  0  0  0  0  0  0
   20.4716   17.0044   20.4301 H   0  0  0  0  0  0  0  0  0  0  0  0
   21.1773   18.5647   20.8490 H   0  0  0  0  0  0  0  0  0  0  0  0
   19.0590   18.5656   20.5740 N   0  3  0  0  0  0  0  0  0  0  0  0
   18.2403   18.1546   21.0467 H   0  0  0  0  0  0  0  0  0  0  0  0
   18.9180   18.3552   19.5736 H   0  0  0  0  0  0  0  0  0  0  0  0
   19.1101   20.0777   20.7644 C   0  0  0  0  0  0  0  0  0  0  0  0
   19.9626   20.4793   20.2126 H   0  0  0  0  0  0  0  0  0  0  0  0
   18.1862   20.5169   20.3816 H   0  0  0  0  0  0  0  0  0  0  0  0
   19.2144   20.3127   21.8241 H   0  0  0  0  0  0  0  0  0  0  0  0
  1  2  1  0  0  0  0
  1  3  1  0  0  0  0
  1  4  1  0  0  0  0
  1  5  1  0  0  0  0
  5  6  1  0  0  0  0
  5  7  1  0  0  0  0
  5  8  1  0  0  0  0
  8  9  1  0  0  0  0
  8 10  1  0  0  0  0
  8 11  1  0  0  0  0
 11 12  1  0  0  0  0
 11 13  1  0  0  0  0
 11 14  1  0  0  0  0
 14 15  1  0  0  0  0
 14 16  1  0  0  0  0
 14 17  1  0  0  0  0
 17 18  1  0  0  0  0
 17 19  1  0  0  0  0
 17 20  1  0  0  0  0
M  END
> <VConfSearch Rank>
798

> <Conf_Id>
54

> <Delta U+W>
1.880

> <U+W>
17.218

> <U>
72.122

> <W>
-54.903

> <W(PB)>
-56.724

> <W(SA)>
1.821

> <Valence>
3.197

> <Coulomb>
69.115

> <VdW>
-0.190

> <VdW6>
-5.585

> <VdW12>
5.395

> <Bond>
0.177

> <Angle>
1.207

> <Pdih>
1.813

> <Idih>
0.000

> <Tether>
0.000

$$$$
VeraChem MOL file


 20 19  0  0  0  0  0  0  0  0999 V2000     
   17.9763   16.4026   21.5873 C   0  0  0  0  0  0  0  0  0  0  0  0
   18.6459   15.5926   21.9049 H   0  0  0  0  0  0  0  0  0  0  0  0
   16.9636   16.1560   21.9319 H   0  0  0  0  0  0  0  0  0  0  0  0
   17.9621   16.4234   20.4898 H   0  0  0  0  0  0  0  0  0  0  0  0
   18.4332   17.7603   22.1636 C   0  0  0  0  0  0  0  0  0  0  0  0
   18.4037   17.7194   23.2617 H   0  0  0  0  0  0  0  0  0  0  0  0
   17.7253   18.5436   21.8576 H   0  0  0  0  0  0  0  0  0  0  0  0
   19.8569   18.1335   21.6948 C   0  0  0  0  0  0  0  0  0  0  0  0
   20.5640   17.3522   22.0039 H   0  0  0  0  0  0  0  0  0  0  0  0
   19.8848   18.1774   20.5979 H   0  0  0  0  0  0  0  0  0  0  0  0
   20.3051   19.4884   22.2735 C   0  0  0  0  0  0  0  0  0  0  0  0
   20.2934   19.4432   23.3654 H   0  0  0  0  0  0  0  0  0  0  0  0
   19.6121   20.2711   21.9548 H   0  0  0  0  0  0  0  0  0  0  0  0
   21.6994   19.8967   21.8398 N   0  3  0  0  0  0  0  0  0  0  0  0
   21.7534   19.9432   20.8106 H   0  0  0  0  0  0  0  0  0  0  0  0
   22.3842   19.1767   22.1167 H   0  0  0  0  0  0  0  0  0  0  0  0
   22.0616   21.2422   22.4544 C   0  0  0  0  0  0  0  0  0  0  0  0
   22.0315   21.1604   23.5430 H   0  0  0  0  0  0  0  0  0  0  0  0
   23.0671   21.5238   22.1341 H   0  0  0  0  0  0  0  0  0  0  0  0
   21.3445   21.9952   22.1204 H   0  0  0  0  0  0  0  0  0  0  0  0
  1  2  1  0  0  0  0
  1  3  1  0  0  0  0
  1  4  1  0  0  0  0
  1  5  1  0  0  0  0
  5  6  1  0  0  0  0
  5  7  1  0  0  0  0
  5  8  1  0  0  0  0
  8  9  1  0  0  0  0
  8 10  1  0  0  0  0
  8 11  1  0  0  0  0
 11 12  1  0  0  0  0
 11 13  1  0  0  0  0
 11 14  1  0  0  0  0
 14 15  1  0  0  0  0
 14 16  1  0  0  0  0
 14 17  1  0  0  0  0
 17 18  1  0  0  0  0
 17 19  1  0  0  0  0
 17 20  1  0  0  0  0
M  END
> <VConfSearch Rank>
799

> <Conf_Id>
67

> <Delta U+W>
0.000

> <U+W>
15.338

> <U>
69.277

> <W>
-53.939

> <W(PB)>
-55.889

> <W(SA)>
1.950

> <Valence>
0.846

> <Coulomb>
68.557

> <VdW>
-0.127

> <VdW6>
-3.008

> <VdW12>
2.882

> <Bond>
0.088

> <Angle>
0.332

> <Pdih>
0.426

> <Idih>
0.000

> <Tether>
0.000

$$$$
VeraChem MOL file


 20 19  0  0  0  0  0  0  0  0999 V2000     
   19.6554   17.8468   24.7798 C   0  0  0  0  0  0  0  0  0  0  0  0
   19.2417   18.8179   25.0814 H   0  0  0  0  0  0  0  0  0  0  0  0
   19.1238   17.0665   25.3398 H   0  0  0  0  0  0  0  0  0  0  0  0
   20.7107   17.8168   25.0809 H   0  0  0  0  0  0  0  0  0  0  0  0
   19.5044   17.6259   23.2591 C   0  0  0  0  0  0  0  0  0  0  0  0
   18.4375   17.6269   22.9941 H   0  0  0  0  0  0  0  0  0  0  0  0
   19.8946   16.6331   22.9939 H   0  0  0  0  0  0  0  0  0  0  0  0
   20.2435   18.7104   22.4446 C   0  0  0  0  0  0  0  0  0  0  0  0
   19.8506   19.6996   22.7127 H   0  0  0  0  0  0  0  0  0  0  0  0
   21.3098   18.7059   22.7066 H   0  0  0  0  0  0  0  0  0  0  0  0
   20.0880   18.4803   20.9271 C   0  0  0  0  0  0  0  0  0  0  0  0
   19.0320   18.5316   20.6502 H   0  0  0  0  0  0  0  0  0  0  0  0
   20.4537   17.4801   20.6808 H   0  0  0  0  0  0  0  0  0  0  0  0
   20.8491   19.4665   20.0560 N   0  3  0  0  0  0  0  0  0  0  0  0
   20.8278   19.1479   19.0746 H   0  0  0  0  0  0  0  0  0  0  0  0
   21.8487   19.4707   20.3104 H   0  0  0  0  0  0  0  0  0  0  0  0
   20.2572   20.8683   20.1577 C   0  0  0  0  0  0  0  0  0  0  0  0
   20.3437   21.2249   21.1859 H   0  0  0  0  0  0  0  0  0  0  0  0
   20.8057   21.5372   19.4909 H   0  0  0  0  0  0  0  0  0  0  0  0
   19.2059   20.8368   19.8637 H   0  0  0  0  0  0  0  0  0  0  0  0
  1  2  1  0  0  0  0
  1  3  1  0  0  0  0
  1  4  1  0  0  0  0
  1  5  1  0  0  0  0
  5  6  1  0  0  0  0
  5  7  1  0  0  0  0
  5  8  1  0  0  0  0
  8  9  1  0  0  0  0
  8 10  1  0  0  0  0
  8 11  1  0  0  0  0
 11 12  1  0  0  0  0
 11 13  1  0  0  0  0
 11 14  1  0  0  0  0
 14 15  1  0  0  0  0
 14 16  1  0  0  0  0
 14 17  1  0  0  0  0
 17 18  1  0  0  0  0
 17 19  1  0  0  0  0
 17 20  1  0  0  0  0
M  END
> <VConfSearch Rank>
800

> <Conf_Id>
37

> <Delta U+W>
-0.021

> <U+W>
15.318

> <U>
69.657

> <W>
-54.340

> <W(PB)>
-56.238

> <W(SA)>
1.899

> <Valence>
1.137

> <Coulomb>
68.383

> <VdW>
0.138

> <VdW6>
-3.703

> <VdW12>
3.841

> <Bond>
0.125

> <Angle>
0.468

> <Pdih>
0.543

> <Idih>
0.000

> <Tether>
0.000

$$$$
VeraChem MOL file


 20 19  0  0  0  0  0  0  0  0999 V2000     
   17.2071   17.6494   22.0582 C   0  0  0  0  0  0  0  0  0  0  0  0
   16.5620   16.9814   22.6436 H   0  0  0  0  0  0  0  0  0  0  0  0
   16.7893   18.6625   22.1236 H   0  0  0  0  0  0  0  0  0  0  0  0
   17.1606   17.3277   21.0096 H   0  0  0  0  0  0  0  0  0  0  0  0
   18.6569   17.6102   22.5883 C   0  0  0  0  0  0  0  0  0  0  0  0
   19.0345   16.5789   22.5428 H   0  0  0  0  0  0  0  0  0  0  0  0
   18.6665   17.9036   23.6476 H   0  0  0  0  0  0  0  0  0  0  0  0
   19.5888   18.5417   21.7823 C   0  0  0  0  0  0  0  0  0  0  0  0
   19.5820   18.2454   20.7250 H   0  0  0  0  0  0  0  0  0  0  0  0
   19.2079   19.5700   21.8305 H   0  0  0  0  0  0  0  0  0  0  0  0
   21.0346   18.4945   22.3182 C   0  0  0  0  0  0  0  0  0  0  0  0
   21.3883   17.4606   22.2936 H   0  0  0  0  0  0  0  0  0  0  0  0
   21.0569   18.8347   23.3565 H   0  0  0  0  0  0  0  0  0  0  0  0
   22.0295   19.3310   21.5299 N   0  3  0  0  0  0  0  0  0  0  0  0
   22.0144   19.0606   20.5347 H   0  0  0  0  0  0  0  0  0  0  0  0
   22.9881   19.1169   21.8471 H   0  0  0  0  0  0  0  0  0  0  0  0
   21.7521   20.8217   21.6916 C   0  0  0  0  0  0  0  0  0  0  0  0
   21.7944   21.0824   22.7514 H   0  0  0  0  0  0  0  0  0  0  0  0
   22.5082   21.3878   21.1432 H   0  0  0  0  0  0  0  0  0  0  0  0
   20.7622   21.0519   21.2929 H   0  0  0  0  0  0  0  0  0  0  0  0
  1  2  1  0  0  0  0
  1  3  1  0  0  0  0
  1  4  1  0  0  0  0
  1  5  1  0  0  0  0
  5  6  1  0  0  0  0
  5  7  1  0  0  0  0
  5  8  1  0  0  0  0
  8  9  1  0  0  0  0
  8 10  1  0  0  0  0
  8 11  1  0  0  0  0
 11 12  1  0  0  0  0
 11 13  1  0  0  0  0
 11 14  1  0  0  0  0
 14 15  1  0  0  0  0
 14 16  1  0  0  0  0
 14 17  1  0  0  0  0
 17 18  1  0  0  0  0
 17 19  1  0  0  0  0
 17 20  1  0  0  0  0
M  END
> <VConfSearch Rank>
801

> <Conf_Id>
2

> <Delta U+W>
0.069

> <U+W>
15.407

> <U>
69.657

> <W>
-54.250

> <W(PB)>
-56.176

> <W(SA)>
1.926

> <Valence>
1.137

> <Coulomb>
68.383

> <VdW>
0.138

> <VdW6>
-3.703

> <VdW12>
3.841

> <Bond>
0.125

> <Angle>
0.468

> <Pdih>
0.543

> <Idih>
0.000

> <Tether>
0.000

$$$$
VeraChem MOL file


 20 19  0  0  0  0  0  0  0  0999 V2000     
   20.7569   21.0793   23.0896 C   0  0  0  0  0  0  0  0  0  0  0  0
   19.8070   20.7299   23.5135 H   0  0  0  0  0  0  0  0  0  0  0  0
   21.5745   20.6745   23.7002 H   0  0  0  0  0  0  0  0  0  0  0  0
   20.7786   22.1727   23.1840 H   0  0  0  0  0  0  0  0  0  0  0  0
   20.9076   20.6599   21.6092 C   0  0  0  0  0  0  0  0  0  0  0  0
   21.8243   21.1085   21.2011 H   0  0  0  0  0  0  0  0  0  0  0  0
   20.0747   21.0722   21.0222 H   0  0  0  0  0  0  0  0  0  0  0  0
   20.9707   19.1264   21.4184 C   0  0  0  0  0  0  0  0  0  0  0  0
   21.1549   18.9055   20.3586 H   0  0  0  0  0  0  0  0  0  0  0  0
   21.8244   18.7208   21.9775 H   0  0  0  0  0  0  0  0  0  0  0  0
   19.6763   18.4187   21.8646 C   0  0  0  0  0  0  0  0  0  0  0  0
   18.8272   18.8208   21.3064 H   0  0  0  0  0  0  0  0  0  0  0  0
   19.5053   18.6002   22.9284 H   0  0  0  0  0  0  0  0  0  0  0  0
   19.7062   16.9182   21.6503 N   0  3  0  0  0  0  0  0  0  0  0  0
   20.5030   16.5016   22.1559 H   0  0  0  0  0  0  0  0  0  0  0  0
   19.8720   16.7033   20.6551 H   0  0  0  0  0  0  0  0  0  0  0  0
   18.3953   16.3005   22.1183 C   0  0  0  0  0  0  0  0  0  0  0  0
   17.5702   16.7307   21.5465 H   0  0  0  0  0  0  0  0  0  0  0  0
   18.4303   15.2206   21.9583 H   0  0  0  0  0  0  0  0  0  0  0  0
   18.2576   16.5107   23.1812 H   0  0  0  0  0  0  0  0  0  0  0  0
  1  2  1  0  0  0  0
  1  3  1  0  0  0  0
  1  4  1  0  0  0  0
  1  5  1  0  0  0  0
  5  6  1  0  0  0  0
  5  7  1  0  0  0  0
  5  8  1  0  0  0  0
  8  9  1  0  0  0  0
  8 10  1  0  0  0  0
  8 11  1  0  0  0  0
 11 12  1  0  0  0  0
 11 13  1  0  0  0  0
 11 14  1  0  0  0  0
 14 15  1  0  0  0  0
 14 16  1  0  0  0  0
 14 17  1  0  0  0  0
 17 18  1  0  0  0  0
 17 19  1  0  0  0  0
 17 20  1  0  0  0  0
M  END
> <VConfSearch Rank>
802

> <Conf_Id>
34

> <Delta U+W>
0.276

> <U+W>
15.615

> <U>
69.798

> <W>
-54.184

> <W(PB)>
-56.116

> <W(SA)>
1.933

> <Valence>
1.134

> <Coulomb>
68.735

> <VdW>
-0.070

> <VdW6>
-3.565

> <VdW12>
3.494

> <Bond>
0.108

> <Angle>
0.456

> <Pdih>
0.569

> <Idih>
0.000

> <Tether>
0.000

$$$$
VeraChem MOL file


 20 19  0  0  0  0  0  0  0  0999 V2000     
   18.9271   19.9554   19.4240 C   0  0  0  0  0  0  0  0  0  0  0  0
   17.8607   19.7057   19.3482 H   0  0  0  0  0  0  0  0  0  0  0  0
   19.0524   20.9956   19.0962 H   0  0  0  0  0  0  0  0  0  0  0  0
   19.4787   19.3138   18.7246 H   0  0  0  0  0  0  0  0  0  0  0  0
   19.4401   19.7730   20.8688 C   0  0  0  0  0  0  0  0  0  0  0  0
   18.8913   20.4504   21.5384 H   0  0  0  0  0  0  0  0  0  0  0  0
   20.4967   20.0698   20.9143 H   0  0  0  0  0  0  0  0  0  0  0  0
   19.2750   18.3137   21.3549 C   0  0  0  0  0  0  0  0  0  0  0  0
   18.2207   18.0192   21.2668 H   0  0  0  0  0  0  0  0  0  0  0  0
   19.8439   17.6339   20.7069 H   0  0  0  0  0  0  0  0  0  0  0  0
   19.7142   18.1178   22.8199 C   0  0  0  0  0  0  0  0  0  0  0  0
   19.4906   17.0939   23.1302 H   0  0  0  0  0  0  0  0  0  0  0  0
   19.1540   18.7987   23.4656 H   0  0  0  0  0  0  0  0  0  0  0  0
   21.1935   18.3552   23.0595 N   0  3  0  0  0  0  0  0  0  0  0  0
   21.4493   19.3140   22.7809 H   0  0  0  0  0  0  0  0  0  0  0  0
   21.7553   17.7346   22.4567 H   0  0  0  0  0  0  0  0  0  0  0  0
   21.5267   18.1198   24.5266 C   0  0  0  0  0  0  0  0  0  0  0  0
   20.9456   18.8094   25.1427 H   0  0  0  0  0  0  0  0  0  0  0  0
   21.2788   17.0895   24.7910 H   0  0  0  0  0  0  0  0  0  0  0  0
   22.5932   18.2940   24.6848 H   0  0  0  0  0  0  0  0  0  0  0  0
  1  2  1  0  0  0  0
  1  3  1  0  0  0  0
  1  4  1  0  0  0  0
  1  5  1  0  0  0  0
  5  6  1  0  0  0  0
  5  7  1  0  0  0  0
  5  8  1  0  0  0  0
  8  9  1  0  0  0  0
  8 10  1  0  0  0  0
  8 11  1  0  0  0  0
 11 12  1  0  0  0  0
 11 13  1  0  0  0  0
 11 14  1  0  0  0  0
 14 15  1  0  0  0  0
 14 16  1  0  0  0  0
 14 17  1  0  0  0  0
 17 18  1  0  0  0  0
 17 19  1  0  0  0  0
 17 20  1  0  0  0  0
M  END
> <VConfSearch Rank>
803

> <Conf_Id>
50

> <Delta U+W>
0.319

> <U+W>
15.657

> <U>
69.962

> <W>
-54.305

> <W(PB)>
-56.223

> <W(SA)>
1.918

> <Valence>
0.982

> <Coulomb>
69.058

> <VdW>
-0.078

> <VdW6>
-3.548

> <VdW12>
3.471

> <Bond>
0.105

> <Angle>
0.408

> <Pdih>
0.469

> <Idih>
0.000

> <Tether>
0.000

$$$$
VeraChem MOL file


 20 19  0  0  0  0  0  0  0  0999 V2000     
   17.8833   20.1729   20.3783 C   0  0  0  0  0  0  0  0  0  0  0  0
   17.5504   19.8468   19.3844 H   0  0  0  0  0  0  0  0  0  0  0  0
   16.9924   20.2924   21.0084 H   0  0  0  0  0  0  0  0  0  0  0  0
   18.3578   21.1567   20.2678 H   0  0  0  0  0  0  0  0  0  0  0  0
   18.8637   19.1482   20.9888 C   0  0  0  0  0  0  0  0  0  0  0  0
   19.7209   19.0254   20.3130 H   0  0  0  0  0  0  0  0  0  0  0  0
   18.3705   18.1682   21.0568 H   0  0  0  0  0  0  0  0  0  0  0  0
   19.3488   19.5854   22.3912 C   0  0  0  0  0  0  0  0  0  0  0  0
   19.8677   20.5510   22.3265 H   0  0  0  0  0  0  0  0  0  0  0  0
   18.4792   19.7417   23.0433 H   0  0  0  0  0  0  0  0  0  0  0  0
   20.2744   18.5460   23.0550 C   0  0  0  0  0  0  0  0  0  0  0  0
   19.7621   17.5824   23.1139 H   0  0  0  0  0  0  0  0  0  0  0  0
   20.5092   18.8690   24.0724 H   0  0  0  0  0  0  0  0  0  0  0  0
   21.5891   18.3344   22.3278 N   0  3  0  0  0  0  0  0  0  0  0  0
   22.0970   19.2283   22.2442 H   0  0  0  0  0  0  0  0  0  0  0  0
   21.4144   18.0260   21.3599 H   0  0  0  0  0  0  0  0  0  0  0  0
   22.4339   17.3074   23.0699 C   0  0  0  0  0  0  0  0  0  0  0  0
   23.3761   17.1647   22.5362 H   0  0  0  0  0  0  0  0  0  0  0  0
   22.6345   17.6693   24.0806 H   0  0  0  0  0  0  0  0  0  0  0  0
   21.8907   16.3611   23.1173 H   0  0  0  0  0  0  0  0  0  0  0  0
  1  2  1  0  0  0  0
  1  3  1  0  0  0  0
  1  4  1  0  0  0  0
  1  5  1  0  0  0  0
  5  6  1  0  0  0  0
  5  7  1  0  0  0  0
  5  8  1  0  0  0  0
  8  9  1  0  0  0  0
  8 10  1  0  0  0  0
  8 11  1  0  0  0  0
 11 12  1  0  0  0  0
 11 13  1  0  0  0  0
 11 14  1  0  0  0  0
 14 15  1  0  0  0  0
 14 16  1  0  0  0  0
 14 17  1  0  0  0  0
 17 18  1  0  0  0  0
 17 19  1  0  0  0  0
 17 20  1  0  0  0  0
M  END
> <VConfSearch Rank>
804

> <Conf_Id>
35

> <Delta U+W>
0.360

> <U+W>
15.698

> <U>
69.962

> <W>
-54.264

> <W(PB)>
-56.166

> <W(SA)>
1.902

> <Valence>
0.982

> <Coulomb>
69.058

> <VdW>
-0.078

> <VdW6>
-3.548

> <VdW12>
3.471

> <Bond>
0.105

> <Angle>
0.408

> <Pdih>
0.469

> <Idih>
0.000

> <Tether>
0.000

$$$$
VeraChem MOL file


 20 19  0  0  0  0  0  0  0  0999 V2000     
   21.5056   18.0096   20.0149 C   0  0  0  0  0  0  0  0  0  0  0  0
   22.1054   18.7810   20.5142 H   0  0  0  0  0  0  0  0  0  0  0  0
   22.1844   17.4172   19.3879 H   0  0  0  0  0  0  0  0  0  0  0  0
   20.7880   18.5096   19.3514 H   0  0  0  0  0  0  0  0  0  0  0  0
   20.7810   17.1031   21.0364 C   0  0  0  0  0  0  0  0  0  0  0  0
   21.5202   16.6195   21.6904 H   0  0  0  0  0  0  0  0  0  0  0  0
   20.2692   16.2934   20.4975 H   0  0  0  0  0  0  0  0  0  0  0  0
   19.7466   17.8679   21.8949 C   0  0  0  0  0  0  0  0  0  0  0  0
   18.9901   18.3172   21.2387 H   0  0  0  0  0  0  0  0  0  0  0  0
   19.2189   17.1531   22.5399 H   0  0  0  0  0  0  0  0  0  0  0  0
   20.3963   18.9578   22.7743 C   0  0  0  0  0  0  0  0  0  0  0  0
   20.8686   19.7134   22.1419 H   0  0  0  0  0  0  0  0  0  0  0  0
   21.1731   18.4990   23.3912 H   0  0  0  0  0  0  0  0  0  0  0  0
   19.4351   19.6699   23.7120 N   0  3  0  0  0  0  0  0  0  0  0  0
   19.9682   20.2574   24.3722 H   0  0  0  0  0  0  0  0  0  0  0  0
   18.9426   18.9856   24.3061 H   0  0  0  0  0  0  0  0  0  0  0  0
   18.4425   20.5310   22.9383 C   0  0  0  0  0  0  0  0  0  0  0  0
   17.8375   19.8937   22.2905 H   0  0  0  0  0  0  0  0  0  0  0  0
   17.7950   21.0536   23.6458 H   0  0  0  0  0  0  0  0  0  0  0  0
   18.9909   21.2579   22.3354 H   0  0  0  0  0  0  0  0  0  0  0  0
  1  2  1  0  0  0  0
  1  3  1  0  0  0  0
  1  4  1  0  0  0  0
  1  5  1  0  0  0  0
  5  6  1  0  0  0  0
  5  7  1  0  0  0  0
  5  8  1  0  0  0  0
  8  9  1  0  0  0  0
  8 10  1  0  0  0  0
  8 11  1  0  0  0  0
 11 12  1  0  0  0  0
 11 13  1  0  0  0  0
 11 14  1  0  0  0  0
 14 15  1  0  0  0  0
 14 16  1  0  0  0  0
 14 17  1  0  0  0  0
 17 18  1  0  0  0  0
 17 19  1  0  0  0  0
 17 20  1  0  0  0  0
M  END
> <VConfSearch Rank>
805

> <Conf_Id>
33

> <Delta U+W>
0.372

> <U+W>
15.711

> <U>
70.163

> <W>
-54.452

> <W(PB)>
-56.363

> <W(SA)>
1.911

> <Valence>
1.420

> <Coulomb>
68.566

> <VdW>
0.177

> <VdW6>
-4.267

> <VdW12>
4.445

> <Bond>
0.146

> <Angle>
0.581

> <Pdih>
0.693

> <Idih>
0.000

> <Tether>
0.000

$$$$
VeraChem MOL file


 20 19  0  0  0  0  0  0  0  0999 V2000     
   19.2393   20.1673   24.0121 C   0  0  0  0  0  0  0  0  0  0  0  0
   18.5532   20.5929   24.7558 H   0  0  0  0  0  0  0  0  0  0  0  0
   19.7237   19.2956   24.4697 H   0  0  0  0  0  0  0  0  0  0  0  0
   20.0123   20.9179   23.8018 H   0  0  0  0  0  0  0  0  0  0  0  0
   18.4733   19.7819   22.7256 C   0  0  0  0  0  0  0  0  0  0  0  0
   17.9310   20.6626   22.3537 H   0  0  0  0  0  0  0  0  0  0  0  0
   17.7103   19.0270   22.9624 H   0  0  0  0  0  0  0  0  0  0  0  0
   19.4005   19.2530   21.6066 C   0  0  0  0  0  0  0  0  0  0  0  0
   18.8035   19.0729   20.7029 H   0  0  0  0  0  0  0  0  0  0  0  0
   20.1366   20.0252   21.3485 H   0  0  0  0  0  0  0  0  0  0  0  0
   20.1228   17.9475   22.0033 C   0  0  0  0  0  0  0  0  0  0  0  0
   19.3766   17.2039   22.2945 H   0  0  0  0  0  0  0  0  0  0  0  0
   20.7734   18.1285   22.8622 H   0  0  0  0  0  0  0  0  0  0  0  0
   20.9684   17.3323   20.9001 N   0  3  0  0  0  0  0  0  0  0  0  0
   20.3963   17.1757   20.0564 H   0  0  0  0  0  0  0  0  0  0  0  0
   21.2789   16.3908   21.1872 H   0  0  0  0  0  0  0  0  0  0  0  0
   22.1798   18.2017   20.5809 C   0  0  0  0  0  0  0  0  0  0  0  0
   22.7805   17.7099   19.8126 H   0  0  0  0  0  0  0  0  0  0  0  0
   21.8426   19.1736   20.2153 H   0  0  0  0  0  0  0  0  0  0  0  0
   22.7765   18.3332   21.4861 H   0  0  0  0  0  0  0  0  0  0  0  0
  1  2  1  0  0  0  0
  1  3  1  0  0  0  0
  1  4  1  0  0  0  0
  1  5  1  0  0  0  0
  5  6  1  0  0  0  0
  5  7  1  0  0  0  0
  5  8  1  0  0  0  0
  8  9  1  0  0  0  0
  8 10  1  0  0  0  0
  8 11  1  0  0  0  0
 11 12  1  0  0  0  0
 11 13  1  0  0  0  0
 11 14  1  0  0  0  0
 14 15  1  0  0  0  0
 14 16  1  0  0  0  0
 14 17  1  0  0  0  0
 17 18  1  0  0  0  0
 17 19  1  0  0  0  0
 17 20  1  0  0  0  0
M  END
> <VConfSearch Rank>
806

> <Conf_Id>
53

> <Delta U+W>
0.379

> <U+W>
15.717

> <U>
70.163

> <W>
-54.446

> <W(PB)>
-56.322

> <W(SA)>
1.876

> <Valence>
1.420

> <Coulomb>
68.566

> <VdW>
0.177

> <VdW6>
-4.267

> <VdW12>
4.445

> <Bond>
0.146

> <Angle>
0.581

> <Pdih>
0.693

> <Idih>
0.000

> <Tether>
0.000

$$$$
VeraChem MOL file


 20 19  0  0  0  0  0  0  0  0999 V2000     
   18.4669   18.3793   19.7746 C   0  0  0  0  0  0  0  0  0  0  0  0
   17.7129   17.5913   19.6502 H   0  0  0  0  0  0  0  0  0  0  0  0
   18.0470   19.3120   19.3759 H   0  0  0  0  0  0  0  0  0  0  0  0
   19.3391   18.1093   19.1650 H   0  0  0  0  0  0  0  0  0  0  0  0
   18.8543   18.5340   21.2612 C   0  0  0  0  0  0  0  0  0  0  0  0
   19.2332   17.5730   21.6348 H   0  0  0  0  0  0  0  0  0  0  0  0
   17.9566   18.7724   21.8490 H   0  0  0  0  0  0  0  0  0  0  0  0
   19.9184   19.6382   21.4638 C   0  0  0  0  0  0  0  0  0  0  0  0
   20.8276   19.3916   20.9004 H   0  0  0  0  0  0  0  0  0  0  0  0
   19.5449   20.5828   21.0467 H   0  0  0  0  0  0  0  0  0  0  0  0
   20.2688   19.8694   22.9505 C   0  0  0  0  0  0  0  0  0  0  0  0
   19.3643   20.1699   23.4855 H   0  0  0  0  0  0  0  0  0  0  0  0
   20.9920   20.6847   23.0319 H   0  0  0  0  0  0  0  0  0  0  0  0
   20.8488   18.6659   23.6785 N   0  3  0  0  0  0  0  0  0  0  0  0
   20.1975   17.8692   23.6238 H   0  0  0  0  0  0  0  0  0  0  0  0
   20.9262   18.8767   24.6859 H   0  0  0  0  0  0  0  0  0  0  0  0
   22.2167   18.2871   23.1216 C   0  0  0  0  0  0  0  0  0  0  0  0
   22.8902   19.1422   23.2102 H   0  0  0  0  0  0  0  0  0  0  0  0
   22.6145   17.4447   23.6918 H   0  0  0  0  0  0  0  0  0  0  0  0
   22.1143   18.0033   22.0723 H   0  0  0  0  0  0  0  0  0  0  0  0
  1  2  1  0  0  0  0
  1  3  1  0  0  0  0
  1  4  1  0  0  0  0
  1  5  1  0  0  0  0
  5  6  1  0  0  0  0
  5  7  1  0  0  0  0
  5  8  1  0  0  0  0
  8  9  1  0  0  0  0
  8 10  1  0  0  0  0
  8 11  1  0  0  0  0
 11 12  1  0  0  0  0
 11 13  1  0  0  0  0
 11 14  1  0  0  0  0
 14 15  1  0  0  0  0
 14 16  1  0  0  0  0
 14 17  1  0  0  0  0
 17 18  1  0  0  0  0
 17 19  1  0  0  0  0
 17 20  1  0  0  0  0
M  END
> <VConfSearch Rank>
807

> <Conf_Id>
49

> <Delta U+W>
0.268

> <U+W>
15.607

> <U>
70.298

> <W>
-54.692

> <W(PB)>
-56.576

> <W(SA)>
1.885

> <Valence>
1.245

> <Coulomb>
68.933

> <VdW>
0.120

> <VdW6>
-4.430

> <VdW12>
4.550

> <Bond>
0.148

> <Angle>
0.587

> <Pdih>
0.509

> <Idih>
0.000

> <Tether>
0.000

$$$$
VeraChem MOL file


 20 19  0  0  0  0  0  0  0  0999 V2000     
   21.3675   20.0327   19.8919 C   0  0  0  0  0  0  0  0  0  0  0  0
   20.8857   21.0191   19.9008 H   0  0  0  0  0  0  0  0  0  0  0  0
   22.4297   20.1691   20.1334 H   0  0  0  0  0  0  0  0  0  0  0  0
   21.3039   19.6367   18.8701 H   0  0  0  0  0  0  0  0  0  0  0  0
   20.6876   19.0728   20.8922 C   0  0  0  0  0  0  0  0  0  0  0  0
   21.1724   18.0878   20.8404 H   0  0  0  0  0  0  0  0  0  0  0  0
   19.6405   18.9328   20.5928 H   0  0  0  0  0  0  0  0  0  0  0  0
   20.7537   19.6132   22.3397 C   0  0  0  0  0  0  0  0  0  0  0  0
   21.7960   19.8580   22.5835 H   0  0  0  0  0  0  0  0  0  0  0  0
   20.1920   20.5539   22.4110 H   0  0  0  0  0  0  0  0  0  0  0  0
   20.2355   18.6238   23.4081 C   0  0  0  0  0  0  0  0  0  0  0  0
   20.3879   19.0785   24.3903 H   0  0  0  0  0  0  0  0  0  0  0  0
   20.8132   17.6966   23.3795 H   0  0  0  0  0  0  0  0  0  0  0  0
   18.7594   18.2689   23.3150 N   0  3  0  0  0  0  0  0  0  0  0  0
   18.2187   19.0700   22.9563 H   0  0  0  0  0  0  0  0  0  0  0  0
   18.3886   18.1042   24.2639 H   0  0  0  0  0  0  0  0  0  0  0  0
   18.5385   17.0207   22.4666 C   0  0  0  0  0  0  0  0  0  0  0  0
   17.4715   16.7883   22.4448 H   0  0  0  0  0  0  0  0  0  0  0  0
   18.8951   17.1962   21.4510 H   0  0  0  0  0  0  0  0  0  0  0  0
   19.0859   16.1858   22.9092 H   0  0  0  0  0  0  0  0  0  0  0  0
  1  2  1  0  0  0  0
  1  3  1  0  0  0  0
  1  4  1  0  0  0  0
  1  5  1  0  0  0  0
  5  6  1  0  0  0  0
  5  7  1  0  0  0  0
  5  8  1  0  0  0  0
  8  9  1  0  0  0  0
  8 10  1  0  0  0  0
  8 11  1  0  0  0  0
 11 12  1  0  0  0  0
 11 13  1  0  0  0  0
 11 14  1  0  0  0  0
 14 15  1  0  0  0  0
 14 16  1  0  0  0  0
 14 17  1  0  0  0  0
 17 18  1  0  0  0  0
 17 19  1  0  0  0  0
 17 20  1  0  0  0  0
M  END
> <VConfSearch Rank>
808

> <Conf_Id>
65

> <Delta U+W>
1.775

> <U+W>
17.114

> <U>
71.726

> <W>
-54.613

> <W(PB)>
-56.495

> <W(SA)>
1.883

> <Valence>
2.885

> <Coulomb>
68.822

> <VdW>
0.019

> <VdW6>
-4.600

> <VdW12>
4.619

> <Bond>
0.152

> <Angle>
0.862

> <Pdih>
1.871

> <Idih>
0.000

> <Tether>
0.000

$$$$
VeraChem MOL file


 20 19  0  0  0  0  0  0  0  0999 V2000     
   18.5853   20.5562   22.3865 C   0  0  0  0  0  0  0  0  0  0  0  0
   18.1760   19.5419   22.4742 H   0  0  0  0  0  0  0  0  0  0  0  0
   18.1502   21.1593   23.1939 H   0  0  0  0  0  0  0  0  0  0  0  0
   18.2469   20.9808   21.4324 H   0  0  0  0  0  0  0  0  0  0  0  0
   20.1286   20.5582   22.4795 C   0  0  0  0  0  0  0  0  0  0  0  0
   20.4416   20.1302   23.4415 H   0  0  0  0  0  0  0  0  0  0  0  0
   20.4848   21.5980   22.4810 H   0  0  0  0  0  0  0  0  0  0  0  0
   20.8083   19.8004   21.3118 C   0  0  0  0  0  0  0  0  0  0  0  0
   20.5677   20.3040   20.3661 H   0  0  0  0  0  0  0  0  0  0  0  0
   21.8990   19.8629   21.4221 H   0  0  0  0  0  0  0  0  0  0  0  0
   20.3939   18.3182   21.1996 C   0  0  0  0  0  0  0  0  0  0  0  0
   20.8910   17.8674   20.3369 H   0  0  0  0  0  0  0  0  0  0  0  0
   19.3149   18.2487   21.0430 H   0  0  0  0  0  0  0  0  0  0  0  0
   20.7443   17.4865   22.4186 N   0  3  0  0  0  0  0  0  0  0  0  0
   20.2982   17.8858   23.2577 H   0  0  0  0  0  0  0  0  0  0  0  0
   21.7590   17.5296   22.5988 H   0  0  0  0  0  0  0  0  0  0  0  0
   20.2982   16.0455   22.2110 C   0  0  0  0  0  0  0  0  0  0  0  0
   20.8066   15.6341   21.3364 H   0  0  0  0  0  0  0  0  0  0  0  0
   20.5553   15.4592   23.0959 H   0  0  0  0  0  0  0  0  0  0  0  0
   19.2175   16.0222   22.0551 H   0  0  0  0  0  0  0  0  0  0  0  0
  1  2  1  0  0  0  0
  1  3  1  0  0  0  0
  1  4  1  0  0  0  0
  1  5  1  0  0  0  0
  5  6  1  0  0  0  0
  5  7  1  0  0  0  0
  5  8  1  0  0  0  0
  8  9  1  0  0  0  0
  8 10  1  0  0  0  0
  8 11  1  0  0  0  0
 11 12  1  0  0  0  0
 11 13  1  0  0  0  0
 11 14  1  0  0  0  0
 14 15  1  0  0  0  0
 14 16  1  0  0  0  0
 14 17  1  0  0  0  0
 17 18  1  0  0  0  0
 17 19  1  0  0  0  0
 17 20  1  0  0  0  0
M  END
> <VConfSearch Rank>
809

> <Conf_Id>
23

> <Delta U+W>
0.896

> <U+W>
16.234

> <U>
70.374

> <W>
-54.140

> <W(PB)>
-56.046

> <W(SA)>
1.907

> <Valence>
1.257

> <Coulomb>
69.240

> <VdW>
-0.123

> <VdW6>
-4.336

> <VdW12>
4.213

> <Bond>
0.128

> <Angle>
0.603

> <Pdih>
0.526

> <Idih>
0.000

> <Tether>
0.000

$$$$
VeraChem MOL file


 20 19  0  0  0  0  0  0  0  0999 V2000     
   21.4130   17.8762   20.2506 C   0  0  0  0  0  0  0  0  0  0  0  0
   22.0165   17.0270   20.5965 H   0  0  0  0  0  0  0  0  0  0  0  0
   21.5746   17.9829   19.1701 H   0  0  0  0  0  0  0  0  0  0  0  0
   21.7930   18.7855   20.7330 H   0  0  0  0  0  0  0  0  0  0  0  0
   19.9137   17.6533   20.5551 C   0  0  0  0  0  0  0  0  0  0  0  0
   19.5569   16.7885   19.9782 H   0  0  0  0  0  0  0  0  0  0  0  0
   19.3321   18.5146   20.1994 H   0  0  0  0  0  0  0  0  0  0  0  0
   19.6301   17.4015   22.0572 C   0  0  0  0  0  0  0  0  0  0  0  0
   18.5560   17.2242   22.2008 H   0  0  0  0  0  0  0  0  0  0  0  0
   20.1364   16.4789   22.3703 H   0  0  0  0  0  0  0  0  0  0  0  0
   20.0828   18.5502   22.9827 C   0  0  0  0  0  0  0  0  0  0  0  0
   21.1599   18.7026   22.8802 H   0  0  0  0  0  0  0  0  0  0  0  0
   19.8764   18.2810   24.0217 H   0  0  0  0  0  0  0  0  0  0  0  0
   19.3947   19.8730   22.7050 N   0  3  0  0  0  0  0  0  0  0  0  0
   18.3724   19.7671   22.7917 H   0  0  0  0  0  0  0  0  0  0  0  0
   19.5604   20.1583   21.7284 H   0  0  0  0  0  0  0  0  0  0  0  0
   19.9060   20.9373   23.6664 C   0  0  0  0  0  0  0  0  0  0  0  0
   20.9836   21.0548   23.5333 H   0  0  0  0  0  0  0  0  0  0  0  0
   19.4034   21.8837   23.4544 H   0  0  0  0  0  0  0  0  0  0  0  0
   19.6917   20.6285   24.6918 H   0  0  0  0  0  0  0  0  0  0  0  0
  1  2  1  0  0  0  0
  1  3  1  0  0  0  0
  1  4  1  0  0  0  0
  1  5  1  0  0  0  0
  5  6  1  0  0  0  0
  5  7  1  0  0  0  0
  5  8  1  0  0  0  0
  8  9  1  0  0  0  0
  8 10  1  0  0  0  0
  8 11  1  0  0  0  0
 11 12  1  0  0  0  0
 11 13  1  0  0  0  0
 11 14  1  0  0  0  0
 14 15  1  0  0  0  0
 14 16  1  0  0  0  0
 14 17  1  0  0  0  0
 17 18  1  0  0  0  0
 17 19  1  0  0  0  0
 17 20  1  0  0  0  0
M  END
> <VConfSearch Rank>
810

> <Conf_Id>
24

> <Delta U+W>
0.792

> <U+W>
16.130

> <U>
70.374

> <W>
-54.243

> <W(PB)>
-56.130

> <W(SA)>
1.887

> <Valence>
1.257

> <Coulomb>
69.240

> <VdW>
-0.123

> <VdW6>
-4.336

> <VdW12>
4.213

> <Bond>
0.128

> <Angle>
0.603

> <Pdih>
0.526

> <Idih>
0.000

> <Tether>
0.000

$$$$
VeraChem MOL file


 20 19  0  0  0  0  0  0  0  0999 V2000     
   18.8149   20.5825   21.6454 C   0  0  0  0  0  0  0  0  0  0  0  0
   18.5411   21.6281   21.4530 H   0  0  0  0  0  0  0  0  0  0  0  0
   19.5089   20.2815   20.8517 H   0  0  0  0  0  0  0  0  0  0  0  0
   17.9006   19.9801   21.5664 H   0  0  0  0  0  0  0  0  0  0  0  0
   19.4585   20.4470   23.0443 C   0  0  0  0  0  0  0  0  0  0  0  0
   18.8153   20.9547   23.7767 H   0  0  0  0  0  0  0  0  0  0  0  0
   20.4174   20.9839   23.0590 H   0  0  0  0  0  0  0  0  0  0  0  0
   19.6731   18.9852   23.5133 C   0  0  0  0  0  0  0  0  0  0  0  0
   20.0671   19.0135   24.5379 H   0  0  0  0  0  0  0  0  0  0  0  0
   18.7115   18.4586   23.5751 H   0  0  0  0  0  0  0  0  0  0  0  0
   20.6639   18.1764   22.6494 C   0  0  0  0  0  0  0  0  0  0  0  0
   21.0372   17.3301   23.2317 H   0  0  0  0  0  0  0  0  0  0  0  0
   21.5165   18.8045   22.3796 H   0  0  0  0  0  0  0  0  0  0  0  0
   20.0647   17.6072   21.3774 N   0  3  0  0  0  0  0  0  0  0  0  0
   19.6493   18.3630   20.8146 H   0  0  0  0  0  0  0  0  0  0  0  0
   19.2832   16.9741   21.6062 H   0  0  0  0  0  0  0  0  0  0  0  0
   21.1339   16.8709   20.5817 C   0  0  0  0  0  0  0  0  0  0  0  0
   21.9341   17.5678   20.3233 H   0  0  0  0  0  0  0  0  0  0  0  0
   21.5354   16.0557   21.1875 H   0  0  0  0  0  0  0  0  0  0  0  0
   20.6885   16.4670   19.6699 H   0  0  0  0  0  0  0  0  0  0  0  0
  1  2  1  0  0  0  0
  1  3  1  0  0  0  0
  1  4  1  0  0  0  0
  1  5  1  0  0  0  0
  5  6  1  0  0  0  0
  5  7  1  0  0  0  0
  5  8  1  0  0  0  0
  8  9  1  0  0  0  0
  8 10  1  0  0  0  0
  8 11  1  0  0  0  0
 11 12  1  0  0  0  0
 11 13  1  0  0  0  0
 11 14  1  0  0  0  0
 14 15  1  0  0  0  0
 14 16  1  0  0  0  0
 14 17  1  0  0  0  0
 17 18  1  0  0  0  0
 17 19  1  0  0  0  0
 17 20  1  0  0  0  0
M  END
> <VConfSearch Rank>
811

> <Conf_Id>
26

> <Delta U+W>
2.888

> <U+W>
18.226

> <U>
72.042

> <W>
-53.816

> <W(PB)>
-55.689

> <W(SA)>
1.873

> <Valence>
2.428

> <Coulomb>
69.829

> <VdW>
-0.215

> <VdW6>
-4.563

> <VdW12>
4.348

> <Bond>
0.137

> <Angle>
0.936

> <Pdih>
1.356

> <Idih>
0.000

> <Tether>
0.000

$$$$
VeraChem MOL file


 20 19  0  0  0  0  0  0  0  0999 V2000     
   20.4479   16.9507   22.9661 C   0  0  0  0  0  0  0  0  0  0  0  0
   20.9395   16.0969   23.4505 H   0  0  0  0  0  0  0  0  0  0  0  0
   19.4138   16.6564   22.7446 H   0  0  0  0  0  0  0  0  0  0  0  0
   20.9760   17.1317   22.0225 H   0  0  0  0  0  0  0  0  0  0  0  0
   20.4945   18.1893   23.8898 C   0  0  0  0  0  0  0  0  0  0  0  0
   21.5373   18.5136   24.0140 H   0  0  0  0  0  0  0  0  0  0  0  0
   20.1475   17.8938   24.8900 H   0  0  0  0  0  0  0  0  0  0  0  0
   19.6320   19.3832   23.4067 C   0  0  0  0  0  0  0  0  0  0  0  0
   18.5745   19.0928   23.3504 H   0  0  0  0  0  0  0  0  0  0  0  0
   19.6876   20.1709   24.1698 H   0  0  0  0  0  0  0  0  0  0  0  0
   20.0840   19.9953   22.0638 C   0  0  0  0  0  0  0  0  0  0  0  0
   21.1751   20.0483   22.0308 H   0  0  0  0  0  0  0  0  0  0  0  0
   19.6927   21.0127   21.9852 H   0  0  0  0  0  0  0  0  0  0  0  0
   19.6024   19.2411   20.8389 N   0  3  0  0  0  0  0  0  0  0  0  0
   18.5713   19.2140   20.8221 H   0  0  0  0  0  0  0  0  0  0  0  0
   19.9015   18.2570   20.8908 H   0  0  0  0  0  0  0  0  0  0  0  0
   20.1406   19.9000   19.5761 C   0  0  0  0  0  0  0  0  0  0  0  0
   21.2323   19.8879   19.6011 H   0  0  0  0  0  0  0  0  0  0  0  0
   19.7860   19.3470   18.7035 H   0  0  0  0  0  0  0  0  0  0  0  0
   19.7836   20.9311   19.5284 H   0  0  0  0  0  0  0  0  0  0  0  0
  1  2  1  0  0  0  0
  1  3  1  0  0  0  0
  1  4  1  0  0  0  0
  1  5  1  0  0  0  0
  5  6  1  0  0  0  0
  5  7  1  0  0  0  0
  5  8  1  0  0  0  0
  8  9  1  0  0  0  0
  8 10  1  0  0  0  0
  8 11  1  0  0  0  0
 11 12  1  0  0  0  0
 11 13  1  0  0  0  0
 11 14  1  0  0  0  0
 14 15  1  0  0  0  0
 14 16  1  0  0  0  0
 14 17  1  0  0  0  0
 17 18  1  0  0  0  0
 17 19  1  0  0  0  0
 17 20  1  0  0  0  0
M  END
> <VConfSearch Rank>
812

> <Conf_Id>
5

> <Delta U+W>
2.950

> <U+W>
18.289

> <U>
72.042

> <W>
-53.753

> <W(PB)>
-55.644

> <W(SA)>
1.891

> <Valence>
2.428

> <Coulomb>
69.829

> <VdW>
-0.215

> <VdW6>
-4.563

> <VdW12>
4.348

> <Bond>
0.137

> <Angle>
0.936

> <Pdih>
1.356

> <Idih>
0.000

> <Tether>
0.000

$$$$
VeraChem MOL file


 20 19  0  0  0  0  0  0  0  0999 V2000     
   18.9203   19.5867   19.9834 C   0  0  0  0  0  0  0  0  0  0  0  0
   19.6012   19.9984   19.2272 H   0  0  0  0  0  0  0  0  0  0  0  0
   18.9841   18.4922   19.9415 H   0  0  0  0  0  0  0  0  0  0  0  0
   17.8977   19.8696   19.7019 H   0  0  0  0  0  0  0  0  0  0  0  0
   19.2635   20.1247   21.3916 C   0  0  0  0  0  0  0  0  0  0  0  0
   18.5679   19.7027   22.1296 H   0  0  0  0  0  0  0  0  0  0  0  0
   19.0999   21.2114   21.4083 H   0  0  0  0  0  0  0  0  0  0  0  0
   20.7255   19.8342   21.8129 C   0  0  0  0  0  0  0  0  0  0  0  0
   21.4086   20.3423   21.1195 H   0  0  0  0  0  0  0  0  0  0  0  0
   20.9147   20.2756   22.7998 H   0  0  0  0  0  0  0  0  0  0  0  0
   21.0843   18.3308   21.8430 C   0  0  0  0  0  0  0  0  0  0  0  0
   22.1261   18.2099   22.1503 H   0  0  0  0  0  0  0  0  0  0  0  0
   20.9842   17.9212   20.8349 H   0  0  0  0  0  0  0  0  0  0  0  0
   20.2279   17.4791   22.7673 N   0  3  0  0  0  0  0  0  0  0  0  0
   20.4442   16.4812   22.6176 H   0  0  0  0  0  0  0  0  0  0  0  0
   19.2331   17.5776   22.5166 H   0  0  0  0  0  0  0  0  0  0  0  0
   20.4573   17.8464   24.2292 C   0  0  0  0  0  0  0  0  0  0  0  0
   20.1672   18.8864   24.3908 H   0  0  0  0  0  0  0  0  0  0  0  0
   19.8511   17.1942   24.8616 H   0  0  0  0  0  0  0  0  0  0  0  0
   21.5141   17.7148   24.4711 H   0  0  0  0  0  0  0  0  0  0  0  0
  1  2  1  0  0  0  0
  1  3  1  0  0  0  0
  1  4  1  0  0  0  0
  1  5  1  0  0  0  0
  5  6  1  0  0  0  0
  5  7  1  0  0  0  0
  5  8  1  0  0  0  0
  8  9  1  0  0  0  0
  8 10  1  0  0  0  0
  8 11  1  0  0  0  0
 11 12  1  0  0  0  0
 11 13  1  0  0  0  0
 11 14  1  0  0  0  0
 14 15  1  0  0  0  0
 14 16  1  0  0  0  0
 14 17  1  0  0  0  0
 17 18  1  0  0  0  0
 17 19  1  0  0  0  0
 17 20  1  0  0  0  0
M  END
> <VConfSearch Rank>
813

> <Conf_Id>
52

> <Delta U+W>
0.784

> <U+W>
16.122

> <U>
70.777

> <W>
-54.655

> <W(PB)>
-56.491

> <W(SA)>
1.836

> <Valence>
1.529

> <Coulomb>
69.166

> <VdW>
0.082

> <VdW6>
-5.166

> <VdW12>
5.248

> <Bond>
0.171

> <Angle>
0.752

> <Pdih>
0.605

> <Idih>
0.000

> <Tether>
0.000

$$$$
VeraChem MOL file


 20 19  0  0  0  0  0  0  0  0999 V2000     
   21.3072   18.1367   23.5199 C   0  0  0  0  0  0  0  0  0  0  0  0
   21.9504   17.8961   24.3764 H   0  0  0  0  0  0  0  0  0  0  0  0
   20.3185   17.7149   23.7335 H   0  0  0  0  0  0  0  0  0  0  0  0
   21.7252   17.6333   22.6383 H   0  0  0  0  0  0  0  0  0  0  0  0
   21.2405   19.6672   23.3141 C   0  0  0  0  0  0  0  0  0  0  0  0
   22.2639   20.0672   23.3381 H   0  0  0  0  0  0  0  0  0  0  0  0
   20.7143   20.1293   24.1613 H   0  0  0  0  0  0  0  0  0  0  0  0
   20.5779   20.1075   21.9837 C   0  0  0  0  0  0  0  0  0  0  0  0
   20.6724   21.1987   21.9062 H   0  0  0  0  0  0  0  0  0  0  0  0
   21.1337   19.7003   21.1297 H   0  0  0  0  0  0  0  0  0  0  0  0
   19.0755   19.7599   21.8674 C   0  0  0  0  0  0  0  0  0  0  0  0
   18.6227   20.3780   21.0880 H   0  0  0  0  0  0  0  0  0  0  0  0
   18.5801   19.9990   22.8118 H   0  0  0  0  0  0  0  0  0  0  0  0
   18.7566   18.3127   21.5262 N   0  3  0  0  0  0  0  0  0  0  0  0
   17.7477   18.1408   21.6591 H   0  0  0  0  0  0  0  0  0  0  0  0
   19.2282   17.6816   22.1889 H   0  0  0  0  0  0  0  0  0  0  0  0
   19.1525   17.9826   20.0913 C   0  0  0  0  0  0  0  0  0  0  0  0
   18.6275   18.6555   19.4100 H   0  0  0  0  0  0  0  0  0  0  0  0
   20.2310   18.1051   19.9747 H   0  0  0  0  0  0  0  0  0  0  0  0
   18.8759   16.9489   19.8728 H   0  0  0  0  0  0  0  0  0  0  0  0
  1  2  1  0  0  0  0
  1  3  1  0  0  0  0
  1  4  1  0  0  0  0
  1  5  1  0  0  0  0
  5  6  1  0  0  0  0
  5  7  1  0  0  0  0
  5  8  1  0  0  0  0
  8  9  1  0  0  0  0
  8 10  1  0  0  0  0
  8 11  1  0  0  0  0
 11 12  1  0  0  0  0
 11 13  1  0  0  0  0
 11 14  1  0  0  0  0
 14 15  1  0  0  0  0
 14 16  1  0  0  0  0
 14 17  1  0  0  0  0
 17 18  1  0  0  0  0
 17 19  1  0  0  0  0
 17 20  1  0  0  0  0
M  END
> <VConfSearch Rank>
814

> <Conf_Id>
55

> <Delta U+W>
2.745

> <U+W>
18.083

> <U>
72.490

> <W>
-54.407

> <W(PB)>
-56.269

> <W(SA)>
1.861

> <Valence>
2.738

> <Coulomb>
69.795

> <VdW>
-0.043

> <VdW6>
-5.333

> <VdW12>
5.290

> <Bond>
0.182

> <Angle>
1.135

> <Pdih>
1.422

> <Idih>
0.000

> <Tether>
0.000

$$$$
VeraChem MOL file


 20 19  0  0  0  0  0  0  0  0999 V2000     
   21.5662   19.6435   20.9440 C   0  0  0  0  0  0  0  0  0  0  0  0
   22.4931   20.0705   20.5395 H   0  0  0  0  0  0  0  0  0  0  0  0
   21.1499   18.9708   20.1828 H   0  0  0  0  0  0  0  0  0  0  0  0
   20.8711   20.4765   21.0995 H   0  0  0  0  0  0  0  0  0  0  0  0
   21.8550   18.8899   22.2623 C   0  0  0  0  0  0  0  0  0  0  0  0
   22.1599   19.6078   23.0367 H   0  0  0  0  0  0  0  0  0  0  0  0
   22.7191   18.2293   22.1042 H   0  0  0  0  0  0  0  0  0  0  0  0
   20.6746   18.0298   22.7817 C   0  0  0  0  0  0  0  0  0  0  0  0
   20.4031   17.2695   22.0387 H   0  0  0  0  0  0  0  0  0  0  0  0
   21.0255   17.4736   23.6610 H   0  0  0  0  0  0  0  0  0  0  0  0
   19.4280   18.8393   23.2086 C   0  0  0  0  0  0  0  0  0  0  0  0
   19.7485   19.7072   23.7903 H   0  0  0  0  0  0  0  0  0  0  0  0
   18.8003   18.2193   23.8537 H   0  0  0  0  0  0  0  0  0  0  0  0
   18.5437   19.3371   22.0760 N   0  3  0  0  0  0  0  0  0  0  0  0
   19.1067   19.8644   21.3942 H   0  0  0  0  0  0  0  0  0  0  0  0
   17.8592   20.0157   22.4450 H   0  0  0  0  0  0  0  0  0  0  0  0
   17.8136   18.1839   21.3966 C   0  0  0  0  0  0  0  0  0  0  0  0
   18.5428   17.5032   20.9531 H   0  0  0  0  0  0  0  0  0  0  0  0
   17.2136   17.6520   22.1380 H   0  0  0  0  0  0  0  0  0  0  0  0
   17.1632   18.5832   20.6153 H   0  0  0  0  0  0  0  0  0  0  0  0
  1  2  1  0  0  0  0
  1  3  1  0  0  0  0
  1  4  1  0  0  0  0
  1  5  1  0  0  0  0
  5  6  1  0  0  0  0
  5  7  1  0  0  0  0
  5  8  1  0  0  0  0
  8  9  1  0  0  0  0
  8 10  1  0  0  0  0
  8 11  1  0  0  0  0
 11 12  1  0  0  0  0
 11 13  1  0  0  0  0
 11 14  1  0  0  0  0
 14 15  1  0  0  0  0
 14 16  1  0  0  0  0
 14 17  1  0  0  0  0
 17 18  1  0  0  0  0
 17 19  1  0  0  0  0
 17 20  1  0  0  0  0
M  END
> <VConfSearch Rank>
815

> <Conf_Id>
76

> <Delta U+W>
2.799

> <U+W>
18.137

> <U>
72.490

> <W>
-54.353

> <W(PB)>
-56.201

> <W(SA)>
1.848

> <Valence>
2.738

> <Coulomb>
69.795

> <VdW>
-0.043

> <VdW6>
-5.334

> <VdW12>
5.290

> <Bond>
0.182

> <Angle>
1.135

> <Pdih>
1.421

> <Idih>
0.000

> <Tether>
0.000

$$$$
VeraChem MOL file


 20 19  0  0  0  0  0  0  0  0999 V2000     
   21.5545   18.4617   23.5264 C   0  0  0  0  0  0  0  0  0  0  0  0
   20.7138   19.1118   23.7980 H   0  0  0  0  0  0  0  0  0  0  0  0
   21.4795   17.5415   24.1203 H   0  0  0  0  0  0  0  0  0  0  0  0
   22.4790   18.9750   23.8206 H   0  0  0  0  0  0  0  0  0  0  0  0
   21.5674   18.1455   22.0130 C   0  0  0  0  0  0  0  0  0  0  0  0
   22.4647   17.5542   21.7827 H   0  0  0  0  0  0  0  0  0  0  0  0
   21.6656   19.0728   21.4341 H   0  0  0  0  0  0  0  0  0  0  0  0
   20.3204   17.3547   21.5471 C   0  0  0  0  0  0  0  0  0  0  0  0
   20.4136   17.1266   20.4772 H   0  0  0  0  0  0  0  0  0  0  0  0
   20.3080   16.3845   22.0612 H   0  0  0  0  0  0  0  0  0  0  0  0
   18.9624   18.0512   21.7987 C   0  0  0  0  0  0  0  0  0  0  0  0
   18.8475   18.2982   22.8567 H   0  0  0  0  0  0  0  0  0  0  0  0
   18.1712   17.3437   21.5378 H   0  0  0  0  0  0  0  0  0  0  0  0
   18.7057   19.3073   20.9794 N   0  3  0  0  0  0  0  0  0  0  0  0
   17.6939   19.3913   20.7954 H   0  0  0  0  0  0  0  0  0  0  0  0
   19.1360   19.2216   20.0465 H   0  0  0  0  0  0  0  0  0  0  0  0
   19.1883   20.5607   21.7013 C   0  0  0  0  0  0  0  0  0  0  0  0
   18.9562   21.4359   21.0906 H   0  0  0  0  0  0  0  0  0  0  0  0
   18.6768   20.6391   22.6630 H   0  0  0  0  0  0  0  0  0  0  0  0
   20.2654   20.5026   21.8615 H   0  0  0  0  0  0  0  0  0  0  0  0
  1  2  1  0  0  0  0
  1  3  1  0  0  0  0
  1  4  1  0  0  0  0
  1  5  1  0  0  0  0
  5  6  1  0  0  0  0
  5  7  1  0  0  0  0
  5  8  1  0  0  0  0
  8  9  1  0  0  0  0
  8 10  1  0  0  0  0
  8 11  1  0  0  0  0
 11 12  1  0  0  0  0
 11 13  1  0  0  0  0
 11 14  1  0  0  0  0
 14 15  1  0  0  0  0
 14 16  1  0  0  0  0
 14 17  1  0  0  0  0
 17 18  1  0  0  0  0
 17 19  1  0  0  0  0
 17 20  1  0  0  0  0
M  END
> <VConfSearch Rank>
816

> <Conf_Id>
60

> <Delta U+W>
1.788

> <U+W>
17.127

> <U>
72.122

> <W>
-54.995

> <W(PB)>
-56.810

> <W(SA)>
1.815

> <Valence>
3.197

> <Coulomb>
69.115

> <VdW>
-0.190

> <VdW6>
-5.585

> <VdW12>
5.395

> <Bond>
0.177

> <Angle>
1.207

> <Pdih>
1.813

> <Idih>
0.000

> <Tether>
0.000

$$$$
VeraChem MOL file


 20 19  0  0  0  0  0  0  0  0999 V2000     
   22.0863   19.6307   21.6627 C   0  0  0  0  0  0  0  0  0  0  0  0
   22.4790   20.6292   21.4311 H   0  0  0  0  0  0  0  0  0  0  0  0
   22.9417   18.9746   21.8696 H   0  0  0  0  0  0  0  0  0  0  0  0
   21.5801   19.2572   20.7642 H   0  0  0  0  0  0  0  0  0  0  0  0
   21.1287   19.6922   22.8750 C   0  0  0  0  0  0  0  0  0  0  0  0
   20.2914   20.3689   22.6611 H   0  0  0  0  0  0  0  0  0  0  0  0
   21.6626   20.1385   23.7256 H   0  0  0  0  0  0  0  0  0  0  0  0
   20.5961   18.3016   23.2994 C   0  0  0  0  0  0  0  0  0  0  0  0
   21.4460   17.6814   23.6135 H   0  0  0  0  0  0  0  0  0  0  0  0
   19.9601   18.4117   24.1876 H   0  0  0  0  0  0  0  0  0  0  0  0
   19.8135   17.5314   22.2100 C   0  0  0  0  0  0  0  0  0  0  0  0
   19.6021   16.5307   22.5955 H   0  0  0  0  0  0  0  0  0  0  0  0
   20.4214   17.4157   21.3096 H   0  0  0  0  0  0  0  0  0  0  0  0
   18.4735   18.1331   21.8133 N   0  3  0  0  0  0  0  0  0  0  0  0
   18.0246   18.5781   22.6277 H   0  0  0  0  0  0  0  0  0  0  0  0
   17.8291   17.3751   21.5396 H   0  0  0  0  0  0  0  0  0  0  0  0
   18.6156   19.1120   20.6528 C   0  0  0  0  0  0  0  0  0  0  0  0
   19.0518   18.5919   19.7973 H   0  0  0  0  0  0  0  0  0  0  0  0
   17.6278   19.4934   20.3848 H   0  0  0  0  0  0  0  0  0  0  0  0
   19.2598   19.9413   20.9463 H   0  0  0  0  0  0  0  0  0  0  0  0
  1  2  1  0  0  0  0
  1  3  1  0  0  0  0
  1  4  1  0  0  0  0
  1  5  1  0  0  0  0
  5  6  1  0  0  0  0
  5  7  1  0  0  0  0
  5  8  1  0  0  0  0
  8  9  1  0  0  0  0
  8 10  1  0  0  0  0
  8 11  1  0  0  0  0
 11 12  1  0  0  0  0
 11 13  1  0  0  0  0
 11 14  1  0  0  0  0
 14 15  1  0  0  0  0
 14 16  1  0  0  0  0
 14 17  1  0  0  0  0
 17 18  1  0  0  0  0
 17 19  1  0  0  0  0
 17 20  1  0  0  0  0
M  END
> <VConfSearch Rank>
817

> <Conf_Id>
54

> <Delta U+W>
1.880

> <U+W>
17.218

> <U>
72.122

> <W>
-54.903

> <W(PB)>
-56.724

> <W(SA)>
1.821

> <Valence>
3.197

> <Coulomb>
69.115

> <VdW>
-0.190

> <VdW6>
-5.585

> <VdW12>
5.395

> <Bond>
0.177

> <Angle>
1.207

> <Pdih>
1.813

> <Idih>
0.000

> <Tether>
0.000

$$$$
VeraChem MOL file


 20 19  0  0  0  0  0  0  0  0999 V2000     
   18.2551   21.1871   20.7830 C   0  0  0  0  0  0  0  0  0  0  0  0
   17.4390   21.1320   21.5152 H   0  0  0  0  0  0  0  0  0  0  0  0
   18.4036   22.2435   20.5242 H   0  0  0  0  0  0  0  0  0  0  0  0
   17.9349   20.6604   19.8745 H   0  0  0  0  0  0  0  0  0  0  0  0
   19.5546   20.5766   21.3512 C   0  0  0  0  0  0  0  0  0  0  0  0
   19.8681   21.1457   22.2378 H   0  0  0  0  0  0  0  0  0  0  0  0
   20.3600   20.6778   20.6100 H   0  0  0  0  0  0  0  0  0  0  0  0
   19.3749   19.0886   21.7246 C   0  0  0  0  0  0  0  0  0  0  0  0
   18.5725   18.9888   22.4677 H   0  0  0  0  0  0  0  0  0  0  0  0
   19.0650   18.5202   20.8376 H   0  0  0  0  0  0  0  0  0  0  0  0
   20.6749   18.4872   22.2903 C   0  0  0  0  0  0  0  0  0  0  0  0
   20.9779   19.0410   23.1824 H   0  0  0  0  0  0  0  0  0  0  0  0
   21.4719   18.5708   21.5471 H   0  0  0  0  0  0  0  0  0  0  0  0
   20.5459   17.0255   22.6716 N   0  3  0  0  0  0  0  0  0  0  0  0
   20.2526   16.4682   21.8545 H   0  0  0  0  0  0  0  0  0  0  0  0
   19.7953   16.9036   23.3686 H   0  0  0  0  0  0  0  0  0  0  0  0
   21.8711   16.5125   23.2194 C   0  0  0  0  0  0  0  0  0  0  0  0
   22.1444   17.0935   24.1028 H   0  0  0  0  0  0  0  0  0  0  0  0
   21.7640   15.4597   23.4898 H   0  0  0  0  0  0  0  0  0  0  0  0
   22.6425   16.6191   22.4536 H   0  0  0  0  0  0  0  0  0  0  0  0
  1  2  1  0  0  0  0
  1  3  1  0  0  0  0
  1  4  1  0  0  0  0
  1  5  1  0  0  0  0
  5  6  1  0  0  0  0
  5  7  1  0  0  0  0
  5  8  1  0  0  0  0
  8  9  1  0  0  0  0
  8 10  1  0  0  0  0
  8 11  1  0  0  0  0
 11 12  1  0  0  0  0
 11 13  1  0  0  0  0
 11 14  1  0  0  0  0
 14 15  1  0  0  0  0
 14 16  1  0  0  0  0
 14 17  1  0  0  0  0
 17 18  1  0  0  0  0
 17 19  1  0  0  0  0
 17 20  1  0  0  0  0
M  END
> <VConfSearch Rank>
818

> <Conf_Id>
67

> <Delta U+W>
0.000

> <U+W>
15.338

> <U>
69.277

> <W>
-53.939

> <W(PB)>
-55.889

> <W(SA)>
1.950

> <Valence>
0.846

> <Coulomb>
68.557

> <VdW>
-0.127

> <VdW6>
-3.008

> <VdW12>
2.882

> <Bond>
0.088

> <Angle>
0.332

> <Pdih>
0.426

> <Idih>
0.000

> <Tether>
0.000

$$$$
VeraChem MOL file


 20 19  0  0  0  0  0  0  0  0999 V2000     
   17.7034   18.2972   20.2492 C   0  0  0  0  0  0  0  0  0  0  0  0
   17.6948   19.3389   19.9030 H   0  0  0  0  0  0  0  0  0  0  0  0
   17.3783   17.6629   19.4143 H   0  0  0  0  0  0  0  0  0  0  0  0
   16.9633   18.1987   21.0541 H   0  0  0  0  0  0  0  0  0  0  0  0
   19.1100   17.8833   20.7332 C   0  0  0  0  0  0  0  0  0  0  0  0
   19.8207   17.9595   19.8981 H   0  0  0  0  0  0  0  0  0  0  0  0
   19.0948   16.8277   21.0396 H   0  0  0  0  0  0  0  0  0  0  0  0
   19.5939   18.7597   21.9094 C   0  0  0  0  0  0  0  0  0  0  0  0
   19.6075   19.8124   21.5990 H   0  0  0  0  0  0  0  0  0  0  0  0
   18.8859   18.6797   22.7448 H   0  0  0  0  0  0  0  0  0  0  0  0
   20.9990   18.3378   22.3867 C   0  0  0  0  0  0  0  0  0  0  0  0
   21.7194   18.4607   21.5742 H   0  0  0  0  0  0  0  0  0  0  0  0
   20.9772   17.2802   22.6619 H   0  0  0  0  0  0  0  0  0  0  0  0
   21.5159   19.1073   23.5915 N   0  3  0  0  0  0  0  0  0  0  0  0
   22.3759   18.6589   23.9442 H   0  0  0  0  0  0  0  0  0  0  0  0
   20.8450   19.0418   24.3721 H   0  0  0  0  0  0  0  0  0  0  0  0
   21.7989   20.5639   23.2397 C   0  0  0  0  0  0  0  0  0  0  0  0
   20.8712   21.0494   22.9309 H   0  0  0  0  0  0  0  0  0  0  0  0
   22.2030   21.0719   24.1182 H   0  0  0  0  0  0  0  0  0  0  0  0
   22.5260   20.6024   22.4258 H   0  0  0  0  0  0  0  0  0  0  0  0
  1  2  1  0  0  0  0
  1  3  1  0  0  0  0
  1  4  1  0  0  0  0
  1  5  1  0  0  0  0
  5  6  1  0  0  0  0
  5  7  1  0  0  0  0
  5  8  1  0  0  0  0
  8  9  1  0  0  0  0
  8 10  1  0  0  0  0
  8 11  1  0  0  0  0
 11 12  1  0  0  0  0
 11 13  1  0  0  0  0
 11 14  1  0  0  0  0
 14 15  1  0  0  0  0
 14 16  1  0  0  0  0
 14 17  1  0  0  0  0
 17 18  1  0  0  0  0
 17 19  1  0  0  0  0
 17 20  1  0  0  0  0
M  END
> <VConfSearch Rank>
819

> <Conf_Id>
37

> <Delta U+W>
-0.021

> <U+W>
15.318

> <U>
69.657

> <W>
-54.340

> <W(PB)>
-56.238

> <W(SA)>
1.899

> <Valence>
1.137

> <Coulomb>
68.383

> <VdW>
0.138

> <VdW6>
-3.703

> <VdW12>
3.841

> <Bond>
0.125

> <Angle>
0.468

> <Pdih>
0.543

> <Idih>
0.000

> <Tether>
0.000

$$$$
VeraChem MOL file


 20 19  0  0  0  0  0  0  0  0999 V2000     
   17.0294   19.2603   22.2107 C   0  0  0  0  0  0  0  0  0  0  0  0
   16.0627   18.8601   21.8785 H   0  0  0  0  0  0  0  0  0  0  0  0
   17.0873   19.1380   23.3002 H   0  0  0  0  0  0  0  0  0  0  0  0
   17.0432   20.3348   21.9865 H   0  0  0  0  0  0  0  0  0  0  0  0
   18.1934   18.5300   21.5063 C   0  0  0  0  0  0  0  0  0  0  0  0
   18.0884   18.6409   20.4177 H   0  0  0  0  0  0  0  0  0  0  0  0
   18.1327   17.4537   21.7214 H   0  0  0  0  0  0  0  0  0  0  0  0
   19.5679   19.0733   21.9547 C   0  0  0  0  0  0  0  0  0  0  0  0
   19.6294   20.1475   21.7357 H   0  0  0  0  0  0  0  0  0  0  0  0
   19.6682   18.9606   23.0419 H   0  0  0  0  0  0  0  0  0  0  0  0
   20.7239   18.3388   21.2446 C   0  0  0  0  0  0  0  0  0  0  0  0
   20.5929   18.4331   20.1636 H   0  0  0  0  0  0  0  0  0  0  0  0
   20.6986   17.2757   21.4967 H   0  0  0  0  0  0  0  0  0  0  0  0
   22.1096   18.8667   21.5793 N   0  3  0  0  0  0  0  0  0  0  0  0
   22.1635   19.8781   21.3846 H   0  0  0  0  0  0  0  0  0  0  0  0
   22.8039   18.4388   20.9467 H   0  0  0  0  0  0  0  0  0  0  0  0
   22.4803   18.5724   23.0289 C   0  0  0  0  0  0  0  0  0  0  0  0
   22.4344   17.4947   23.2001 H   0  0  0  0  0  0  0  0  0  0  0  0
   23.4940   18.9320   23.2189 H   0  0  0  0  0  0  0  0  0  0  0  0
   21.7804   19.0831   23.6932 H   0  0  0  0  0  0  0  0  0  0  0  0
  1  2  1  0  0  0  0
  1  3  1  0  0  0  0
  1  4  1  0  0  0  0
  1  5  1  0  0  0  0
  5  6  1  0  0  0  0
  5  7  1  0  0  0  0
  5  8  1  0  0  0  0
  8  9  1  0  0  0  0
  8 10  1  0  0  0  0
  8 11  1  0  0  0  0
 11 12  1  0  0  0  0
 11 13  1  0  0  0  0
 11 14  1  0  0  0  0
 14 15  1  0  0  0  0
 14 16  1  0  0  0  0
 14 17  1  0  0  0  0
 17 18  1  0  0  0  0
 17 19  1  0  0  0  0
 17 20  1  0  0  0  0
M  END
> <VConfSearch Rank>
820

> <Conf_Id>
2

> <Delta U+W>
0.069

> <U+W>
15.407

> <U>
69.657

> <W>
-54.250

> <W(PB)>
-56.176

> <W(SA)>
1.926

> <Valence>
1.137

> <Coulomb>
68.383

> <VdW>
0.138

> <VdW6>
-3.703

> <VdW12>
3.841

> <Bond>
0.125

> <Angle>
0.468

> <Pdih>
0.543

> <Idih>
0.000

> <Tether>
0.000

$$$$
VeraChem MOL file


 20 19  0  0  0  0  0  0  0  0999 V2000     
   17.4032   18.4684   21.5952 C   0  0  0  0  0  0  0  0  0  0  0  0
   17.9702   17.6442   21.1444 H   0  0  0  0  0  0  0  0  0  0  0  0
   17.1470   18.1857   22.6246 H   0  0  0  0  0  0  0  0  0  0  0  0
   16.4657   18.5708   21.0334 H   0  0  0  0  0  0  0  0  0  0  0  0
   18.2013   19.7921   21.5637 C   0  0  0  0  0  0  0  0  0  0  0  0
   17.5627   20.6048   21.9376 H   0  0  0  0  0  0  0  0  0  0  0  0
   18.4499   20.0485   20.5241 H   0  0  0  0  0  0  0  0  0  0  0  0
   19.4943   19.7390   22.4108 C   0  0  0  0  0  0  0  0  0  0  0  0
   19.9662   20.7306   22.4050 H   0  0  0  0  0  0  0  0  0  0  0  0
   19.2407   19.5172   23.4559 H   0  0  0  0  0  0  0  0  0  0  0  0
   20.5028   18.6963   21.8903 C   0  0  0  0  0  0  0  0  0  0  0  0
   20.7569   18.9186   20.8509 H   0  0  0  0  0  0  0  0  0  0  0  0
   20.0558   17.7001   21.9293 H   0  0  0  0  0  0  0  0  0  0  0  0
   21.7922   18.6563   22.6867 N   0  3  0  0  0  0  0  0  0  0  0  0
   21.5924   18.4577   23.6790 H   0  0  0  0  0  0  0  0  0  0  0  0
   22.2447   19.5833   22.6797 H   0  0  0  0  0  0  0  0  0  0  0  0
   22.7269   17.6019   22.1091 C   0  0  0  0  0  0  0  0  0  0  0  0
   22.9519   17.8508   21.0698 H   0  0  0  0  0  0  0  0  0  0  0  0
   23.6508   17.5838   22.6915 H   0  0  0  0  0  0  0  0  0  0  0  0
   22.2416   16.6248   22.1585 H   0  0  0  0  0  0  0  0  0  0  0  0
  1  2  1  0  0  0  0
  1  3  1  0  0  0  0
  1  4  1  0  0  0  0
  1  5  1  0  0  0  0
  5  6  1  0  0  0  0
  5  7  1  0  0  0  0
  5  8  1  0  0  0  0
  8  9  1  0  0  0  0
  8 10  1  0  0  0  0
  8 11  1  0  0  0  0
 11 12  1  0  0  0  0
 11 13  1  0  0  0  0
 11 14  1  0  0  0  0
 14 15  1  0  0  0  0
 14 16  1  0  0  0  0
 14 17  1  0  0  0  0
 17 18  1  0  0  0  0
 17 19  1  0  0  0  0
 17 20  1  0  0  0  0
M  END
> <VConfSearch Rank>
821

> <Conf_Id>
34

> <Delta U+W>
0.276

> <U+W>
15.615

> <U>
69.798

> <W>
-54.184

> <W(PB)>
-56.116

> <W(SA)>
1.933

> <Valence>
1.134

> <Coulomb>
68.735

> <VdW>
-0.070

> <VdW6>
-3.565

> <VdW12>
3.494

> <Bond>
0.108

> <Angle>
0.456

> <Pdih>
0.569

> <Idih>
0.000

> <Tether>
0.000

$$$$
VeraChem MOL file


 20 19  0  0  0  0  0  0  0  0999 V2000     
   20.1462   20.2984   19.3684 C   0  0  0  0  0  0  0  0  0  0  0  0
   19.8835   19.6100   18.5546 H   0  0  0  0  0  0  0  0  0  0  0  0
   19.6538   21.2587   19.1680 H   0  0  0  0  0  0  0  0  0  0  0  0
   21.2310   20.4642   19.3386 H   0  0  0  0  0  0  0  0  0  0  0  0
   19.7073   19.7352   20.7375 C   0  0  0  0  0  0  0  0  0  0  0  0
   18.6152   19.6105   20.7467 H   0  0  0  0  0  0  0  0  0  0  0  0
   19.9494   20.4666   21.5203 H   0  0  0  0  0  0  0  0  0  0  0  0
   20.3887   18.3807   21.0443 C   0  0  0  0  0  0  0  0  0  0  0  0
   20.1696   17.6727   20.2339 H   0  0  0  0  0  0  0  0  0  0  0  0
   21.4797   18.5036   21.0646 H   0  0  0  0  0  0  0  0  0  0  0  0
   19.9148   17.7603   22.3740 C   0  0  0  0  0  0  0  0  0  0  0  0
   20.3613   16.7694   22.4896 H   0  0  0  0  0  0  0  0  0  0  0  0
   18.8283   17.6437   22.3584 H   0  0  0  0  0  0  0  0  0  0  0  0
   20.2817   18.5730   23.6015 N   0  3  0  0  0  0  0  0  0  0  0  0
   19.8777   19.5190   23.5352 H   0  0  0  0  0  0  0  0  0  0  0  0
   21.3029   18.7124   23.6434 H   0  0  0  0  0  0  0  0  0  0  0  0
   19.7866   17.8691   24.8578 C   0  0  0  0  0  0  0  0  0  0  0  0
   18.7009   17.7623   24.8064 H   0  0  0  0  0  0  0  0  0  0  0  0
   20.2521   16.8834   24.9250 H   0  0  0  0  0  0  0  0  0  0  0  0
   20.0570   18.4642   25.7328 H   0  0  0  0  0  0  0  0  0  0  0  0
  1  2  1  0  0  0  0
  1  3  1  0  0  0  0
  1  4  1  0  0  0  0
  1  5  1  0  0  0  0
  5  6  1  0  0  0  0
  5  7  1  0  0  0  0
  5  8  1  0  0  0  0
  8  9  1  0  0  0  0
  8 10  1  0  0  0  0
  8 11  1  0  0  0  0
 11 12  1  0  0  0  0
 11 13  1  0  0  0  0
 11 14  1  0  0  0  0
 14 15  1  0  0  0  0
 14 16  1  0  0  0  0
 14 17  1  0  0  0  0
 17 18  1  0  0  0  0
 17 19  1  0  0  0  0
 17 20  1  0  0  0  0
M  END
> <VConfSearch Rank>
822

> <Conf_Id>
50

> <Delta U+W>
0.319

> <U+W>
15.657

> <U>
69.962

> <W>
-54.305

> <W(PB)>
-56.223

> <W(SA)>
1.918

> <Valence>
0.982

> <Coulomb>
69.058

> <VdW>
-0.078

> <VdW6>
-3.548

> <VdW12>
3.471

> <Bond>
0.105

> <Angle>
0.408

> <Pdih>
0.469

> <Idih>
0.000

> <Tether>
0.000

$$$$
VeraChem MOL file


 20 19  0  0  0  0  0  0  0  0999 V2000     
   19.5942   20.3430   24.6005 C   0  0  0  0  0  0  0  0  0  0  0  0
   19.1386   21.3388   24.6764 H   0  0  0  0  0  0  0  0  0  0  0  0
   19.0746   19.6814   25.3059 H   0  0  0  0  0  0  0  0  0  0  0  0
   20.6413   20.4272   24.9193 H   0  0  0  0  0  0  0  0  0  0  0  0
   19.4941   19.8057   23.1564 C   0  0  0  0  0  0  0  0  0  0  0  0
   19.9888   20.5119   22.4760 H   0  0  0  0  0  0  0  0  0  0  0  0
   18.4375   19.7631   22.8562 H   0  0  0  0  0  0  0  0  0  0  0  0
   20.1303   18.4019   23.0226 C   0  0  0  0  0  0  0  0  0  0  0  0
   21.1936   18.4426   23.2941 H   0  0  0  0  0  0  0  0  0  0  0  0
   19.6522   17.7176   23.7360 H   0  0  0  0  0  0  0  0  0  0  0  0
   19.9820   17.8104   21.6064 C   0  0  0  0  0  0  0  0  0  0  0  0
   18.9247   17.7757   21.3317 H   0  0  0  0  0  0  0  0  0  0  0  0
   20.3687   16.7882   21.5996 H   0  0  0  0  0  0  0  0  0  0  0  0
   20.7205   18.5857   20.5314 N   0  3  0  0  0  0  0  0  0  0  0  0
   21.7236   18.6478   20.7637 H   0  0  0  0  0  0  0  0  0  0  0  0
   20.3845   19.5597   20.5014 H   0  0  0  0  0  0  0  0  0  0  0  0
   20.5259   17.9130   19.1792 C   0  0  0  0  0  0  0  0  0  0  0  0
   21.0620   18.4808   18.4155 H   0  0  0  0  0  0  0  0  0  0  0  0
   20.9184   16.8948   19.2241 H   0  0  0  0  0  0  0  0  0  0  0  0
   19.4607   17.8882   18.9395 H   0  0  0  0  0  0  0  0  0  0  0  0
  1  2  1  0  0  0  0
  1  3  1  0  0  0  0
  1  4  1  0  0  0  0
  1  5  1  0  0  0  0
  5  6  1  0  0  0  0
  5  7  1  0  0  0  0
  5  8  1  0  0  0  0
  8  9  1  0  0  0  0
  8 10  1  0  0  0  0
  8 11  1  0  0  0  0
 11 12  1  0  0  0  0
 11 13  1  0  0  0  0
 11 14  1  0  0  0  0
 14 15  1  0  0  0  0
 14 16  1  0  0  0  0
 14 17  1  0  0  0  0
 17 18  1  0  0  0  0
 17 19  1  0  0  0  0
 17 20  1  0  0  0  0
M  END
> <VConfSearch Rank>
823

> <Conf_Id>
35

> <Delta U+W>
0.360

> <U+W>
15.698

> <U>
69.962

> <W>
-54.264

> <W(PB)>
-56.166

> <W(SA)>
1.902

> <Valence>
0.982

> <Coulomb>
69.058

> <VdW>
-0.078

> <VdW6>
-3.548

> <VdW12>
3.471

> <Bond>
0.105

> <Angle>
0.408

> <Pdih>
0.469

> <Idih>
0.000

> <Tether>
0.000

$$$$
VeraChem MOL file


 20 19  0  0  0  0  0  0  0  0999 V2000     
   18.5790   19.1851   19.9378 C   0  0  0  0  0  0  0  0  0  0  0  0
   18.9803   18.1778   19.7695 H   0  0  0  0  0  0  0  0  0  0  0  0
   17.6945   19.2999   19.2979 H   0  0  0  0  0  0  0  0  0  0  0  0
   19.3298   19.9133   19.6046 H   0  0  0  0  0  0  0  0  0  0  0  0
   18.2073   19.4083   21.4218 C   0  0  0  0  0  0  0  0  0  0  0  0
   17.4593   18.6646   21.7310 H   0  0  0  0  0  0  0  0  0  0  0  0
   17.7270   20.3913   21.5272 H   0  0  0  0  0  0  0  0  0  0  0  0
   19.4298   19.3423   22.3667 C   0  0  0  0  0  0  0  0  0  0  0  0
   20.1564   20.1120   22.0761 H   0  0  0  0  0  0  0  0  0  0  0  0
   19.1062   19.5846   23.3875 H   0  0  0  0  0  0  0  0  0  0  0  0
   20.1043   17.9536   22.3668 C   0  0  0  0  0  0  0  0  0  0  0  0
   20.4915   17.7280   21.3703 H   0  0  0  0  0  0  0  0  0  0  0  0
   19.3573   17.1968   22.6192 H   0  0  0  0  0  0  0  0  0  0  0  0
   21.2494   17.8069   23.3556 N   0  3  0  0  0  0  0  0  0  0  0  0
   21.5332   16.8161   23.4109 H   0  0  0  0  0  0  0  0  0  0  0  0
   20.9321   18.0441   24.3078 H   0  0  0  0  0  0  0  0  0  0  0  0
   22.4433   18.6653   22.9515 C   0  0  0  0  0  0  0  0  0  0  0  0
   22.1526   19.7176   22.9592 H   0  0  0  0  0  0  0  0  0  0  0  0
   23.2562   18.5049   23.6631 H   0  0  0  0  0  0  0  0  0  0  0  0
   22.7696   18.3784   21.9496 H   0  0  0  0  0  0  0  0  0  0  0  0
  1  2  1  0  0  0  0
  1  3  1  0  0  0  0
  1  4  1  0  0  0  0
  1  5  1  0  0  0  0
  5  6  1  0  0  0  0
  5  7  1  0  0  0  0
  5  8  1  0  0  0  0
  8  9  1  0  0  0  0
  8 10  1  0  0  0  0
  8 11  1  0  0  0  0
 11 12  1  0  0  0  0
 11 13  1  0  0  0  0
 11 14  1  0  0  0  0
 14 15  1  0  0  0  0
 14 16  1  0  0  0  0
 14 17  1  0  0  0  0
 17 18  1  0  0  0  0
 17 19  1  0  0  0  0
 17 20  1  0  0  0  0
M  END
> <VConfSearch Rank>
824

> <Conf_Id>
33

> <Delta U+W>
0.372

> <U+W>
15.711

> <U>
70.163

> <W>
-54.452

> <W(PB)>
-56.363

> <W(SA)>
1.911

> <Valence>
1.420

> <Coulomb>
68.566

> <VdW>
0.177

> <VdW6>
-4.267

> <VdW12>
4.445

> <Bond>
0.146

> <Angle>
0.581

> <Pdih>
0.693

> <Idih>
0.000

> <Tether>
0.000

$$$$
VeraChem MOL file


 20 19  0  0  0  0  0  0  0  0999 V2000     
   21.9365   20.1925   23.2109 C   0  0  0  0  0  0  0  0  0  0  0  0
   22.9166   20.6024   23.4872 H   0  0  0  0  0  0  0  0  0  0  0  0
   21.4502   20.9179   22.5465 H   0  0  0  0  0  0  0  0  0  0  0  0
   21.3373   20.1116   24.1272 H   0  0  0  0  0  0  0  0  0  0  0  0
   22.0978   18.8149   22.5279 C   0  0  0  0  0  0  0  0  0  0  0  0
   22.6684   18.1502   23.1916 H   0  0  0  0  0  0  0  0  0  0  0  0
   22.6960   18.9246   21.6123 H   0  0  0  0  0  0  0  0  0  0  0  0
   20.7446   18.1468   22.1898 C   0  0  0  0  0  0  0  0  0  0  0  0
   20.9327   17.1455   21.7805 H   0  0  0  0  0  0  0  0  0  0  0  0
   20.1676   18.0060   23.1127 H   0  0  0  0  0  0  0  0  0  0  0  0
   19.9194   18.9621   21.1711 C   0  0  0  0  0  0  0  0  0  0  0  0
   20.5239   19.1259   20.2753 H   0  0  0  0  0  0  0  0  0  0  0  0
   19.6675   19.9381   21.5925 H   0  0  0  0  0  0  0  0  0  0  0  0
   18.6257   18.2977   20.7290 N   0  3  0  0  0  0  0  0  0  0  0  0
   18.8174   17.3563   20.3538 H   0  0  0  0  0  0  0  0  0  0  0  0
   18.2222   18.8209   19.9361 H   0  0  0  0  0  0  0  0  0  0  0  0
   17.6183   18.2319   21.8719 C   0  0  0  0  0  0  0  0  0  0  0  0
   16.6918   17.7836   21.5066 H   0  0  0  0  0  0  0  0  0  0  0  0
   18.0262   17.6219   22.6802 H   0  0  0  0  0  0  0  0  0  0  0  0
   17.4197   19.2427   22.2346 H   0  0  0  0  0  0  0  0  0  0  0  0
  1  2  1  0  0  0  0
  1  3  1  0  0  0  0
  1  4  1  0  0  0  0
  1  5  1  0  0  0  0
  5  6  1  0  0  0  0
  5  7  1  0  0  0  0
  5  8  1  0  0  0  0
  8  9  1  0  0  0  0
  8 10  1  0  0  0  0
  8 11  1  0  0  0  0
 11 12  1  0  0  0  0
 11 13  1  0  0  0  0
 11 14  1  0  0  0  0
 14 15  1  0  0  0  0
 14 16  1  0  0  0  0
 14 17  1  0  0  0  0
 17 18  1  0  0  0  0
 17 19  1  0  0  0  0
 17 20  1  0  0  0  0
M  END
> <VConfSearch Rank>
825

> <Conf_Id>
53

> <Delta U+W>
0.379

> <U+W>
15.717

> <U>
70.163

> <W>
-54.446

> <W(PB)>
-56.322

> <W(SA)>
1.876

> <Valence>
1.420

> <Coulomb>
68.566

> <VdW>
0.177

> <VdW6>
-4.267

> <VdW12>
4.445

> <Bond>
0.146

> <Angle>
0.581

> <Pdih>
0.693

> <Idih>
0.000

> <Tether>
0.000

$$$$
VeraChem MOL file


 20 19  0  0  0  0  0  0  0  0999 V2000     
   19.0393   18.7797   24.5631 C   0  0  0  0  0  0  0  0  0  0  0  0
   18.1381   19.2874   24.9305 H   0  0  0  0  0  0  0  0  0  0  0  0
   19.0481   17.7654   24.9828 H   0  0  0  0  0  0  0  0  0  0  0  0
   19.9120   19.3188   24.9542 H   0  0  0  0  0  0  0  0  0  0  0  0
   19.0542   18.7435   23.0196 C   0  0  0  0  0  0  0  0  0  0  0  0
   19.0056   19.7719   22.6364 H   0  0  0  0  0  0  0  0  0  0  0  0
   18.1541   18.2265   22.6583 H   0  0  0  0  0  0  0  0  0  0  0  0
   20.3166   18.0342   22.4756 C   0  0  0  0  0  0  0  0  0  0  0  0
   21.2183   18.5626   22.8111 H   0  0  0  0  0  0  0  0  0  0  0  0
   20.3763   17.0235   22.9006 H   0  0  0  0  0  0  0  0  0  0  0  0
   20.3213   17.9138   20.9354 C   0  0  0  0  0  0  0  0  0  0  0  0
   19.4480   17.3361   20.6222 H   0  0  0  0  0  0  0  0  0  0  0  0
   21.2141   17.3707   20.6152 H   0  0  0  0  0  0  0  0  0  0  0  0
   20.2892   19.2329   20.1781 N   0  3  0  0  0  0  0  0  0  0  0  0
   19.4611   19.7811   20.4533 H   0  0  0  0  0  0  0  0  0  0  0  0
   20.1629   19.0491   19.1704 H   0  0  0  0  0  0  0  0  0  0  0  0
   21.5678   20.0327   20.4028 C   0  0  0  0  0  0  0  0  0  0  0  0
   22.4255   19.4361   20.0850 H   0  0  0  0  0  0  0  0  0  0  0  0
   21.5220   20.9529   19.8162 H   0  0  0  0  0  0  0  0  0  0  0  0
   21.6595   20.2782   21.4627 H   0  0  0  0  0  0  0  0  0  0  0  0
  1  2  1  0  0  0  0
  1  3  1  0  0  0  0
  1  4  1  0  0  0  0
  1  5  1  0  0  0  0
  5  6  1  0  0  0  0
  5  7  1  0  0  0  0
  5  8  1  0  0  0  0
  8  9  1  0  0  0  0
  8 10  1  0  0  0  0
  8 11  1  0  0  0  0
 11 12  1  0  0  0  0
 11 13  1  0  0  0  0
 11 14  1  0  0  0  0
 14 15  1  0  0  0  0
 14 16  1  0  0  0  0
 14 17  1  0  0  0  0
 17 18  1  0  0  0  0
 17 19  1  0  0  0  0
 17 20  1  0  0  0  0
M  END
> <VConfSearch Rank>
826

> <Conf_Id>
49

> <Delta U+W>
0.268

> <U+W>
15.607

> <U>
70.298

> <W>
-54.692

> <W(PB)>
-56.576

> <W(SA)>
1.885

> <Valence>
1.245

> <Coulomb>
68.933

> <VdW>
0.120

> <VdW6>
-4.430

> <VdW12>
4.550

> <Bond>
0.148

> <Angle>
0.587

> <Pdih>
0.509

> <Idih>
0.000

> <Tether>
0.000

$$$$
VeraChem MOL file


 20 19  0  0  0  0  0  0  0  0999 V2000     
   21.8435   18.9376   24.0830 C   0  0  0  0  0  0  0  0  0  0  0  0
   22.7892   18.6706   23.5936 H   0  0  0  0  0  0  0  0  0  0  0  0
   21.9208   19.9753   24.4326 H   0  0  0  0  0  0  0  0  0  0  0  0
   21.7279   18.2941   24.9649 H   0  0  0  0  0  0  0  0  0  0  0  0
   20.6499   18.7618   23.1193 C   0  0  0  0  0  0  0  0  0  0  0  0
   19.7167   19.0090   23.6448 H   0  0  0  0  0  0  0  0  0  0  0  0
   20.5844   17.7059   22.8257 H   0  0  0  0  0  0  0  0  0  0  0  0
   20.7935   19.6503   21.8617 C   0  0  0  0  0  0  0  0  0  0  0  0
   20.9747   20.6872   22.1744 H   0  0  0  0  0  0  0  0  0  0  0  0
   21.6782   19.3427   21.2888 H   0  0  0  0  0  0  0  0  0  0  0  0
   19.5550   19.6422   20.9372 C   0  0  0  0  0  0  0  0  0  0  0  0
   19.7384   20.3474   20.1224 H   0  0  0  0  0  0  0  0  0  0  0  0
   18.6723   19.9876   21.4812 H   0  0  0  0  0  0  0  0  0  0  0  0
   19.2246   18.3051   20.2920 N   0  3  0  0  0  0  0  0  0  0  0  0
   20.0871   17.7705   20.1099 H   0  0  0  0  0  0  0  0  0  0  0  0
   18.8144   18.4694   19.3594 H   0  0  0  0  0  0  0  0  0  0  0  0
   18.2398   17.5055   21.1390 C   0  0  0  0  0  0  0  0  0  0  0  0
   18.0124   16.5660   20.6304 H   0  0  0  0  0  0  0  0  0  0  0  0
   18.6776   17.2957   22.1156 H   0  0  0  0  0  0  0  0  0  0  0  0
   17.3228   18.0852   21.2644 H   0  0  0  0  0  0  0  0  0  0  0  0
  1  2  1  0  0  0  0
  1  3  1  0  0  0  0
  1  4  1  0  0  0  0
  1  5  1  0  0  0  0
  5  6  1  0  0  0  0
  5  7  1  0  0  0  0
  5  8  1  0  0  0  0
  8  9  1  0  0  0  0
  8 10  1  0  0  0  0
  8 11  1  0  0  0  0
 11 12  1  0  0  0  0
 11 13  1  0  0  0  0
 11 14  1  0  0  0  0
 14 15  1  0  0  0  0
 14 16  1  0  0  0  0
 14 17  1  0  0  0  0
 17 18  1  0  0  0  0
 17 19  1  0  0  0  0
 17 20  1  0  0  0  0
M  END
> <VConfSearch Rank>
827

> <Conf_Id>
65

> <Delta U+W>
1.775

> <U+W>
17.114

> <U>
71.726

> <W>
-54.613

> <W(PB)>
-56.495

> <W(SA)>
1.883

> <Valence>
2.885

> <Coulomb>
68.822

> <VdW>
0.019

> <VdW6>
-4.600

> <VdW12>
4.619

> <Bond>
0.152

> <Angle>
0.862

> <Pdih>
1.871

> <Idih>
0.000

> <Tether>
0.000

$$$$
VeraChem MOL file


 20 19  0  0  0  0  0  0  0  0999 V2000     
   18.3290   19.9707   20.9949 C   0  0  0  0  0  0  0  0  0  0  0  0
   18.0612   19.0232   21.4791 H   0  0  0  0  0  0  0  0  0  0  0  0
   17.5393   20.6964   21.2290 H   0  0  0  0  0  0  0  0  0  0  0  0
   18.3265   19.8130   19.9085 H   0  0  0  0  0  0  0  0  0  0  0  0
   19.7028   20.4895   21.4781 C   0  0  0  0  0  0  0  0  0  0  0  0
   19.6795   20.6400   22.5660 H   0  0  0  0  0  0  0  0  0  0  0  0
   19.8844   21.4809   21.0396 H   0  0  0  0  0  0  0  0  0  0  0  0
   20.8751   19.5524   21.0940 C   0  0  0  0  0  0  0  0  0  0  0  0
   20.9480   19.4955   19.9998 H   0  0  0  0  0  0  0  0  0  0  0  0
   21.8207   19.9902   21.4406 H   0  0  0  0  0  0  0  0  0  0  0  0
   20.7436   18.1206   21.6540 C   0  0  0  0  0  0  0  0  0  0  0  0
   21.5901   17.5191   21.3129 H   0  0  0  0  0  0  0  0  0  0  0  0
   19.8274   17.6605   21.2764 H   0  0  0  0  0  0  0  0  0  0  0  0
   20.7116   18.0519   23.1689 N   0  3  0  0  0  0  0  0  0  0  0  0
   19.9279   18.6153   23.5307 H   0  0  0  0  0  0  0  0  0  0  0  0
   21.5637   18.4798   23.5623 H   0  0  0  0  0  0  0  0  0  0  0  0
   20.5820   16.6038   23.6214 C   0  0  0  0  0  0  0  0  0  0  0  0
   21.4379   16.0340   23.2533 H   0  0  0  0  0  0  0  0  0  0  0  0
   20.5589   16.5696   24.7128 H   0  0  0  0  0  0  0  0  0  0  0  0
   19.6576   16.1827   23.2201 H   0  0  0  0  0  0  0  0  0  0  0  0
  1  2  1  0  0  0  0
  1  3  1  0  0  0  0
  1  4  1  0  0  0  0
  1  5  1  0  0  0  0
  5  6  1  0  0  0  0
  5  7  1  0  0  0  0
  5  8  1  0  0  0  0
  8  9  1  0  0  0  0
  8 10  1  0  0  0  0
  8 11  1  0  0  0  0
 11 12  1  0  0  0  0
 11 13  1  0  0  0  0
 11 14  1  0  0  0  0
 14 15  1  0  0  0  0
 14 16  1  0  0  0  0
 14 17  1  0  0  0  0
 17 18  1  0  0  0  0
 17 19  1  0  0  0  0
 17 20  1  0  0  0  0
M  END
> <VConfSearch Rank>
828

> <Conf_Id>
23

> <Delta U+W>
0.896

> <U+W>
16.234

> <U>
70.374

> <W>
-54.140

> <W(PB)>
-56.046

> <W(SA)>
1.907

> <Valence>
1.257

> <Coulomb>
69.240

> <VdW>
-0.123

> <VdW6>
-4.336

> <VdW12>
4.213

> <Bond>
0.128

> <Angle>
0.603

> <Pdih>
0.526

> <Idih>
0.000

> <Tether>
0.000

$$$$
VeraChem MOL file


 20 19  0  0  0  0  0  0  0  0999 V2000     
   19.8271   20.0665   24.0054 C   0  0  0  0  0  0  0  0  0  0  0  0
   19.4303   19.4487   24.8214 H   0  0  0  0  0  0  0  0  0  0  0  0
   20.0106   21.0718   24.4062 H   0  0  0  0  0  0  0  0  0  0  0  0
   19.0515   20.1545   23.2343 H   0  0  0  0  0  0  0  0  0  0  0  0
   21.1317   19.4636   23.4356 C   0  0  0  0  0  0  0  0  0  0  0  0
   21.9045   19.4820   24.2168 H   0  0  0  0  0  0  0  0  0  0  0  0
   21.5085   20.0990   22.6227 H   0  0  0  0  0  0  0  0  0  0  0  0
   20.9606   18.0064   22.9382 C   0  0  0  0  0  0  0  0  0  0  0  0
   21.9254   17.6298   22.5734 H   0  0  0  0  0  0  0  0  0  0  0  0
   20.6837   17.3659   23.7861 H   0  0  0  0  0  0  0  0  0  0  0  0
   19.8999   17.8418   21.8297 C   0  0  0  0  0  0  0  0  0  0  0  0
   18.9263   18.1713   22.2003 H   0  0  0  0  0  0  0  0  0  0  0  0
   19.8195   16.7860   21.5591 H   0  0  0  0  0  0  0  0  0  0  0  0
   20.2060   18.6189   20.5636 N   0  3  0  0  0  0  0  0  0  0  0  0
   21.1220   18.3342   20.1844 H   0  0  0  0  0  0  0  0  0  0  0  0
   20.2970   19.6227   20.7796 H   0  0  0  0  0  0  0  0  0  0  0  0
   19.1066   18.3915   19.5350 C   0  0  0  0  0  0  0  0  0  0  0  0
   18.1533   18.7303   19.9462 H   0  0  0  0  0  0  0  0  0  0  0  0
   19.3392   18.9573   18.6301 H   0  0  0  0  0  0  0  0  0  0  0  0
   19.0497   17.3267   19.2988 H   0  0  0  0  0  0  0  0  0  0  0  0
  1  2  1  0  0  0  0
  1  3  1  0  0  0  0
  1  4  1  0  0  0  0
  1  5  1  0  0  0  0
  5  6  1  0  0  0  0
  5  7  1  0  0  0  0
  5  8  1  0  0  0  0
  8  9  1  0  0  0  0
  8 10  1  0  0  0  0
  8 11  1  0  0  0  0
 11 12  1  0  0  0  0
 11 13  1  0  0  0  0
 11 14  1  0  0  0  0
 14 15  1  0  0  0  0
 14 16  1  0  0  0  0
 14 17  1  0  0  0  0
 17 18  1  0  0  0  0
 17 19  1  0  0  0  0
 17 20  1  0  0  0  0
M  END
> <VConfSearch Rank>
829

> <Conf_Id>
24

> <Delta U+W>
0.792

> <U+W>
16.130

> <U>
70.374

> <W>
-54.243

> <W(PB)>
-56.130

> <W(SA)>
1.887

> <Valence>
1.257

> <Coulomb>
69.240

> <VdW>
-0.123

> <VdW6>
-4.336

> <VdW12>
4.213

> <Bond>
0.128

> <Angle>
0.603

> <Pdih>
0.526

> <Idih>
0.000

> <Tether>
0.000

$$$$
VeraChem MOL file


 20 19  0  0  0  0  0  0  0  0999 V2000     
   21.5085   17.5774   23.0180 C   0  0  0  0  0  0  0  0  0  0  0  0
   22.0522   16.7326   23.4606 H   0  0  0  0  0  0  0  0  0  0  0  0
   21.2865   17.3069   21.9790 H   0  0  0  0  0  0  0  0  0  0  0  0
   22.1812   18.4449   23.0242 H   0  0  0  0  0  0  0  0  0  0  0  0
   20.2175   17.8613   23.8193 C   0  0  0  0  0  0  0  0  0  0  0  0
   20.4723   17.9148   24.8871 H   0  0  0  0  0  0  0  0  0  0  0  0
   19.5278   17.0120   23.7142 H   0  0  0  0  0  0  0  0  0  0  0  0
   19.4920   19.1730   23.4242 C   0  0  0  0  0  0  0  0  0  0  0  0
   18.6369   19.3031   24.1007 H   0  0  0  0  0  0  0  0  0  0  0  0
   20.1460   20.0381   23.5960 H   0  0  0  0  0  0  0  0  0  0  0  0
   18.9558   19.1950   21.9771 C   0  0  0  0  0  0  0  0  0  0  0  0
   18.1675   19.9481   21.8997 H   0  0  0  0  0  0  0  0  0  0  0  0
   18.5216   18.2233   21.7293 H   0  0  0  0  0  0  0  0  0  0  0  0
   19.9978   19.5371   20.9290 N   0  3  0  0  0  0  0  0  0  0  0  0
   20.7920   18.8849   20.9958 H   0  0  0  0  0  0  0  0  0  0  0  0
   20.3936   20.4714   21.1145 H   0  0  0  0  0  0  0  0  0  0  0  0
   19.3762   19.4859   19.5400 C   0  0  0  0  0  0  0  0  0  0  0  0
   18.9937   18.4800   19.3537 H   0  0  0  0  0  0  0  0  0  0  0  0
   18.5587   20.2080   19.4850 H   0  0  0  0  0  0  0  0  0  0  0  0
   20.1371   19.7341   18.7968 H   0  0  0  0  0  0  0  0  0  0  0  0
  1  2  1  0  0  0  0
  1  3  1  0  0  0  0
  1  4  1  0  0  0  0
  1  5  1  0  0  0  0
  5  6  1  0  0  0  0
  5  7  1  0  0  0  0
  5  8  1  0  0  0  0
  8  9  1  0  0  0  0
  8 10  1  0  0  0  0
  8 11  1  0  0  0  0
 11 12  1  0  0  0  0
 11 13  1  0  0  0  0
 11 14  1  0  0  0  0
 14 15  1  0  0  0  0
 14 16  1  0  0  0  0
 14 17  1  0  0  0  0
 17 18  1  0  0  0  0
 17 19  1  0  0  0  0
 17 20  1  0  0  0  0
M  END
> <VConfSearch Rank>
830

> <Conf_Id>
26

> <Delta U+W>
2.888

> <U+W>
18.226

> <U>
72.042

> <W>
-53.816

> <W(PB)>
-55.689

> <W(SA)>
1.873

> <Valence>
2.428

> <Coulomb>
69.829

> <VdW>
-0.215

> <VdW6>
-4.563

> <VdW12>
4.348

> <Bond>
0.137

> <Angle>
0.936

> <Pdih>
1.356

> <Idih>
0.000

> <Tether>
0.000

$$$$
VeraChem MOL file


 20 19  0  0  0  0  0  0  0  0999 V2000     
   20.1670   20.6748   20.7887 C   0  0  0  0  0  0  0  0  0  0  0  0
   20.0700   21.7082   20.4312 H   0  0  0  0  0  0  0  0  0  0  0  0
   20.5261   20.0654   19.9491 H   0  0  0  0  0  0  0  0  0  0  0  0
   19.1624   20.3369   21.0694 H   0  0  0  0  0  0  0  0  0  0  0  0
   21.1425   20.6125   21.9863 C   0  0  0  0  0  0  0  0  0  0  0  0
   20.7089   21.1533   22.8393 H   0  0  0  0  0  0  0  0  0  0  0  0
   22.0608   21.1540   21.7189 H   0  0  0  0  0  0  0  0  0  0  0  0
   21.5317   19.1771   22.4233 C   0  0  0  0  0  0  0  0  0  0  0  0
   22.0346   18.6505   21.6014 H   0  0  0  0  0  0  0  0  0  0  0  0
   22.2747   19.2586   23.2277 H   0  0  0  0  0  0  0  0  0  0  0  0
   20.3552   18.3296   22.9523 C   0  0  0  0  0  0  0  0  0  0  0  0
   19.7095   18.9466   23.5821 H   0  0  0  0  0  0  0  0  0  0  0  0
   20.7491   17.5153   23.5658 H   0  0  0  0  0  0  0  0  0  0  0  0
   19.5047   17.6946   21.8687 N   0  3  0  0  0  0  0  0  0  0  0  0
   20.0824   17.0709   21.2846 H   0  0  0  0  0  0  0  0  0  0  0  0
   19.1508   18.4195   21.2284 H   0  0  0  0  0  0  0  0  0  0  0  0
   18.3516   16.9232   22.4962 C   0  0  0  0  0  0  0  0  0  0  0  0
   17.7363   17.6093   23.0822 H   0  0  0  0  0  0  0  0  0  0  0  0
   17.7487   16.4721   21.7050 H   0  0  0  0  0  0  0  0  0  0  0  0
   18.7527   16.1412   23.1444 H   0  0  0  0  0  0  0  0  0  0  0  0
  1  2  1  0  0  0  0
  1  3  1  0  0  0  0
  1  4  1  0  0  0  0
  1  5  1  0  0  0  0
  5  6  1  0  0  0  0
  5  7  1  0  0  0  0
  5  8  1  0  0  0  0
  8  9  1  0  0  0  0
  8 10  1  0  0  0  0
  8 11  1  0  0  0  0
 11 12  1  0  0  0  0
 11 13  1  0  0  0  0
 11 14  1  0  0  0  0
 14 15  1  0  0  0  0
 14 16  1  0  0  0  0
 14 17  1  0  0  0  0
 17 18  1  0  0  0  0
 17 19  1  0  0  0  0
 17 20  1  0  0  0  0
M  END
> <VConfSearch Rank>
831

> <Conf_Id>
5

> <Delta U+W>
2.950

> <U+W>
18.289

> <U>
72.042

> <W>
-53.753

> <W(PB)>
-55.644

> <W(SA)>
1.891

> <Valence>
2.428

> <Coulomb>
69.829

> <VdW>
-0.215

> <VdW6>
-4.563

> <VdW12>
4.348

> <Bond>
0.137

> <Angle>
0.936

> <Pdih>
1.356

> <Idih>
0.000

> <Tether>
0.000

$$$$
VeraChem MOL file


 20 19  0  0  0  0  0  0  0  0999 V2000     
   20.0328   18.5429   19.5860 C   0  0  0  0  0  0  0  0  0  0  0  0
   19.9216   19.4853   19.0342 H   0  0  0  0  0  0  0  0  0  0  0  0
   21.0786   18.4551   19.9059 H   0  0  0  0  0  0  0  0  0  0  0  0
   19.8302   17.7206   18.8875 H   0  0  0  0  0  0  0  0  0  0  0  0
   19.0619   18.4850   20.7878 C   0  0  0  0  0  0  0  0  0  0  0  0
   19.1885   17.5332   21.3214 H   0  0  0  0  0  0  0  0  0  0  0  0
   18.0288   18.4865   20.4126 H   0  0  0  0  0  0  0  0  0  0  0  0
   19.2380   19.6711   21.7683 C   0  0  0  0  0  0  0  0  0  0  0  0
   19.0149   20.6093   21.2433 H   0  0  0  0  0  0  0  0  0  0  0  0
   18.4954   19.5921   22.5726 H   0  0  0  0  0  0  0  0  0  0  0  0
   20.6532   19.7754   22.3813 C   0  0  0  0  0  0  0  0  0  0  0  0
   20.6952   20.6310   23.0600 H   0  0  0  0  0  0  0  0  0  0  0  0
   21.3758   19.9493   21.5802 H   0  0  0  0  0  0  0  0  0  0  0  0
   21.1163   18.5497   23.1536 N   0  3  0  0  0  0  0  0  0  0  0  0
   22.1123   18.6537   23.4029 H   0  0  0  0  0  0  0  0  0  0  0  0
   21.0777   17.7163   22.5485 H   0  0  0  0  0  0  0  0  0  0  0  0
   20.2844   18.3430   24.4145 C   0  0  0  0  0  0  0  0  0  0  0  0
   19.2425   18.1723   24.1366 H   0  0  0  0  0  0  0  0  0  0  0  0
   20.6660   17.4752   24.9569 H   0  0  0  0  0  0  0  0  0  0  0  0
   20.3590   19.2323   25.0440 H   0  0  0  0  0  0  0  0  0  0  0  0
  1  2  1  0  0  0  0
  1  3  1  0  0  0  0
  1  4  1  0  0  0  0
  1  5  1  0  0  0  0
  5  6  1  0  0  0  0
  5  7  1  0  0  0  0
  5  8  1  0  0  0  0
  8  9  1  0  0  0  0
  8 10  1  0  0  0  0
  8 11  1  0  0  0  0
 11 12  1  0  0  0  0
 11 13  1  0  0  0  0
 11 14  1  0  0  0  0
 14 15  1  0  0  0  0
 14 16  1  0  0  0  0
 14 17  1  0  0  0  0
 17 18  1  0  0  0  0
 17 19  1  0  0  0  0
 17 20  1  0  0  0  0
M  END
> <VConfSearch Rank>
832

> <Conf_Id>
52

> <Delta U+W>
0.784

> <U+W>
16.122

> <U>
70.777

> <W>
-54.655

> <W(PB)>
-56.491

> <W(SA)>
1.836

> <Valence>
1.529

> <Coulomb>
69.166

> <VdW>
0.082

> <VdW6>
-5.166

> <VdW12>
5.248

> <Bond>
0.171

> <Angle>
0.752

> <Pdih>
0.605

> <Idih>
0.000

> <Tether>
0.000

$$$$
VeraChem MOL file


 20 19  0  0  0  0  0  0  0  0999 V2000     
   19.7201   20.8756   22.7100 C   0  0  0  0  0  0  0  0  0  0  0  0
   19.5230   21.8235   23.2273 H   0  0  0  0  0  0  0  0  0  0  0  0
   20.8087   20.7646   22.6489 H   0  0  0  0  0  0  0  0  0  0  0  0
   19.3142   20.9607   21.6935 H   0  0  0  0  0  0  0  0  0  0  0  0
   19.0707   19.7017   23.4779 C   0  0  0  0  0  0  0  0  0  0  0  0
   18.0316   19.9716   23.7135 H   0  0  0  0  0  0  0  0  0  0  0  0
   19.5766   19.5706   24.4448 H   0  0  0  0  0  0  0  0  0  0  0  0
   19.0604   18.3575   22.7061 C   0  0  0  0  0  0  0  0  0  0  0  0
   18.4960   17.6305   23.3049 H   0  0  0  0  0  0  0  0  0  0  0  0
   18.5040   18.4635   21.7664 H   0  0  0  0  0  0  0  0  0  0  0  0
   20.4607   17.7570   22.4414 C   0  0  0  0  0  0  0  0  0  0  0  0
   20.3582   16.6939   22.2097 H   0  0  0  0  0  0  0  0  0  0  0  0
   21.0631   17.8434   23.3493 H   0  0  0  0  0  0  0  0  0  0  0  0
   21.2443   18.3857   21.2998 N   0  3  0  0  0  0  0  0  0  0  0  0
   22.2210   18.0532   21.3270 H   0  0  0  0  0  0  0  0  0  0  0  0
   21.3019   19.4052   21.4304 H   0  0  0  0  0  0  0  0  0  0  0  0
   20.6209   18.0487   19.9498 C   0  0  0  0  0  0  0  0  0  0  0  0
   20.5861   16.9637   19.8311 H   0  0  0  0  0  0  0  0  0  0  0  0
   19.6103   18.4588   19.9038 H   0  0  0  0  0  0  0  0  0  0  0  0
   21.2299   18.4860   19.1555 H   0  0  0  0  0  0  0  0  0  0  0  0
  1  2  1  0  0  0  0
  1  3  1  0  0  0  0
  1  4  1  0  0  0  0
  1  5  1  0  0  0  0
  5  6  1  0  0  0  0
  5  7  1  0  0  0  0
  5  8  1  0  0  0  0
  8  9  1  0  0  0  0
  8 10  1  0  0  0  0
  8 11  1  0  0  0  0
 11 12  1  0  0  0  0
 11 13  1  0  0  0  0
 11 14  1  0  0  0  0
 14 15  1  0  0  0  0
 14 16  1  0  0  0  0
 14 17  1  0  0  0  0
 17 18  1  0  0  0  0
 17 19  1  0  0  0  0
 17 20  1  0  0  0  0
M  END
> <VConfSearch Rank>
833

> <Conf_Id>
55

> <Delta U+W>
2.745

> <U+W>
18.083

> <U>
72.490

> <W>
-54.407

> <W(PB)>
-56.269

> <W(SA)>
1.861

> <Valence>
2.738

> <Coulomb>
69.795

> <VdW>
-0.043

> <VdW6>
-5.333

> <VdW12>
5.290

> <Bond>
0.182

> <Angle>
1.135

> <Pdih>
1.422

> <Idih>
0.000

> <Tether>
0.000

$$$$
VeraChem MOL file


 20 19  0  0  0  0  0  0  0  0999 V2000     
   20.3313   20.5938   20.9453 C   0  0  0  0  0  0  0  0  0  0  0  0
   20.5910   21.5801   20.5390 H   0  0  0  0  0  0  0  0  0  0  0  0
   20.5267   19.8495   20.1622 H   0  0  0  0  0  0  0  0  0  0  0  0
   19.2567   20.6089   21.1599 H   0  0  0  0  0  0  0  0  0  0  0  0
   21.1615   20.3033   22.2164 C   0  0  0  0  0  0  0  0  0  0  0  0
   20.8599   20.9925   23.0177 H   0  0  0  0  0  0  0  0  0  0  0  0
   22.2159   20.5288   22.0033 H   0  0  0  0  0  0  0  0  0  0  0  0
   21.0700   18.8409   22.7222 C   0  0  0  0  0  0  0  0  0  0  0  0
   21.4271   18.1488   21.9493 H   0  0  0  0  0  0  0  0  0  0  0  0
   21.7674   18.7319   23.5633 H   0  0  0  0  0  0  0  0  0  0  0  0
   19.6682   18.4192   23.2208 C   0  0  0  0  0  0  0  0  0  0  0  0
   19.2529   19.2207   23.8369 H   0  0  0  0  0  0  0  0  0  0  0  0
   19.7626   17.5305   23.8500 H   0  0  0  0  0  0  0  0  0  0  0  0
   18.6531   18.0893   22.1376 N   0  3  0  0  0  0  0  0  0  0  0  0
   18.5845   18.8689   21.4688 H   0  0  0  0  0  0  0  0  0  0  0  0
   17.7138   18.0087   22.5575 H   0  0  0  0  0  0  0  0  0  0  0  0
   19.0116   16.7925   21.4203 C   0  0  0  0  0  0  0  0  0  0  0  0
   19.9776   16.9065   20.9248 H   0  0  0  0  0  0  0  0  0  0  0  0
   19.0628   15.9810   22.1493 H   0  0  0  0  0  0  0  0  0  0  0  0
   18.2428   16.5708   20.6768 H   0  0  0  0  0  0  0  0  0  0  0  0
  1  2  1  0  0  0  0
  1  3  1  0  0  0  0
  1  4  1  0  0  0  0
  1  5  1  0  0  0  0
  5  6  1  0  0  0  0
  5  7  1  0  0  0  0
  5  8  1  0  0  0  0
  8  9  1  0  0  0  0
  8 10  1  0  0  0  0
  8 11  1  0  0  0  0
 11 12  1  0  0  0  0
 11 13  1  0  0  0  0
 11 14  1  0  0  0  0
 14 15  1  0  0  0  0
 14 16  1  0  0  0  0
 14 17  1  0  0  0  0
 17 18  1  0  0  0  0
 17 19  1  0  0  0  0
 17 20  1  0  0  0  0
M  END
> <VConfSearch Rank>
834

> <Conf_Id>
76

> <Delta U+W>
2.799

> <U+W>
18.137

> <U>
72.490

> <W>
-54.353

> <W(PB)>
-56.201

> <W(SA)>
1.848

> <Valence>
2.738

> <Coulomb>
69.795

> <VdW>
-0.043

> <VdW6>
-5.334

> <VdW12>
5.290

> <Bond>
0.182

> <Angle>
1.135

> <Pdih>
1.421

> <Idih>
0.000

> <Tether>
0.000

$$$$
VeraChem MOL file


 20 19  0  0  0  0  0  0  0  0999 V2000     
   21.8893   17.6424   21.6187 C   0  0  0  0  0  0  0  0  0  0  0  0
   21.8985   18.2632   22.5228 H   0  0  0  0  0  0  0  0  0  0  0  0
   21.8989   16.5892   21.9282 H   0  0  0  0  0  0  0  0  0  0  0  0
   22.8207   17.8387   21.0721 H   0  0  0  0  0  0  0  0  0  0  0  0
   20.6629   17.9474   20.7278 C   0  0  0  0  0  0  0  0  0  0  0  0
   20.7389   17.3542   19.8058 H   0  0  0  0  0  0  0  0  0  0  0  0
   20.6798   18.9973   20.4083 H   0  0  0  0  0  0  0  0  0  0  0  0
   19.3154   17.6207   21.4169 C   0  0  0  0  0  0  0  0  0  0  0  0
   18.4924   17.8183   20.7176 H   0  0  0  0  0  0  0  0  0  0  0  0
   19.2802   16.5432   21.6255 H   0  0  0  0  0  0  0  0  0  0  0  0
   19.0472   18.3769   22.7393 C   0  0  0  0  0  0  0  0  0  0  0  0
   19.8576   18.2046   23.4515 H   0  0  0  0  0  0  0  0  0  0  0  0
   18.1321   17.9698   23.1769 H   0  0  0  0  0  0  0  0  0  0  0  0
   18.8321   19.8773   22.6069 N   0  3  0  0  0  0  0  0  0  0  0  0
   18.1812   20.1928   23.3429 H   0  0  0  0  0  0  0  0  0  0  0  0
   18.3518   20.0943   21.7210 H   0  0  0  0  0  0  0  0  0  0  0  0
   20.1413   20.6487   22.7332 C   0  0  0  0  0  0  0  0  0  0  0  0
   19.9333   21.7186   22.6623 H   0  0  0  0  0  0  0  0  0  0  0  0
   20.5953   20.4272   23.7014 H   0  0  0  0  0  0  0  0  0  0  0  0
   20.8211   20.3552   21.9327 H   0  0  0  0  0  0  0  0  0  0  0  0
  1  2  1  0  0  0  0
  1  3  1  0  0  0  0
  1  4  1  0  0  0  0
  1  5  1  0  0  0  0
  5  6  1  0  0  0  0
  5  7  1  0  0  0  0
  5  8  1  0  0  0  0
  8  9  1  0  0  0  0
  8 10  1  0  0  0  0
  8 11  1  0  0  0  0
 11 12  1  0  0  0  0
 11 13  1  0  0  0  0
 11 14  1  0  0  0  0
 14 15  1  0  0  0  0
 14 16  1  0  0  0  0
 14 17  1  0  0  0  0
 17 18  1  0  0  0  0
 17 19  1  0  0  0  0
 17 20  1  0  0  0  0
M  END
> <VConfSearch Rank>
835

> <Conf_Id>
60

> <Delta U+W>
1.788

> <U+W>
17.127

> <U>
72.122

> <W>
-54.995

> <W(PB)>
-56.810

> <W(SA)>
1.815

> <Valence>
3.197

> <Coulomb>
69.115

> <VdW>
-0.190

> <VdW6>
-5.585

> <VdW12>
5.395

> <Bond>
0.177

> <Angle>
1.207

> <Pdih>
1.813

> <Idih>
0.000

> <Tether>
0.000

$$$$
VeraChem MOL file


 20 19  0  0  0  0  0  0  0  0999 V2000     
   18.7629   18.9312   23.6298 C   0  0  0  0  0  0  0  0  0  0  0  0
   17.7110   18.6631   23.7922 H   0  0  0  0  0  0  0  0  0  0  0  0
   19.1839   19.2344   24.5972 H   0  0  0  0  0  0  0  0  0  0  0  0
   18.7839   19.8008   22.9617 H   0  0  0  0  0  0  0  0  0  0  0  0
   19.5423   17.7350   23.0363 C   0  0  0  0  0  0  0  0  0  0  0  0
   19.0958   17.4297   22.0812 H   0  0  0  0  0  0  0  0  0  0  0  0
   19.4301   16.8716   23.7070 H   0  0  0  0  0  0  0  0  0  0  0  0
   21.0519   18.0253   22.8513 C   0  0  0  0  0  0  0  0  0  0  0  0
   21.4952   18.2191   23.8370 H   0  0  0  0  0  0  0  0  0  0  0  0
   21.5509   17.1251   22.4692 H   0  0  0  0  0  0  0  0  0  0  0  0
   21.3883   19.2198   21.9279 C   0  0  0  0  0  0  0  0  0  0  0  0
   22.4670   19.3883   21.9800 H   0  0  0  0  0  0  0  0  0  0  0  0
   20.8957   20.1288   22.2809 H   0  0  0  0  0  0  0  0  0  0  0  0
   21.0516   19.0288   20.4565 N   0  3  0  0  0  0  0  0  0  0  0  0
   21.1848   18.0440   20.1826 H   0  0  0  0  0  0  0  0  0  0  0  0
   21.7287   19.5551   19.8826 H   0  0  0  0  0  0  0  0  0  0  0  0
   19.6414   19.5102   20.1329 C   0  0  0  0  0  0  0  0  0  0  0  0
   19.5550   20.5668   20.3949 H   0  0  0  0  0  0  0  0  0  0  0  0
   19.4569   19.3815   19.0641 H   0  0  0  0  0  0  0  0  0  0  0  0
   18.9140   18.9299   20.7014 H   0  0  0  0  0  0  0  0  0  0  0  0
  1  2  1  0  0  0  0
  1  3  1  0  0  0  0
  1  4  1  0  0  0  0
  1  5  1  0  0  0  0
  5  6  1  0  0  0  0
  5  7  1  0  0  0  0
  5  8  1  0  0  0  0
  8  9  1  0  0  0  0
  8 10  1  0  0  0  0
  8 11  1  0  0  0  0
 11 12  1  0  0  0  0
 11 13  1  0  0  0  0
 11 14  1  0  0  0  0
 14 15  1  0  0  0  0
 14 16  1  0  0  0  0
 14 17  1  0  0  0  0
 17 18  1  0  0  0  0
 17 19  1  0  0  0  0
 17 20  1  0  0  0  0
M  END
> <VConfSearch Rank>
836

> <Conf_Id>
54

> <Delta U+W>
1.880

> <U+W>
17.218

> <U>
72.122

> <W>
-54.903

> <W(PB)>
-56.724

> <W(SA)>
1.821

> <Valence>
3.197

> <Coulomb>
69.115

> <VdW>
-0.190

> <VdW6>
-5.585

> <VdW12>
5.395

> <Bond>
0.177

> <Angle>
1.207

> <Pdih>
1.813

> <Idih>
0.000

> <Tether>
0.000

$$$$
VeraChem MOL file


 20 19  0  0  0  0  0  0  0  0999 V2000     
   19.5938   20.8603   24.4432 C   0  0  0  0  0  0  0  0  0  0  0  0
   20.5949   21.3108   24.4326 H   0  0  0  0  0  0  0  0  0  0  0  0
   18.8731   21.6492   24.6948 H   0  0  0  0  0  0  0  0  0  0  0  0
   19.5651   20.1108   25.2448 H   0  0  0  0  0  0  0  0  0  0  0  0
   19.2543   20.2267   23.0767 C   0  0  0  0  0  0  0  0  0  0  0  0
   19.2569   21.0066   22.3019 H   0  0  0  0  0  0  0  0  0  0  0  0
   18.2352   19.8159   23.1078 H   0  0  0  0  0  0  0  0  0  0  0  0
   20.2534   19.1119   22.6962 C   0  0  0  0  0  0  0  0  0  0  0  0
   21.2708   19.5238   22.6619 H   0  0  0  0  0  0  0  0  0  0  0  0
   20.2478   18.3317   23.4689 H   0  0  0  0  0  0  0  0  0  0  0  0
   19.9081   18.4851   21.3326 C   0  0  0  0  0  0  0  0  0  0  0  0
   19.9279   19.2563   20.5584 H   0  0  0  0  0  0  0  0  0  0  0  0
   18.9018   18.0602   21.3681 H   0  0  0  0  0  0  0  0  0  0  0  0
   20.8636   17.3839   20.9168 N   0  3  0  0  0  0  0  0  0  0  0  0
   20.8791   16.6375   21.6287 H   0  0  0  0  0  0  0  0  0  0  0  0
   21.8292   17.7450   20.8790 H   0  0  0  0  0  0  0  0  0  0  0  0
   20.4510   16.8215   19.5631 C   0  0  0  0  0  0  0  0  0  0  0  0
   20.4750   17.6205   18.8189 H   0  0  0  0  0  0  0  0  0  0  0  0
   21.1470   16.0302   19.2760 H   0  0  0  0  0  0  0  0  0  0  0  0
   19.4402   16.4141   19.6355 H   0  0  0  0  0  0  0  0  0  0  0  0
  1  2  1  0  0  0  0
  1  3  1  0  0  0  0
  1  4  1  0  0  0  0
  1  5  1  0  0  0  0
  5  6  1  0  0  0  0
  5  7  1  0  0  0  0
  5  8  1  0  0  0  0
  8  9  1  0  0  0  0
  8 10  1  0  0  0  0
  8 11  1  0  0  0  0
 11 12  1  0  0  0  0
 11 13  1  0  0  0  0
 11 14  1  0  0  0  0
 14 15  1  0  0  0  0
 14 16  1  0  0  0  0
 14 17  1  0  0  0  0
 17 18  1  0  0  0  0
 17 19  1  0  0  0  0
 17 20  1  0  0  0  0
M  END
> <VConfSearch Rank>
837

> <Conf_Id>
67

> <Delta U+W>
0.000

> <U+W>
15.338

> <U>
69.277

> <W>
-53.939

> <W(PB)>
-55.889

> <W(SA)>
1.950

> <Valence>
0.846

> <Coulomb>
68.557

> <VdW>
-0.127

> <VdW6>
-3.008

> <VdW12>
2.882

> <Bond>
0.088

> <Angle>
0.332

> <Pdih>
0.426

> <Idih>
0.000

> <Tether>
0.000

$$$$
VeraChem MOL file


 20 19  0  0  0  0  0  0  0  0999 V2000     
   20.5942   15.9953   21.3140 C   0  0  0  0  0  0  0  0  0  0  0  0
   19.5259   15.7728   21.4336 H   0  0  0  0  0  0  0  0  0  0  0  0
   20.9842   15.3511   20.5153 H   0  0  0  0  0  0  0  0  0  0  0  0
   21.1063   15.7224   22.2459 H   0  0  0  0  0  0  0  0  0  0  0  0
   20.8175   17.4844   20.9720 C   0  0  0  0  0  0  0  0  0  0  0  0
   20.3228   17.7183   20.0186 H   0  0  0  0  0  0  0  0  0  0  0  0
   21.8912   17.6679   20.8240 H   0  0  0  0  0  0  0  0  0  0  0  0
   20.2781   18.4156   22.0799 C   0  0  0  0  0  0  0  0  0  0  0  0
   19.2062   18.2288   22.2242 H   0  0  0  0  0  0  0  0  0  0  0  0
   20.7758   18.1844   23.0310 H   0  0  0  0  0  0  0  0  0  0  0  0
   20.5071   19.9005   21.7299 C   0  0  0  0  0  0  0  0  0  0  0  0
   19.9743   20.1513   20.8092 H   0  0  0  0  0  0  0  0  0  0  0  0
   21.5741   20.0639   21.5582 H   0  0  0  0  0  0  0  0  0  0  0  0
   20.0679   20.8797   22.8066 N   0  3  0  0  0  0  0  0  0  0  0  0
   20.4026   21.8267   22.5690 H   0  0  0  0  0  0  0  0  0  0  0  0
   20.5265   20.6549   23.7026 H   0  0  0  0  0  0  0  0  0  0  0  0
   18.5508   20.8909   22.9610 C   0  0  0  0  0  0  0  0  0  0  0  0
   18.2110   19.9027   23.2770 H   0  0  0  0  0  0  0  0  0  0  0  0
   18.2735   21.6315   23.7143 H   0  0  0  0  0  0  0  0  0  0  0  0
   18.0940   21.1511   22.0038 H   0  0  0  0  0  0  0  0  0  0  0  0
  1  2  1  0  0  0  0
  1  3  1  0  0  0  0
  1  4  1  0  0  0  0
  1  5  1  0  0  0  0
  5  6  1  0  0  0  0
  5  7  1  0  0  0  0
  5  8  1  0  0  0  0
  8  9  1  0  0  0  0
  8 10  1  0  0  0  0
  8 11  1  0  0  0  0
 11 12  1  0  0  0  0
 11 13  1  0  0  0  0
 11 14  1  0  0  0  0
 14 15  1  0  0  0  0
 14 16  1  0  0  0  0
 14 17  1  0  0  0  0
 17 18  1  0  0  0  0
 17 19  1  0  0  0  0
 17 20  1  0  0  0  0
M  END
> <VConfSearch Rank>
838

> <Conf_Id>
37

> <Delta U+W>
-0.021

> <U+W>
15.318

> <U>
69.657

> <W>
-54.340

> <W(PB)>
-56.238

> <W(SA)>
1.899

> <Valence>
1.137

> <Coulomb>
68.383

> <VdW>
0.138

> <VdW6>
-3.703

> <VdW12>
3.841

> <Bond>
0.125

> <Angle>
0.468

> <Pdih>
0.543

> <Idih>
0.000

> <Tether>
0.000

$$$$
VeraChem MOL file


 20 19  0  0  0  0  0  0  0  0999 V2000     
   21.1296   20.8290   20.0986 C   0  0  0  0  0  0  0  0  0  0  0  0
   21.1904   21.0807   19.0319 H   0  0  0  0  0  0  0  0  0  0  0  0
   20.5540   21.6193   20.5980 H   0  0  0  0  0  0  0  0  0  0  0  0
   22.1493   20.8403   20.5052 H   0  0  0  0  0  0  0  0  0  0  0  0
   20.4670   19.4484   20.2966 C   0  0  0  0  0  0  0  0  0  0  0  0
   21.0455   18.6852   19.7570 H   0  0  0  0  0  0  0  0  0  0  0  0
   19.4627   19.4579   19.8499 H   0  0  0  0  0  0  0  0  0  0  0  0
   20.3682   19.0674   21.7902 C   0  0  0  0  0  0  0  0  0  0  0  0
   21.3721   19.0539   22.2347 H   0  0  0  0  0  0  0  0  0  0  0  0
   19.7901   19.8320   22.3247 H   0  0  0  0  0  0  0  0  0  0  0  0
   19.7066   17.6864   21.9776 C   0  0  0  0  0  0  0  0  0  0  0  0
   20.2747   16.9417   21.4143 H   0  0  0  0  0  0  0  0  0  0  0  0
   18.6885   17.7057   21.5808 H   0  0  0  0  0  0  0  0  0  0  0  0
   19.6387   17.2073   23.4186 N   0  3  0  0  0  0  0  0  0  0  0  0
   20.5803   17.2061   23.8396 H   0  0  0  0  0  0  0  0  0  0  0  0
   19.3386   16.2200   23.4402 H   0  0  0  0  0  0  0  0  0  0  0  0
   18.6772   18.0582   24.2415 C   0  0  0  0  0  0  0  0  0  0  0  0
   17.6860   18.0244   23.7844 H   0  0  0  0  0  0  0  0  0  0  0  0
   18.6275   17.6604   25.2574 H   0  0  0  0  0  0  0  0  0  0  0  0
   19.0374   19.0885   24.2692 H   0  0  0  0  0  0  0  0  0  0  0  0
  1  2  1  0  0  0  0
  1  3  1  0  0  0  0
  1  4  1  0  0  0  0
  1  5  1  0  0  0  0
  5  6  1  0  0  0  0
  5  7  1  0  0  0  0
  5  8  1  0  0  0  0
  8  9  1  0  0  0  0
  8 10  1  0  0  0  0
  8 11  1  0  0  0  0
 11 12  1  0  0  0  0
 11 13  1  0  0  0  0
 11 14  1  0  0  0  0
 14 15  1  0  0  0  0
 14 16  1  0  0  0  0
 14 17  1  0  0  0  0
 17 18  1  0  0  0  0
 17 19  1  0  0  0  0
 17 20  1  0  0  0  0
M  END
> <VConfSearch Rank>
839

> <Conf_Id>
2

> <Delta U+W>
0.069

> <U+W>
15.407

> <U>
69.657

> <W>
-54.250

> <W(PB)>
-56.176

> <W(SA)>
1.926

> <Valence>
1.137

> <Coulomb>
68.383

> <VdW>
0.138

> <VdW6>
-3.703

> <VdW12>
3.841

> <Bond>
0.125

> <Angle>
0.468

> <Pdih>
0.543

> <Idih>
0.000

> <Tether>
0.000

$$$$
VeraChem MOL file


 20 19  0  0  0  0  0  0  0  0999 V2000     
   18.2802   20.7184   21.5708 C   0  0  0  0  0  0  0  0  0  0  0  0
   19.2888   20.9951   21.2388 H   0  0  0  0  0  0  0  0  0  0  0  0
   17.7656   20.2294   20.7334 H   0  0  0  0  0  0  0  0  0  0  0  0
   17.7409   21.6470   21.7984 H   0  0  0  0  0  0  0  0  0  0  0  0
   18.3225   19.7978   22.8122 C   0  0  0  0  0  0  0  0  0  0  0  0
   17.2960   19.6234   23.1642 H   0  0  0  0  0  0  0  0  0  0  0  0
   18.8474   20.3080   23.6322 H   0  0  0  0  0  0  0  0  0  0  0  0
   18.9957   18.4340   22.5310 C   0  0  0  0  0  0  0  0  0  0  0  0
   18.9211   17.8069   23.4293 H   0  0  0  0  0  0  0  0  0  0  0  0
   18.4489   17.9107   21.7354 H   0  0  0  0  0  0  0  0  0  0  0  0
   20.4783   18.5743   22.1343 C   0  0  0  0  0  0  0  0  0  0  0  0
   21.0229   19.0930   22.9273 H   0  0  0  0  0  0  0  0  0  0  0  0
   20.5603   19.1643   21.2183 H   0  0  0  0  0  0  0  0  0  0  0  0
   21.1646   17.2445   21.8910 N   0  3  0  0  0  0  0  0  0  0  0  0
   20.6721   16.7190   21.1525 H   0  0  0  0  0  0  0  0  0  0  0  0
   21.1044   16.6526   22.7336 H   0  0  0  0  0  0  0  0  0  0  0  0
   22.6192   17.4740   21.5029 C   0  0  0  0  0  0  0  0  0  0  0  0
   23.1289   18.0008   22.3126 H   0  0  0  0  0  0  0  0  0  0  0  0
   23.1012   16.5091   21.3308 H   0  0  0  0  0  0  0  0  0  0  0  0
   22.6581   18.0728   20.5904 H   0  0  0  0  0  0  0  0  0  0  0  0
  1  2  1  0  0  0  0
  1  3  1  0  0  0  0
  1  4  1  0  0  0  0
  1  5  1  0  0  0  0
  5  6  1  0  0  0  0
  5  7  1  0  0  0  0
  5  8  1  0  0  0  0
  8  9  1  0  0  0  0
  8 10  1  0  0  0  0
  8 11  1  0  0  0  0
 11 12  1  0  0  0  0
 11 13  1  0  0  0  0
 11 14  1  0  0  0  0
 14 15  1  0  0  0  0
 14 16  1  0  0  0  0
 14 17  1  0  0  0  0
 17 18  1  0  0  0  0
 17 19  1  0  0  0  0
 17 20  1  0  0  0  0
M  END
> <VConfSearch Rank>
840

> <Conf_Id>
34

> <Delta U+W>
0.276

> <U+W>
15.615

> <U>
69.798

> <W>
-54.184

> <W(PB)>
-56.116

> <W(SA)>
1.933

> <Valence>
1.134

> <Coulomb>
68.735

> <VdW>
-0.070

> <VdW6>
-3.565

> <VdW12>
3.494

> <Bond>
0.108

> <Angle>
0.456

> <Pdih>
0.569

> <Idih>
0.000

> <Tether>
0.000

$$$$
VeraChem MOL file


 20 19  0  0  0  0  0  0  0  0999 V2000     
   22.4662   18.7334   20.1954 C   0  0  0  0  0  0  0  0  0  0  0  0
   22.1361   18.8003   19.1506 H   0  0  0  0  0  0  0  0  0  0  0  0
   23.3521   19.3714   20.3092 H   0  0  0  0  0  0  0  0  0  0  0  0
   22.7708   17.6971   20.3915 H   0  0  0  0  0  0  0  0  0  0  0  0
   21.3469   19.1763   21.1623 C   0  0  0  0  0  0  0  0  0  0  0  0
   21.0868   20.2254   20.9621 H   0  0  0  0  0  0  0  0  0  0  0  0
   21.7257   19.1347   22.1925 H   0  0  0  0  0  0  0  0  0  0  0  0
   20.0858   18.2914   21.0219 C   0  0  0  0  0  0  0  0  0  0  0  0
   19.7423   18.3124   19.9791 H   0  0  0  0  0  0  0  0  0  0  0  0
   20.3322   17.2455   21.2482 H   0  0  0  0  0  0  0  0  0  0  0  0
   18.9259   18.7551   21.9259 C   0  0  0  0  0  0  0  0  0  0  0  0
   18.0404   18.1496   21.7164 H   0  0  0  0  0  0  0  0  0  0  0  0
   18.6840   19.7982   21.7071 H   0  0  0  0  0  0  0  0  0  0  0  0
   19.2156   18.6426   23.4109 N   0  3  0  0  0  0  0  0  0  0  0  0
   20.0461   19.2023   23.6545 H   0  0  0  0  0  0  0  0  0  0  0  0
   19.4590   17.6698   23.6529 H   0  0  0  0  0  0  0  0  0  0  0  0
   18.0069   19.1060   24.2128 C   0  0  0  0  0  0  0  0  0  0  0  0
   17.7883   20.1470   23.9652 H   0  0  0  0  0  0  0  0  0  0  0  0
   17.1481   18.4788   23.9639 H   0  0  0  0  0  0  0  0  0  0  0  0
   18.2288   19.0199   25.2788 H   0  0  0  0  0  0  0  0  0  0  0  0
  1  2  1  0  0  0  0
  1  3  1  0  0  0  0
  1  4  1  0  0  0  0
  1  5  1  0  0  0  0
  5  6  1  0  0  0  0
  5  7  1  0  0  0  0
  5  8  1  0  0  0  0
  8  9  1  0  0  0  0
  8 10  1  0  0  0  0
  8 11  1  0  0  0  0
 11 12  1  0  0  0  0
 11 13  1  0  0  0  0
 11 14  1  0  0  0  0
 14 15  1  0  0  0  0
 14 16  1  0  0  0  0
 14 17  1  0  0  0  0
 17 18  1  0  0  0  0
 17 19  1  0  0  0  0
 17 20  1  0  0  0  0
M  END
> <VConfSearch Rank>
841

> <Conf_Id>
50

> <Delta U+W>
0.319

> <U+W>
15.657

> <U>
69.962

> <W>
-54.305

> <W(PB)>
-56.223

> <W(SA)>
1.918

> <Valence>
0.982

> <Coulomb>
69.058

> <VdW>
-0.078

> <VdW6>
-3.548

> <VdW12>
3.471

> <Bond>
0.105

> <Angle>
0.408

> <Pdih>
0.469

> <Idih>
0.000

> <Tether>
0.000

$$$$
VeraChem MOL file


 20 19  0  0  0  0  0  0  0  0999 V2000     
   20.7506   16.2847   23.5004 C   0  0  0  0  0  0  0  0  0  0  0  0
   21.6369   15.6639   23.3155 H   0  0  0  0  0  0  0  0  0  0  0  0
   20.6948   16.4773   24.5797 H   0  0  0  0  0  0  0  0  0  0  0  0
   19.8660   15.7023   23.2113 H   0  0  0  0  0  0  0  0  0  0  0  0
   20.8325   17.6043   22.7029 C   0  0  0  0  0  0  0  0  0  0  0  0
   20.9275   17.3716   21.6336 H   0  0  0  0  0  0  0  0  0  0  0  0
   21.7432   18.1481   22.9913 H   0  0  0  0  0  0  0  0  0  0  0  0
   19.5934   18.4979   22.9460 C   0  0  0  0  0  0  0  0  0  0  0  0
   18.6818   17.9714   22.6335 H   0  0  0  0  0  0  0  0  0  0  0  0
   19.4897   18.6891   24.0224 H   0  0  0  0  0  0  0  0  0  0  0  0
   19.6813   19.8538   22.2170 C   0  0  0  0  0  0  0  0  0  0  0  0
   20.5917   20.3762   22.5215 H   0  0  0  0  0  0  0  0  0  0  0  0
   18.8246   20.4714   22.4984 H   0  0  0  0  0  0  0  0  0  0  0  0
   19.6878   19.7435   20.7038 N   0  3  0  0  0  0  0  0  0  0  0  0
   18.8450   19.2447   20.3801 H   0  0  0  0  0  0  0  0  0  0  0  0
   20.4843   19.1679   20.3928 H   0  0  0  0  0  0  0  0  0  0  0  0
   19.7588   21.1317   20.0819 C   0  0  0  0  0  0  0  0  0  0  0  0
   19.7629   21.0377   18.9938 H   0  0  0  0  0  0  0  0  0  0  0  0
   18.8894   21.7123   20.3978 H   0  0  0  0  0  0  0  0  0  0  0  0
   20.6741   21.6277   20.4121 H   0  0  0  0  0  0  0  0  0  0  0  0
  1  2  1  0  0  0  0
  1  3  1  0  0  0  0
  1  4  1  0  0  0  0
  1  5  1  0  0  0  0
  5  6  1  0  0  0  0
  5  7  1  0  0  0  0
  5  8  1  0  0  0  0
  8  9  1  0  0  0  0
  8 10  1  0  0  0  0
  8 11  1  0  0  0  0
 11 12  1  0  0  0  0
 11 13  1  0  0  0  0
 11 14  1  0  0  0  0
 14 15  1  0  0  0  0
 14 16  1  0  0  0  0
 14 17  1  0  0  0  0
 17 18  1  0  0  0  0
 17 19  1  0  0  0  0
 17 20  1  0  0  0  0
M  END
> <VConfSearch Rank>
842

> <Conf_Id>
35

> <Delta U+W>
0.360

> <U+W>
15.698

> <U>
69.962

> <W>
-54.264

> <W(PB)>
-56.166

> <W(SA)>
1.902

> <Valence>
0.982

> <Coulomb>
69.058

> <VdW>
-0.078

> <VdW6>
-3.548

> <VdW12>
3.471

> <Bond>
0.105

> <Angle>
0.408

> <Pdih>
0.469

> <Idih>
0.000

> <Tether>
0.000

$$$$
VeraChem MOL file


 20 19  0  0  0  0  0  0  0  0999 V2000     
   22.4002   19.2565   22.9119 C   0  0  0  0  0  0  0  0  0  0  0  0
   22.4674   19.5023   21.8446 H   0  0  0  0  0  0  0  0  0  0  0  0
   23.2286   19.7657   23.4213 H   0  0  0  0  0  0  0  0  0  0  0  0
   22.5520   18.1752   23.0249 H   0  0  0  0  0  0  0  0  0  0  0  0
   21.0440   19.6937   23.5118 C   0  0  0  0  0  0  0  0  0  0  0  0
   20.9147   20.7774   23.3813 H   0  0  0  0  0  0  0  0  0  0  0  0
   21.0563   19.5126   24.5958 H   0  0  0  0  0  0  0  0  0  0  0  0
   19.8405   18.9466   22.8910 C   0  0  0  0  0  0  0  0  0  0  0  0
   19.9567   17.8679   23.0573 H   0  0  0  0  0  0  0  0  0  0  0  0
   18.9237   19.2486   23.4142 H   0  0  0  0  0  0  0  0  0  0  0  0
   19.6791   19.2333   21.3826 C   0  0  0  0  0  0  0  0  0  0  0  0
   20.5576   18.8760   20.8400 H   0  0  0  0  0  0  0  0  0  0  0  0
   19.6049   20.3134   21.2331 H   0  0  0  0  0  0  0  0  0  0  0  0
   18.4508   18.6027   20.7470 N   0  3  0  0  0  0  0  0  0  0  0  0
   18.3278   18.9729   19.7915 H   0  0  0  0  0  0  0  0  0  0  0  0
   17.5992   18.8900   21.2530 H   0  0  0  0  0  0  0  0  0  0  0  0
   18.5690   17.0831   20.7020 C   0  0  0  0  0  0  0  0  0  0  0  0
   18.6325   16.6939   21.7200 H   0  0  0  0  0  0  0  0  0  0  0  0
   17.6874   16.6703   20.2066 H   0  0  0  0  0  0  0  0  0  0  0  0
   19.4667   16.8087   20.1438 H   0  0  0  0  0  0  0  0  0  0  0  0
  1  2  1  0  0  0  0
  1  3  1  0  0  0  0
  1  4  1  0  0  0  0
  1  5  1  0  0  0  0
  5  6  1  0  0  0  0
  5  7  1  0  0  0  0
  5  8  1  0  0  0  0
  8  9  1  0  0  0  0
  8 10  1  0  0  0  0
  8 11  1  0  0  0  0
 11 12  1  0  0  0  0
 11 13  1  0  0  0  0
 11 14  1  0  0  0  0
 14 15  1  0  0  0  0
 14 16  1  0  0  0  0
 14 17  1  0  0  0  0
 17 18  1  0  0  0  0
 17 19  1  0  0  0  0
 17 20  1  0  0  0  0
M  END
> <VConfSearch Rank>
843

> <Conf_Id>
33

> <Delta U+W>
0.372

> <U+W>
15.711

> <U>
70.163

> <W>
-54.452

> <W(PB)>
-56.363

> <W(SA)>
1.911

> <Valence>
1.420

> <Coulomb>
68.566

> <VdW>
0.177

> <VdW6>
-4.267

> <VdW12>
4.445

> <Bond>
0.146

> <Angle>
0.581

> <Pdih>
0.693

> <Idih>
0.000

> <Tether>
0.000

$$$$
VeraChem MOL file


 20 19  0  0  0  0  0  0  0  0999 V2000     
   18.0450   17.6258   21.0730 C   0  0  0  0  0  0  0  0  0  0  0  0
   17.0326   17.2078   21.0001 H   0  0  0  0  0  0  0  0  0  0  0  0
   18.0347   18.6052   20.5782 H   0  0  0  0  0  0  0  0  0  0  0  0
   18.7205   16.9661   20.5131 H   0  0  0  0  0  0  0  0  0  0  0  0
   18.4790   17.7408   22.5524 C   0  0  0  0  0  0  0  0  0  0  0  0
   18.3871   16.7556   23.0307 H   0  0  0  0  0  0  0  0  0  0  0  0
   17.7907   18.4095   23.0882 H   0  0  0  0  0  0  0  0  0  0  0  0
   19.9313   18.2462   22.7178 C   0  0  0  0  0  0  0  0  0  0  0  0
   20.1964   18.2299   23.7831 H   0  0  0  0  0  0  0  0  0  0  0  0
   20.6172   17.5542   22.2124 H   0  0  0  0  0  0  0  0  0  0  0  0
   20.1269   19.6764   22.1704 C   0  0  0  0  0  0  0  0  0  0  0  0
   19.4096   20.3429   22.6560 H   0  0  0  0  0  0  0  0  0  0  0  0
   19.9310   19.6934   21.0957 H   0  0  0  0  0  0  0  0  0  0  0  0
   21.5125   20.2575   22.4004 N   0  3  0  0  0  0  0  0  0  0  0  0
   21.7501   20.2290   23.4037 H   0  0  0  0  0  0  0  0  0  0  0  0
   21.5110   21.2607   22.1578 H   0  0  0  0  0  0  0  0  0  0  0  0
   22.5640   19.5265   21.5725 C   0  0  0  0  0  0  0  0  0  0  0  0
   23.5370   19.9951   21.7358 H   0  0  0  0  0  0  0  0  0  0  0  0
   22.6054   18.4801   21.8810 H   0  0  0  0  0  0  0  0  0  0  0  0
   22.2976   19.5908   20.5153 H   0  0  0  0  0  0  0  0  0  0  0  0
  1  2  1  0  0  0  0
  1  3  1  0  0  0  0
  1  4  1  0  0  0  0
  1  5  1  0  0  0  0
  5  6  1  0  0  0  0
  5  7  1  0  0  0  0
  5  8  1  0  0  0  0
  8  9  1  0  0  0  0
  8 10  1  0  0  0  0
  8 11  1  0  0  0  0
 11 12  1  0  0  0  0
 11 13  1  0  0  0  0
 11 14  1  0  0  0  0
 14 15  1  0  0  0  0
 14 16  1  0  0  0  0
 14 17  1  0  0  0  0
 17 18  1  0  0  0  0
 17 19  1  0  0  0  0
 17 20  1  0  0  0  0
M  END
> <VConfSearch Rank>
844

> <Conf_Id>
53

> <Delta U+W>
0.379

> <U+W>
15.717

> <U>
70.163

> <W>
-54.446

> <W(PB)>
-56.322

> <W(SA)>
1.876

> <Valence>
1.420

> <Coulomb>
68.566

> <VdW>
0.177

> <VdW6>
-4.267

> <VdW12>
4.445

> <Bond>
0.146

> <Angle>
0.581

> <Pdih>
0.693

> <Idih>
0.000

> <Tether>
0.000

$$$$
VeraChem MOL file


 20 19  0  0  0  0  0  0  0  0999 V2000     
   21.0159   20.1895   24.2644 C   0  0  0  0  0  0  0  0  0  0  0  0
   20.4847   20.3372   25.2136 H   0  0  0  0  0  0  0  0  0  0  0  0
   22.0595   19.9417   24.4986 H   0  0  0  0  0  0  0  0  0  0  0  0
   21.0050   21.1433   23.7211 H   0  0  0  0  0  0  0  0  0  0  0  0
   20.3506   19.0698   23.4352 C   0  0  0  0  0  0  0  0  0  0  0  0
   19.2999   19.3341   23.2539 H   0  0  0  0  0  0  0  0  0  0  0  0
   20.3483   18.1374   24.0172 H   0  0  0  0  0  0  0  0  0  0  0  0
   21.0799   18.8430   22.0901 C   0  0  0  0  0  0  0  0  0  0  0  0
   21.0615   19.7637   21.4929 H   0  0  0  0  0  0  0  0  0  0  0  0
   22.1381   18.6231   22.2838 H   0  0  0  0  0  0  0  0  0  0  0  0
   20.4836   17.6754   21.2729 C   0  0  0  0  0  0  0  0  0  0  0  0
   20.5621   16.7560   21.8588 H   0  0  0  0  0  0  0  0  0  0  0  0
   21.0634   17.5386   20.3566 H   0  0  0  0  0  0  0  0  0  0  0  0
   19.0244   17.8370   20.8740 N   0  3  0  0  0  0  0  0  0  0  0  0
   18.4394   17.9723   21.7115 H   0  0  0  0  0  0  0  0  0  0  0  0
   18.6833   16.9595   20.4510 H   0  0  0  0  0  0  0  0  0  0  0  0
   18.8420   18.9902   19.8933 C   0  0  0  0  0  0  0  0  0  0  0  0
   19.4572   18.8107   19.0090 H   0  0  0  0  0  0  0  0  0  0  0  0
   17.7906   19.0510   19.6039 H   0  0  0  0  0  0  0  0  0  0  0  0
   19.1447   19.9236   20.3720 H   0  0  0  0  0  0  0  0  0  0  0  0
  1  2  1  0  0  0  0
  1  3  1  0  0  0  0
  1  4  1  0  0  0  0
  1  5  1  0  0  0  0
  5  6  1  0  0  0  0
  5  7  1  0  0  0  0
  5  8  1  0  0  0  0
  8  9  1  0  0  0  0
  8 10  1  0  0  0  0
  8 11  1  0  0  0  0
 11 12  1  0  0  0  0
 11 13  1  0  0  0  0
 11 14  1  0  0  0  0
 14 15  1  0  0  0  0
 14 16  1  0  0  0  0
 14 17  1  0  0  0  0
 17 18  1  0  0  0  0
 17 19  1  0  0  0  0
 17 20  1  0  0  0  0
M  END
> <VConfSearch Rank>
845

> <Conf_Id>
49

> <Delta U+W>
0.268

> <U+W>
15.607

> <U>
70.298

> <W>
-54.692

> <W(PB)>
-56.576

> <W(SA)>
1.885

> <Valence>
1.245

> <Coulomb>
68.933

> <VdW>
0.120

> <VdW6>
-4.430

> <VdW12>
4.550

> <Bond>
0.148

> <Angle>
0.587

> <Pdih>
0.509

> <Idih>
0.000

> <Tether>
0.000

$$$$
VeraChem MOL file


 20 19  0  0  0  0  0  0  0  0999 V2000     
   22.5536   19.2357   20.8739 C   0  0  0  0  0  0  0  0  0  0  0  0
   22.6144   20.3299   20.9385 H   0  0  0  0  0  0  0  0  0  0  0  0
   23.3424   18.8117   21.5088 H   0  0  0  0  0  0  0  0  0  0  0  0
   22.7671   18.9479   19.8363 H   0  0  0  0  0  0  0  0  0  0  0  0
   21.1597   18.7299   21.3045 C   0  0  0  0  0  0  0  0  0  0  0  0
   21.1204   17.6363   21.2025 H   0  0  0  0  0  0  0  0  0  0  0  0
   20.4062   19.1445   20.6219 H   0  0  0  0  0  0  0  0  0  0  0  0
   20.8292   19.1320   22.7607 C   0  0  0  0  0  0  0  0  0  0  0  0
   21.6500   18.8115   23.4160 H   0  0  0  0  0  0  0  0  0  0  0  0
   20.7801   20.2259   22.8419 H   0  0  0  0  0  0  0  0  0  0  0  0
   19.5193   18.5176   23.3044 C   0  0  0  0  0  0  0  0  0  0  0  0
   19.4188   18.8121   24.3522 H   0  0  0  0  0  0  0  0  0  0  0  0
   19.5687   17.4264   23.2707 H   0  0  0  0  0  0  0  0  0  0  0  0
   18.2446   18.9592   22.6020 N   0  3  0  0  0  0  0  0  0  0  0  0
   18.3348   19.9311   22.2702 H   0  0  0  0  0  0  0  0  0  0  0  0
   17.4711   18.9843   23.2847 H   0  0  0  0  0  0  0  0  0  0  0  0
   17.8783   18.0119   21.4639 C   0  0  0  0  0  0  0  0  0  0  0  0
   16.9480   18.3510   21.0028 H   0  0  0  0  0  0  0  0  0  0  0  0
   18.6742   18.0046   20.7184 H   0  0  0  0  0  0  0  0  0  0  0  0
   17.7421   17.0057   21.8659 H   0  0  0  0  0  0  0  0  0  0  0  0
  1  2  1  0  0  0  0
  1  3  1  0  0  0  0
  1  4  1  0  0  0  0
  1  5  1  0  0  0  0
  5  6  1  0  0  0  0
  5  7  1  0  0  0  0
  5  8  1  0  0  0  0
  8  9  1  0  0  0  0
  8 10  1  0  0  0  0
  8 11  1  0  0  0  0
 11 12  1  0  0  0  0
 11 13  1  0  0  0  0
 11 14  1  0  0  0  0
 14 15  1  0  0  0  0
 14 16  1  0  0  0  0
 14 17  1  0  0  0  0
 17 18  1  0  0  0  0
 17 19  1  0  0  0  0
 17 20  1  0  0  0  0
M  END
> <VConfSearch Rank>
846

> <Conf_Id>
65

> <Delta U+W>
1.775

> <U+W>
17.114

> <U>
71.726

> <W>
-54.613

> <W(PB)>
-56.495

> <W(SA)>
1.883

> <Valence>
2.885

> <Coulomb>
68.822

> <VdW>
0.019

> <VdW6>
-4.600

> <VdW12>
4.619

> <Bond>
0.152

> <Angle>
0.862

> <Pdih>
1.871

> <Idih>
0.000

> <Tether>
0.000

$$$$
VeraChem MOL file


 20 19  0  0  0  0  0  0  0  0999 V2000     
   19.6249   20.9100   22.9044 C   0  0  0  0  0  0  0  0  0  0  0  0
   19.4627   20.0550   23.5727 H   0  0  0  0  0  0  0  0  0  0  0  0
   20.0874   21.7099   23.4972 H   0  0  0  0  0  0  0  0  0  0  0  0
   18.6451   21.2698   22.5644 H   0  0  0  0  0  0  0  0  0  0  0  0
   20.5256   20.5336   21.7055 C   0  0  0  0  0  0  0  0  0  0  0  0
   21.4985   20.1782   22.0712 H   0  0  0  0  0  0  0  0  0  0  0  0
   20.7355   21.4389   21.1187 H   0  0  0  0  0  0  0  0  0  0  0  0
   19.8856   19.4736   20.7745 C   0  0  0  0  0  0  0  0  0  0  0  0
   18.9665   19.8854   20.3370 H   0  0  0  0  0  0  0  0  0  0  0  0
   20.5611   19.2723   19.9325 H   0  0  0  0  0  0  0  0  0  0  0  0
   19.5430   18.1442   21.4790 C   0  0  0  0  0  0  0  0  0  0  0  0
   19.0695   17.4668   20.7639 H   0  0  0  0  0  0  0  0  0  0  0  0
   18.8345   18.3294   22.2899 H   0  0  0  0  0  0  0  0  0  0  0  0
   20.7460   17.4285   22.0632 N   0  3  0  0  0  0  0  0  0  0  0  0
   21.2257   18.0404   22.7400 H   0  0  0  0  0  0  0  0  0  0  0  0
   21.4396   17.2375   21.3241 H   0  0  0  0  0  0  0  0  0  0  0  0
   20.3064   16.1333   22.7324 C   0  0  0  0  0  0  0  0  0  0  0  0
   19.8296   15.4890   21.9906 H   0  0  0  0  0  0  0  0  0  0  0  0
   21.1814   15.6298   23.1492 H   0  0  0  0  0  0  0  0  0  0  0  0
   19.5985   16.3634   23.5316 H   0  0  0  0  0  0  0  0  0  0  0  0
  1  2  1  0  0  0  0
  1  3  1  0  0  0  0
  1  4  1  0  0  0  0
  1  5  1  0  0  0  0
  5  6  1  0  0  0  0
  5  7  1  0  0  0  0
  5  8  1  0  0  0  0
  8  9  1  0  0  0  0
  8 10  1  0  0  0  0
  8 11  1  0  0  0  0
 11 12  1  0  0  0  0
 11 13  1  0  0  0  0
 11 14  1  0  0  0  0
 14 15  1  0  0  0  0
 14 16  1  0  0  0  0
 14 17  1  0  0  0  0
 17 18  1  0  0  0  0
 17 19  1  0  0  0  0
 17 20  1  0  0  0  0
M  END
> <VConfSearch Rank>
847

> <Conf_Id>
23

> <Delta U+W>
0.896

> <U+W>
16.234

> <U>
70.374

> <W>
-54.140

> <W(PB)>
-56.046

> <W(SA)>
1.907

> <Valence>
1.257

> <Coulomb>
69.240

> <VdW>
-0.123

> <VdW6>
-4.336

> <VdW12>
4.213

> <Bond>
0.128

> <Angle>
0.603

> <Pdih>
0.526

> <Idih>
0.000

> <Tether>
0.000

$$$$
VeraChem MOL file


 20 19  0  0  0  0  0  0  0  0999 V2000     
   17.8862   17.9916   21.7963 C   0  0  0  0  0  0  0  0  0  0  0  0
   17.6689   17.7303   20.7525 H   0  0  0  0  0  0  0  0  0  0  0  0
   17.0008   17.7413   22.3949 H   0  0  0  0  0  0  0  0  0  0  0  0
   18.0284   19.0780   21.8549 H   0  0  0  0  0  0  0  0  0  0  0  0
   19.1252   17.2257   22.3146 C   0  0  0  0  0  0  0  0  0  0  0  0
   18.9014   16.1497   22.3245 H   0  0  0  0  0  0  0  0  0  0  0  0
   19.3212   17.5032   23.3592 H   0  0  0  0  0  0  0  0  0  0  0  0
   20.3905   17.4636   21.4528 C   0  0  0  0  0  0  0  0  0  0  0  0
   21.2231   16.8724   21.8565 H   0  0  0  0  0  0  0  0  0  0  0  0
   20.2117   17.0856   20.4375 H   0  0  0  0  0  0  0  0  0  0  0  0
   20.8173   18.9435   21.3594 C   0  0  0  0  0  0  0  0  0  0  0  0
   20.0107   19.5317   20.9154 H   0  0  0  0  0  0  0  0  0  0  0  0
   21.6937   19.0275   20.7119 H   0  0  0  0  0  0  0  0  0  0  0  0
   21.1711   19.5683   22.6955 N   0  3  0  0  0  0  0  0  0  0  0  0
   21.9314   19.0367   23.1464 H   0  0  0  0  0  0  0  0  0  0  0  0
   20.3688   19.5017   23.3392 H   0  0  0  0  0  0  0  0  0  0  0  0
   21.5785   21.0221   22.4983 C   0  0  0  0  0  0  0  0  0  0  0  0
   20.7474   21.5712   22.0506 H   0  0  0  0  0  0  0  0  0  0  0  0
   21.8290   21.4592   23.4674 H   0  0  0  0  0  0  0  0  0  0  0  0
   22.4481   21.0658   21.8390 H   0  0  0  0  0  0  0  0  0  0  0  0
  1  2  1  0  0  0  0
  1  3  1  0  0  0  0
  1  4  1  0  0  0  0
  1  5  1  0  0  0  0
  5  6  1  0  0  0  0
  5  7  1  0  0  0  0
  5  8  1  0  0  0  0
  8  9  1  0  0  0  0
  8 10  1  0  0  0  0
  8 11  1  0  0  0  0
 11 12  1  0  0  0  0
 11 13  1  0  0  0  0
 11 14  1  0  0  0  0
 14 15  1  0  0  0  0
 14 16  1  0  0  0  0
 14 17  1  0  0  0  0
 17 18  1  0  0  0  0
 17 19  1  0  0  0  0
 17 20  1  0  0  0  0
M  END
> <VConfSearch Rank>
848

> <Conf_Id>
24

> <Delta U+W>
0.792

> <U+W>
16.130

> <U>
70.374

> <W>
-54.243

> <W(PB)>
-56.130

> <W(SA)>
1.887

> <Valence>
1.257

> <Coulomb>
69.240

> <VdW>
-0.123

> <VdW6>
-4.336

> <VdW12>
4.213

> <Bond>
0.128

> <Angle>
0.603

> <Pdih>
0.526

> <Idih>
0.000

> <Tether>
0.000

$$$$
VeraChem MOL file


 20 19  0  0  0  0  0  0  0  0999 V2000     
   21.0734   16.9388   21.6404 C   0  0  0  0  0  0  0  0  0  0  0  0
   21.8867   16.2096   21.5304 H   0  0  0  0  0  0  0  0  0  0  0  0
   21.0878   17.2806   22.6820 H   0  0  0  0  0  0  0  0  0  0  0  0
   20.1284   16.4131   21.4511 H   0  0  0  0  0  0  0  0  0  0  0  0
   21.2709   18.1129   20.6545 C   0  0  0  0  0  0  0  0  0  0  0  0
   21.4628   17.7015   19.6535 H   0  0  0  0  0  0  0  0  0  0  0  0
   22.1751   18.6737   20.9304 H   0  0  0  0  0  0  0  0  0  0  0  0
   20.0652   19.0825   20.5610 C   0  0  0  0  0  0  0  0  0  0  0  0
   20.2903   19.8281   19.7870 H   0  0  0  0  0  0  0  0  0  0  0  0
   19.1711   18.5482   20.2133 H   0  0  0  0  0  0  0  0  0  0  0  0
   19.7525   19.8404   21.8688 C   0  0  0  0  0  0  0  0  0  0  0  0
   19.1720   20.7358   21.6326 H   0  0  0  0  0  0  0  0  0  0  0  0
   20.6843   20.1563   22.3444 H   0  0  0  0  0  0  0  0  0  0  0  0
   18.9451   19.0436   22.8759 N   0  3  0  0  0  0  0  0  0  0  0  0
   19.4263   18.1594   23.0929 H   0  0  0  0  0  0  0  0  0  0  0  0
   18.0389   18.7694   22.4663 H   0  0  0  0  0  0  0  0  0  0  0  0
   18.7337   19.8644   24.1408 C   0  0  0  0  0  0  0  0  0  0  0  0
   19.7046   20.1148   24.5738 H   0  0  0  0  0  0  0  0  0  0  0  0
   18.1941   20.7800   23.8894 H   0  0  0  0  0  0  0  0  0  0  0  0
   18.1516   19.2787   24.8557 H   0  0  0  0  0  0  0  0  0  0  0  0
  1  2  1  0  0  0  0
  1  3  1  0  0  0  0
  1  4  1  0  0  0  0
  1  5  1  0  0  0  0
  5  6  1  0  0  0  0
  5  7  1  0  0  0  0
  5  8  1  0  0  0  0
  8  9  1  0  0  0  0
  8 10  1  0  0  0  0
  8 11  1  0  0  0  0
 11 12  1  0  0  0  0
 11 13  1  0  0  0  0
 11 14  1  0  0  0  0
 14 15  1  0  0  0  0
 14 16  1  0  0  0  0
 14 17  1  0  0  0  0
 17 18  1  0  0  0  0
 17 19  1  0  0  0  0
 17 20  1  0  0  0  0
M  END
> <VConfSearch Rank>
849

> <Conf_Id>
26

> <Delta U+W>
2.888

> <U+W>
18.226

> <U>
72.042

> <W>
-53.816

> <W(PB)>
-55.689

> <W(SA)>
1.873

> <Valence>
2.428

> <Coulomb>
69.829

> <VdW>
-0.215

> <VdW6>
-4.563

> <VdW12>
4.348

> <Bond>
0.137

> <Angle>
0.936

> <Pdih>
1.356

> <Idih>
0.000

> <Tether>
0.000

$$$$
VeraChem MOL file


 20 19  0  0  0  0  0  0  0  0999 V2000     
   22.1562   19.2030   21.4186 C   0  0  0  0  0  0  0  0  0  0  0  0
   23.2410   19.3710   21.4357 H   0  0  0  0  0  0  0  0  0  0  0  0
   21.8340   19.2212   20.3693 H   0  0  0  0  0  0  0  0  0  0  0  0
   21.6930   20.0442   21.9476 H   0  0  0  0  0  0  0  0  0  0  0  0
   21.8136   17.8527   22.0887 C   0  0  0  0  0  0  0  0  0  0  0  0
   22.0619   17.9020   23.1582 H   0  0  0  0  0  0  0  0  0  0  0  0
   22.4627   17.0751   21.6621 H   0  0  0  0  0  0  0  0  0  0  0  0
   20.3391   17.4065   21.9165 C   0  0  0  0  0  0  0  0  0  0  0  0
   20.0996   17.2805   20.8523 H   0  0  0  0  0  0  0  0  0  0  0  0
   20.2321   16.4116   22.3689 H   0  0  0  0  0  0  0  0  0  0  0  0
   19.3073   18.3409   22.5833 C   0  0  0  0  0  0  0  0  0  0  0  0
   19.6794   18.6664   23.5579 H   0  0  0  0  0  0  0  0  0  0  0  0
   18.3769   17.7899   22.7426 H   0  0  0  0  0  0  0  0  0  0  0  0
   18.9579   19.5708   21.7671 N   0  3  0  0  0  0  0  0  0  0  0  0
   18.5622   19.2913   20.8565 H   0  0  0  0  0  0  0  0  0  0  0  0
   19.8127   20.0999   21.5435 H   0  0  0  0  0  0  0  0  0  0  0  0
   17.9722   20.4422   22.5336 C   0  0  0  0  0  0  0  0  0  0  0  0
   18.4247   20.7524   23.4780 H   0  0  0  0  0  0  0  0  0  0  0  0
   17.7301   21.3228   21.9345 H   0  0  0  0  0  0  0  0  0  0  0  0
   17.0632   19.8695   22.7300 H   0  0  0  0  0  0  0  0  0  0  0  0
  1  2  1  0  0  0  0
  1  3  1  0  0  0  0
  1  4  1  0  0  0  0
  1  5  1  0  0  0  0
  5  6  1  0  0  0  0
  5  7  1  0  0  0  0
  5  8  1  0  0  0  0
  8  9  1  0  0  0  0
  8 10  1  0  0  0  0
  8 11  1  0  0  0  0
 11 12  1  0  0  0  0
 11 13  1  0  0  0  0
 11 14  1  0  0  0  0
 14 15  1  0  0  0  0
 14 16  1  0  0  0  0
 14 17  1  0  0  0  0
 17 18  1  0  0  0  0
 17 19  1  0  0  0  0
 17 20  1  0  0  0  0
M  END
> <VConfSearch Rank>
850

> <Conf_Id>
5

> <Delta U+W>
2.950

> <U+W>
18.289

> <U>
72.042

> <W>
-53.753

> <W(PB)>
-55.644

> <W(SA)>
1.891

> <Valence>
2.428

> <Coulomb>
69.829

> <VdW>
-0.215

> <VdW6>
-4.563

> <VdW12>
4.348

> <Bond>
0.137

> <Angle>
0.936

> <Pdih>
1.356

> <Idih>
0.000

> <Tether>
0.000

$$$$
VeraChem MOL file


 20 19  0  0  0  0  0  0  0  0999 V2000     
   19.0355   18.4064   24.1768 C   0  0  0  0  0  0  0  0  0  0  0  0
   19.0212   17.3393   24.4337 H   0  0  0  0  0  0  0  0  0  0  0  0
   20.0434   18.7923   24.3745 H   0  0  0  0  0  0  0  0  0  0  0  0
   18.3444   18.9228   24.8556 H   0  0  0  0  0  0  0  0  0  0  0  0
   18.6178   18.6292   22.7051 C   0  0  0  0  0  0  0  0  0  0  0  0
   18.6359   19.7028   22.4728 H   0  0  0  0  0  0  0  0  0  0  0  0
   17.5739   18.3096   22.5779 H   0  0  0  0  0  0  0  0  0  0  0  0
   19.5030   17.8530   21.6985 C   0  0  0  0  0  0  0  0  0  0  0  0
   19.3995   16.7756   21.8832 H   0  0  0  0  0  0  0  0  0  0  0  0
   19.1298   18.0213   20.6801 H   0  0  0  0  0  0  0  0  0  0  0  0
   21.0027   18.2215   21.7657 C   0  0  0  0  0  0  0  0  0  0  0  0
   21.5562   17.6361   21.0272 H   0  0  0  0  0  0  0  0  0  0  0  0
   21.3887   17.9618   22.7545 H   0  0  0  0  0  0  0  0  0  0  0  0
   21.3204   19.6892   21.5244 N   0  3  0  0  0  0  0  0  0  0  0  0
   22.3172   19.8651   21.7257 H   0  0  0  0  0  0  0  0  0  0  0  0
   20.8043   20.2767   22.1957 H   0  0  0  0  0  0  0  0  0  0  0  0
   21.0007   20.0962   20.0903 C   0  0  0  0  0  0  0  0  0  0  0  0
   19.9326   19.9647   19.9064 H   0  0  0  0  0  0  0  0  0  0  0  0
   21.2710   21.1447   19.9470 H   0  0  0  0  0  0  0  0  0  0  0  0
   21.5747   19.4711   19.4029 H   0  0  0  0  0  0  0  0  0  0  0  0
  1  2  1  0  0  0  0
  1  3  1  0  0  0  0
  1  4  1  0  0  0  0
  1  5  1  0  0  0  0
  5  6  1  0  0  0  0
  5  7  1  0  0  0  0
  5  8  1  0  0  0  0
  8  9  1  0  0  0  0
  8 10  1  0  0  0  0
  8 11  1  0  0  0  0
 11 12  1  0  0  0  0
 11 13  1  0  0  0  0
 11 14  1  0  0  0  0
 14 15  1  0  0  0  0
 14 16  1  0  0  0  0
 14 17  1  0  0  0  0
 17 18  1  0  0  0  0
 17 19  1  0  0  0  0
 17 20  1  0  0  0  0
M  END
> <VConfSearch Rank>
851

> <Conf_Id>
52

> <Delta U+W>
0.784

> <U+W>
16.122

> <U>
70.777

> <W>
-54.655

> <W(PB)>
-56.491

> <W(SA)>
1.836

> <Valence>
1.529

> <Coulomb>
69.166

> <VdW>
0.082

> <VdW6>
-5.166

> <VdW12>
5.248

> <Bond>
0.171

> <Angle>
0.752

> <Pdih>
0.605

> <Idih>
0.000

> <Tether>
0.000

$$$$
VeraChem MOL file


 20 19  0  0  0  0  0  0  0  0999 V2000     
   20.3643   17.5613   23.6106 C   0  0  0  0  0  0  0  0  0  0  0  0
   20.4372   16.7396   24.3349 H   0  0  0  0  0  0  0  0  0  0  0  0
   21.3014   17.5713   23.0424 H   0  0  0  0  0  0  0  0  0  0  0  0
   20.2826   18.4980   24.1773 H   0  0  0  0  0  0  0  0  0  0  0  0
   19.1416   17.3543   22.6878 C   0  0  0  0  0  0  0  0  0  0  0  0
   18.2688   17.1190   23.3130 H   0  0  0  0  0  0  0  0  0  0  0  0
   19.3060   16.4727   22.0523 H   0  0  0  0  0  0  0  0  0  0  0  0
   18.7902   18.5783   21.8039 C   0  0  0  0  0  0  0  0  0  0  0  0
   17.8594   18.3498   21.2683 H   0  0  0  0  0  0  0  0  0  0  0  0
   18.5646   19.4485   22.4329 H   0  0  0  0  0  0  0  0  0  0  0  0
   19.8607   18.9370   20.7470 C   0  0  0  0  0  0  0  0  0  0  0  0
   19.4077   19.5639   19.9749 H   0  0  0  0  0  0  0  0  0  0  0  0
   20.2103   18.0190   20.2679 H   0  0  0  0  0  0  0  0  0  0  0  0
   21.0782   19.6850   21.2672 N   0  3  0  0  0  0  0  0  0  0  0  0
   21.8077   19.7073   20.5374 H   0  0  0  0  0  0  0  0  0  0  0  0
   21.4985   19.1714   22.0542 H   0  0  0  0  0  0  0  0  0  0  0  0
   20.7180   21.1074   21.6815 C   0  0  0  0  0  0  0  0  0  0  0  0
   20.2892   21.6331   20.8257 H   0  0  0  0  0  0  0  0  0  0  0  0
   19.9935   21.0757   22.4974 H   0  0  0  0  0  0  0  0  0  0  0  0
   21.6217   21.6227   22.0143 H   0  0  0  0  0  0  0  0  0  0  0  0
  1  2  1  0  0  0  0
  1  3  1  0  0  0  0
  1  4  1  0  0  0  0
  1  5  1  0  0  0  0
  5  6  1  0  0  0  0
  5  7  1  0  0  0  0
  5  8  1  0  0  0  0
  8  9  1  0  0  0  0
  8 10  1  0  0  0  0
  8 11  1  0  0  0  0
 11 12  1  0  0  0  0
 11 13  1  0  0  0  0
 11 14  1  0  0  0  0
 14 15  1  0  0  0  0
 14 16  1  0  0  0  0
 14 17  1  0  0  0  0
 17 18  1  0  0  0  0
 17 19  1  0  0  0  0
 17 20  1  0  0  0  0
M  END
> <VConfSearch Rank>
852

> <Conf_Id>
55

> <Delta U+W>
2.745

> <U+W>
18.083

> <U>
72.490

> <W>
-54.407

> <W(PB)>
-56.269

> <W(SA)>
1.861

> <Valence>
2.738

> <Coulomb>
69.795

> <VdW>
-0.043

> <VdW6>
-5.333

> <VdW12>
5.290

> <Bond>
0.182

> <Angle>
1.135

> <Pdih>
1.422

> <Idih>
0.000

> <Tether>
0.000

$$$$
VeraChem MOL file


 20 19  0  0  0  0  0  0  0  0999 V2000     
   19.9467   16.7608   22.4142 C   0  0  0  0  0  0  0  0  0  0  0  0
   20.1228   15.6976   22.6234 H   0  0  0  0  0  0  0  0  0  0  0  0
   19.0249   17.0538   22.9337 H   0  0  0  0  0  0  0  0  0  0  0  0
   19.7891   16.8527   21.3336 H   0  0  0  0  0  0  0  0  0  0  0  0
   21.1513   17.6060   22.8875 C   0  0  0  0  0  0  0  0  0  0  0  0
   22.0301   17.3708   22.2707 H   0  0  0  0  0  0  0  0  0  0  0  0
   21.4095   17.3021   23.9117 H   0  0  0  0  0  0  0  0  0  0  0  0
   20.9030   19.1361   22.8827 C   0  0  0  0  0  0  0  0  0  0  0  0
   20.0646   19.3868   23.5445 H   0  0  0  0  0  0  0  0  0  0  0  0
   21.7842   19.6209   23.3233 H   0  0  0  0  0  0  0  0  0  0  0  0
   20.6868   19.7483   21.4792 C   0  0  0  0  0  0  0  0  0  0  0  0
   21.4231   19.3280   20.7895 H   0  0  0  0  0  0  0  0  0  0  0  0
   20.8540   20.8273   21.5278 H   0  0  0  0  0  0  0  0  0  0  0  0
   19.3077   19.5406   20.8730 N   0  3  0  0  0  0  0  0  0  0  0  0
   19.0675   18.5395   20.8767 H   0  0  0  0  0  0  0  0  0  0  0  0
   19.3235   19.8120   19.8774 H   0  0  0  0  0  0  0  0  0  0  0  0
   18.2503   20.3522   21.6132 C   0  0  0  0  0  0  0  0  0  0  0  0
   18.1942   20.0158   22.6502 H   0  0  0  0  0  0  0  0  0  0  0  0
   18.5213   21.4096   21.5809 H   0  0  0  0  0  0  0  0  0  0  0  0
   17.2827   20.2058   21.1281 H   0  0  0  0  0  0  0  0  0  0  0  0
  1  2  1  0  0  0  0
  1  3  1  0  0  0  0
  1  4  1  0  0  0  0
  1  5  1  0  0  0  0
  5  6  1  0  0  0  0
  5  7  1  0  0  0  0
  5  8  1  0  0  0  0
  8  9  1  0  0  0  0
  8 10  1  0  0  0  0
  8 11  1  0  0  0  0
 11 12  1  0  0  0  0
 11 13  1  0  0  0  0
 11 14  1  0  0  0  0
 14 15  1  0  0  0  0
 14 16  1  0  0  0  0
 14 17  1  0  0  0  0
 17 18  1  0  0  0  0
 17 19  1  0  0  0  0
 17 20  1  0  0  0  0
M  END
> <VConfSearch Rank>
853

> <Conf_Id>
76

> <Delta U+W>
2.799

> <U+W>
18.137

> <U>
72.490

> <W>
-54.353

> <W(PB)>
-56.201

> <W(SA)>
1.848

> <Valence>
2.738

> <Coulomb>
69.795

> <VdW>
-0.043

> <VdW6>
-5.334

> <VdW12>
5.290

> <Bond>
0.182

> <Angle>
1.135

> <Pdih>
1.421

> <Idih>
0.000

> <Tether>
0.000

$$$$
VeraChem MOL file


 20 19  0  0  0  0  0  0  0  0999 V2000     
   18.8768   17.2833   20.9605 C   0  0  0  0  0  0  0  0  0  0  0  0
   19.9377   17.2898   20.6819 H   0  0  0  0  0  0  0  0  0  0  0  0
   18.6710   16.3479   21.4969 H   0  0  0  0  0  0  0  0  0  0  0  0
   18.2904   17.2728   20.0327 H   0  0  0  0  0  0  0  0  0  0  0  0
   18.5047   18.5109   21.8237 C   0  0  0  0  0  0  0  0  0  0  0  0
   17.4224   18.4948   22.0140 H   0  0  0  0  0  0  0  0  0  0  0  0
   18.6948   19.4368   21.2656 H   0  0  0  0  0  0  0  0  0  0  0  0
   19.2458   18.5451   23.1827 C   0  0  0  0  0  0  0  0  0  0  0  0
   18.9049   19.4139   23.7608 H   0  0  0  0  0  0  0  0  0  0  0  0
   18.9511   17.6622   23.7652 H   0  0  0  0  0  0  0  0  0  0  0  0
   20.7899   18.5713   23.0945 C   0  0  0  0  0  0  0  0  0  0  0  0
   21.1561   17.7205   22.5151 H   0  0  0  0  0  0  0  0  0  0  0  0
   21.1838   18.4727   24.1093 H   0  0  0  0  0  0  0  0  0  0  0  0
   21.3942   19.8433   22.5186 N   0  3  0  0  0  0  0  0  0  0  0  0
   22.3142   20.0096   22.9553 H   0  0  0  0  0  0  0  0  0  0  0  0
   20.8264   20.6621   22.7826 H   0  0  0  0  0  0  0  0  0  0  0  0
   21.5681   19.7513   21.0064 C   0  0  0  0  0  0  0  0  0  0  0  0
   22.0312   20.6716   20.6439 H   0  0  0  0  0  0  0  0  0  0  0  0
   22.2110   18.9005   20.7712 H   0  0  0  0  0  0  0  0  0  0  0  0
   20.5958   19.6199   20.5306 H   0  0  0  0  0  0  0  0  0  0  0  0
  1  2  1  0  0  0  0
  1  3  1  0  0  0  0
  1  4  1  0  0  0  0
  1  5  1  0  0  0  0
  5  6  1  0  0  0  0
  5  7  1  0  0  0  0
  5  8  1  0  0  0  0
  8  9  1  0  0  0  0
  8 10  1  0  0  0  0
  8 11  1  0  0  0  0
 11 12  1  0  0  0  0
 11 13  1  0  0  0  0
 11 14  1  0  0  0  0
 14 15  1  0  0  0  0
 14 16  1  0  0  0  0
 14 17  1  0  0  0  0
 17 18  1  0  0  0  0
 17 19  1  0  0  0  0
 17 20  1  0  0  0  0
M  END
> <VConfSearch Rank>
854

> <Conf_Id>
60

> <Delta U+W>
1.788

> <U+W>
17.127

> <U>
72.122

> <W>
-54.995

> <W(PB)>
-56.810

> <W(SA)>
1.815

> <Valence>
3.197

> <Coulomb>
69.115

> <VdW>
-0.190

> <VdW6>
-5.585

> <VdW12>
5.395

> <Bond>
0.177

> <Angle>
1.207

> <Pdih>
1.813

> <Idih>
0.000

> <Tether>
0.000

$$$$
VeraChem MOL file


 20 19  0  0  0  0  0  0  0  0999 V2000     
   22.0879   19.1626   22.8198 C   0  0  0  0  0  0  0  0  0  0  0  0
   23.0083   19.6465   22.4681 H   0  0  0  0  0  0  0  0  0  0  0  0
   22.2154   18.9369   23.8864 H   0  0  0  0  0  0  0  0  0  0  0  0
   21.9859   18.2130   22.2804 H   0  0  0  0  0  0  0  0  0  0  0  0
   20.8683   20.0848   22.5900 C   0  0  0  0  0  0  0  0  0  0  0  0
   20.7679   20.3194   21.5225 H   0  0  0  0  0  0  0  0  0  0  0  0
   21.0522   21.0460   23.0902 H   0  0  0  0  0  0  0  0  0  0  0  0
   19.5460   19.4894   23.1325 C   0  0  0  0  0  0  0  0  0  0  0  0
   19.6360   19.3683   24.2201 H   0  0  0  0  0  0  0  0  0  0  0  0
   18.7322   20.2098   22.9768 H   0  0  0  0  0  0  0  0  0  0  0  0
   19.1363   18.1259   22.5277 C   0  0  0  0  0  0  0  0  0  0  0  0
   18.2622   17.7665   23.0769 H   0  0  0  0  0  0  0  0  0  0  0  0
   19.9339   17.3913   22.6610 H   0  0  0  0  0  0  0  0  0  0  0  0
   18.7430   18.1499   21.0581 N   0  3  0  0  0  0  0  0  0  0  0  0
   18.2738   19.0381   20.8265 H   0  0  0  0  0  0  0  0  0  0  0  0
   18.0305   17.4236   20.8858 H   0  0  0  0  0  0  0  0  0  0  0  0
   19.9414   17.9003   20.1489 C   0  0  0  0  0  0  0  0  0  0  0  0
   20.3818   16.9318   20.3950 H   0  0  0  0  0  0  0  0  0  0  0  0
   19.6059   17.8966   19.1094 H   0  0  0  0  0  0  0  0  0  0  0  0
   20.6823   18.6877   20.2905 H   0  0  0  0  0  0  0  0  0  0  0  0
  1  2  1  0  0  0  0
  1  3  1  0  0  0  0
  1  4  1  0  0  0  0
  1  5  1  0  0  0  0
  5  6  1  0  0  0  0
  5  7  1  0  0  0  0
  5  8  1  0  0  0  0
  8  9  1  0  0  0  0
  8 10  1  0  0  0  0
  8 11  1  0  0  0  0
 11 12  1  0  0  0  0
 11 13  1  0  0  0  0
 11 14  1  0  0  0  0
 14 15  1  0  0  0  0
 14 16  1  0  0  0  0
 14 17  1  0  0  0  0
 17 18  1  0  0  0  0
 17 19  1  0  0  0  0
 17 20  1  0  0  0  0
M  END
> <VConfSearch Rank>
855

> <Conf_Id>
54

> <Delta U+W>
1.880

> <U+W>
17.218

> <U>
72.122

> <W>
-54.903

> <W(PB)>
-56.724

> <W(SA)>
1.821

> <Valence>
3.197

> <Coulomb>
69.115

> <VdW>
-0.190

> <VdW6>
-5.585

> <VdW12>
5.395

> <Bond>
0.177

> <Angle>
1.207

> <Pdih>
1.813

> <Idih>
0.000

> <Tether>
0.000

$$$$
VeraChem MOL file


 20 19  0  0  0  0  0  0  0  0999 V2000     
   18.7125   20.5243   19.6338 C   0  0  0  0  0  0  0  0  0  0  0  0
   18.3544   19.6735   19.0395 H   0  0  0  0  0  0  0  0  0  0  0  0
   17.9676   21.3267   19.5546 H   0  0  0  0  0  0  0  0  0  0  0  0
   19.6459   20.8866   19.1837 H   0  0  0  0  0  0  0  0  0  0  0  0
   18.9260   20.1217   21.1092 C   0  0  0  0  0  0  0  0  0  0  0  0
   17.9687   19.7972   21.5413 H   0  0  0  0  0  0  0  0  0  0  0  0
   19.2502   21.0006   21.6842 H   0  0  0  0  0  0  0  0  0  0  0  0
   19.9704   18.9926   21.2512 C   0  0  0  0  0  0  0  0  0  0  0  0
   19.6441   18.1138   20.6793 H   0  0  0  0  0  0  0  0  0  0  0  0
   20.9273   19.3188   20.8223 H   0  0  0  0  0  0  0  0  0  0  0  0
   20.1777   18.5970   22.7250 C   0  0  0  0  0  0  0  0  0  0  0  0
   19.2302   18.2571   23.1507 H   0  0  0  0  0  0  0  0  0  0  0  0
   20.5177   19.4659   23.2941 H   0  0  0  0  0  0  0  0  0  0  0  0
   21.1963   17.4899   22.9137 N   0  3  0  0  0  0  0  0  0  0  0  0
   22.1059   17.7705   22.5161 H   0  0  0  0  0  0  0  0  0  0  0  0
   20.9138   16.6513   22.3834 H   0  0  0  0  0  0  0  0  0  0  0  0
   21.3393   17.1620   24.3939 C   0  0  0  0  0  0  0  0  0  0  0  0
   20.3735   16.8347   24.7850 H   0  0  0  0  0  0  0  0  0  0  0  0
   22.0750   16.3639   24.5152 H   0  0  0  0  0  0  0  0  0  0  0  0
   21.6719   18.0538   24.9296 H   0  0  0  0  0  0  0  0  0  0  0  0
  1  2  1  0  0  0  0
  1  3  1  0  0  0  0
  1  4  1  0  0  0  0
  1  5  1  0  0  0  0
  5  6  1  0  0  0  0
  5  7  1  0  0  0  0
  5  8  1  0  0  0  0
  8  9  1  0  0  0  0
  8 10  1  0  0  0  0
  8 11  1  0  0  0  0
 11 12  1  0  0  0  0
 11 13  1  0  0  0  0
 11 14  1  0  0  0  0
 14 15  1  0  0  0  0
 14 16  1  0  0  0  0
 14 17  1  0  0  0  0
 17 18  1  0  0  0  0
 17 19  1  0  0  0  0
 17 20  1  0  0  0  0
M  END
> <VConfSearch Rank>
856

> <Conf_Id>
67

> <Delta U+W>
0.000

> <U+W>
15.338

> <U>
69.277

> <W>
-53.939

> <W(PB)>
-55.889

> <W(SA)>
1.950

> <Valence>
0.846

> <Coulomb>
68.557

> <VdW>
-0.127

> <VdW6>
-3.008

> <VdW12>
2.882

> <Bond>
0.088

> <Angle>
0.332

> <Pdih>
0.426

> <Idih>
0.000

> <Tether>
0.000

$$$$
VeraChem MOL file


 20 19  0  0  0  0  0  0  0  0999 V2000     
   17.9936   16.7789   21.4870 C   0  0  0  0  0  0  0  0  0  0  0  0
   18.5770   16.0520   22.0671 H   0  0  0  0  0  0  0  0  0  0  0  0
   16.9298   16.5627   21.6499 H   0  0  0  0  0  0  0  0  0  0  0  0
   18.2100   16.6189   20.4227 H   0  0  0  0  0  0  0  0  0  0  0  0
   18.3275   18.2256   21.9112 C   0  0  0  0  0  0  0  0  0  0  0  0
   18.0686   18.3645   22.9704 H   0  0  0  0  0  0  0  0  0  0  0  0
   17.7037   18.9269   21.3390 H   0  0  0  0  0  0  0  0  0  0  0  0
   19.8198   18.5586   21.6926 C   0  0  0  0  0  0  0  0  0  0  0  0
   20.4385   17.8560   22.2655 H   0  0  0  0  0  0  0  0  0  0  0  0
   20.0767   18.4238   20.6336 H   0  0  0  0  0  0  0  0  0  0  0  0
   20.1431   20.0059   22.1177 C   0  0  0  0  0  0  0  0  0  0  0  0
   19.9358   20.1350   23.1829 H   0  0  0  0  0  0  0  0  0  0  0  0
   19.4975   20.6912   21.5623 H   0  0  0  0  0  0  0  0  0  0  0  0
   21.5796   20.4341   21.8649 N   0  3  0  0  0  0  0  0  0  0  0  0
   21.6691   21.4505   22.0201 H   0  0  0  0  0  0  0  0  0  0  0  0
   21.8242   20.2962   20.8725 H   0  0  0  0  0  0  0  0  0  0  0  0
   22.5496   19.6850   22.7723 C   0  0  0  0  0  0  0  0  0  0  0  0
   22.4973   18.6163   22.5557 H   0  0  0  0  0  0  0  0  0  0  0  0
   23.5636   20.0466   22.5877 H   0  0  0  0  0  0  0  0  0  0  0  0
   22.2790   19.8655   23.8148 H   0  0  0  0  0  0  0  0  0  0  0  0
  1  2  1  0  0  0  0
  1  3  1  0  0  0  0
  1  4  1  0  0  0  0
  1  5  1  0  0  0  0
  5  6  1  0  0  0  0
  5  7  1  0  0  0  0
  5  8  1  0  0  0  0
  8  9  1  0  0  0  0
  8 10  1  0  0  0  0
  8 11  1  0  0  0  0
 11 12  1  0  0  0  0
 11 13  1  0  0  0  0
 11 14  1  0  0  0  0
 14 15  1  0  0  0  0
 14 16  1  0  0  0  0
 14 17  1  0  0  0  0
 17 18  1  0  0  0  0
 17 19  1  0  0  0  0
 17 20  1  0  0  0  0
M  END
> <VConfSearch Rank>
857

> <Conf_Id>
37

> <Delta U+W>
-0.021

> <U+W>
15.318

> <U>
69.657

> <W>
-54.340

> <W(PB)>
-56.238

> <W(SA)>
1.899

> <Valence>
1.137

> <Coulomb>
68.383

> <VdW>
0.138

> <VdW6>
-3.703

> <VdW12>
3.841

> <Bond>
0.125

> <Angle>
0.468

> <Pdih>
0.543

> <Idih>
0.000

> <Tether>
0.000

$$$$
VeraChem MOL file


 20 19  0  0  0  0  0  0  0  0999 V2000     
   17.6529   19.9301   23.4916 C   0  0  0  0  0  0  0  0  0  0  0  0
   16.7664   20.5638   23.3588 H   0  0  0  0  0  0  0  0  0  0  0  0
   17.3082   18.9172   23.7373 H   0  0  0  0  0  0  0  0  0  0  0  0
   18.2168   20.3167   24.3505 H   0  0  0  0  0  0  0  0  0  0  0  0
   18.5187   19.9284   22.2130 C   0  0  0  0  0  0  0  0  0  0  0  0
   18.8185   20.9585   21.9737 H   0  0  0  0  0  0  0  0  0  0  0  0
   17.9177   19.5695   21.3655 H   0  0  0  0  0  0  0  0  0  0  0  0
   19.7751   19.0439   22.3710 C   0  0  0  0  0  0  0  0  0  0  0  0
   20.3771   19.4056   23.2150 H   0  0  0  0  0  0  0  0  0  0  0  0
   19.4709   18.0167   22.6098 H   0  0  0  0  0  0  0  0  0  0  0  0
   20.6340   19.0498   21.0896 C   0  0  0  0  0  0  0  0  0  0  0  0
   20.9022   20.0813   20.8472 H   0  0  0  0  0  0  0  0  0  0  0  0
   20.0571   18.6455   20.2541 H   0  0  0  0  0  0  0  0  0  0  0  0
   21.9281   18.2588   21.1913 N   0  3  0  0  0  0  0  0  0  0  0  0
   22.4880   18.5908   21.9914 H   0  0  0  0  0  0  0  0  0  0  0  0
   22.5140   18.4475   20.3628 H   0  0  0  0  0  0  0  0  0  0  0  0
   21.6564   16.7623   21.3026 C   0  0  0  0  0  0  0  0  0  0  0  0
   21.0807   16.4359   20.4338 H   0  0  0  0  0  0  0  0  0  0  0  0
   22.6082   16.2275   21.3351 H   0  0  0  0  0  0  0  0  0  0  0  0
   21.0933   16.5628   22.2163 H   0  0  0  0  0  0  0  0  0  0  0  0
  1  2  1  0  0  0  0
  1  3  1  0  0  0  0
  1  4  1  0  0  0  0
  1  5  1  0  0  0  0
  5  6  1  0  0  0  0
  5  7  1  0  0  0  0
  5  8  1  0  0  0  0
  8  9  1  0  0  0  0
  8 10  1  0  0  0  0
  8 11  1  0  0  0  0
 11 12  1  0  0  0  0
 11 13  1  0  0  0  0
 11 14  1  0  0  0  0
 14 15  1  0  0  0  0
 14 16  1  0  0  0  0
 14 17  1  0  0  0  0
 17 18  1  0  0  0  0
 17 19  1  0  0  0  0
 17 20  1  0  0  0  0
M  END
> <VConfSearch Rank>
858

> <Conf_Id>
2

> <Delta U+W>
0.069

> <U+W>
15.407

> <U>
69.657

> <W>
-54.250

> <W(PB)>
-56.176

> <W(SA)>
1.926

> <Valence>
1.137

> <Coulomb>
68.383

> <VdW>
0.138

> <VdW6>
-3.703

> <VdW12>
3.841

> <Bond>
0.125

> <Angle>
0.468

> <Pdih>
0.543

> <Idih>
0.000

> <Tether>
0.000

$$$$
VeraChem MOL file


 20 19  0  0  0  0  0  0  0  0999 V2000     
   18.1774   17.0753   22.9780 C   0  0  0  0  0  0  0  0  0  0  0  0
   18.9991   16.5295   22.4975 H   0  0  0  0  0  0  0  0  0  0  0  0
   18.4313   17.2149   24.0368 H   0  0  0  0  0  0  0  0  0  0  0  0
   17.2846   16.4384   22.9294 H   0  0  0  0  0  0  0  0  0  0  0  0
   17.9138   18.4320   22.2851 C   0  0  0  0  0  0  0  0  0  0  0  0
   17.0274   18.8991   22.7371 H   0  0  0  0  0  0  0  0  0  0  0  0
   17.6683   18.2644   21.2268 H   0  0  0  0  0  0  0  0  0  0  0  0
   19.1076   19.4091   22.3949 C   0  0  0  0  0  0  0  0  0  0  0  0
   18.8227   20.3726   21.9516 H   0  0  0  0  0  0  0  0  0  0  0  0
   19.3288   19.6025   23.4529 H   0  0  0  0  0  0  0  0  0  0  0  0
   20.3727   18.8826   21.6893 C   0  0  0  0  0  0  0  0  0  0  0  0
   20.1530   18.6925   20.6358 H   0  0  0  0  0  0  0  0  0  0  0  0
   20.6873   17.9431   22.1499 H   0  0  0  0  0  0  0  0  0  0  0  0
   21.5427   19.8445   21.7549 N   0  3  0  0  0  0  0  0  0  0  0  0
   21.7751   20.0568   22.7372 H   0  0  0  0  0  0  0  0  0  0  0  0
   21.2842   20.7499   21.3337 H   0  0  0  0  0  0  0  0  0  0  0  0
   22.7468   19.2473   21.0388 C   0  0  0  0  0  0  0  0  0  0  0  0
   22.4889   19.0627   19.9937 H   0  0  0  0  0  0  0  0  0  0  0  0
   23.5814   19.9497   21.0935 H   0  0  0  0  0  0  0  0  0  0  0  0
   23.0239   18.3081   21.5225 H   0  0  0  0  0  0  0  0  0  0  0  0
  1  2  1  0  0  0  0
  1  3  1  0  0  0  0
  1  4  1  0  0  0  0
  1  5  1  0  0  0  0
  5  6  1  0  0  0  0
  5  7  1  0  0  0  0
  5  8  1  0  0  0  0
  8  9  1  0  0  0  0
  8 10  1  0  0  0  0
  8 11  1  0  0  0  0
 11 12  1  0  0  0  0
 11 13  1  0  0  0  0
 11 14  1  0  0  0  0
 14 15  1  0  0  0  0
 14 16  1  0  0  0  0
 14 17  1  0  0  0  0
 17 18  1  0  0  0  0
 17 19  1  0  0  0  0
 17 20  1  0  0  0  0
M  END
> <VConfSearch Rank>
859

> <Conf_Id>
34

> <Delta U+W>
0.276

> <U+W>
15.615

> <U>
69.798

> <W>
-54.184

> <W(PB)>
-56.116

> <W(SA)>
1.933

> <Valence>
1.134

> <Coulomb>
68.735

> <VdW>
-0.070

> <VdW6>
-3.565

> <VdW12>
3.494

> <Bond>
0.108

> <Angle>
0.456

> <Pdih>
0.569

> <Idih>
0.000

> <Tether>
0.000

$$$$
VeraChem MOL file


 20 19  0  0  0  0  0  0  0  0999 V2000     
   20.4105   21.3737   20.4440 C   0  0  0  0  0  0  0  0  0  0  0  0
   19.4947   21.9744   20.5185 H   0  0  0  0  0  0  0  0  0  0  0  0
   21.2668   22.0525   20.5485 H   0  0  0  0  0  0  0  0  0  0  0  0
   20.4502   20.9348   19.4385 H   0  0  0  0  0  0  0  0  0  0  0  0
   20.4473   20.2776   21.5309 C   0  0  0  0  0  0  0  0  0  0  0  0
   20.4384   20.7491   22.5239 H   0  0  0  0  0  0  0  0  0  0  0  0
   21.3931   19.7249   21.4509 H   0  0  0  0  0  0  0  0  0  0  0  0
   19.2498   19.3063   21.4051 C   0  0  0  0  0  0  0  0  0  0  0  0
   18.3131   19.8779   21.4477 H   0  0  0  0  0  0  0  0  0  0  0  0
   19.2682   18.8103   20.4255 H   0  0  0  0  0  0  0  0  0  0  0  0
   19.2223   18.2428   22.5212 C   0  0  0  0  0  0  0  0  0  0  0  0
   18.3104   17.6473   22.4302 H   0  0  0  0  0  0  0  0  0  0  0  0
   19.2112   18.7346   23.4971 H   0  0  0  0  0  0  0  0  0  0  0  0
   20.3985   17.2849   22.4923 N   0  3  0  0  0  0  0  0  0  0  0  0
   21.2837   17.8061   22.5775 H   0  0  0  0  0  0  0  0  0  0  0  0
   20.4467   16.8086   21.5786 H   0  0  0  0  0  0  0  0  0  0  0  0
   20.2684   16.2681   23.6184 C   0  0  0  0  0  0  0  0  0  0  0  0
   20.2527   16.7922   24.5765 H   0  0  0  0  0  0  0  0  0  0  0  0
   19.3413   15.7055   23.4898 H   0  0  0  0  0  0  0  0  0  0  0  0
   21.1206   15.5857   23.5860 H   0  0  0  0  0  0  0  0  0  0  0  0
  1  2  1  0  0  0  0
  1  3  1  0  0  0  0
  1  4  1  0  0  0  0
  1  5  1  0  0  0  0
  5  6  1  0  0  0  0
  5  7  1  0  0  0  0
  5  8  1  0  0  0  0
  8  9  1  0  0  0  0
  8 10  1  0  0  0  0
  8 11  1  0  0  0  0
 11 12  1  0  0  0  0
 11 13  1  0  0  0  0
 11 14  1  0  0  0  0
 14 15  1  0  0  0  0
 14 16  1  0  0  0  0
 14 17  1  0  0  0  0
 17 18  1  0  0  0  0
 17 19  1  0  0  0  0
 17 20  1  0  0  0  0
M  END
> <VConfSearch Rank>
860

> <Conf_Id>
50

> <Delta U+W>
0.319

> <U+W>
15.657

> <U>
69.962

> <W>
-54.305

> <W(PB)>
-56.223

> <W(SA)>
1.918

> <Valence>
0.982

> <Coulomb>
69.058

> <VdW>
-0.078

> <VdW6>
-3.548

> <VdW12>
3.471

> <Bond>
0.105

> <Angle>
0.408

> <Pdih>
0.469

> <Idih>
0.000

> <Tether>
0.000

$$$$
VeraChem MOL file


 20 19  0  0  0  0  0  0  0  0999 V2000     
   18.1792   16.5721   21.2992 C   0  0  0  0  0  0  0  0  0  0  0  0
   17.5109   16.0653   22.0074 H   0  0  0  0  0  0  0  0  0  0  0  0
   17.5826   16.8654   20.4255 H   0  0  0  0  0  0  0  0  0  0  0  0
   18.9331   15.8454   20.9695 H   0  0  0  0  0  0  0  0  0  0  0  0
   18.8423   17.8009   21.9584 C   0  0  0  0  0  0  0  0  0  0  0  0
   19.3958   17.4749   22.8493 H   0  0  0  0  0  0  0  0  0  0  0  0
   18.0621   18.4933   22.3053 H   0  0  0  0  0  0  0  0  0  0  0  0
   19.7907   18.5333   20.9799 C   0  0  0  0  0  0  0  0  0  0  0  0
   20.5894   17.8554   20.6508 H   0  0  0  0  0  0  0  0  0  0  0  0
   19.2322   18.8181   20.0783 H   0  0  0  0  0  0  0  0  0  0  0  0
   20.4127   19.8057   21.5894 C   0  0  0  0  0  0  0  0  0  0  0  0
   19.6191   20.4786   21.9239 H   0  0  0  0  0  0  0  0  0  0  0  0
   20.9977   20.3236   20.8251 H   0  0  0  0  0  0  0  0  0  0  0  0
   21.3315   19.5421   22.7677 N   0  3  0  0  0  0  0  0  0  0  0  0
   22.0897   18.8999   22.4905 H   0  0  0  0  0  0  0  0  0  0  0  0
   20.8181   19.0542   23.5166 H   0  0  0  0  0  0  0  0  0  0  0  0
   21.9053   20.8550   23.2831 C   0  0  0  0  0  0  0  0  0  0  0  0
   22.5639   20.6509   24.1302 H   0  0  0  0  0  0  0  0  0  0  0  0
   22.4722   21.3382   22.4844 H   0  0  0  0  0  0  0  0  0  0  0  0
   21.0874   21.5051   23.6011 H   0  0  0  0  0  0  0  0  0  0  0  0
  1  2  1  0  0  0  0
  1  3  1  0  0  0  0
  1  4  1  0  0  0  0
  1  5  1  0  0  0  0
  5  6  1  0  0  0  0
  5  7  1  0  0  0  0
  5  8  1  0  0  0  0
  8  9  1  0  0  0  0
  8 10  1  0  0  0  0
  8 11  1  0  0  0  0
 11 12  1  0  0  0  0
 11 13  1  0  0  0  0
 11 14  1  0  0  0  0
 14 15  1  0  0  0  0
 14 16  1  0  0  0  0
 14 17  1  0  0  0  0
 17 18  1  0  0  0  0
 17 19  1  0  0  0  0
 17 20  1  0  0  0  0
M  END
> <VConfSearch Rank>
861

> <Conf_Id>
35

> <Delta U+W>
0.360

> <U+W>
15.698

> <U>
69.962

> <W>
-54.264

> <W(PB)>
-56.166

> <W(SA)>
1.902

> <Valence>
0.982

> <Coulomb>
69.058

> <VdW>
-0.078

> <VdW6>
-3.548

> <VdW12>
3.471

> <Bond>
0.105

> <Angle>
0.408

> <Pdih>
0.469

> <Idih>
0.000

> <Tether>
0.000

$$$$
VeraChem MOL file


 20 19  0  0  0  0  0  0  0  0999 V2000     
   19.0083   20.7285   23.2698 C   0  0  0  0  0  0  0  0  0  0  0  0
   18.5867   20.8066   22.2597 H   0  0  0  0  0  0  0  0  0  0  0  0
   18.3629   21.3073   23.9432 H   0  0  0  0  0  0  0  0  0  0  0  0
   19.9983   21.2027   23.2657 H   0  0  0  0  0  0  0  0  0  0  0  0
   19.0978   19.2572   23.7362 C   0  0  0  0  0  0  0  0  0  0  0  0
   18.0959   18.8051   23.7264 H   0  0  0  0  0  0  0  0  0  0  0  0
   19.4373   19.2323   24.7812 H   0  0  0  0  0  0  0  0  0  0  0  0
   20.0613   18.4084   22.8743 C   0  0  0  0  0  0  0  0  0  0  0  0
   21.0681   18.8434   22.9183 H   0  0  0  0  0  0  0  0  0  0  0  0
   20.1345   17.4016   23.3062 H   0  0  0  0  0  0  0  0  0  0  0  0
   19.5993   18.2956   21.4056 C   0  0  0  0  0  0  0  0  0  0  0  0
   19.5864   19.2852   20.9427 H   0  0  0  0  0  0  0  0  0  0  0  0
   18.5813   17.8983   21.3838 H   0  0  0  0  0  0  0  0  0  0  0  0
   20.4582   17.3879   20.5404 N   0  3  0  0  0  0  0  0  0  0  0  0
   19.9943   17.2375   19.6308 H   0  0  0  0  0  0  0  0  0  0  0  0
   20.5231   16.4488   20.9620 H   0  0  0  0  0  0  0  0  0  0  0  0
   21.8456   17.9818   20.3217 C   0  0  0  0  0  0  0  0  0  0  0  0
   22.3551   18.0766   21.2826 H   0  0  0  0  0  0  0  0  0  0  0  0
   22.4184   17.3212   19.6672 H   0  0  0  0  0  0  0  0  0  0  0  0
   21.7465   18.9649   19.8564 H   0  0  0  0  0  0  0  0  0  0  0  0
  1  2  1  0  0  0  0
  1  3  1  0  0  0  0
  1  4  1  0  0  0  0
  1  5  1  0  0  0  0
  5  6  1  0  0  0  0
  5  7  1  0  0  0  0
  5  8  1  0  0  0  0
  8  9  1  0  0  0  0
  8 10  1  0  0  0  0
  8 11  1  0  0  0  0
 11 12  1  0  0  0  0
 11 13  1  0  0  0  0
 11 14  1  0  0  0  0
 14 15  1  0  0  0  0
 14 16  1  0  0  0  0
 14 17  1  0  0  0  0
 17 18  1  0  0  0  0
 17 19  1  0  0  0  0
 17 20  1  0  0  0  0
M  END
> <VConfSearch Rank>
862

> <Conf_Id>
33

> <Delta U+W>
0.372

> <U+W>
15.711

> <U>
70.163

> <W>
-54.452

> <W(PB)>
-56.363

> <W(SA)>
1.911

> <Valence>
1.420

> <Coulomb>
68.566

> <VdW>
0.177

> <VdW6>
-4.267

> <VdW12>
4.445

> <Bond>
0.146

> <Angle>
0.581

> <Pdih>
0.693

> <Idih>
0.000

> <Tether>
0.000

$$$$
VeraChem MOL file


 20 19  0  0  0  0  0  0  0  0999 V2000     
   17.5682   18.6258   21.7835 C   0  0  0  0  0  0  0  0  0  0  0  0
   16.5323   18.8389   21.4892 H   0  0  0  0  0  0  0  0  0  0  0  0
   17.9543   17.8578   21.1015 H   0  0  0  0  0  0  0  0  0  0  0  0
   17.5482   18.2052   22.7973 H   0  0  0  0  0  0  0  0  0  0  0  0
   18.4224   19.9134   21.7319 C   0  0  0  0  0  0  0  0  0  0  0  0
   17.9491   20.6831   22.3577 H   0  0  0  0  0  0  0  0  0  0  0  0
   18.4300   20.3106   20.7071 H   0  0  0  0  0  0  0  0  0  0  0  0
   19.8744   19.6943   22.2171 C   0  0  0  0  0  0  0  0  0  0  0  0
   20.3977   20.6595   22.2267 H   0  0  0  0  0  0  0  0  0  0  0  0
   19.8613   19.3333   23.2535 H   0  0  0  0  0  0  0  0  0  0  0  0
   20.6546   18.7056   21.3242 C   0  0  0  0  0  0  0  0  0  0  0  0
   20.6233   19.0606   20.2909 H   0  0  0  0  0  0  0  0  0  0  0  0
   20.1822   17.7211   21.3582 H   0  0  0  0  0  0  0  0  0  0  0  0
   22.1175   18.5335   21.6996 N   0  3  0  0  0  0  0  0  0  0  0  0
   22.5936   19.4483   21.7113 H   0  0  0  0  0  0  0  0  0  0  0  0
   22.6013   17.9934   20.9651 H   0  0  0  0  0  0  0  0  0  0  0  0
   22.2649   17.8274   23.0431 C   0  0  0  0  0  0  0  0  0  0  0  0
   23.3265   17.6893   23.2599 H   0  0  0  0  0  0  0  0  0  0  0  0
   21.8080   18.4369   23.8252 H   0  0  0  0  0  0  0  0  0  0  0  0
   21.7699   16.8552   22.9945 H   0  0  0  0  0  0  0  0  0  0  0  0
  1  2  1  0  0  0  0
  1  3  1  0  0  0  0
  1  4  1  0  0  0  0
  1  5  1  0  0  0  0
  5  6  1  0  0  0  0
  5  7  1  0  0  0  0
  5  8  1  0  0  0  0
  8  9  1  0  0  0  0
  8 10  1  0  0  0  0
  8 11  1  0  0  0  0
 11 12  1  0  0  0  0
 11 13  1  0  0  0  0
 11 14  1  0  0  0  0
 14 15  1  0  0  0  0
 14 16  1  0  0  0  0
 14 17  1  0  0  0  0
 17 18  1  0  0  0  0
 17 19  1  0  0  0  0
 17 20  1  0  0  0  0
M  END
> <VConfSearch Rank>
863

> <Conf_Id>
53

> <Delta U+W>
0.379

> <U+W>
15.717

> <U>
70.163

> <W>
-54.446

> <W(PB)>
-56.322

> <W(SA)>
1.876

> <Valence>
1.420

> <Coulomb>
68.566

> <VdW>
0.177

> <VdW6>
-4.267

> <VdW12>
4.445

> <Bond>
0.146

> <Angle>
0.581

> <Pdih>
0.693

> <Idih>
0.000

> <Tether>
0.000

$$$$
VeraChem MOL file


 20 19  0  0  0  0  0  0  0  0999 V2000     
   21.0107   16.6609   20.4839 C   0  0  0  0  0  0  0  0  0  0  0  0
   21.5671   15.7828   20.8368 H   0  0  0  0  0  0  0  0  0  0  0  0
   20.2471   16.3125   19.7764 H   0  0  0  0  0  0  0  0  0  0  0  0
   21.7119   17.3065   19.9393 H   0  0  0  0  0  0  0  0  0  0  0  0
   20.3690   17.4131   21.6698 C   0  0  0  0  0  0  0  0  0  0  0  0
   21.1575   17.7115   22.3739 H   0  0  0  0  0  0  0  0  0  0  0  0
   19.6981   16.7326   22.2131 H   0  0  0  0  0  0  0  0  0  0  0  0
   19.5798   18.6574   21.1990 C   0  0  0  0  0  0  0  0  0  0  0  0
   20.2509   19.3533   20.6794 H   0  0  0  0  0  0  0  0  0  0  0  0
   18.8246   18.3509   20.4632 H   0  0  0  0  0  0  0  0  0  0  0  0
   18.8615   19.3864   22.3563 C   0  0  0  0  0  0  0  0  0  0  0  0
   18.1557   18.6967   22.8261 H   0  0  0  0  0  0  0  0  0  0  0  0
   18.2909   20.2290   21.9576 H   0  0  0  0  0  0  0  0  0  0  0  0
   19.7699   19.9236   23.4522 N   0  3  0  0  0  0  0  0  0  0  0  0
   20.3313   19.1593   23.8555 H   0  0  0  0  0  0  0  0  0  0  0  0
   19.1958   20.2732   24.2354 H   0  0  0  0  0  0  0  0  0  0  0  0
   20.6688   21.0392   22.9302 C   0  0  0  0  0  0  0  0  0  0  0  0
   20.0479   21.8423   22.5274 H   0  0  0  0  0  0  0  0  0  0  0  0
   21.2780   21.4220   23.7519 H   0  0  0  0  0  0  0  0  0  0  0  0
   21.3178   20.6441   22.1462 H   0  0  0  0  0  0  0  0  0  0  0  0
  1  2  1  0  0  0  0
  1  3  1  0  0  0  0
  1  4  1  0  0  0  0
  1  5  1  0  0  0  0
  5  6  1  0  0  0  0
  5  7  1  0  0  0  0
  5  8  1  0  0  0  0
  8  9  1  0  0  0  0
  8 10  1  0  0  0  0
  8 11  1  0  0  0  0
 11 12  1  0  0  0  0
 11 13  1  0  0  0  0
 11 14  1  0  0  0  0
 14 15  1  0  0  0  0
 14 16  1  0  0  0  0
 14 17  1  0  0  0  0
 17 18  1  0  0  0  0
 17 19  1  0  0  0  0
 17 20  1  0  0  0  0
M  END
> <VConfSearch Rank>
864

> <Conf_Id>
49

> <Delta U+W>
0.268

> <U+W>
15.607

> <U>
70.298

> <W>
-54.692

> <W(PB)>
-56.576

> <W(SA)>
1.885

> <Valence>
1.245

> <Coulomb>
68.933

> <VdW>
0.120

> <VdW6>
-4.430

> <VdW12>
4.550

> <Bond>
0.148

> <Angle>
0.587

> <Pdih>
0.509

> <Idih>
0.000

> <Tether>
0.000

$$$$
VeraChem MOL file


 20 19  0  0  0  0  0  0  0  0999 V2000     
   20.3195   20.2543   19.6547 C   0  0  0  0  0  0  0  0  0  0  0  0
   19.3721   20.8088   19.6407 H   0  0  0  0  0  0  0  0  0  0  0  0
   21.1379   20.9788   19.7575 H   0  0  0  0  0  0  0  0  0  0  0  0
   20.4322   19.7566   18.6827 H   0  0  0  0  0  0  0  0  0  0  0  0
   20.3423   19.2215   20.8023 C   0  0  0  0  0  0  0  0  0  0  0  0
   21.2892   18.6641   20.7734 H   0  0  0  0  0  0  0  0  0  0  0  0
   19.5354   18.4946   20.6405 H   0  0  0  0  0  0  0  0  0  0  0  0
   20.1742   19.8964   22.1836 C   0  0  0  0  0  0  0  0  0  0  0  0
   20.9160   20.7000   22.2823 H   0  0  0  0  0  0  0  0  0  0  0  0
   19.1893   20.3777   22.2443 H   0  0  0  0  0  0  0  0  0  0  0  0
   20.3512   18.9364   23.3819 C   0  0  0  0  0  0  0  0  0  0  0  0
   20.2775   19.5259   24.2993 H   0  0  0  0  0  0  0  0  0  0  0  0
   21.3443   18.4807   23.3604 H   0  0  0  0  0  0  0  0  0  0  0  0
   19.3188   17.8250   23.4923 N   0  3  0  0  0  0  0  0  0  0  0  0
   18.4059   18.1453   23.1363 H   0  0  0  0  0  0  0  0  0  0  0  0
   19.1535   17.6119   24.4884 H   0  0  0  0  0  0  0  0  0  0  0  0
   19.7838   16.5592   22.7793 C   0  0  0  0  0  0  0  0  0  0  0  0
   19.0266   15.7817   22.9022 H   0  0  0  0  0  0  0  0  0  0  0  0
   19.9279   16.7645   21.7180 H   0  0  0  0  0  0  0  0  0  0  0  0
   20.7256   16.2257   23.2203 H   0  0  0  0  0  0  0  0  0  0  0  0
  1  2  1  0  0  0  0
  1  3  1  0  0  0  0
  1  4  1  0  0  0  0
  1  5  1  0  0  0  0
  5  6  1  0  0  0  0
  5  7  1  0  0  0  0
  5  8  1  0  0  0  0
  8  9  1  0  0  0  0
  8 10  1  0  0  0  0
  8 11  1  0  0  0  0
 11 12  1  0  0  0  0
 11 13  1  0  0  0  0
 11 14  1  0  0  0  0
 14 15  1  0  0  0  0
 14 16  1  0  0  0  0
 14 17  1  0  0  0  0
 17 18  1  0  0  0  0
 17 19  1  0  0  0  0
 17 20  1  0  0  0  0
M  END
> <VConfSearch Rank>
865

> <Conf_Id>
65

> <Delta U+W>
1.775

> <U+W>
17.114

> <U>
71.726

> <W>
-54.613

> <W(PB)>
-56.495

> <W(SA)>
1.883

> <Valence>
2.885

> <Coulomb>
68.822

> <VdW>
0.019

> <VdW6>
-4.600

> <VdW12>
4.619

> <Bond>
0.152

> <Angle>
0.862

> <Pdih>
1.871

> <Idih>
0.000

> <Tether>
0.000

$$$$
VeraChem MOL file


 20 19  0  0  0  0  0  0  0  0999 V2000     
   21.1200   18.4089   24.1419 C   0  0  0  0  0  0  0  0  0  0  0  0
   20.0452   18.1994   24.0717 H   0  0  0  0  0  0  0  0  0  0  0  0
   21.5713   17.6191   24.7563 H   0  0  0  0  0  0  0  0  0  0  0  0
   21.2494   19.3608   24.6732 H   0  0  0  0  0  0  0  0  0  0  0  0
   21.7838   18.4565   22.7465 C   0  0  0  0  0  0  0  0  0  0  0  0
   21.6414   17.4942   22.2363 H   0  0  0  0  0  0  0  0  0  0  0  0
   22.8693   18.5748   22.8714 H   0  0  0  0  0  0  0  0  0  0  0  0
   21.2551   19.6130   21.8616 C   0  0  0  0  0  0  0  0  0  0  0  0
   21.4980   20.5720   22.3382 H   0  0  0  0  0  0  0  0  0  0  0  0
   21.7845   19.6075   20.8996 H   0  0  0  0  0  0  0  0  0  0  0  0
   19.7346   19.5620   21.6043 C   0  0  0  0  0  0  0  0  0  0  0  0
   19.4399   20.4251   21.0020 H   0  0  0  0  0  0  0  0  0  0  0  0
   19.1986   19.6138   22.5550 H   0  0  0  0  0  0  0  0  0  0  0  0
   19.2744   18.3140   20.8754 N   0  3  0  0  0  0  0  0  0  0  0  0
   19.5415   17.4746   21.4107 H   0  0  0  0  0  0  0  0  0  0  0  0
   19.7621   18.2307   19.9703 H   0  0  0  0  0  0  0  0  0  0  0  0
   17.7665   18.3583   20.6688 C   0  0  0  0  0  0  0  0  0  0  0  0
   17.5107   19.2376   20.0737 H   0  0  0  0  0  0  0  0  0  0  0  0
   17.4494   17.4541   20.1446 H   0  0  0  0  0  0  0  0  0  0  0  0
   17.2715   18.4132   21.6408 H   0  0  0  0  0  0  0  0  0  0  0  0
  1  2  1  0  0  0  0
  1  3  1  0  0  0  0
  1  4  1  0  0  0  0
  1  5  1  0  0  0  0
  5  6  1  0  0  0  0
  5  7  1  0  0  0  0
  5  8  1  0  0  0  0
  8  9  1  0  0  0  0
  8 10  1  0  0  0  0
  8 11  1  0  0  0  0
 11 12  1  0  0  0  0
 11 13  1  0  0  0  0
 11 14  1  0  0  0  0
 14 15  1  0  0  0  0
 14 16  1  0  0  0  0
 14 17  1  0  0  0  0
 17 18  1  0  0  0  0
 17 19  1  0  0  0  0
 17 20  1  0  0  0  0
M  END
> <VConfSearch Rank>
866

> <Conf_Id>
23

> <Delta U+W>
0.896

> <U+W>
16.234

> <U>
70.374

> <W>
-54.140

> <W(PB)>
-56.046

> <W(SA)>
1.907

> <Valence>
1.257

> <Coulomb>
69.240

> <VdW>
-0.123

> <VdW6>
-4.336

> <VdW12>
4.213

> <Bond>
0.128

> <Angle>
0.603

> <Pdih>
0.526

> <Idih>
0.000

> <Tether>
0.000

$$$$
VeraChem MOL file


 20 19  0  0  0  0  0  0  0  0999 V2000     
   21.7559   20.0556   20.8719 C   0  0  0  0  0  0  0  0  0  0  0  0
   21.3207   20.9794   20.4690 H   0  0  0  0  0  0  0  0  0  0  0  0
   22.8304   20.0667   20.6474 H   0  0  0  0  0  0  0  0  0  0  0  0
   21.3147   19.2066   20.3347 H   0  0  0  0  0  0  0  0  0  0  0  0
   21.5215   19.9496   22.3964 C   0  0  0  0  0  0  0  0  0  0  0  0
   22.0585   20.7670   22.8978 H   0  0  0  0  0  0  0  0  0  0  0  0
   21.9660   19.0191   22.7750 H   0  0  0  0  0  0  0  0  0  0  0  0
   20.0243   20.0234   22.7872 C   0  0  0  0  0  0  0  0  0  0  0  0
   19.9294   19.9705   23.8799 H   0  0  0  0  0  0  0  0  0  0  0  0
   19.6224   21.0020   22.4929 H   0  0  0  0  0  0  0  0  0  0  0  0
   19.1536   18.9212   22.1484 C   0  0  0  0  0  0  0  0  0  0  0  0
   19.2057   18.9960   21.0596 H   0  0  0  0  0  0  0  0  0  0  0  0
   18.1122   19.0630   22.4481 H   0  0  0  0  0  0  0  0  0  0  0  0
   19.5572   17.5126   22.5403 N   0  3  0  0  0  0  0  0  0  0  0  0
   19.5210   17.4046   23.5655 H   0  0  0  0  0  0  0  0  0  0  0  0
   20.5398   17.3421   22.2797 H   0  0  0  0  0  0  0  0  0  0  0  0
   18.6419   16.5017   21.8629 C   0  0  0  0  0  0  0  0  0  0  0  0
   18.7220   16.6130   20.7795 H   0  0  0  0  0  0  0  0  0  0  0  0
   18.9444   15.4930   22.1528 H   0  0  0  0  0  0  0  0  0  0  0  0
   17.6117   16.6817   22.1778 H   0  0  0  0  0  0  0  0  0  0  0  0
  1  2  1  0  0  0  0
  1  3  1  0  0  0  0
  1  4  1  0  0  0  0
  1  5  1  0  0  0  0
  5  6  1  0  0  0  0
  5  7  1  0  0  0  0
  5  8  1  0  0  0  0
  8  9  1  0  0  0  0
  8 10  1  0  0  0  0
  8 11  1  0  0  0  0
 11 12  1  0  0  0  0
 11 13  1  0  0  0  0
 11 14  1  0  0  0  0
 14 15  1  0  0  0  0
 14 16  1  0  0  0  0
 14 17  1  0  0  0  0
 17 18  1  0  0  0  0
 17 19  1  0  0  0  0
 17 20  1  0  0  0  0
M  END
> <VConfSearch Rank>
867

> <Conf_Id>
24

> <Delta U+W>
0.792

> <U+W>
16.130

> <U>
70.374

> <W>
-54.243

> <W(PB)>
-56.130

> <W(SA)>
1.887

> <Valence>
1.257

> <Coulomb>
69.240

> <VdW>
-0.123

> <VdW6>
-4.336

> <VdW12>
4.213

> <Bond>
0.128

> <Angle>
0.603

> <Pdih>
0.526

> <Idih>
0.000

> <Tether>
0.000

$$$$
VeraChem MOL file


 20 19  0  0  0  0  0  0  0  0999 V2000     
   20.2139   20.9041   22.4539 C   0  0  0  0  0  0  0  0  0  0  0  0
   20.6449   21.8703   22.7471 H   0  0  0  0  0  0  0  0  0  0  0  0
   20.8424   20.5033   21.6499 H   0  0  0  0  0  0  0  0  0  0  0  0
   19.2082   21.0958   22.0578 H   0  0  0  0  0  0  0  0  0  0  0  0
   20.1673   19.9488   23.6683 C   0  0  0  0  0  0  0  0  0  0  0  0
   19.7118   20.4807   24.5154 H   0  0  0  0  0  0  0  0  0  0  0  0
   21.1923   19.7033   23.9799 H   0  0  0  0  0  0  0  0  0  0  0  0
   19.3696   18.6418   23.4267 C   0  0  0  0  0  0  0  0  0  0  0  0
   19.3465   18.0806   24.3703 H   0  0  0  0  0  0  0  0  0  0  0  0
   18.3228   18.8715   23.1875 H   0  0  0  0  0  0  0  0  0  0  0  0
   19.9686   17.7191   22.3441 C   0  0  0  0  0  0  0  0  0  0  0  0
   19.5943   16.7032   22.4935 H   0  0  0  0  0  0  0  0  0  0  0  0
   21.0571   17.6966   22.4390 H   0  0  0  0  0  0  0  0  0  0  0  0
   19.6185   18.1139   20.9219 N   0  3  0  0  0  0  0  0  0  0  0  0
   19.9042   19.0876   20.7460 H   0  0  0  0  0  0  0  0  0  0  0  0
   18.5953   18.1006   20.7920 H   0  0  0  0  0  0  0  0  0  0  0  0
   20.2948   17.1697   19.9373 C   0  0  0  0  0  0  0  0  0  0  0  0
   21.3773   17.2252   20.0711 H   0  0  0  0  0  0  0  0  0  0  0  0
   19.9514   16.1498   20.1234 H   0  0  0  0  0  0  0  0  0  0  0  0
   20.0339   17.4658   18.9189 H   0  0  0  0  0  0  0  0  0  0  0  0
  1  2  1  0  0  0  0
  1  3  1  0  0  0  0
  1  4  1  0  0  0  0
  1  5  1  0  0  0  0
  5  6  1  0  0  0  0
  5  7  1  0  0  0  0
  5  8  1  0  0  0  0
  8  9  1  0  0  0  0
  8 10  1  0  0  0  0
  8 11  1  0  0  0  0
 11 12  1  0  0  0  0
 11 13  1  0  0  0  0
 11 14  1  0  0  0  0
 14 15  1  0  0  0  0
 14 16  1  0  0  0  0
 14 17  1  0  0  0  0
 17 18  1  0  0  0  0
 17 19  1  0  0  0  0
 17 20  1  0  0  0  0
M  END
> <VConfSearch Rank>
868

> <Conf_Id>
26

> <Delta U+W>
2.888

> <U+W>
18.226

> <U>
72.042

> <W>
-53.816

> <W(PB)>
-55.689

> <W(SA)>
1.873

> <Valence>
2.428

> <Coulomb>
69.829

> <VdW>
-0.215

> <VdW6>
-4.563

> <VdW12>
4.348

> <Bond>
0.137

> <Angle>
0.936

> <Pdih>
1.356

> <Idih>
0.000

> <Tether>
0.000

$$$$
VeraChem MOL file


 20 19  0  0  0  0  0  0  0  0999 V2000     
   19.2594   20.6331   23.0692 C   0  0  0  0  0  0  0  0  0  0  0  0
   18.9950   21.3628   23.8457 H   0  0  0  0  0  0  0  0  0  0  0  0
   18.7445   20.9296   22.1461 H   0  0  0  0  0  0  0  0  0  0  0  0
   18.8711   19.6615   23.3967 H   0  0  0  0  0  0  0  0  0  0  0  0
   20.7919   20.5948   22.8709 C   0  0  0  0  0  0  0  0  0  0  0  0
   21.2686   20.2045   23.7811 H   0  0  0  0  0  0  0  0  0  0  0  0
   21.1563   21.6254   22.7557 H   0  0  0  0  0  0  0  0  0  0  0  0
   21.2601   19.7714   21.6438 C   0  0  0  0  0  0  0  0  0  0  0  0
   20.8502   20.1976   20.7186 H   0  0  0  0  0  0  0  0  0  0  0  0
   22.3506   19.8732   21.5648 H   0  0  0  0  0  0  0  0  0  0  0  0
   20.9317   18.2653   21.7227 C   0  0  0  0  0  0  0  0  0  0  0  0
   21.1100   17.9011   22.7375 H   0  0  0  0  0  0  0  0  0  0  0  0
   21.5935   17.7195   21.0455 H   0  0  0  0  0  0  0  0  0  0  0  0
   19.5096   17.9137   21.3290 N   0  3  0  0  0  0  0  0  0  0  0  0
   19.3277   18.2080   20.3572 H   0  0  0  0  0  0  0  0  0  0  0  0
   18.8425   18.4458   21.9057 H   0  0  0  0  0  0  0  0  0  0  0  0
   19.2803   16.4167   21.4861 C   0  0  0  0  0  0  0  0  0  0  0  0
   19.4465   16.1345   22.5280 H   0  0  0  0  0  0  0  0  0  0  0  0
   18.2536   16.1787   21.1994 H   0  0  0  0  0  0  0  0  0  0  0  0
   19.9770   15.8766   20.8414 H   0  0  0  0  0  0  0  0  0  0  0  0
  1  2  1  0  0  0  0
  1  3  1  0  0  0  0
  1  4  1  0  0  0  0
  1  5  1  0  0  0  0
  5  6  1  0  0  0  0
  5  7  1  0  0  0  0
  5  8  1  0  0  0  0
  8  9  1  0  0  0  0
  8 10  1  0  0  0  0
  8 11  1  0  0  0  0
 11 12  1  0  0  0  0
 11 13  1  0  0  0  0
 11 14  1  0  0  0  0
 14 15  1  0  0  0  0
 14 16  1  0  0  0  0
 14 17  1  0  0  0  0
 17 18  1  0  0  0  0
 17 19  1  0  0  0  0
 17 20  1  0  0  0  0
M  END
> <VConfSearch Rank>
869

> <Conf_Id>
5

> <Delta U+W>
2.950

> <U+W>
18.289

> <U>
72.042

> <W>
-53.753

> <W(PB)>
-55.644

> <W(SA)>
1.891

> <Valence>
2.428

> <Coulomb>
69.829

> <VdW>
-0.215

> <VdW6>
-4.563

> <VdW12>
4.348

> <Bond>
0.137

> <Angle>
0.936

> <Pdih>
1.356

> <Idih>
0.000

> <Tether>
0.000

$$$$
VeraChem MOL file


 20 19  0  0  0  0  0  0  0  0999 V2000     
   21.6903   18.7730   20.1786 C   0  0  0  0  0  0  0  0  0  0  0  0
   21.6062   19.6269   19.4938 H   0  0  0  0  0  0  0  0  0  0  0  0
   22.2316   19.1043   21.0736 H   0  0  0  0  0  0  0  0  0  0  0  0
   22.3036   18.0080   19.6851 H   0  0  0  0  0  0  0  0  0  0  0  0
   20.2964   18.2054   20.5324 C   0  0  0  0  0  0  0  0  0  0  0  0
   20.4060   17.3511   21.2143 H   0  0  0  0  0  0  0  0  0  0  0  0
   19.8312   17.8066   19.6200 H   0  0  0  0  0  0  0  0  0  0  0  0
   19.3500   19.2627   21.1533 C   0  0  0  0  0  0  0  0  0  0  0  0
   19.1746   20.0634   20.4228 H   0  0  0  0  0  0  0  0  0  0  0  0
   18.3693   18.8074   21.3424 H   0  0  0  0  0  0  0  0  0  0  0  0
   19.8846   19.8962   22.4580 C   0  0  0  0  0  0  0  0  0  0  0  0
   19.1622   20.6258   22.8327 H   0  0  0  0  0  0  0  0  0  0  0  0
   20.8138   20.4285   22.2401 H   0  0  0  0  0  0  0  0  0  0  0  0
   20.1757   18.9145   23.5827 N   0  3  0  0  0  0  0  0  0  0  0  0
   20.6552   19.4044   24.3541 H   0  0  0  0  0  0  0  0  0  0  0  0
   20.8456   18.1999   23.2624 H   0  0  0  0  0  0  0  0  0  0  0  0
   18.8952   18.2655   24.0962 C   0  0  0  0  0  0  0  0  0  0  0  0
   18.4278   17.6988   23.2885 H   0  0  0  0  0  0  0  0  0  0  0  0
   19.1405   17.5935   24.9214 H   0  0  0  0  0  0  0  0  0  0  0  0
   18.2132   19.0436   24.4456 H   0  0  0  0  0  0  0  0  0  0  0  0
  1  2  1  0  0  0  0
  1  3  1  0  0  0  0
  1  4  1  0  0  0  0
  1  5  1  0  0  0  0
  5  6  1  0  0  0  0
  5  7  1  0  0  0  0
  5  8  1  0  0  0  0
  8  9  1  0  0  0  0
  8 10  1  0  0  0  0
  8 11  1  0  0  0  0
 11 12  1  0  0  0  0
 11 13  1  0  0  0  0
 11 14  1  0  0  0  0
 14 15  1  0  0  0  0
 14 16  1  0  0  0  0
 14 17  1  0  0  0  0
 17 18  1  0  0  0  0
 17 19  1  0  0  0  0
 17 20  1  0  0  0  0
M  END
> <VConfSearch Rank>
870

> <Conf_Id>
52

> <Delta U+W>
0.784

> <U+W>
16.122

> <U>
70.777

> <W>
-54.655

> <W(PB)>
-56.491

> <W(SA)>
1.836

> <Valence>
1.529

> <Coulomb>
69.166

> <VdW>
0.082

> <VdW6>
-5.166

> <VdW12>
5.248

> <Bond>
0.171

> <Angle>
0.752

> <Pdih>
0.605

> <Idih>
0.000

> <Tether>
0.000

$$$$
VeraChem MOL file


 20 19  0  0  0  0  0  0  0  0999 V2000     
   18.0881   19.6128   21.6792 C   0  0  0  0  0  0  0  0  0  0  0  0
   17.0176   19.8456   21.6089 H   0  0  0  0  0  0  0  0  0  0  0  0
   18.5207   20.3114   22.4044 H   0  0  0  0  0  0  0  0  0  0  0  0
   18.5349   19.8015   20.6942 H   0  0  0  0  0  0  0  0  0  0  0  0
   18.2888   18.1435   22.1151 C   0  0  0  0  0  0  0  0  0  0  0  0
   17.6465   17.5044   21.4930 H   0  0  0  0  0  0  0  0  0  0  0  0
   17.9352   18.0150   23.1478 H   0  0  0  0  0  0  0  0  0  0  0  0
   19.7469   17.6316   21.9939 C   0  0  0  0  0  0  0  0  0  0  0  0
   19.7486   16.5610   22.2378 H   0  0  0  0  0  0  0  0  0  0  0  0
   20.0877   17.6992   20.9531 H   0  0  0  0  0  0  0  0  0  0  0  0
   20.7536   18.3271   22.9396 C   0  0  0  0  0  0  0  0  0  0  0  0
   21.6463   17.7040   23.0356 H   0  0  0  0  0  0  0  0  0  0  0  0
   20.3045   18.4209   23.9316 H   0  0  0  0  0  0  0  0  0  0  0  0
   21.2214   19.7078   22.5066 N   0  3  0  0  0  0  0  0  0  0  0  0
   21.7298   20.1594   23.2830 H   0  0  0  0  0  0  0  0  0  0  0  0
   20.4100   20.3148   22.3252 H   0  0  0  0  0  0  0  0  0  0  0  0
   22.1205   19.6269   21.2779 C   0  0  0  0  0  0  0  0  0  0  0  0
   22.9792   18.9906   21.5024 H   0  0  0  0  0  0  0  0  0  0  0  0
   21.5571   19.2071   20.4424 H   0  0  0  0  0  0  0  0  0  0  0  0
   22.4645   20.6308   21.0197 H   0  0  0  0  0  0  0  0  0  0  0  0
  1  2  1  0  0  0  0
  1  3  1  0  0  0  0
  1  4  1  0  0  0  0
  1  5  1  0  0  0  0
  5  6  1  0  0  0  0
  5  7  1  0  0  0  0
  5  8  1  0  0  0  0
  8  9  1  0  0  0  0
  8 10  1  0  0  0  0
  8 11  1  0  0  0  0
 11 12  1  0  0  0  0
 11 13  1  0  0  0  0
 11 14  1  0  0  0  0
 14 15  1  0  0  0  0
 14 16  1  0  0  0  0
 14 17  1  0  0  0  0
 17 18  1  0  0  0  0
 17 19  1  0  0  0  0
 17 20  1  0  0  0  0
M  END
> <VConfSearch Rank>
871

> <Conf_Id>
55

> <Delta U+W>
2.745

> <U+W>
18.083

> <U>
72.490

> <W>
-54.407

> <W(PB)>
-56.269

> <W(SA)>
1.861

> <Valence>
2.738

> <Coulomb>
69.795

> <VdW>
-0.043

> <VdW6>
-5.333

> <VdW12>
5.290

> <Bond>
0.182

> <Angle>
1.135

> <Pdih>
1.422

> <Idih>
0.000

> <Tether>
0.000

$$$$
VeraChem MOL file


 20 19  0  0  0  0  0  0  0  0999 V2000     
   18.4257   20.0412   22.8071 C   0  0  0  0  0  0  0  0  0  0  0  0
   17.5617   20.5196   23.2863 H   0  0  0  0  0  0  0  0  0  0  0  0
   19.2679   20.7433   22.8625 H   0  0  0  0  0  0  0  0  0  0  0  0
   18.1625   19.8855   21.7546 H   0  0  0  0  0  0  0  0  0  0  0  0
   18.7588   18.7073   23.5136 C   0  0  0  0  0  0  0  0  0  0  0  0
   17.9459   17.9877   23.3421 H   0  0  0  0  0  0  0  0  0  0  0  0
   18.7836   18.8839   24.5981 H   0  0  0  0  0  0  0  0  0  0  0  0
   20.1117   18.0785   23.0927 C   0  0  0  0  0  0  0  0  0  0  0  0
   20.9363   18.7668   23.3168 H   0  0  0  0  0  0  0  0  0  0  0  0
   20.2824   17.1956   23.7226 H   0  0  0  0  0  0  0  0  0  0  0  0
   20.1761   17.6187   21.6176 C   0  0  0  0  0  0  0  0  0  0  0  0
   19.2481   17.0993   21.3652 H   0  0  0  0  0  0  0  0  0  0  0  0
   20.9982   16.9086   21.4978 H   0  0  0  0  0  0  0  0  0  0  0  0
   20.3886   18.7200   20.5907 N   0  3  0  0  0  0  0  0  0  0  0  0
   19.6819   19.4584   20.7135 H   0  0  0  0  0  0  0  0  0  0  0  0
   20.2269   18.3446   19.6431 H   0  0  0  0  0  0  0  0  0  0  0  0
   21.7961   19.2989   20.6841 C   0  0  0  0  0  0  0  0  0  0  0  0
   21.9384   19.7511   21.6674 H   0  0  0  0  0  0  0  0  0  0  0  0
   22.5242   18.4987   20.5355 H   0  0  0  0  0  0  0  0  0  0  0  0
   21.9222   20.0590   19.9099 H   0  0  0  0  0  0  0  0  0  0  0  0
  1  2  1  0  0  0  0
  1  3  1  0  0  0  0
  1  4  1  0  0  0  0
  1  5  1  0  0  0  0
  5  6  1  0  0  0  0
  5  7  1  0  0  0  0
  5  8  1  0  0  0  0
  8  9  1  0  0  0  0
  8 10  1  0  0  0  0
  8 11  1  0  0  0  0
 11 12  1  0  0  0  0
 11 13  1  0  0  0  0
 11 14  1  0  0  0  0
 14 15  1  0  0  0  0
 14 16  1  0  0  0  0
 14 17  1  0  0  0  0
 17 18  1  0  0  0  0
 17 19  1  0  0  0  0
 17 20  1  0  0  0  0
M  END
> <VConfSearch Rank>
872

> <Conf_Id>
76

> <Delta U+W>
2.799

> <U+W>
18.137

> <U>
72.490

> <W>
-54.353

> <W(PB)>
-56.201

> <W(SA)>
1.848

> <Valence>
2.738

> <Coulomb>
69.795

> <VdW>
-0.043

> <VdW6>
-5.334

> <VdW12>
5.290

> <Bond>
0.182

> <Angle>
1.135

> <Pdih>
1.421

> <Idih>
0.000

> <Tether>
0.000

$$$$
VeraChem MOL file


 20 19  0  0  0  0  0  0  0  0999 V2000     
   20.9687   20.5857   22.5722 C   0  0  0  0  0  0  0  0  0  0  0  0
   21.3492   19.7045   23.1030 H   0  0  0  0  0  0  0  0  0  0  0  0
   21.7681   20.9635   21.9218 H   0  0  0  0  0  0  0  0  0  0  0  0
   20.7550   21.3580   23.3224 H   0  0  0  0  0  0  0  0  0  0  0  0
   19.6979   20.2567   21.7552 C   0  0  0  0  0  0  0  0  0  0  0  0
   19.3177   21.1837   21.3035 H   0  0  0  0  0  0  0  0  0  0  0  0
   18.9013   19.9022   22.4220 H   0  0  0  0  0  0  0  0  0  0  0  0
   19.9502   19.2246   20.6290 C   0  0  0  0  0  0  0  0  0  0  0  0
   19.0221   19.0699   20.0633 H   0  0  0  0  0  0  0  0  0  0  0  0
   20.6687   19.6513   19.9166 H   0  0  0  0  0  0  0  0  0  0  0  0
   20.4914   17.8531   21.0966 C   0  0  0  0  0  0  0  0  0  0  0  0
   21.4119   17.9790   21.6714 H   0  0  0  0  0  0  0  0  0  0  0  0
   20.7367   17.2697   20.2055 H   0  0  0  0  0  0  0  0  0  0  0  0
   19.5246   17.0083   21.9131 N   0  3  0  0  0  0  0  0  0  0  0  0
   19.7112   16.0096   21.7326 H   0  0  0  0  0  0  0  0  0  0  0  0
   18.5570   17.1570   21.5902 H   0  0  0  0  0  0  0  0  0  0  0  0
   19.6603   17.2802   23.4073 C   0  0  0  0  0  0  0  0  0  0  0  0
   18.9707   16.6316   23.9521 H   0  0  0  0  0  0  0  0  0  0  0  0
   20.6855   17.0680   23.7180 H   0  0  0  0  0  0  0  0  0  0  0  0
   19.4216   18.3236   23.6156 H   0  0  0  0  0  0  0  0  0  0  0  0
  1  2  1  0  0  0  0
  1  3  1  0  0  0  0
  1  4  1  0  0  0  0
  1  5  1  0  0  0  0
  5  6  1  0  0  0  0
  5  7  1  0  0  0  0
  5  8  1  0  0  0  0
  8  9  1  0  0  0  0
  8 10  1  0  0  0  0
  8 11  1  0  0  0  0
 11 12  1  0  0  0  0
 11 13  1  0  0  0  0
 11 14  1  0  0  0  0
 14 15  1  0  0  0  0
 14 16  1  0  0  0  0
 14 17  1  0  0  0  0
 17 18  1  0  0  0  0
 17 19  1  0  0  0  0
 17 20  1  0  0  0  0
M  END
> <VConfSearch Rank>
873

> <Conf_Id>
60

> <Delta U+W>
1.788

> <U+W>
17.127

> <U>
72.122

> <W>
-54.995

> <W(PB)>
-56.810

> <W(SA)>
1.815

> <Valence>
3.197

> <Coulomb>
69.115

> <VdW>
-0.190

> <VdW6>
-5.585

> <VdW12>
5.395

> <Bond>
0.177

> <Angle>
1.207

> <Pdih>
1.813

> <Idih>
0.000

> <Tether>
0.000

$$$$
VeraChem MOL file


 20 19  0  0  0  0  0  0  0  0999 V2000     
   18.1203   18.0876   21.9765 C   0  0  0  0  0  0  0  0  0  0  0  0
   17.3329   17.9410   22.7272 H   0  0  0  0  0  0  0  0  0  0  0  0
   17.6729   17.9274   20.9870 H   0  0  0  0  0  0  0  0  0  0  0  0
   18.8793   17.3122   22.1367 H   0  0  0  0  0  0  0  0  0  0  0  0
   18.7207   19.5078   22.0904 C   0  0  0  0  0  0  0  0  0  0  0  0
   19.1435   19.6601   23.0918 H   0  0  0  0  0  0  0  0  0  0  0  0
   17.9100   20.2436   21.9943 H   0  0  0  0  0  0  0  0  0  0  0  0
   19.7888   19.8041   21.0092 C   0  0  0  0  0  0  0  0  0  0  0  0
   19.3117   19.7531   20.0216 H   0  0  0  0  0  0  0  0  0  0  0  0
   20.1406   20.8383   21.1198 H   0  0  0  0  0  0  0  0  0  0  0  0
   21.0087   18.8531   21.0052 C   0  0  0  0  0  0  0  0  0  0  0  0
   21.6170   19.0944   20.1297 H   0  0  0  0  0  0  0  0  0  0  0  0
   20.6856   17.8143   20.9054 H   0  0  0  0  0  0  0  0  0  0  0  0
   21.9287   18.9585   22.2125 N   0  3  0  0  0  0  0  0  0  0  0  0
   21.9682   19.9317   22.5499 H   0  0  0  0  0  0  0  0  0  0  0  0
   22.8949   18.7413   21.9225 H   0  0  0  0  0  0  0  0  0  0  0  0
   21.5132   18.0009   23.3241 C   0  0  0  0  0  0  0  0  0  0  0  0
   21.5275   16.9788   22.9400 H   0  0  0  0  0  0  0  0  0  0  0  0
   22.2177   18.0904   24.1539 H   0  0  0  0  0  0  0  0  0  0  0  0
   20.5092   18.2498   23.6693 H   0  0  0  0  0  0  0  0  0  0  0  0
  1  2  1  0  0  0  0
  1  3  1  0  0  0  0
  1  4  1  0  0  0  0
  1  5  1  0  0  0  0
  5  6  1  0  0  0  0
  5  7  1  0  0  0  0
  5  8  1  0  0  0  0
  8  9  1  0  0  0  0
  8 10  1  0  0  0  0
  8 11  1  0  0  0  0
 11 12  1  0  0  0  0
 11 13  1  0  0  0  0
 11 14  1  0  0  0  0
 14 15  1  0  0  0  0
 14 16  1  0  0  0  0
 14 17  1  0  0  0  0
 17 18  1  0  0  0  0
 17 19  1  0  0  0  0
 17 20  1  0  0  0  0
M  END
> <VConfSearch Rank>
874

> <Conf_Id>
54

> <Delta U+W>
1.880

> <U+W>
17.218

> <U>
72.122

> <W>
-54.903

> <W(PB)>
-56.724

> <W(SA)>
1.821

> <Valence>
3.197

> <Coulomb>
69.115

> <VdW>
-0.190

> <VdW6>
-5.585

> <VdW12>
5.395

> <Bond>
0.177

> <Angle>
1.207

> <Pdih>
1.813

> <Idih>
0.000

> <Tether>
0.000

$$$$
VeraChem MOL file


 20 19  0  0  0  0  0  0  0  0999 V2000     
   20.3894   19.5107   18.8877 C   0  0  0  0  0  0  0  0  0  0  0  0
   19.4101   19.9859   18.7453 H   0  0  0  0  0  0  0  0  0  0  0  0
   21.1179   20.0506   18.2689 H   0  0  0  0  0  0  0  0  0  0  0  0
   20.3272   18.4810   18.5123 H   0  0  0  0  0  0  0  0  0  0  0  0
   20.8098   19.5369   20.3732 C   0  0  0  0  0  0  0  0  0  0  0  0
   20.8971   20.5797   20.7097 H   0  0  0  0  0  0  0  0  0  0  0  0
   21.8070   19.0866   20.4785 H   0  0  0  0  0  0  0  0  0  0  0  0
   19.8016   18.7838   21.2689 C   0  0  0  0  0  0  0  0  0  0  0  0
   18.8064   19.2364   21.1659 H   0  0  0  0  0  0  0  0  0  0  0  0
   19.7174   17.7412   20.9343 H   0  0  0  0  0  0  0  0  0  0  0  0
   20.2278   18.8142   22.7485 C   0  0  0  0  0  0  0  0  0  0  0  0
   20.2975   19.8503   23.0892 H   0  0  0  0  0  0  0  0  0  0  0  0
   21.2114   18.3503   22.8569 H   0  0  0  0  0  0  0  0  0  0  0  0
   19.2662   18.0861   23.6671 N   0  3  0  0  0  0  0  0  0  0  0  0
   19.1670   17.1026   23.3723 H   0  0  0  0  0  0  0  0  0  0  0  0
   18.3209   18.4915   23.5875 H   0  0  0  0  0  0  0  0  0  0  0  0
   19.7611   18.1649   25.1052 C   0  0  0  0  0  0  0  0  0  0  0  0
   19.8255   19.2126   25.4068 H   0  0  0  0  0  0  0  0  0  0  0  0
   19.0599   17.6370   25.7553 H   0  0  0  0  0  0  0  0  0  0  0  0
   20.7470   17.6997   25.1725 H   0  0  0  0  0  0  0  0  0  0  0  0
  1  2  1  0  0  0  0
  1  3  1  0  0  0  0
  1  4  1  0  0  0  0
  1  5  1  0  0  0  0
  5  6  1  0  0  0  0
  5  7  1  0  0  0  0
  5  8  1  0  0  0  0
  8  9  1  0  0  0  0
  8 10  1  0  0  0  0
  8 11  1  0  0  0  0
 11 12  1  0  0  0  0
 11 13  1  0  0  0  0
 11 14  1  0  0  0  0
 14 15  1  0  0  0  0
 14 16  1  0  0  0  0
 14 17  1  0  0  0  0
 17 18  1  0  0  0  0
 17 19  1  0  0  0  0
 17 20  1  0  0  0  0
M  END
> <VConfSearch Rank>
875

> <Conf_Id>
67

> <Delta U+W>
0.000

> <U+W>
15.338

> <U>
69.277

> <W>
-53.939

> <W(PB)>
-55.889

> <W(SA)>
1.950

> <Valence>
0.846

> <Coulomb>
68.557

> <VdW>
-0.127

> <VdW6>
-3.008

> <VdW12>
2.882

> <Bond>
0.088

> <Angle>
0.332

> <Pdih>
0.426

> <Idih>
0.000

> <Tether>
0.000

$$$$
VeraChem MOL file


 20 19  0  0  0  0  0  0  0  0999 V2000     
   21.0083   19.1085   24.8408 C   0  0  0  0  0  0  0  0  0  0  0  0
   21.2036   18.0286   24.8698 H   0  0  0  0  0  0  0  0  0  0  0  0
   21.7616   19.6032   25.4676 H   0  0  0  0  0  0  0  0  0  0  0  0
   20.0241   19.2898   25.2921 H   0  0  0  0  0  0  0  0  0  0  0  0
   21.0643   19.6454   23.3942 C   0  0  0  0  0  0  0  0  0  0  0  0
   22.0701   19.4807   22.9822 H   0  0  0  0  0  0  0  0  0  0  0  0
   20.9003   20.7323   23.4015 H   0  0  0  0  0  0  0  0  0  0  0  0
   20.0136   18.9665   22.4882 C   0  0  0  0  0  0  0  0  0  0  0  0
   20.1813   17.8818   22.4839 H   0  0  0  0  0  0  0  0  0  0  0  0
   19.0090   19.1352   22.8979 H   0  0  0  0  0  0  0  0  0  0  0  0
   20.0765   19.5104   21.0459 C   0  0  0  0  0  0  0  0  0  0  0  0
   21.0585   19.3030   20.6134 H   0  0  0  0  0  0  0  0  0  0  0  0
   19.9397   20.5946   21.0695 H   0  0  0  0  0  0  0  0  0  0  0  0
   19.0227   18.9427   20.1088 N   0  3  0  0  0  0  0  0  0  0  0  0
   19.0275   19.4722   19.2229 H   0  0  0  0  0  0  0  0  0  0  0  0
   18.0798   19.0907   20.4996 H   0  0  0  0  0  0  0  0  0  0  0  0
   19.2682   17.4639   19.8286 C   0  0  0  0  0  0  0  0  0  0  0  0
   19.1957   16.9010   20.7613 H   0  0  0  0  0  0  0  0  0  0  0  0
   18.5152   17.1036   19.1243 H   0  0  0  0  0  0  0  0  0  0  0  0
   20.2640   17.3401   19.3976 H   0  0  0  0  0  0  0  0  0  0  0  0
  1  2  1  0  0  0  0
  1  3  1  0  0  0  0
  1  4  1  0  0  0  0
  1  5  1  0  0  0  0
  5  6  1  0  0  0  0
  5  7  1  0  0  0  0
  5  8  1  0  0  0  0
  8  9  1  0  0  0  0
  8 10  1  0  0  0  0
  8 11  1  0  0  0  0
 11 12  1  0  0  0  0
 11 13  1  0  0  0  0
 11 14  1  0  0  0  0
 14 15  1  0  0  0  0
 14 16  1  0  0  0  0
 14 17  1  0  0  0  0
 17 18  1  0  0  0  0
 17 19  1  0  0  0  0
 17 20  1  0  0  0  0
M  END
> <VConfSearch Rank>
876

> <Conf_Id>
37

> <Delta U+W>
-0.021

> <U+W>
15.318

> <U>
69.657

> <W>
-54.340

> <W(PB)>
-56.238

> <W(SA)>
1.899

> <Valence>
1.137

> <Coulomb>
68.383

> <VdW>
0.138

> <VdW6>
-3.703

> <VdW12>
3.841

> <Bond>
0.125

> <Angle>
0.468

> <Pdih>
0.543

> <Idih>
0.000

> <Tether>
0.000

$$$$
VeraChem MOL file


 20 19  0  0  0  0  0  0  0  0999 V2000     
   18.4073   16.3136   21.3352 C   0  0  0  0  0  0  0  0  0  0  0  0
   17.3891   15.9762   21.1017 H   0  0  0  0  0  0  0  0  0  0  0  0
   19.0299   16.1423   20.4474 H   0  0  0  0  0  0  0  0  0  0  0  0
   18.7917   15.6843   22.1485 H   0  0  0  0  0  0  0  0  0  0  0  0
   18.4095   17.8045   21.7369 C   0  0  0  0  0  0  0  0  0  0  0  0
   17.7511   17.9496   22.6051 H   0  0  0  0  0  0  0  0  0  0  0  0
   17.9882   18.4041   20.9175 H   0  0  0  0  0  0  0  0  0  0  0  0
   19.8310   18.3074   22.0717 C   0  0  0  0  0  0  0  0  0  0  0  0
   20.2494   17.7109   22.8931 H   0  0  0  0  0  0  0  0  0  0  0  0
   20.4846   18.1605   21.2022 H   0  0  0  0  0  0  0  0  0  0  0  0
   19.8226   19.7969   22.4732 C   0  0  0  0  0  0  0  0  0  0  0  0
   19.1437   19.9323   23.3191 H   0  0  0  0  0  0  0  0  0  0  0  0
   19.4525   20.4032   21.6426 H   0  0  0  0  0  0  0  0  0  0  0  0
   21.1770   20.3483   22.8884 N   0  3  0  0  0  0  0  0  0  0  0  0
   21.5752   19.7806   23.6519 H   0  0  0  0  0  0  0  0  0  0  0  0
   21.0566   21.2895   23.2944 H   0  0  0  0  0  0  0  0  0  0  0  0
   22.1357   20.4145   21.7043 C   0  0  0  0  0  0  0  0  0  0  0  0
   21.6975   21.0372   20.9214 H   0  0  0  0  0  0  0  0  0  0  0  0
   23.0816   20.8498   22.0340 H   0  0  0  0  0  0  0  0  0  0  0  0
   22.3102   19.4069   21.3219 H   0  0  0  0  0  0  0  0  0  0  0  0
  1  2  1  0  0  0  0
  1  3  1  0  0  0  0
  1  4  1  0  0  0  0
  1  5  1  0  0  0  0
  5  6  1  0  0  0  0
  5  7  1  0  0  0  0
  5  8  1  0  0  0  0
  8  9  1  0  0  0  0
  8 10  1  0  0  0  0
  8 11  1  0  0  0  0
 11 12  1  0  0  0  0
 11 13  1  0  0  0  0
 11 14  1  0  0  0  0
 14 15  1  0  0  0  0
 14 16  1  0  0  0  0
 14 17  1  0  0  0  0
 17 18  1  0  0  0  0
 17 19  1  0  0  0  0
 17 20  1  0  0  0  0
M  END
> <VConfSearch Rank>
877

> <Conf_Id>
2

> <Delta U+W>
0.069

> <U+W>
15.407

> <U>
69.657

> <W>
-54.250

> <W(PB)>
-56.176

> <W(SA)>
1.926

> <Valence>
1.137

> <Coulomb>
68.383

> <VdW>
0.138

> <VdW6>
-3.703

> <VdW12>
3.841

> <Bond>
0.125

> <Angle>
0.468

> <Pdih>
0.543

> <Idih>
0.000

> <Tether>
0.000

$$$$
VeraChem MOL file


 20 19  0  0  0  0  0  0  0  0999 V2000     
   20.2056   21.2347   22.9701 C   0  0  0  0  0  0  0  0  0  0  0  0
   19.1792   21.0029   22.6588 H   0  0  0  0  0  0  0  0  0  0  0  0
   20.3171   20.9493   24.0242 H   0  0  0  0  0  0  0  0  0  0  0  0
   20.3336   22.3229   22.9029 H   0  0  0  0  0  0  0  0  0  0  0  0
   21.2458   20.5109   22.0843 C   0  0  0  0  0  0  0  0  0  0  0  0
   22.2535   20.8436   22.3703 H   0  0  0  0  0  0  0  0  0  0  0  0
   21.1085   20.8090   21.0353 H   0  0  0  0  0  0  0  0  0  0  0  0
   21.1730   18.9704   22.2022 C   0  0  0  0  0  0  0  0  0  0  0  0
   21.9853   18.5281   21.6103 H   0  0  0  0  0  0  0  0  0  0  0  0
   21.3451   18.6726   23.2451 H   0  0  0  0  0  0  0  0  0  0  0  0
   19.8258   18.4007   21.7167 C   0  0  0  0  0  0  0  0  0  0  0  0
   19.6558   18.6952   20.6781 H   0  0  0  0  0  0  0  0  0  0  0  0
   19.0139   18.8050   22.3260 H   0  0  0  0  0  0  0  0  0  0  0  0
   19.7504   16.8883   21.7903 N   0  3  0  0  0  0  0  0  0  0  0  0
   19.9159   16.5697   22.7573 H   0  0  0  0  0  0  0  0  0  0  0  0
   20.5068   16.4658   21.2305 H   0  0  0  0  0  0  0  0  0  0  0  0
   18.3910   16.4114   21.2966 C   0  0  0  0  0  0  0  0  0  0  0  0
   18.2520   16.7301   20.2612 H   0  0  0  0  0  0  0  0  0  0  0  0
   18.3503   15.3215   21.3548 H   0  0  0  0  0  0  0  0  0  0  0  0
   17.6084   16.8429   21.9243 H   0  0  0  0  0  0  0  0  0  0  0  0
  1  2  1  0  0  0  0
  1  3  1  0  0  0  0
  1  4  1  0  0  0  0
  1  5  1  0  0  0  0
  5  6  1  0  0  0  0
  5  7  1  0  0  0  0
  5  8  1  0  0  0  0
  8  9  1  0  0  0  0
  8 10  1  0  0  0  0
  8 11  1  0  0  0  0
 11 12  1  0  0  0  0
 11 13  1  0  0  0  0
 11 14  1  0  0  0  0
 14 15  1  0  0  0  0
 14 16  1  0  0  0  0
 14 17  1  0  0  0  0
 17 18  1  0  0  0  0
 17 19  1  0  0  0  0
 17 20  1  0  0  0  0
M  END
> <VConfSearch Rank>
878

> <Conf_Id>
34

> <Delta U+W>
0.276

> <U+W>
15.615

> <U>
69.798

> <W>
-54.184

> <W(PB)>
-56.116

> <W(SA)>
1.933

> <Valence>
1.134

> <Coulomb>
68.735

> <VdW>
-0.070

> <VdW6>
-3.565

> <VdW12>
3.494

> <Bond>
0.108

> <Angle>
0.456

> <Pdih>
0.569

> <Idih>
0.000

> <Tether>
0.000

$$$$
VeraChem MOL file


 20 19  0  0  0  0  0  0  0  0999 V2000     
   20.6579   16.0159   23.0456 C   0  0  0  0  0  0  0  0  0  0  0  0
   19.7786   15.3746   22.9019 H   0  0  0  0  0  0  0  0  0  0  0  0
   21.5476   15.4304   22.7800 H   0  0  0  0  0  0  0  0  0  0  0  0
   20.7268   16.2670   24.1120 H   0  0  0  0  0  0  0  0  0  0  0  0
   20.5649   17.2905   22.1791 C   0  0  0  0  0  0  0  0  0  0  0  0
   20.5295   17.0073   21.1175 H   0  0  0  0  0  0  0  0  0  0  0  0
   21.4773   17.8860   22.3181 H   0  0  0  0  0  0  0  0  0  0  0  0
   19.3181   18.1346   22.5346 C   0  0  0  0  0  0  0  0  0  0  0  0
   18.4181   17.5145   22.4285 H   0  0  0  0  0  0  0  0  0  0  0  0
   19.3607   18.4450   23.5871 H   0  0  0  0  0  0  0  0  0  0  0  0
   19.1615   19.3780   21.6363 C   0  0  0  0  0  0  0  0  0  0  0  0
   18.2207   19.8802   21.8756 H   0  0  0  0  0  0  0  0  0  0  0  0
   19.1260   19.0715   20.5878 H   0  0  0  0  0  0  0  0  0  0  0  0
   20.2753   20.3966   21.7897 N   0  3  0  0  0  0  0  0  0  0  0  0
   21.1851   19.9642   21.5709 H   0  0  0  0  0  0  0  0  0  0  0  0
   20.3451   20.7017   22.7726 H   0  0  0  0  0  0  0  0  0  0  0  0
   20.0187   21.5885   20.8774 C   0  0  0  0  0  0  0  0  0  0  0  0
   19.9818   21.2470   19.8407 H   0  0  0  0  0  0  0  0  0  0  0  0
   19.0670   22.0507   21.1483 H   0  0  0  0  0  0  0  0  0  0  0  0
   20.8271   22.3131   20.9977 H   0  0  0  0  0  0  0  0  0  0  0  0
  1  2  1  0  0  0  0
  1  3  1  0  0  0  0
  1  4  1  0  0  0  0
  1  5  1  0  0  0  0
  5  6  1  0  0  0  0
  5  7  1  0  0  0  0
  5  8  1  0  0  0  0
  8  9  1  0  0  0  0
  8 10  1  0  0  0  0
  8 11  1  0  0  0  0
 11 12  1  0  0  0  0
 11 13  1  0  0  0  0
 11 14  1  0  0  0  0
 14 15  1  0  0  0  0
 14 16  1  0  0  0  0
 14 17  1  0  0  0  0
 17 18  1  0  0  0  0
 17 19  1  0  0  0  0
 17 20  1  0  0  0  0
M  END
> <VConfSearch Rank>
879

> <Conf_Id>
50

> <Delta U+W>
0.319

> <U+W>
15.657

> <U>
69.962

> <W>
-54.305

> <W(PB)>
-56.223

> <W(SA)>
1.918

> <Valence>
0.982

> <Coulomb>
69.058

> <VdW>
-0.078

> <VdW6>
-3.548

> <VdW12>
3.471

> <Bond>
0.105

> <Angle>
0.408

> <Pdih>
0.469

> <Idih>
0.000

> <Tether>
0.000

$$$$
VeraChem MOL file


 20 19  0  0  0  0  0  0  0  0999 V2000     
   20.8046   15.9422   22.5430 C   0  0  0  0  0  0  0  0  0  0  0  0
   21.0264   15.5215   23.5324 H   0  0  0  0  0  0  0  0  0  0  0  0
   20.0640   15.2916   22.0598 H   0  0  0  0  0  0  0  0  0  0  0  0
   21.7273   15.9091   21.9491 H   0  0  0  0  0  0  0  0  0  0  0  0
   20.2769   17.3876   22.6704 C   0  0  0  0  0  0  0  0  0  0  0  0
   21.0259   17.9980   23.1929 H   0  0  0  0  0  0  0  0  0  0  0  0
   19.3726   17.3913   23.2954 H   0  0  0  0  0  0  0  0  0  0  0  0
   19.9569   18.0041   21.2881 C   0  0  0  0  0  0  0  0  0  0  0  0
   20.8628   18.0296   20.6680 H   0  0  0  0  0  0  0  0  0  0  0  0
   19.2372   17.3624   20.7627 H   0  0  0  0  0  0  0  0  0  0  0  0
   19.3612   19.4227   21.3892 C   0  0  0  0  0  0  0  0  0  0  0  0
   18.4633   19.4005   22.0119 H   0  0  0  0  0  0  0  0  0  0  0  0
   19.0748   19.7660   20.3918 H   0  0  0  0  0  0  0  0  0  0  0  0
   20.3107   20.4526   21.9720 N   0  3  0  0  0  0  0  0  0  0  0  0
   21.1770   20.4935   21.4136 H   0  0  0  0  0  0  0  0  0  0  0  0
   20.6064   20.1684   22.9176 H   0  0  0  0  0  0  0  0  0  0  0  0
   19.6361   21.8172   22.0122 C   0  0  0  0  0  0  0  0  0  0  0  0
   20.3298   22.5482   22.4336 H   0  0  0  0  0  0  0  0  0  0  0  0
   19.3615   22.1129   20.9974 H   0  0  0  0  0  0  0  0  0  0  0  0
   18.7408   21.7579   22.6348 H   0  0  0  0  0  0  0  0  0  0  0  0
  1  2  1  0  0  0  0
  1  3  1  0  0  0  0
  1  4  1  0  0  0  0
  1  5  1  0  0  0  0
  5  6  1  0  0  0  0
  5  7  1  0  0  0  0
  5  8  1  0  0  0  0
  8  9  1  0  0  0  0
  8 10  1  0  0  0  0
  8 11  1  0  0  0  0
 11 12  1  0  0  0  0
 11 13  1  0  0  0  0
 11 14  1  0  0  0  0
 14 15  1  0  0  0  0
 14 16  1  0  0  0  0
 14 17  1  0  0  0  0
 17 18  1  0  0  0  0
 17 19  1  0  0  0  0
 17 20  1  0  0  0  0
M  END
> <VConfSearch Rank>
880

> <Conf_Id>
35

> <Delta U+W>
0.360

> <U+W>
15.698

> <U>
69.962

> <W>
-54.264

> <W(PB)>
-56.166

> <W(SA)>
1.902

> <Valence>
0.982

> <Coulomb>
69.058

> <VdW>
-0.078

> <VdW6>
-3.548

> <VdW12>
3.471

> <Bond>
0.105

> <Angle>
0.408

> <Pdih>
0.469

> <Idih>
0.000

> <Tether>
0.000

$$$$
VeraChem MOL file


 20 19  0  0  0  0  0  0  0  0999 V2000     
   19.7449   18.9080   24.5535 C   0  0  0  0  0  0  0  0  0  0  0  0
   19.2834   19.8271   24.1709 H   0  0  0  0  0  0  0  0  0  0  0  0
   19.3557   18.7393   25.5659 H   0  0  0  0  0  0  0  0  0  0  0  0
   20.8268   19.0757   24.6345 H   0  0  0  0  0  0  0  0  0  0  0  0
   19.4361   17.6959   23.6448 C   0  0  0  0  0  0  0  0  0  0  0  0
   18.3484   17.5533   23.5766 H   0  0  0  0  0  0  0  0  0  0  0  0
   19.8380   16.7859   24.1120 H   0  0  0  0  0  0  0  0  0  0  0  0
   20.0334   17.8380   22.2254 C   0  0  0  0  0  0  0  0  0  0  0  0
   21.1236   17.9425   22.2981 H   0  0  0  0  0  0  0  0  0  0  0  0
   19.8428   16.9144   21.6632 H   0  0  0  0  0  0  0  0  0  0  0  0
   19.4396   19.0334   21.4495 C   0  0  0  0  0  0  0  0  0  0  0  0
   19.6801   19.9670   21.9636 H   0  0  0  0  0  0  0  0  0  0  0  0
   18.3517   18.9326   21.4218 H   0  0  0  0  0  0  0  0  0  0  0  0
   19.9197   19.1559   20.0126 N   0  3  0  0  0  0  0  0  0  0  0  0
   19.3590   19.8692   19.5207 H   0  0  0  0  0  0  0  0  0  0  0  0
   19.7402   18.2793   19.4997 H   0  0  0  0  0  0  0  0  0  0  0  0
   21.3975   19.5273   19.9523 C   0  0  0  0  0  0  0  0  0  0  0  0
   21.9895   18.7361   20.4165 H   0  0  0  0  0  0  0  0  0  0  0  0
   21.6950   19.6422   18.9077 H   0  0  0  0  0  0  0  0  0  0  0  0
   21.5538   20.4678   20.4848 H   0  0  0  0  0  0  0  0  0  0  0  0
  1  2  1  0  0  0  0
  1  3  1  0  0  0  0
  1  4  1  0  0  0  0
  1  5  1  0  0  0  0
  5  6  1  0  0  0  0
  5  7  1  0  0  0  0
  5  8  1  0  0  0  0
  8  9  1  0  0  0  0
  8 10  1  0  0  0  0
  8 11  1  0  0  0  0
 11 12  1  0  0  0  0
 11 13  1  0  0  0  0
 11 14  1  0  0  0  0
 14 15  1  0  0  0  0
 14 16  1  0  0  0  0
 14 17  1  0  0  0  0
 17 18  1  0  0  0  0
 17 19  1  0  0  0  0
 17 20  1  0  0  0  0
M  END
> <VConfSearch Rank>
881

> <Conf_Id>
33

> <Delta U+W>
0.372

> <U+W>
15.711

> <U>
70.163

> <W>
-54.452

> <W(PB)>
-56.363

> <W(SA)>
1.911

> <Valence>
1.420

> <Coulomb>
68.566

> <VdW>
0.177

> <VdW6>
-4.267

> <VdW12>
4.445

> <Bond>
0.146

> <Angle>
0.581

> <Pdih>
0.693

> <Idih>
0.000

> <Tether>
0.000

$$$$
VeraChem MOL file


 20 19  0  0  0  0  0  0  0  0999 V2000     
   22.5474   18.9205   21.1486 C   0  0  0  0  0  0  0  0  0  0  0  0
   23.4901   19.3102   20.7433 H   0  0  0  0  0  0  0  0  0  0  0  0
   22.6530   18.8686   22.2396 H   0  0  0  0  0  0  0  0  0  0  0  0
   22.4163   17.8991   20.7681 H   0  0  0  0  0  0  0  0  0  0  0  0
   21.3639   19.8249   20.7343 C   0  0  0  0  0  0  0  0  0  0  0  0
   21.3521   19.9210   19.6395 H   0  0  0  0  0  0  0  0  0  0  0  0
   21.5170   20.8383   21.1315 H   0  0  0  0  0  0  0  0  0  0  0  0
   19.9950   19.2814   21.2059 C   0  0  0  0  0  0  0  0  0  0  0  0
   19.1991   19.9280   20.8133 H   0  0  0  0  0  0  0  0  0  0  0  0
   19.8313   18.2849   20.7759 H   0  0  0  0  0  0  0  0  0  0  0  0
   19.8810   19.2172   22.7442 C   0  0  0  0  0  0  0  0  0  0  0  0
   20.0856   20.2086   23.1564 H   0  0  0  0  0  0  0  0  0  0  0  0
   20.6252   18.5243   23.1438 H   0  0  0  0  0  0  0  0  0  0  0  0
   18.5180   18.7850   23.2598 N   0  3  0  0  0  0  0  0  0  0  0  0
   17.7807   19.3965   22.8774 H   0  0  0  0  0  0  0  0  0  0  0  0
   18.4745   18.9260   24.2813 H   0  0  0  0  0  0  0  0  0  0  0  0
   18.2379   17.3235   22.9268 C   0  0  0  0  0  0  0  0  0  0  0  0
   17.2691   17.0408   23.3445 H   0  0  0  0  0  0  0  0  0  0  0  0
   18.2204   17.1954   21.8427 H   0  0  0  0  0  0  0  0  0  0  0  0
   19.0219   16.6993   23.3609 H   0  0  0  0  0  0  0  0  0  0  0  0
  1  2  1  0  0  0  0
  1  3  1  0  0  0  0
  1  4  1  0  0  0  0
  1  5  1  0  0  0  0
  5  6  1  0  0  0  0
  5  7  1  0  0  0  0
  5  8  1  0  0  0  0
  8  9  1  0  0  0  0
  8 10  1  0  0  0  0
  8 11  1  0  0  0  0
 11 12  1  0  0  0  0
 11 13  1  0  0  0  0
 11 14  1  0  0  0  0
 14 15  1  0  0  0  0
 14 16  1  0  0  0  0
 14 17  1  0  0  0  0
 17 18  1  0  0  0  0
 17 19  1  0  0  0  0
 17 20  1  0  0  0  0
M  END
> <VConfSearch Rank>
882

> <Conf_Id>
53

> <Delta U+W>
0.379

> <U+W>
15.717

> <U>
70.163

> <W>
-54.446

> <W(PB)>
-56.322

> <W(SA)>
1.876

> <Valence>
1.420

> <Coulomb>
68.566

> <VdW>
0.177

> <VdW6>
-4.267

> <VdW12>
4.445

> <Bond>
0.146

> <Angle>
0.581

> <Pdih>
0.693

> <Idih>
0.000

> <Tether>
0.000

$$$$
VeraChem MOL file


 20 19  0  0  0  0  0  0  0  0999 V2000     
   17.6216   19.0280   23.2323 C   0  0  0  0  0  0  0  0  0  0  0  0
   17.3906   19.4494   24.2193 H   0  0  0  0  0  0  0  0  0  0  0  0
   16.8403   19.3577   22.5352 H   0  0  0  0  0  0  0  0  0  0  0  0
   17.5682   17.9345   23.3129 H   0  0  0  0  0  0  0  0  0  0  0  0
   19.0188   19.4828   22.7581 C   0  0  0  0  0  0  0  0  0  0  0  0
   19.7680   19.1696   23.4979 H   0  0  0  0  0  0  0  0  0  0  0  0
   19.0507   20.5808   22.7182 H   0  0  0  0  0  0  0  0  0  0  0  0
   19.3697   18.9002   21.3688 C   0  0  0  0  0  0  0  0  0  0  0  0
   19.3660   17.8033   21.4097 H   0  0  0  0  0  0  0  0  0  0  0  0
   18.5904   19.1839   20.6492 H   0  0  0  0  0  0  0  0  0  0  0  0
   20.7297   19.4008   20.8336 C   0  0  0  0  0  0  0  0  0  0  0  0
   20.6966   20.4897   20.7446 H   0  0  0  0  0  0  0  0  0  0  0  0
   20.9027   18.9888   19.8362 H   0  0  0  0  0  0  0  0  0  0  0  0
   21.9367   19.0513   21.6912 N   0  3  0  0  0  0  0  0  0  0  0  0
   21.8137   19.4198   22.6457 H   0  0  0  0  0  0  0  0  0  0  0  0
   22.7716   19.5354   21.3254 H   0  0  0  0  0  0  0  0  0  0  0  0
   22.1805   17.5464   21.7185 C   0  0  0  0  0  0  0  0  0  0  0  0
   22.3265   17.1874   20.6975 H   0  0  0  0  0  0  0  0  0  0  0  0
   23.0733   17.3392   22.3126 H   0  0  0  0  0  0  0  0  0  0  0  0
   21.3186   17.0481   22.1667 H   0  0  0  0  0  0  0  0  0  0  0  0
  1  2  1  0  0  0  0
  1  3  1  0  0  0  0
  1  4  1  0  0  0  0
  1  5  1  0  0  0  0
  5  6  1  0  0  0  0
  5  7  1  0  0  0  0
  5  8  1  0  0  0  0
  8  9  1  0  0  0  0
  8 10  1  0  0  0  0
  8 11  1  0  0  0  0
 11 12  1  0  0  0  0
 11 13  1  0  0  0  0
 11 14  1  0  0  0  0
 14 15  1  0  0  0  0
 14 16  1  0  0  0  0
 14 17  1  0  0  0  0
 17 18  1  0  0  0  0
 17 19  1  0  0  0  0
 17 20  1  0  0  0  0
M  END
> <VConfSearch Rank>
883

> <Conf_Id>
49

> <Delta U+W>
0.268

> <U+W>
15.607

> <U>
70.298

> <W>
-54.692

> <W(PB)>
-56.576

> <W(SA)>
1.885

> <Valence>
1.245

> <Coulomb>
68.933

> <VdW>
0.120

> <VdW6>
-4.430

> <VdW12>
4.550

> <Bond>
0.148

> <Angle>
0.587

> <Pdih>
0.509

> <Idih>
0.000

> <Tether>
0.000

$$$$
VeraChem MOL file


 20 19  0  0  0  0  0  0  0  0999 V2000     
   21.3048   19.0688   19.5163 C   0  0  0  0  0  0  0  0  0  0  0  0
   20.4680   18.9224   18.8209 H   0  0  0  0  0  0  0  0  0  0  0  0
   21.6697   20.0976   19.3999 H   0  0  0  0  0  0  0  0  0  0  0  0
   22.1137   18.3899   19.2165 H   0  0  0  0  0  0  0  0  0  0  0  0
   20.8723   18.7925   20.9726 C   0  0  0  0  0  0  0  0  0  0  0  0
   21.7359   18.9194   21.6405 H   0  0  0  0  0  0  0  0  0  0  0  0
   20.5528   17.7452   21.0544 H   0  0  0  0  0  0  0  0  0  0  0  0
   19.7249   19.7294   21.4168 C   0  0  0  0  0  0  0  0  0  0  0  0
   20.0155   20.7699   21.2199 H   0  0  0  0  0  0  0  0  0  0  0  0
   18.8323   19.5386   20.8066 H   0  0  0  0  0  0  0  0  0  0  0  0
   19.3578   19.6135   22.9137 C   0  0  0  0  0  0  0  0  0  0  0  0
   18.5886   20.3592   23.1304 H   0  0  0  0  0  0  0  0  0  0  0  0
   20.2258   19.8430   23.5368 H   0  0  0  0  0  0  0  0  0  0  0  0
   18.7987   18.2685   23.3515 N   0  3  0  0  0  0  0  0  0  0  0  0
   18.2574   17.8378   22.5871 H   0  0  0  0  0  0  0  0  0  0  0  0
   18.1138   18.4152   24.1094 H   0  0  0  0  0  0  0  0  0  0  0  0
   19.9030   17.3400   23.8464 C   0  0  0  0  0  0  0  0  0  0  0  0
   19.4575   16.3972   24.1716 H   0  0  0  0  0  0  0  0  0  0  0  0
   20.6142   17.1498   23.0419 H   0  0  0  0  0  0  0  0  0  0  0  0
   20.4166   17.8113   24.6871 H   0  0  0  0  0  0  0  0  0  0  0  0
  1  2  1  0  0  0  0
  1  3  1  0  0  0  0
  1  4  1  0  0  0  0
  1  5  1  0  0  0  0
  5  6  1  0  0  0  0
  5  7  1  0  0  0  0
  5  8  1  0  0  0  0
  8  9  1  0  0  0  0
  8 10  1  0  0  0  0
  8 11  1  0  0  0  0
 11 12  1  0  0  0  0
 11 13  1  0  0  0  0
 11 14  1  0  0  0  0
 14 15  1  0  0  0  0
 14 16  1  0  0  0  0
 14 17  1  0  0  0  0
 17 18  1  0  0  0  0
 17 19  1  0  0  0  0
 17 20  1  0  0  0  0
M  END
> <VConfSearch Rank>
884

> <Conf_Id>
65

> <Delta U+W>
1.775

> <U+W>
17.114

> <U>
71.726

> <W>
-54.613

> <W(PB)>
-56.495

> <W(SA)>
1.883

> <Valence>
2.885

> <Coulomb>
68.822

> <VdW>
0.019

> <VdW6>
-4.600

> <VdW12>
4.619

> <Bond>
0.152

> <Angle>
0.862

> <Pdih>
1.871

> <Idih>
0.000

> <Tether>
0.000

$$$$
VeraChem MOL file


 20 19  0  0  0  0  0  0  0  0999 V2000     
   21.3922   17.2388   20.7347 C   0  0  0  0  0  0  0  0  0  0  0  0
   21.6997   17.3985   21.7758 H   0  0  0  0  0  0  0  0  0  0  0  0
   21.4975   16.1675   20.5194 H   0  0  0  0  0  0  0  0  0  0  0  0
   22.0909   17.7807   20.0841 H   0  0  0  0  0  0  0  0  0  0  0  0
   19.9364   17.6998   20.4932 C   0  0  0  0  0  0  0  0  0  0  0  0
   19.2579   17.1434   21.1540 H   0  0  0  0  0  0  0  0  0  0  0  0
   19.6437   17.4353   19.4673 H   0  0  0  0  0  0  0  0  0  0  0  0
   19.7416   19.2241   20.6896 C   0  0  0  0  0  0  0  0  0  0  0  0
   20.3497   19.7636   19.9514 H   0  0  0  0  0  0  0  0  0  0  0  0
   18.6973   19.4888   20.4770 H   0  0  0  0  0  0  0  0  0  0  0  0
   20.1159   19.7283   22.0991 C   0  0  0  0  0  0  0  0  0  0  0  0
   19.9804   20.8119   22.1439 H   0  0  0  0  0  0  0  0  0  0  0  0
   21.1673   19.5100   22.3008 H   0  0  0  0  0  0  0  0  0  0  0  0
   19.2888   19.1150   23.2128 N   0  3  0  0  0  0  0  0  0  0  0  0
   19.3849   18.0888   23.1989 H   0  0  0  0  0  0  0  0  0  0  0  0
   18.2866   19.3003   23.0547 H   0  0  0  0  0  0  0  0  0  0  0  0
   19.7311   19.6747   24.5580 C   0  0  0  0  0  0  0  0  0  0  0  0
   19.5911   20.7578   24.5605 H   0  0  0  0  0  0  0  0  0  0  0  0
   19.1287   19.2240   25.3498 H   0  0  0  0  0  0  0  0  0  0  0  0
   20.7853   19.4380   24.7173 H   0  0  0  0  0  0  0  0  0  0  0  0
  1  2  1  0  0  0  0
  1  3  1  0  0  0  0
  1  4  1  0  0  0  0
  1  5  1  0  0  0  0
  5  6  1  0  0  0  0
  5  7  1  0  0  0  0
  5  8  1  0  0  0  0
  8  9  1  0  0  0  0
  8 10  1  0  0  0  0
  8 11  1  0  0  0  0
 11 12  1  0  0  0  0
 11 13  1  0  0  0  0
 11 14  1  0  0  0  0
 14 15  1  0  0  0  0
 14 16  1  0  0  0  0
 14 17  1  0  0  0  0
 17 18  1  0  0  0  0
 17 19  1  0  0  0  0
 17 20  1  0  0  0  0
M  END
> <VConfSearch Rank>
885

> <Conf_Id>
23

> <Delta U+W>
0.896

> <U+W>
16.234

> <U>
70.374

> <W>
-54.140

> <W(PB)>
-56.046

> <W(SA)>
1.907

> <Valence>
1.257

> <Coulomb>
69.240

> <VdW>
-0.123

> <VdW6>
-4.336

> <VdW12>
4.213

> <Bond>
0.128

> <Angle>
0.603

> <Pdih>
0.526

> <Idih>
0.000

> <Tether>
0.000

$$$$
VeraChem MOL file


 20 19  0  0  0  0  0  0  0  0999 V2000     
   22.1698   18.0215   21.0966 C   0  0  0  0  0  0  0  0  0  0  0  0
   22.3612   16.9750   21.3672 H   0  0  0  0  0  0  0  0  0  0  0  0
   22.9782   18.3475   20.4294 H   0  0  0  0  0  0  0  0  0  0  0  0
   22.2299   18.6277   22.0093 H   0  0  0  0  0  0  0  0  0  0  0  0
   20.7978   18.1737   20.4006 C   0  0  0  0  0  0  0  0  0  0  0  0
   20.8180   17.6258   19.4480 H   0  0  0  0  0  0  0  0  0  0  0  0
   20.6303   19.2275   20.1396 H   0  0  0  0  0  0  0  0  0  0  0  0
   19.6206   17.6422   21.2561 C   0  0  0  0  0  0  0  0  0  0  0  0
   18.6829   17.7538   20.6957 H   0  0  0  0  0  0  0  0  0  0  0  0
   19.7517   16.5645   21.4203 H   0  0  0  0  0  0  0  0  0  0  0  0
   19.4778   18.3356   22.6271 C   0  0  0  0  0  0  0  0  0  0  0  0
   20.3903   18.1896   23.2101 H   0  0  0  0  0  0  0  0  0  0  0  0
   18.6487   17.8833   23.1772 H   0  0  0  0  0  0  0  0  0  0  0  0
   19.2123   19.8263   22.5391 N   0  3  0  0  0  0  0  0  0  0  0  0
   18.3557   20.0033   21.9926 H   0  0  0  0  0  0  0  0  0  0  0  0
   19.9720   20.2894   22.0186 H   0  0  0  0  0  0  0  0  0  0  0  0
   19.0865   20.4158   23.9374 C   0  0  0  0  0  0  0  0  0  0  0  0
   20.0159   20.2452   24.4849 H   0  0  0  0  0  0  0  0  0  0  0  0
   18.8969   21.4886   23.8589 H   0  0  0  0  0  0  0  0  0  0  0  0
   18.2569   19.9326   24.4581 H   0  0  0  0  0  0  0  0  0  0  0  0
  1  2  1  0  0  0  0
  1  3  1  0  0  0  0
  1  4  1  0  0  0  0
  1  5  1  0  0  0  0
  5  6  1  0  0  0  0
  5  7  1  0  0  0  0
  5  8  1  0  0  0  0
  8  9  1  0  0  0  0
  8 10  1  0  0  0  0
  8 11  1  0  0  0  0
 11 12  1  0  0  0  0
 11 13  1  0  0  0  0
 11 14  1  0  0  0  0
 14 15  1  0  0  0  0
 14 16  1  0  0  0  0
 14 17  1  0  0  0  0
 17 18  1  0  0  0  0
 17 19  1  0  0  0  0
 17 20  1  0  0  0  0
M  END
> <VConfSearch Rank>
886

> <Conf_Id>
24

> <Delta U+W>
0.792

> <U+W>
16.130

> <U>
70.374

> <W>
-54.243

> <W(PB)>
-56.130

> <W(SA)>
1.887

> <Valence>
1.257

> <Coulomb>
69.240

> <VdW>
-0.123

> <VdW6>
-4.336

> <VdW12>
4.213

> <Bond>
0.128

> <Angle>
0.603

> <Pdih>
0.526

> <Idih>
0.000

> <Tether>
0.000

$$$$
VeraChem MOL file


 20 19  0  0  0  0  0  0  0  0999 V2000     
   17.7951   18.9202   22.0121 C   0  0  0  0  0  0  0  0  0  0  0  0
   16.7290   18.6601   22.0439 H   0  0  0  0  0  0  0  0  0  0  0  0
   18.2341   18.5910   22.9613 H   0  0  0  0  0  0  0  0  0  0  0  0
   17.8682   20.0136   21.9462 H   0  0  0  0  0  0  0  0  0  0  0  0
   18.4764   18.2374   20.8042 C   0  0  0  0  0  0  0  0  0  0  0  0
   17.8718   18.4289   19.9064 H   0  0  0  0  0  0  0  0  0  0  0  0
   18.4689   17.1478   20.9481 H   0  0  0  0  0  0  0  0  0  0  0  0
   19.9247   18.7162   20.5287 C   0  0  0  0  0  0  0  0  0  0  0  0
   20.2772   18.2186   19.6155 H   0  0  0  0  0  0  0  0  0  0  0  0
   19.9364   19.7920   20.3089 H   0  0  0  0  0  0  0  0  0  0  0  0
   20.9282   18.3966   21.6571 C   0  0  0  0  0  0  0  0  0  0  0  0
   21.9421   18.4164   21.2495 H   0  0  0  0  0  0  0  0  0  0  0  0
   20.7390   17.3932   22.0463 H   0  0  0  0  0  0  0  0  0  0  0  0
   20.8989   19.3750   22.8160 N   0  3  0  0  0  0  0  0  0  0  0  0
   19.9466   19.4336   23.2037 H   0  0  0  0  0  0  0  0  0  0  0  0
   21.1184   20.3261   22.4825 H   0  0  0  0  0  0  0  0  0  0  0  0
   21.8896   18.9425   23.8883 C   0  0  0  0  0  0  0  0  0  0  0  0
   21.6184   17.9479   24.2488 H   0  0  0  0  0  0  0  0  0  0  0  0
   22.8945   18.9193   23.4612 H   0  0  0  0  0  0  0  0  0  0  0  0
   21.8576   19.6554   24.7152 H   0  0  0  0  0  0  0  0  0  0  0  0
  1  2  1  0  0  0  0
  1  3  1  0  0  0  0
  1  4  1  0  0  0  0
  1  5  1  0  0  0  0
  5  6  1  0  0  0  0
  5  7  1  0  0  0  0
  5  8  1  0  0  0  0
  8  9  1  0  0  0  0
  8 10  1  0  0  0  0
  8 11  1  0  0  0  0
 11 12  1  0  0  0  0
 11 13  1  0  0  0  0
 11 14  1  0  0  0  0
 14 15  1  0  0  0  0
 14 16  1  0  0  0  0
 14 17  1  0  0  0  0
 17 18  1  0  0  0  0
 17 19  1  0  0  0  0
 17 20  1  0  0  0  0
M  END
> <VConfSearch Rank>
887

> <Conf_Id>
26

> <Delta U+W>
2.888

> <U+W>
18.226

> <U>
72.042

> <W>
-53.816

> <W(PB)>
-55.689

> <W(SA)>
1.873

> <Valence>
2.428

> <Coulomb>
69.829

> <VdW>
-0.215

> <VdW6>
-4.563

> <VdW12>
4.348

> <Bond>
0.137

> <Angle>
0.936

> <Pdih>
1.356

> <Idih>
0.000

> <Tether>
0.000

$$$$
VeraChem MOL file


 20 19  0  0  0  0  0  0  0  0999 V2000     
   18.7955   20.2003   20.8750 C   0  0  0  0  0  0  0  0  0  0  0  0
   17.9108   20.6405   20.3967 H   0  0  0  0  0  0  0  0  0  0  0  0
   19.6735   20.7609   20.5286 H   0  0  0  0  0  0  0  0  0  0  0  0
   18.8709   19.1659   20.5195 H   0  0  0  0  0  0  0  0  0  0  0  0
   18.6589   20.2638   22.4134 C   0  0  0  0  0  0  0  0  0  0  0  0
   17.8296   19.6174   22.7337 H   0  0  0  0  0  0  0  0  0  0  0  0
   18.3738   21.2864   22.6981 H   0  0  0  0  0  0  0  0  0  0  0  0
   19.9459   19.8820   23.1885 C   0  0  0  0  0  0  0  0  0  0  0  0
   20.7637   20.5687   22.9332 H   0  0  0  0  0  0  0  0  0  0  0  0
   19.7519   20.0299   24.2592 H   0  0  0  0  0  0  0  0  0  0  0  0
   20.4013   18.4208   22.9894 C   0  0  0  0  0  0  0  0  0  0  0  0
   19.5317   17.7589   22.9953 H   0  0  0  0  0  0  0  0  0  0  0  0
   21.0519   18.1332   23.8192 H   0  0  0  0  0  0  0  0  0  0  0  0
   21.1816   18.1774   21.7115 N   0  3  0  0  0  0  0  0  0  0  0  0
   22.0333   18.7592   21.7000 H   0  0  0  0  0  0  0  0  0  0  0  0
   20.6297   18.4836   20.8978 H   0  0  0  0  0  0  0  0  0  0  0  0
   21.5402   16.7023   21.5928 C   0  0  0  0  0  0  0  0  0  0  0  0
   20.6233   16.1094   21.5741 H   0  0  0  0  0  0  0  0  0  0  0  0
   22.1011   16.5424   20.6693 H   0  0  0  0  0  0  0  0  0  0  0  0
   22.1513   16.4107   22.4497 H   0  0  0  0  0  0  0  0  0  0  0  0
  1  2  1  0  0  0  0
  1  3  1  0  0  0  0
  1  4  1  0  0  0  0
  1  5  1  0  0  0  0
  5  6  1  0  0  0  0
  5  7  1  0  0  0  0
  5  8  1  0  0  0  0
  8  9  1  0  0  0  0
  8 10  1  0  0  0  0
  8 11  1  0  0  0  0
 11 12  1  0  0  0  0
 11 13  1  0  0  0  0
 11 14  1  0  0  0  0
 14 15  1  0  0  0  0
 14 16  1  0  0  0  0
 14 17  1  0  0  0  0
 17 18  1  0  0  0  0
 17 19  1  0  0  0  0
 17 20  1  0  0  0  0
M  END
> <VConfSearch Rank>
888

> <Conf_Id>
5

> <Delta U+W>
2.950

> <U+W>
18.289

> <U>
72.042

> <W>
-53.753

> <W(PB)>
-55.644

> <W(SA)>
1.891

> <Valence>
2.428

> <Coulomb>
69.829

> <VdW>
-0.215

> <VdW6>
-4.563

> <VdW12>
4.348

> <Bond>
0.137

> <Angle>
0.936

> <Pdih>
1.356

> <Idih>
0.000

> <Tether>
0.000

$$$$
VeraChem MOL file


 20 19  0  0  0  0  0  0  0  0999 V2000     
   21.2294   20.3688   23.5406 C   0  0  0  0  0  0  0  0  0  0  0  0
   22.2406   20.0286   23.7991 H   0  0  0  0  0  0  0  0  0  0  0  0
   21.2666   20.8257   22.5438 H   0  0  0  0  0  0  0  0  0  0  0  0
   20.9484   21.1541   24.2543 H   0  0  0  0  0  0  0  0  0  0  0  0
   20.2192   19.1998   23.5950 C   0  0  0  0  0  0  0  0  0  0  0  0
   19.2156   19.5645   23.3369 H   0  0  0  0  0  0  0  0  0  0  0  0
   20.1515   18.8342   24.6293 H   0  0  0  0  0  0  0  0  0  0  0  0
   20.6082   18.0177   22.6728 C   0  0  0  0  0  0  0  0  0  0  0  0
   21.5695   17.6031   23.0037 H   0  0  0  0  0  0  0  0  0  0  0  0
   19.8754   17.2088   22.7888 H   0  0  0  0  0  0  0  0  0  0  0  0
   20.7249   18.3976   21.1789 C   0  0  0  0  0  0  0  0  0  0  0  0
   20.9985   17.5136   20.5974 H   0  0  0  0  0  0  0  0  0  0  0  0
   21.5229   19.1347   21.0608 H   0  0  0  0  0  0  0  0  0  0  0  0
   19.4664   18.9864   20.5603 N   0  3  0  0  0  0  0  0  0  0  0  0
   19.6776   19.3359   19.6125 H   0  0  0  0  0  0  0  0  0  0  0  0
   19.1680   19.8177   21.0914 H   0  0  0  0  0  0  0  0  0  0  0  0
   18.3463   17.9540   20.4953 C   0  0  0  0  0  0  0  0  0  0  0  0
   18.0879   17.6363   21.5074 H   0  0  0  0  0  0  0  0  0  0  0  0
   17.4728   18.4032   20.0177 H   0  0  0  0  0  0  0  0  0  0  0  0
   18.6833   17.0945   19.9119 H   0  0  0  0  0  0  0  0  0  0  0  0
  1  2  1  0  0  0  0
  1  3  1  0  0  0  0
  1  4  1  0  0  0  0
  1  5  1  0  0  0  0
  5  6  1  0  0  0  0
  5  7  1  0  0  0  0
  5  8  1  0  0  0  0
  8  9  1  0  0  0  0
  8 10  1  0  0  0  0
  8 11  1  0  0  0  0
 11 12  1  0  0  0  0
 11 13  1  0  0  0  0
 11 14  1  0  0  0  0
 14 15  1  0  0  0  0
 14 16  1  0  0  0  0
 14 17  1  0  0  0  0
 17 18  1  0  0  0  0
 17 19  1  0  0  0  0
 17 20  1  0  0  0  0
M  END
> <VConfSearch Rank>
889

> <Conf_Id>
52

> <Delta U+W>
0.784

> <U+W>
16.122

> <U>
70.777

> <W>
-54.655

> <W(PB)>
-56.491

> <W(SA)>
1.836

> <Valence>
1.529

> <Coulomb>
69.166

> <VdW>
0.082

> <VdW6>
-5.166

> <VdW12>
5.248

> <Bond>
0.171

> <Angle>
0.752

> <Pdih>
0.605

> <Idih>
0.000

> <Tether>
0.000

$$$$
VeraChem MOL file


 20 19  0  0  0  0  0  0  0  0999 V2000     
   21.7431   19.8161   21.1894 C   0  0  0  0  0  0  0  0  0  0  0  0
   22.5814   20.4359   20.8455 H   0  0  0  0  0  0  0  0  0  0  0  0
   22.1216   19.1898   22.0052 H   0  0  0  0  0  0  0  0  0  0  0  0
   21.4435   19.1690   20.3546 H   0  0  0  0  0  0  0  0  0  0  0  0
   20.5719   20.7108   21.6552 C   0  0  0  0  0  0  0  0  0  0  0  0
   20.3875   21.4728   20.8849 H   0  0  0  0  0  0  0  0  0  0  0  0
   20.8665   21.2599   22.5605 H   0  0  0  0  0  0  0  0  0  0  0  0
   19.2462   19.9499   21.9129 C   0  0  0  0  0  0  0  0  0  0  0  0
   18.4716   20.6930   22.1438 H   0  0  0  0  0  0  0  0  0  0  0  0
   18.9120   19.4481   20.9962 H   0  0  0  0  0  0  0  0  0  0  0  0
   19.2977   18.9486   23.0903 C   0  0  0  0  0  0  0  0  0  0  0  0
   18.2788   18.7180   23.4111 H   0  0  0  0  0  0  0  0  0  0  0  0
   19.8146   19.4151   23.9328 H   0  0  0  0  0  0  0  0  0  0  0  0
   19.9818   17.6218   22.8000 N   0  3  0  0  0  0  0  0  0  0  0  0
   20.1333   17.1106   23.6837 H   0  0  0  0  0  0  0  0  0  0  0  0
   20.9234   17.7862   22.4177 H   0  0  0  0  0  0  0  0  0  0  0  0
   19.1529   16.7695   21.8454 C   0  0  0  0  0  0  0  0  0  0  0  0
   18.1664   16.5981   22.2814 H   0  0  0  0  0  0  0  0  0  0  0  0
   19.0505   17.2886   20.8906 H   0  0  0  0  0  0  0  0  0  0  0  0
   19.6572   15.8133   21.6899 H   0  0  0  0  0  0  0  0  0  0  0  0
  1  2  1  0  0  0  0
  1  3  1  0  0  0  0
  1  4  1  0  0  0  0
  1  5  1  0  0  0  0
  5  6  1  0  0  0  0
  5  7  1  0  0  0  0
  5  8  1  0  0  0  0
  8  9  1  0  0  0  0
  8 10  1  0  0  0  0
  8 11  1  0  0  0  0
 11 12  1  0  0  0  0
 11 13  1  0  0  0  0
 11 14  1  0  0  0  0
 14 15  1  0  0  0  0
 14 16  1  0  0  0  0
 14 17  1  0  0  0  0
 17 18  1  0  0  0  0
 17 19  1  0  0  0  0
 17 20  1  0  0  0  0
M  END
> <VConfSearch Rank>
890

> <Conf_Id>
55

> <Delta U+W>
2.745

> <U+W>
18.083

> <U>
72.490

> <W>
-54.407

> <W(PB)>
-56.269

> <W(SA)>
1.861

> <Valence>
2.738

> <Coulomb>
69.795

> <VdW>
-0.043

> <VdW6>
-5.333

> <VdW12>
5.290

> <Bond>
0.182

> <Angle>
1.135

> <Pdih>
1.422

> <Idih>
0.000

> <Tether>
0.000

$$$$
VeraChem MOL file


 20 19  0  0  0  0  0  0  0  0999 V2000     
   19.6485   16.8282   22.6002 C   0  0  0  0  0  0  0  0  0  0  0  0
   19.3310   15.8448   22.9708 H   0  0  0  0  0  0  0  0  0  0  0  0
   20.1738   16.6715   21.6490 H   0  0  0  0  0  0  0  0  0  0  0  0
   20.3555   17.2335   23.3331 H   0  0  0  0  0  0  0  0  0  0  0  0
   18.4233   17.7532   22.4198 C   0  0  0  0  0  0  0  0  0  0  0  0
   17.9888   17.9834   23.4028 H   0  0  0  0  0  0  0  0  0  0  0  0
   17.6490   17.2024   21.8675 H   0  0  0  0  0  0  0  0  0  0  0  0
   18.7201   19.0699   21.6575 C   0  0  0  0  0  0  0  0  0  0  0  0
   19.0975   18.8492   20.6512 H   0  0  0  0  0  0  0  0  0  0  0  0
   17.7669   19.5942   21.5087 H   0  0  0  0  0  0  0  0  0  0  0  0
   19.6751   20.0381   22.3937 C   0  0  0  0  0  0  0  0  0  0  0  0
   19.3897   20.0878   23.4476 H   0  0  0  0  0  0  0  0  0  0  0  0
   19.5664   21.0404   21.9718 H   0  0  0  0  0  0  0  0  0  0  0  0
   21.1531   19.6869   22.3265 N   0  3  0  0  0  0  0  0  0  0  0  0
   21.3004   18.7177   22.6411 H   0  0  0  0  0  0  0  0  0  0  0  0
   21.6780   20.2719   22.9954 H   0  0  0  0  0  0  0  0  0  0  0  0
   21.7058   19.8877   20.9198 C   0  0  0  0  0  0  0  0  0  0  0  0
   21.1898   19.2195   20.2278 H   0  0  0  0  0  0  0  0  0  0  0  0
   21.5504   20.9256   20.6176 H   0  0  0  0  0  0  0  0  0  0  0  0
   22.7742   19.6609   20.9195 H   0  0  0  0  0  0  0  0  0  0  0  0
  1  2  1  0  0  0  0
  1  3  1  0  0  0  0
  1  4  1  0  0  0  0
  1  5  1  0  0  0  0
  5  6  1  0  0  0  0
  5  7  1  0  0  0  0
  5  8  1  0  0  0  0
  8  9  1  0  0  0  0
  8 10  1  0  0  0  0
  8 11  1  0  0  0  0
 11 12  1  0  0  0  0
 11 13  1  0  0  0  0
 11 14  1  0  0  0  0
 14 15  1  0  0  0  0
 14 16  1  0  0  0  0
 14 17  1  0  0  0  0
 17 18  1  0  0  0  0
 17 19  1  0  0  0  0
 17 20  1  0  0  0  0
M  END
> <VConfSearch Rank>
891

> <Conf_Id>
76

> <Delta U+W>
2.799

> <U+W>
18.137

> <U>
72.490

> <W>
-54.353

> <W(PB)>
-56.201

> <W(SA)>
1.848

> <Valence>
2.738

> <Coulomb>
69.795

> <VdW>
-0.043

> <VdW6>
-5.334

> <VdW12>
5.290

> <Bond>
0.182

> <Angle>
1.135

> <Pdih>
1.421

> <Idih>
0.000

> <Tether>
0.000

$$$$
VeraChem MOL file


 20 19  0  0  0  0  0  0  0  0999 V2000     
   19.8016   16.6390   22.4042 C   0  0  0  0  0  0  0  0  0  0  0  0
   20.8407   16.9447   22.2314 H   0  0  0  0  0  0  0  0  0  0  0  0
   19.6993   16.3610   23.4612 H   0  0  0  0  0  0  0  0  0  0  0  0
   19.6161   15.7399   21.8025 H   0  0  0  0  0  0  0  0  0  0  0  0
   18.8054   17.7595   22.0265 C   0  0  0  0  0  0  0  0  0  0  0  0
   17.7816   17.3791   22.1490 H   0  0  0  0  0  0  0  0  0  0  0  0
   18.9043   18.0101   20.9625 H   0  0  0  0  0  0  0  0  0  0  0  0
   18.9671   19.0331   22.8922 C   0  0  0  0  0  0  0  0  0  0  0  0
   18.2050   19.7684   22.6026 H   0  0  0  0  0  0  0  0  0  0  0  0
   18.7541   18.7756   23.9381 H   0  0  0  0  0  0  0  0  0  0  0  0
   20.3612   19.7008   22.8341 C   0  0  0  0  0  0  0  0  0  0  0  0
   21.1409   18.9867   23.1093 H   0  0  0  0  0  0  0  0  0  0  0  0
   20.3764   20.5062   23.5728 H   0  0  0  0  0  0  0  0  0  0  0  0
   20.7333   20.3313   21.5003 N   0  3  0  0  0  0  0  0  0  0  0  0
   21.3451   21.1450   21.6688 H   0  0  0  0  0  0  0  0  0  0  0  0
   19.8967   20.7221   21.0421 H   0  0  0  0  0  0  0  0  0  0  0  0
   21.4552   19.3431   20.5905 C   0  0  0  0  0  0  0  0  0  0  0  0
   21.7280   19.8475   19.6610 H   0  0  0  0  0  0  0  0  0  0  0  0
   22.3574   18.9875   21.0927 H   0  0  0  0  0  0  0  0  0  0  0  0
   20.8008   18.4993   20.3695 H   0  0  0  0  0  0  0  0  0  0  0  0
  1  2  1  0  0  0  0
  1  3  1  0  0  0  0
  1  4  1  0  0  0  0
  1  5  1  0  0  0  0
  5  6  1  0  0  0  0
  5  7  1  0  0  0  0
  5  8  1  0  0  0  0
  8  9  1  0  0  0  0
  8 10  1  0  0  0  0
  8 11  1  0  0  0  0
 11 12  1  0  0  0  0
 11 13  1  0  0  0  0
 11 14  1  0  0  0  0
 14 15  1  0  0  0  0
 14 16  1  0  0  0  0
 14 17  1  0  0  0  0
 17 18  1  0  0  0  0
 17 19  1  0  0  0  0
 17 20  1  0  0  0  0
M  END
> <VConfSearch Rank>
892

> <Conf_Id>
60

> <Delta U+W>
1.788

> <U+W>
17.127

> <U>
72.122

> <W>
-54.995

> <W(PB)>
-56.810

> <W(SA)>
1.815

> <Valence>
3.197

> <Coulomb>
69.115

> <VdW>
-0.190

> <VdW6>
-5.585

> <VdW12>
5.395

> <Bond>
0.177

> <Angle>
1.207

> <Pdih>
1.813

> <Idih>
0.000

> <Tether>
0.000

$$$$
VeraChem MOL file


 20 19  0  0  0  0  0  0  0  0999 V2000     
   20.6257   18.4407   19.9398 C   0  0  0  0  0  0  0  0  0  0  0  0
   20.7066   19.0605   19.0375 H   0  0  0  0  0  0  0  0  0  0  0  0
   20.9986   17.4386   19.6917 H   0  0  0  0  0  0  0  0  0  0  0  0
   19.5609   18.3558   20.1890 H   0  0  0  0  0  0  0  0  0  0  0  0
   21.4368   19.0628   21.0998 C   0  0  0  0  0  0  0  0  0  0  0  0
   21.0668   20.0723   21.3206 H   0  0  0  0  0  0  0  0  0  0  0  0
   22.4784   19.1919   20.7740 H   0  0  0  0  0  0  0  0  0  0  0  0
   21.4233   18.1967   22.3832 C   0  0  0  0  0  0  0  0  0  0  0  0
   21.8996   17.2327   22.1608 H   0  0  0  0  0  0  0  0  0  0  0  0
   22.0503   18.6720   23.1489 H   0  0  0  0  0  0  0  0  0  0  0  0
   20.0234   17.9169   22.9788 C   0  0  0  0  0  0  0  0  0  0  0  0
   20.1460   17.2052   23.7991 H   0  0  0  0  0  0  0  0  0  0  0  0
   19.3748   17.4514   22.2331 H   0  0  0  0  0  0  0  0  0  0  0  0
   19.3023   19.1245   23.5590 N   0  3  0  0  0  0  0  0  0  0  0  0
   19.9787   19.7782   23.9807 H   0  0  0  0  0  0  0  0  0  0  0  0
   18.7073   18.8189   24.3447 H   0  0  0  0  0  0  0  0  0  0  0  0
   18.4342   19.8190   22.5153 C   0  0  0  0  0  0  0  0  0  0  0  0
   17.7032   19.1069   22.1266 H   0  0  0  0  0  0  0  0  0  0  0  0
   17.9151   20.6579   22.9839 H   0  0  0  0  0  0  0  0  0  0  0  0
   19.0593   20.1857   21.7005 H   0  0  0  0  0  0  0  0  0  0  0  0
  1  2  1  0  0  0  0
  1  3  1  0  0  0  0
  1  4  1  0  0  0  0
  1  5  1  0  0  0  0
  5  6  1  0  0  0  0
  5  7  1  0  0  0  0
  5  8  1  0  0  0  0
  8  9  1  0  0  0  0
  8 10  1  0  0  0  0
  8 11  1  0  0  0  0
 11 12  1  0  0  0  0
 11 13  1  0  0  0  0
 11 14  1  0  0  0  0
 14 15  1  0  0  0  0
 14 16  1  0  0  0  0
 14 17  1  0  0  0  0
 17 18  1  0  0  0  0
 17 19  1  0  0  0  0
 17 20  1  0  0  0  0
M  END
> <VConfSearch Rank>
893

> <Conf_Id>
54

> <Delta U+W>
1.880

> <U+W>
17.218

> <U>
72.122

> <W>
-54.903

> <W(PB)>
-56.724

> <W(SA)>
1.821

> <Valence>
3.197

> <Coulomb>
69.115

> <VdW>
-0.190

> <VdW6>
-5.585

> <VdW12>
5.395

> <Bond>
0.177

> <Angle>
1.207

> <Pdih>
1.813

> <Idih>
0.000

> <Tether>
0.000

$$$$
VeraChem MOL file


 20 19  0  0  0  0  0  0  0  0999 V2000     
   20.9446   17.8311   24.9262 C   0  0  0  0  0  0  0  0  0  0  0  0
   21.7530   18.5588   25.0745 H   0  0  0  0  0  0  0  0  0  0  0  0
   20.4547   17.6708   25.8954 H   0  0  0  0  0  0  0  0  0  0  0  0
   21.3947   16.8792   24.6157 H   0  0  0  0  0  0  0  0  0  0  0  0
   19.9286   18.3341   23.8779 C   0  0  0  0  0  0  0  0  0  0  0  0
   19.4704   19.2683   24.2324 H   0  0  0  0  0  0  0  0  0  0  0  0
   19.1150   17.6018   23.7772 H   0  0  0  0  0  0  0  0  0  0  0  0
   20.5909   18.5687   22.5023 C   0  0  0  0  0  0  0  0  0  0  0  0
   21.4012   19.3030   22.6031 H   0  0  0  0  0  0  0  0  0  0  0  0
   21.0455   17.6342   22.1473 H   0  0  0  0  0  0  0  0  0  0  0  0
   19.5714   19.0700   21.4626 C   0  0  0  0  0  0  0  0  0  0  0  0
   19.1283   20.0083   21.8057 H   0  0  0  0  0  0  0  0  0  0  0  0
   18.7715   18.3341   21.3483 H   0  0  0  0  0  0  0  0  0  0  0  0
   20.1775   19.3146   20.0946 N   0  3  0  0  0  0  0  0  0  0  0  0
   20.6145   18.4507   19.7384 H   0  0  0  0  0  0  0  0  0  0  0  0
   20.9447   20.0008   20.1619 H   0  0  0  0  0  0  0  0  0  0  0  0
   19.1050   19.8062   19.1315 C   0  0  0  0  0  0  0  0  0  0  0  0
   18.6809   20.7385   19.5106 H   0  0  0  0  0  0  0  0  0  0  0  0
   19.5548   19.9783   18.1511 H   0  0  0  0  0  0  0  0  0  0  0  0
   18.3212   19.0502   19.0492 H   0  0  0  0  0  0  0  0  0  0  0  0
  1  2  1  0  0  0  0
  1  3  1  0  0  0  0
  1  4  1  0  0  0  0
  1  5  1  0  0  0  0
  5  6  1  0  0  0  0
  5  7  1  0  0  0  0
  5  8  1  0  0  0  0
  8  9  1  0  0  0  0
  8 10  1  0  0  0  0
  8 11  1  0  0  0  0
 11 12  1  0  0  0  0
 11 13  1  0  0  0  0
 11 14  1  0  0  0  0
 14 15  1  0  0  0  0
 14 16  1  0  0  0  0
 14 17  1  0  0  0  0
 17 18  1  0  0  0  0
 17 19  1  0  0  0  0
 17 20  1  0  0  0  0
M  END
> <VConfSearch Rank>
894

> <Conf_Id>
67

> <Delta U+W>
0.000

> <U+W>
15.338

> <U>
69.277

> <W>
-53.939

> <W(PB)>
-55.889

> <W(SA)>
1.950

> <Valence>
0.846

> <Coulomb>
68.557

> <VdW>
-0.127

> <VdW6>
-3.008

> <VdW12>
2.882

> <Bond>
0.088

> <Angle>
0.332

> <Pdih>
0.426

> <Idih>
0.000

> <Tether>
0.000

$$$$
VeraChem MOL file


 20 19  0  0  0  0  0  0  0  0999 V2000     
   22.6665   18.2360   20.5918 C   0  0  0  0  0  0  0  0  0  0  0  0
   22.1327   18.1426   19.6371 H   0  0  0  0  0  0  0  0  0  0  0  0
   23.6613   18.6498   20.3815 H   0  0  0  0  0  0  0  0  0  0  0  0
   22.8024   17.2289   21.0071 H   0  0  0  0  0  0  0  0  0  0  0  0
   21.8947   19.1434   21.5743 C   0  0  0  0  0  0  0  0  0  0  0  0
   21.8049   20.1519   21.1462 H   0  0  0  0  0  0  0  0  0  0  0  0
   22.4700   19.2457   22.5054 H   0  0  0  0  0  0  0  0  0  0  0  0
   20.4895   18.5850   21.8892 C   0  0  0  0  0  0  0  0  0  0  0  0
   19.9190   18.4845   20.9569 H   0  0  0  0  0  0  0  0  0  0  0  0
   20.5803   17.5795   22.3208 H   0  0  0  0  0  0  0  0  0  0  0  0
   19.7272   19.4973   22.8723 C   0  0  0  0  0  0  0  0  0  0  0  0
   19.5899   20.4872   22.4298 H   0  0  0  0  0  0  0  0  0  0  0  0
   20.3217   19.6134   23.7821 H   0  0  0  0  0  0  0  0  0  0  0  0
   18.3610   18.9771   23.2890 N   0  3  0  0  0  0  0  0  0  0  0  0
   17.9938   19.5530   24.0629 H   0  0  0  0  0  0  0  0  0  0  0  0
   18.4450   18.0278   23.6835 H   0  0  0  0  0  0  0  0  0  0  0  0
   17.3806   18.9948   22.1210 C   0  0  0  0  0  0  0  0  0  0  0  0
   17.7429   18.3314   21.3332 H   0  0  0  0  0  0  0  0  0  0  0  0
   16.4040   18.6509   22.4686 H   0  0  0  0  0  0  0  0  0  0  0  0
   17.2966   20.0139   21.7376 H   0  0  0  0  0  0  0  0  0  0  0  0
  1  2  1  0  0  0  0
  1  3  1  0  0  0  0
  1  4  1  0  0  0  0
  1  5  1  0  0  0  0
  5  6  1  0  0  0  0
  5  7  1  0  0  0  0
  5  8  1  0  0  0  0
  8  9  1  0  0  0  0
  8 10  1  0  0  0  0
  8 11  1  0  0  0  0
 11 12  1  0  0  0  0
 11 13  1  0  0  0  0
 11 14  1  0  0  0  0
 14 15  1  0  0  0  0
 14 16  1  0  0  0  0
 14 17  1  0  0  0  0
 17 18  1  0  0  0  0
 17 19  1  0  0  0  0
 17 20  1  0  0  0  0
M  END
> <VConfSearch Rank>
895

> <Conf_Id>
37

> <Delta U+W>
-0.021

> <U+W>
15.318

> <U>
69.657

> <W>
-54.340

> <W(PB)>
-56.238

> <W(SA)>
1.899

> <Valence>
1.137

> <Coulomb>
68.383

> <VdW>
0.138

> <VdW6>
-3.703

> <VdW12>
3.841

> <Bond>
0.125

> <Angle>
0.468

> <Pdih>
0.543

> <Idih>
0.000

> <Tether>
0.000

$$$$
VeraChem MOL file


 20 19  0  0  0  0  0  0  0  0999 V2000     
   18.0592   17.9119   19.8529 C   0  0  0  0  0  0  0  0  0  0  0  0
   17.4758   17.0441   19.5190 H   0  0  0  0  0  0  0  0  0  0  0  0
   17.3526   18.6918   20.1654 H   0  0  0  0  0  0  0  0  0  0  0  0
   18.6245   18.2888   18.9906 H   0  0  0  0  0  0  0  0  0  0  0  0
   19.0042   17.5215   21.0100 C   0  0  0  0  0  0  0  0  0  0  0  0
   19.6746   16.7161   20.6779 H   0  0  0  0  0  0  0  0  0  0  0  0
   18.4130   17.1166   21.8436 H   0  0  0  0  0  0  0  0  0  0  0  0
   19.8393   18.7246   21.5008 C   0  0  0  0  0  0  0  0  0  0  0  0
   20.4328   19.1258   20.6687 H   0  0  0  0  0  0  0  0  0  0  0  0
   19.1659   19.5260   21.8312 H   0  0  0  0  0  0  0  0  0  0  0  0
   20.7810   18.3243   22.6553 C   0  0  0  0  0  0  0  0  0  0  0  0
   21.4228   17.5050   22.3215 H   0  0  0  0  0  0  0  0  0  0  0  0
   20.1947   17.9691   23.5064 H   0  0  0  0  0  0  0  0  0  0  0  0
   21.6904   19.4393   23.1458 N   0  3  0  0  0  0  0  0  0  0  0  0
   22.2392   19.8240   22.3618 H   0  0  0  0  0  0  0  0  0  0  0  0
   22.3932   19.0511   23.7945 H   0  0  0  0  0  0  0  0  0  0  0  0
   20.8950   20.5381   23.8424 C   0  0  0  0  0  0  0  0  0  0  0  0
   20.3412   20.1060   24.6787 H   0  0  0  0  0  0  0  0  0  0  0  0
   21.5852   21.2994   24.2126 H   0  0  0  0  0  0  0  0  0  0  0  0
   20.1999   20.9892   23.1315 H   0  0  0  0  0  0  0  0  0  0  0  0
  1  2  1  0  0  0  0
  1  3  1  0  0  0  0
  1  4  1  0  0  0  0
  1  5  1  0  0  0  0
  5  6  1  0  0  0  0
  5  7  1  0  0  0  0
  5  8  1  0  0  0  0
  8  9  1  0  0  0  0
  8 10  1  0  0  0  0
  8 11  1  0  0  0  0
 11 12  1  0  0  0  0
 11 13  1  0  0  0  0
 11 14  1  0  0  0  0
 14 15  1  0  0  0  0
 14 16  1  0  0  0  0
 14 17  1  0  0  0  0
 17 18  1  0  0  0  0
 17 19  1  0  0  0  0
 17 20  1  0  0  0  0
M  END
> <VConfSearch Rank>
896

> <Conf_Id>
2

> <Delta U+W>
0.069

> <U+W>
15.407

> <U>
69.657

> <W>
-54.250

> <W(PB)>
-56.176

> <W(SA)>
1.926

> <Valence>
1.137

> <Coulomb>
68.383

> <VdW>
0.138

> <VdW6>
-3.703

> <VdW12>
3.841

> <Bond>
0.125

> <Angle>
0.468

> <Pdih>
0.543

> <Idih>
0.000

> <Tether>
0.000

$$$$
VeraChem MOL file


 20 19  0  0  0  0  0  0  0  0999 V2000     
   18.8048   18.3162   19.6881 C   0  0  0  0  0  0  0  0  0  0  0  0
   18.2960   19.1006   20.2624 H   0  0  0  0  0  0  0  0  0  0  0  0
   19.5745   18.7911   19.0660 H   0  0  0  0  0  0  0  0  0  0  0  0
   18.0633   17.8648   19.0162 H   0  0  0  0  0  0  0  0  0  0  0  0
   19.4216   17.2427   20.6141 C   0  0  0  0  0  0  0  0  0  0  0  0
   19.8368   16.4332   19.9975 H   0  0  0  0  0  0  0  0  0  0  0  0
   18.6322   16.7881   21.2292 H   0  0  0  0  0  0  0  0  0  0  0  0
   20.5376   17.8012   21.5278 C   0  0  0  0  0  0  0  0  0  0  0  0
   20.9801   16.9735   22.0979 H   0  0  0  0  0  0  0  0  0  0  0  0
   21.3416   18.2236   20.9106 H   0  0  0  0  0  0  0  0  0  0  0  0
   20.0214   18.8717   22.5090 C   0  0  0  0  0  0  0  0  0  0  0  0
   19.2229   18.4504   23.1249 H   0  0  0  0  0  0  0  0  0  0  0  0
   19.6146   19.7179   21.9503 H   0  0  0  0  0  0  0  0  0  0  0  0
   21.0947   19.4039   23.4382 N   0  3  0  0  0  0  0  0  0  0  0  0
   21.8734   19.8029   22.8919 H   0  0  0  0  0  0  0  0  0  0  0  0
   21.5101   18.6323   23.9823 H   0  0  0  0  0  0  0  0  0  0  0  0
   20.5023   20.4542   24.3684 C   0  0  0  0  0  0  0  0  0  0  0  0
   19.7039   20.0014   24.9604 H   0  0  0  0  0  0  0  0  0  0  0  0
   21.2852   20.8286   25.0315 H   0  0  0  0  0  0  0  0  0  0  0  0
   20.0999   21.2765   23.7729 H   0  0  0  0  0  0  0  0  0  0  0  0
  1  2  1  0  0  0  0
  1  3  1  0  0  0  0
  1  4  1  0  0  0  0
  1  5  1  0  0  0  0
  5  6  1  0  0  0  0
  5  7  1  0  0  0  0
  5  8  1  0  0  0  0
  8  9  1  0  0  0  0
  8 10  1  0  0  0  0
  8 11  1  0  0  0  0
 11 12  1  0  0  0  0
 11 13  1  0  0  0  0
 11 14  1  0  0  0  0
 14 15  1  0  0  0  0
 14 16  1  0  0  0  0
 14 17  1  0  0  0  0
 17 18  1  0  0  0  0
 17 19  1  0  0  0  0
 17 20  1  0  0  0  0
M  END
> <VConfSearch Rank>
897

> <Conf_Id>
34

> <Delta U+W>
0.276

> <U+W>
15.615

> <U>
69.798

> <W>
-54.184

> <W(PB)>
-56.116

> <W(SA)>
1.933

> <Valence>
1.134

> <Coulomb>
68.735

> <VdW>
-0.070

> <VdW6>
-3.565

> <VdW12>
3.494

> <Bond>
0.108

> <Angle>
0.456

> <Pdih>
0.569

> <Idih>
0.000

> <Tether>
0.000

$$$$
VeraChem MOL file


 20 19  0  0  0  0  0  0  0  0999 V2000     
   19.8899   19.2185   25.0085 C   0  0  0  0  0  0  0  0  0  0  0  0
   19.0695   18.6131   25.4154 H   0  0  0  0  0  0  0  0  0  0  0  0
   20.7415   19.1357   25.6962 H   0  0  0  0  0  0  0  0  0  0  0  0
   19.5673   20.2678   24.9978 H   0  0  0  0  0  0  0  0  0  0  0  0
   20.2833   18.7433   23.5930 C   0  0  0  0  0  0  0  0  0  0  0  0
   20.6311   17.7017   23.6422 H   0  0  0  0  0  0  0  0  0  0  0  0
   21.1308   19.3439   23.2358 H   0  0  0  0  0  0  0  0  0  0  0  0
   19.0991   18.8507   22.6034 C   0  0  0  0  0  0  0  0  0  0  0  0
   18.2475   18.2775   22.9934 H   0  0  0  0  0  0  0  0  0  0  0  0
   18.7646   19.8939   22.5278 H   0  0  0  0  0  0  0  0  0  0  0  0
   19.4432   18.3165   21.1985 C   0  0  0  0  0  0  0  0  0  0  0  0
   18.5458   18.3359   20.5750 H   0  0  0  0  0  0  0  0  0  0  0  0
   19.7832   17.2805   21.2726 H   0  0  0  0  0  0  0  0  0  0  0  0
   20.5166   19.1120   20.4797 N   0  3  0  0  0  0  0  0  0  0  0  0
   21.3855   19.1186   21.0342 H   0  0  0  0  0  0  0  0  0  0  0  0
   20.2333   20.1007   20.4006 H   0  0  0  0  0  0  0  0  0  0  0  0
   20.7689   18.5168   19.1010 C   0  0  0  0  0  0  0  0  0  0  0  0
   21.0990   17.4815   19.2108 H   0  0  0  0  0  0  0  0  0  0  0  0
   19.8447   18.5502   18.5200 H   0  0  0  0  0  0  0  0  0  0  0  0
   21.5429   19.0983   18.5951 H   0  0  0  0  0  0  0  0  0  0  0  0
  1  2  1  0  0  0  0
  1  3  1  0  0  0  0
  1  4  1  0  0  0  0
  1  5  1  0  0  0  0
  5  6  1  0  0  0  0
  5  7  1  0  0  0  0
  5  8  1  0  0  0  0
  8  9  1  0  0  0  0
  8 10  1  0  0  0  0
  8 11  1  0  0  0  0
 11 12  1  0  0  0  0
 11 13  1  0  0  0  0
 11 14  1  0  0  0  0
 14 15  1  0  0  0  0
 14 16  1  0  0  0  0
 14 17  1  0  0  0  0
 17 18  1  0  0  0  0
 17 19  1  0  0  0  0
 17 20  1  0  0  0  0
M  END
> <VConfSearch Rank>
898

> <Conf_Id>
50

> <Delta U+W>
0.319

> <U+W>
15.657

> <U>
69.962

> <W>
-54.305

> <W(PB)>
-56.223

> <W(SA)>
1.918

> <Valence>
0.982

> <Coulomb>
69.058

> <VdW>
-0.078

> <VdW6>
-3.548

> <VdW12>
3.471

> <Bond>
0.105

> <Angle>
0.408

> <Pdih>
0.469

> <Idih>
0.000

> <Tether>
0.000

$$$$
VeraChem MOL file


 20 19  0  0  0  0  0  0  0  0999 V2000     
   19.7111   17.1610   19.5023 C   0  0  0  0  0  0  0  0  0  0  0  0
   20.1573   17.3852   18.5247 H   0  0  0  0  0  0  0  0  0  0  0  0
   19.9336   16.1128   19.7406 H   0  0  0  0  0  0  0  0  0  0  0  0
   18.6225   17.2659   19.4069 H   0  0  0  0  0  0  0  0  0  0  0  0
   20.2682   18.1087   20.5866 C   0  0  0  0  0  0  0  0  0  0  0  0
   20.0626   19.1475   20.2949 H   0  0  0  0  0  0  0  0  0  0  0  0
   21.3612   18.0033   20.6356 H   0  0  0  0  0  0  0  0  0  0  0  0
   19.6538   17.8135   21.9754 C   0  0  0  0  0  0  0  0  0  0  0  0
   18.5641   17.9444   21.9410 H   0  0  0  0  0  0  0  0  0  0  0  0
   19.8336   16.7618   22.2353 H   0  0  0  0  0  0  0  0  0  0  0  0
   20.2446   18.6986   23.0912 C   0  0  0  0  0  0  0  0  0  0  0  0
   21.3300   18.5749   23.1223 H   0  0  0  0  0  0  0  0  0  0  0  0
   19.8387   18.3828   24.0557 H   0  0  0  0  0  0  0  0  0  0  0  0
   19.9455   20.1774   22.9317 N   0  3  0  0  0  0  0  0  0  0  0  0
   18.9265   20.3314   22.8880 H   0  0  0  0  0  0  0  0  0  0  0  0
   20.3139   20.5195   22.0318 H   0  0  0  0  0  0  0  0  0  0  0  0
   20.5546   20.9585   24.0883 C   0  0  0  0  0  0  0  0  0  0  0  0
   20.3322   22.0203   23.9609 H   0  0  0  0  0  0  0  0  0  0  0  0
   20.1261   20.6029   25.0278 H   0  0  0  0  0  0  0  0  0  0  0  0
   21.6362   20.8071   24.0948 H   0  0  0  0  0  0  0  0  0  0  0  0
  1  2  1  0  0  0  0
  1  3  1  0  0  0  0
  1  4  1  0  0  0  0
  1  5  1  0  0  0  0
  5  6  1  0  0  0  0
  5  7  1  0  0  0  0
  5  8  1  0  0  0  0
  8  9  1  0  0  0  0
  8 10  1  0  0  0  0
  8 11  1  0  0  0  0
 11 12  1  0  0  0  0
 11 13  1  0  0  0  0
 11 14  1  0  0  0  0
 14 15  1  0  0  0  0
 14 16  1  0  0  0  0
 14 17  1  0  0  0  0
 17 18  1  0  0  0  0
 17 19  1  0  0  0  0
 17 20  1  0  0  0  0
M  END
> <VConfSearch Rank>
899

> <Conf_Id>
35

> <Delta U+W>
0.360

> <U+W>
15.698

> <U>
69.962

> <W>
-54.264

> <W(PB)>
-56.166

> <W(SA)>
1.902

> <Valence>
0.982

> <Coulomb>
69.058

> <VdW>
-0.078

> <VdW6>
-3.548

> <VdW12>
3.471

> <Bond>
0.105

> <Angle>
0.408

> <Pdih>
0.469

> <Idih>
0.000

> <Tether>
0.000

$$$$
VeraChem MOL file


 20 19  0  0  0  0  0  0  0  0999 V2000     
   19.2749   16.3320   22.4535 C   0  0  0  0  0  0  0  0  0  0  0  0
   19.9574   16.5523   23.2839 H   0  0  0  0  0  0  0  0  0  0  0  0
   18.6511   15.4806   22.7550 H   0  0  0  0  0  0  0  0  0  0  0  0
   19.8757   16.0175   21.5902 H   0  0  0  0  0  0  0  0  0  0  0  0
   18.3935   17.5529   22.1029 C   0  0  0  0  0  0  0  0  0  0  0  0
   17.8072   17.8501   22.9838 H   0  0  0  0  0  0  0  0  0  0  0  0
   17.6662   17.2606   21.3324 H   0  0  0  0  0  0  0  0  0  0  0  0
   19.2118   18.7606   21.5894 C   0  0  0  0  0  0  0  0  0  0  0  0
   19.7657   18.4681   20.6881 H   0  0  0  0  0  0  0  0  0  0  0  0
   18.5205   19.5588   21.2885 H   0  0  0  0  0  0  0  0  0  0  0  0
   20.1868   19.3107   22.6524 C   0  0  0  0  0  0  0  0  0  0  0  0
   20.9234   18.5467   22.9124 H   0  0  0  0  0  0  0  0  0  0  0  0
   19.6234   19.5590   23.5554 H   0  0  0  0  0  0  0  0  0  0  0  0
   20.9415   20.5611   22.2314 N   0  3  0  0  0  0  0  0  0  0  0  0
   21.4398   20.9543   23.0453 H   0  0  0  0  0  0  0  0  0  0  0  0
   20.2798   21.2988   21.9455 H   0  0  0  0  0  0  0  0  0  0  0  0
   21.9339   20.2590   21.1136 C   0  0  0  0  0  0  0  0  0  0  0  0
   21.3926   19.9058   20.2338 H   0  0  0  0  0  0  0  0  0  0  0  0
   22.4812   21.1709   20.8651 H   0  0  0  0  0  0  0  0  0  0  0  0
   22.6330   19.4910   21.4515 H   0  0  0  0  0  0  0  0  0  0  0  0
  1  2  1  0  0  0  0
  1  3  1  0  0  0  0
  1  4  1  0  0  0  0
  1  5  1  0  0  0  0
  5  6  1  0  0  0  0
  5  7  1  0  0  0  0
  5  8  1  0  0  0  0
  8  9  1  0  0  0  0
  8 10  1  0  0  0  0
  8 11  1  0  0  0  0
 11 12  1  0  0  0  0
 11 13  1  0  0  0  0
 11 14  1  0  0  0  0
 14 15  1  0  0  0  0
 14 16  1  0  0  0  0
 14 17  1  0  0  0  0
 17 18  1  0  0  0  0
 17 19  1  0  0  0  0
 17 20  1  0  0  0  0
M  END
> <VConfSearch Rank>
900

> <Conf_Id>
33

> <Delta U+W>
0.372

> <U+W>
15.711

> <U>
70.163

> <W>
-54.452

> <W(PB)>
-56.363

> <W(SA)>
1.911

> <Valence>
1.420

> <Coulomb>
68.566

> <VdW>
0.177

> <VdW6>
-4.267

> <VdW12>
4.445

> <Bond>
0.146

> <Angle>
0.581

> <Pdih>
0.693

> <Idih>
0.000

> <Tether>
0.000

$$$$
VeraChem MOL file


 20 19  0  0  0  0  0  0  0  0999 V2000     
   18.2873   18.2737   20.2899 C   0  0  0  0  0  0  0  0  0  0  0  0
   17.6624   17.7177   19.5790 H   0  0  0  0  0  0  0  0  0  0  0  0
   17.7566   18.2950   21.2501 H   0  0  0  0  0  0  0  0  0  0  0  0
   18.3744   19.3048   19.9235 H   0  0  0  0  0  0  0  0  0  0  0  0
   19.6777   17.6111   20.4234 C   0  0  0  0  0  0  0  0  0  0  0  0
   20.1329   17.5287   19.4264 H   0  0  0  0  0  0  0  0  0  0  0  0
   19.5628   16.5834   20.7960 H   0  0  0  0  0  0  0  0  0  0  0  0
   20.6347   18.3975   21.3494 C   0  0  0  0  0  0  0  0  0  0  0  0
   21.6210   17.9153   21.3367 H   0  0  0  0  0  0  0  0  0  0  0  0
   20.7750   19.4109   20.9516 H   0  0  0  0  0  0  0  0  0  0  0  0
   20.1256   18.4682   22.8051 C   0  0  0  0  0  0  0  0  0  0  0  0
   19.9543   17.4524   23.1704 H   0  0  0  0  0  0  0  0  0  0  0  0
   19.1750   19.0056   22.8411 H   0  0  0  0  0  0  0  0  0  0  0  0
   21.0796   19.1438   23.7766 N   0  3  0  0  0  0  0  0  0  0  0  0
   22.0029   18.6849   23.7485 H   0  0  0  0  0  0  0  0  0  0  0  0
   20.7448   19.0044   24.7428 H   0  0  0  0  0  0  0  0  0  0  0  0
   21.2053   20.6348   23.4826 C   0  0  0  0  0  0  0  0  0  0  0  0
   21.8677   21.0905   24.2219 H   0  0  0  0  0  0  0  0  0  0  0  0
   21.6220   20.7736   22.4831 H   0  0  0  0  0  0  0  0  0  0  0  0
   20.2174   21.0970   23.5396 H   0  0  0  0  0  0  0  0  0  0  0  0
  1  2  1  0  0  0  0
  1  3  1  0  0  0  0
  1  4  1  0  0  0  0
  1  5  1  0  0  0  0
  5  6  1  0  0  0  0
  5  7  1  0  0  0  0
  5  8  1  0  0  0  0
  8  9  1  0  0  0  0
  8 10  1  0  0  0  0
  8 11  1  0  0  0  0
 11 12  1  0  0  0  0
 11 13  1  0  0  0  0
 11 14  1  0  0  0  0
 14 15  1  0  0  0  0
 14 16  1  0  0  0  0
 14 17  1  0  0  0  0
 17 18  1  0  0  0  0
 17 19  1  0  0  0  0
 17 20  1  0  0  0  0
M  END
> <VConfSearch Rank>
901

> <Conf_Id>
53

> <Delta U+W>
0.379

> <U+W>
15.717

> <U>
70.163

> <W>
-54.446

> <W(PB)>
-56.322

> <W(SA)>
1.876

> <Valence>
1.420

> <Coulomb>
68.566

> <VdW>
0.177

> <VdW6>
-4.267

> <VdW12>
4.445

> <Bond>
0.146

> <Angle>
0.581

> <Pdih>
0.693

> <Idih>
0.000

> <Tether>
0.000

$$$$
VeraChem MOL file


 20 19  0  0  0  0  0  0  0  0999 V2000     
   20.9598   21.1805   20.6983 C   0  0  0  0  0  0  0  0  0  0  0  0
   20.8560   22.2166   21.0459 H   0  0  0  0  0  0  0  0  0  0  0  0
   21.9638   21.0694   20.2685 H   0  0  0  0  0  0  0  0  0  0  0  0
   20.2259   21.0194   19.8979 H   0  0  0  0  0  0  0  0  0  0  0  0
   20.7396   20.1900   21.8621 C   0  0  0  0  0  0  0  0  0  0  0  0
   19.7420   20.3566   22.2907 H   0  0  0  0  0  0  0  0  0  0  0  0
   21.4673   20.3969   22.6595 H   0  0  0  0  0  0  0  0  0  0  0  0
   20.8785   18.7210   21.3977 C   0  0  0  0  0  0  0  0  0  0  0  0
   20.1357   18.5011   20.6202 H   0  0  0  0  0  0  0  0  0  0  0  0
   21.8627   18.5794   20.9318 H   0  0  0  0  0  0  0  0  0  0  0  0
   20.7405   17.7091   22.5568 C   0  0  0  0  0  0  0  0  0  0  0  0
   21.5229   17.9055   23.2942 H   0  0  0  0  0  0  0  0  0  0  0  0
   20.8875   16.6956   22.1750 H   0  0  0  0  0  0  0  0  0  0  0  0
   19.4077   17.7353   23.2901 N   0  3  0  0  0  0  0  0  0  0  0  0
   19.2267   18.6778   23.6655 H   0  0  0  0  0  0  0  0  0  0  0  0
   19.4588   17.1243   24.1203 H   0  0  0  0  0  0  0  0  0  0  0  0
   18.2672   17.2845   22.3841 C   0  0  0  0  0  0  0  0  0  0  0  0
   18.4762   16.2773   22.0174 H   0  0  0  0  0  0  0  0  0  0  0  0
   17.3361   17.2824   22.9550 H   0  0  0  0  0  0  0  0  0  0  0  0
   18.1792   17.9744   21.5425 H   0  0  0  0  0  0  0  0  0  0  0  0
  1  2  1  0  0  0  0
  1  3  1  0  0  0  0
  1  4  1  0  0  0  0
  1  5  1  0  0  0  0
  5  6  1  0  0  0  0
  5  7  1  0  0  0  0
  5  8  1  0  0  0  0
  8  9  1  0  0  0  0
  8 10  1  0  0  0  0
  8 11  1  0  0  0  0
 11 12  1  0  0  0  0
 11 13  1  0  0  0  0
 11 14  1  0  0  0  0
 14 15  1  0  0  0  0
 14 16  1  0  0  0  0
 14 17  1  0  0  0  0
 17 18  1  0  0  0  0
 17 19  1  0  0  0  0
 17 20  1  0  0  0  0
M  END
> <VConfSearch Rank>
902

> <Conf_Id>
49

> <Delta U+W>
0.268

> <U+W>
15.607

> <U>
70.298

> <W>
-54.692

> <W(PB)>
-56.576

> <W(SA)>
1.885

> <Valence>
1.245

> <Coulomb>
68.933

> <VdW>
0.120

> <VdW6>
-4.430

> <VdW12>
4.550

> <Bond>
0.148

> <Angle>
0.587

> <Pdih>
0.509

> <Idih>
0.000

> <Tether>
0.000

$$$$
VeraChem MOL file


 20 19  0  0  0  0  0  0  0  0999 V2000     
   22.7816   19.1315   21.6508 C   0  0  0  0  0  0  0  0  0  0  0  0
   22.8712   19.1737   20.5574 H   0  0  0  0  0  0  0  0  0  0  0  0
   23.0856   20.1054   22.0562 H   0  0  0  0  0  0  0  0  0  0  0  0
   23.4916   18.3790   22.0175 H   0  0  0  0  0  0  0  0  0  0  0  0
   21.3408   18.7757   22.0771 C   0  0  0  0  0  0  0  0  0  0  0  0
   21.2891   18.7134   23.1732 H   0  0  0  0  0  0  0  0  0  0  0  0
   21.0913   17.7807   21.6857 H   0  0  0  0  0  0  0  0  0  0  0  0
   20.3181   19.8157   21.5632 C   0  0  0  0  0  0  0  0  0  0  0  0
   20.6453   20.8194   21.8652 H   0  0  0  0  0  0  0  0  0  0  0  0
   20.3059   19.8134   20.4653 H   0  0  0  0  0  0  0  0  0  0  0  0
   18.8815   19.6046   22.0929 C   0  0  0  0  0  0  0  0  0  0  0  0
   18.2622   20.4256   21.7226 H   0  0  0  0  0  0  0  0  0  0  0  0
   18.8689   19.6471   23.1848 H   0  0  0  0  0  0  0  0  0  0  0  0
   18.2031   18.3147   21.6580 N   0  3  0  0  0  0  0  0  0  0  0  0
   18.5190   18.0421   20.7152 H   0  0  0  0  0  0  0  0  0  0  0  0
   17.1893   18.4802   21.5587 H   0  0  0  0  0  0  0  0  0  0  0  0
   18.4318   17.1960   22.6693 C   0  0  0  0  0  0  0  0  0  0  0  0
   17.9106   16.2975   22.3315 H   0  0  0  0  0  0  0  0  0  0  0  0
   19.4990   16.9886   22.7559 H   0  0  0  0  0  0  0  0  0  0  0  0
   18.0376   17.5049   23.6397 H   0  0  0  0  0  0  0  0  0  0  0  0
  1  2  1  0  0  0  0
  1  3  1  0  0  0  0
  1  4  1  0  0  0  0
  1  5  1  0  0  0  0
  5  6  1  0  0  0  0
  5  7  1  0  0  0  0
  5  8  1  0  0  0  0
  8  9  1  0  0  0  0
  8 10  1  0  0  0  0
  8 11  1  0  0  0  0
 11 12  1  0  0  0  0
 11 13  1  0  0  0  0
 11 14  1  0  0  0  0
 14 15  1  0  0  0  0
 14 16  1  0  0  0  0
 14 17  1  0  0  0  0
 17 18  1  0  0  0  0
 17 19  1  0  0  0  0
 17 20  1  0  0  0  0
M  END
> <VConfSearch Rank>
903

> <Conf_Id>
65

> <Delta U+W>
1.775

> <U+W>
17.114

> <U>
71.726

> <W>
-54.613

> <W(PB)>
-56.495

> <W(SA)>
1.883

> <Valence>
2.885

> <Coulomb>
68.822

> <VdW>
0.019

> <VdW6>
-4.600

> <VdW12>
4.619

> <Bond>
0.152

> <Angle>
0.862

> <Pdih>
1.871

> <Idih>
0.000

> <Tether>
0.000

$$$$
VeraChem MOL file


 20 19  0  0  0  0  0  0  0  0999 V2000     
   19.1892   20.6287   23.1727 C   0  0  0  0  0  0  0  0  0  0  0  0
   20.1685   20.7576   22.6948 H   0  0  0  0  0  0  0  0  0  0  0  0
   18.6104   21.5439   22.9925 H   0  0  0  0  0  0  0  0  0  0  0  0
   19.3455   20.5399   24.2556 H   0  0  0  0  0  0  0  0  0  0  0  0
   18.4411   19.3956   22.6160 C   0  0  0  0  0  0  0  0  0  0  0  0
   18.2964   19.5086   21.5330 H   0  0  0  0  0  0  0  0  0  0  0  0
   17.4335   19.3617   23.0537 H   0  0  0  0  0  0  0  0  0  0  0  0
   19.1622   18.0589   22.9214 C   0  0  0  0  0  0  0  0  0  0  0  0
   19.2062   17.9129   24.0089 H   0  0  0  0  0  0  0  0  0  0  0  0
   18.5678   17.2250   22.5252 H   0  0  0  0  0  0  0  0  0  0  0  0
   20.5950   17.9749   22.3549 C   0  0  0  0  0  0  0  0  0  0  0  0
   21.0417   17.0189   22.6399 H   0  0  0  0  0  0  0  0  0  0  0  0
   21.2063   18.7743   22.7802 H   0  0  0  0  0  0  0  0  0  0  0  0
   20.6675   18.0840   20.8438 N   0  3  0  0  0  0  0  0  0  0  0  0
   20.2475   18.9729   20.5341 H   0  0  0  0  0  0  0  0  0  0  0  0
   20.0989   17.3430   20.4061 H   0  0  0  0  0  0  0  0  0  0  0  0
   22.1160   17.9889   20.3842 C   0  0  0  0  0  0  0  0  0  0  0  0
   22.5299   17.0275   20.6958 H   0  0  0  0  0  0  0  0  0  0  0  0
   22.1533   18.0702   19.2956 H   0  0  0  0  0  0  0  0  0  0  0  0
   22.6904   18.8017   20.8339 H   0  0  0  0  0  0  0  0  0  0  0  0
  1  2  1  0  0  0  0
  1  3  1  0  0  0  0
  1  4  1  0  0  0  0
  1  5  1  0  0  0  0
  5  6  1  0  0  0  0
  5  7  1  0  0  0  0
  5  8  1  0  0  0  0
  8  9  1  0  0  0  0
  8 10  1  0  0  0  0
  8 11  1  0  0  0  0
 11 12  1  0  0  0  0
 11 13  1  0  0  0  0
 11 14  1  0  0  0  0
 14 15  1  0  0  0  0
 14 16  1  0  0  0  0
 14 17  1  0  0  0  0
 17 18  1  0  0  0  0
 17 19  1  0  0  0  0
 17 20  1  0  0  0  0
M  END
> <VConfSearch Rank>
904

> <Conf_Id>
23

> <Delta U+W>
0.896

> <U+W>
16.234

> <U>
70.374

> <W>
-54.140

> <W(PB)>
-56.046

> <W(SA)>
1.907

> <Valence>
1.257

> <Coulomb>
69.240

> <VdW>
-0.123

> <VdW6>
-4.336

> <VdW12>
4.213

> <Bond>
0.128

> <Angle>
0.603

> <Pdih>
0.526

> <Idih>
0.000

> <Tether>
0.000

$$$$
VeraChem MOL file


 20 19  0  0  0  0  0  0  0  0999 V2000     
   18.8714   19.8414   20.3052 C   0  0  0  0  0  0  0  0  0  0  0  0
   19.1700   20.8921   20.1960 H   0  0  0  0  0  0  0  0  0  0  0  0
   18.1267   19.6232   19.5288 H   0  0  0  0  0  0  0  0  0  0  0  0
   18.3780   19.7250   21.2784 H   0  0  0  0  0  0  0  0  0  0  0  0
   20.0900   18.9001   20.1676 C   0  0  0  0  0  0  0  0  0  0  0  0
   20.4925   18.9838   19.1483 H   0  0  0  0  0  0  0  0  0  0  0  0
   19.7657   17.8566   20.2796 H   0  0  0  0  0  0  0  0  0  0  0  0
   21.2207   19.2188   21.1775 C   0  0  0  0  0  0  0  0  0  0  0  0
   22.0636   18.5355   21.0091 H   0  0  0  0  0  0  0  0  0  0  0  0
   21.6035   20.2296   20.9834 H   0  0  0  0  0  0  0  0  0  0  0  0
   20.7852   19.1326   22.6553 C   0  0  0  0  0  0  0  0  0  0  0  0
   19.9770   19.8435   22.8428 H   0  0  0  0  0  0  0  0  0  0  0  0
   21.6279   19.4010   23.2975 H   0  0  0  0  0  0  0  0  0  0  0  0
   20.3054   17.7569   23.0771 N   0  3  0  0  0  0  0  0  0  0  0  0
   21.0448   17.0567   22.9129 H   0  0  0  0  0  0  0  0  0  0  0  0
   19.5125   17.4641   22.4872 H   0  0  0  0  0  0  0  0  0  0  0  0
   19.9013   17.7744   24.5451 C   0  0  0  0  0  0  0  0  0  0  0  0
   19.0961   18.4982   24.6881 H   0  0  0  0  0  0  0  0  0  0  0  0
   19.5572   16.7789   24.8344 H   0  0  0  0  0  0  0  0  0  0  0  0
   20.7641   18.0565   25.1523 H   0  0  0  0  0  0  0  0  0  0  0  0
  1  2  1  0  0  0  0
  1  3  1  0  0  0  0
  1  4  1  0  0  0  0
  1  5  1  0  0  0  0
  5  6  1  0  0  0  0
  5  7  1  0  0  0  0
  5  8  1  0  0  0  0
  8  9  1  0  0  0  0
  8 10  1  0  0  0  0
  8 11  1  0  0  0  0
 11 12  1  0  0  0  0
 11 13  1  0  0  0  0
 11 14  1  0  0  0  0
 14 15  1  0  0  0  0
 14 16  1  0  0  0  0
 14 17  1  0  0  0  0
 17 18  1  0  0  0  0
 17 19  1  0  0  0  0
 17 20  1  0  0  0  0
M  END
> <VConfSearch Rank>
905

> <Conf_Id>
24

> <Delta U+W>
0.792

> <U+W>
16.130

> <U>
70.374

> <W>
-54.243

> <W(PB)>
-56.130

> <W(SA)>
1.887

> <Valence>
1.257

> <Coulomb>
69.240

> <VdW>
-0.123

> <VdW6>
-4.336

> <VdW12>
4.213

> <Bond>
0.128

> <Angle>
0.603

> <Pdih>
0.526

> <Idih>
0.000

> <Tether>
0.000

$$$$
VeraChem MOL file


 20 19  0  0  0  0  0  0  0  0999 V2000     
   19.0538   17.1912   23.2257 C   0  0  0  0  0  0  0  0  0  0  0  0
   18.4012   16.6512   23.9241 H   0  0  0  0  0  0  0  0  0  0  0  0
   18.4047   17.6559   22.4743 H   0  0  0  0  0  0  0  0  0  0  0  0
   19.6967   16.4508   22.7321 H   0  0  0  0  0  0  0  0  0  0  0  0
   19.8912   18.2466   23.9837 C   0  0  0  0  0  0  0  0  0  0  0  0
   20.3555   17.7651   24.8559 H   0  0  0  0  0  0  0  0  0  0  0  0
   19.2245   19.0229   24.3849 H   0  0  0  0  0  0  0  0  0  0  0  0
   21.0096   18.9072   23.1377 C   0  0  0  0  0  0  0  0  0  0  0  0
   21.5766   19.5807   23.7940 H   0  0  0  0  0  0  0  0  0  0  0  0
   21.7258   18.1497   22.7928 H   0  0  0  0  0  0  0  0  0  0  0  0
   20.4989   19.7358   21.9398 C   0  0  0  0  0  0  0  0  0  0  0  0
   21.2747   20.4444   21.6390 H   0  0  0  0  0  0  0  0  0  0  0  0
   19.6150   20.3063   22.2355 H   0  0  0  0  0  0  0  0  0  0  0  0
   20.1520   18.9137   20.7131 N   0  3  0  0  0  0  0  0  0  0  0  0
   19.4594   18.1917   20.9570 H   0  0  0  0  0  0  0  0  0  0  0  0
   20.9828   18.3975   20.3858 H   0  0  0  0  0  0  0  0  0  0  0  0
   19.6177   19.8201   19.6124 C   0  0  0  0  0  0  0  0  0  0  0  0
   18.7210   20.3306   19.9701 H   0  0  0  0  0  0  0  0  0  0  0  0
   20.3814   20.5553   19.3497 H   0  0  0  0  0  0  0  0  0  0  0  0
   19.3726   19.2152   18.7366 H   0  0  0  0  0  0  0  0  0  0  0  0
  1  2  1  0  0  0  0
  1  3  1  0  0  0  0
  1  4  1  0  0  0  0
  1  5  1  0  0  0  0
  5  6  1  0  0  0  0
  5  7  1  0  0  0  0
  5  8  1  0  0  0  0
  8  9  1  0  0  0  0
  8 10  1  0  0  0  0
  8 11  1  0  0  0  0
 11 12  1  0  0  0  0
 11 13  1  0  0  0  0
 11 14  1  0  0  0  0
 14 15  1  0  0  0  0
 14 16  1  0  0  0  0
 14 17  1  0  0  0  0
 17 18  1  0  0  0  0
 17 19  1  0  0  0  0
 17 20  1  0  0  0  0
M  END
> <VConfSearch Rank>
906

> <Conf_Id>
26

> <Delta U+W>
2.888

> <U+W>
18.226

> <U>
72.042

> <W>
-53.816

> <W(PB)>
-55.689

> <W(SA)>
1.873

> <Valence>
2.428

> <Coulomb>
69.829

> <VdW>
-0.215

> <VdW6>
-4.563

> <VdW12>
4.348

> <Bond>
0.137

> <Angle>
0.936

> <Pdih>
1.356

> <Idih>
0.000

> <Tether>
0.000

$$$$
VeraChem MOL file


 20 19  0  0  0  0  0  0  0  0999 V2000     
   21.5257   17.9504   20.7045 C   0  0  0  0  0  0  0  0  0  0  0  0
   22.4520   17.7019   20.1703 H   0  0  0  0  0  0  0  0  0  0  0  0
   20.7225   17.3334   20.2809 H   0  0  0  0  0  0  0  0  0  0  0  0
   21.3099   19.0054   20.4988 H   0  0  0  0  0  0  0  0  0  0  0  0
   21.6954   17.6902   22.2188 C   0  0  0  0  0  0  0  0  0  0  0  0
   22.4385   18.3886   22.6287 H   0  0  0  0  0  0  0  0  0  0  0  0
   22.1162   16.6842   22.3566 H   0  0  0  0  0  0  0  0  0  0  0  0
   20.3829   17.7867   23.0379 C   0  0  0  0  0  0  0  0  0  0  0  0
   19.6574   17.0410   22.6866 H   0  0  0  0  0  0  0  0  0  0  0  0
   20.6126   17.5168   24.0772 H   0  0  0  0  0  0  0  0  0  0  0  0
   19.7374   19.1887   23.0465 C   0  0  0  0  0  0  0  0  0  0  0  0
   20.5131   19.9518   23.1475 H   0  0  0  0  0  0  0  0  0  0  0  0
   19.0690   19.2689   23.9075 H   0  0  0  0  0  0  0  0  0  0  0  0
   18.9104   19.5042   21.8146 N   0  3  0  0  0  0  0  0  0  0  0  0
   18.1419   18.8228   21.7195 H   0  0  0  0  0  0  0  0  0  0  0  0
   19.4838   19.3906   20.9667 H   0  0  0  0  0  0  0  0  0  0  0  0
   18.3605   20.9212   21.9049 C   0  0  0  0  0  0  0  0  0  0  0  0
   19.1918   21.6263   21.9718 H   0  0  0  0  0  0  0  0  0  0  0  0
   17.7680   21.1339   21.0124 H   0  0  0  0  0  0  0  0  0  0  0  0
   17.7311   21.0067   22.7934 H   0  0  0  0  0  0  0  0  0  0  0  0
  1  2  1  0  0  0  0
  1  3  1  0  0  0  0
  1  4  1  0  0  0  0
  1  5  1  0  0  0  0
  5  6  1  0  0  0  0
  5  7  1  0  0  0  0
  5  8  1  0  0  0  0
  8  9  1  0  0  0  0
  8 10  1  0  0  0  0
  8 11  1  0  0  0  0
 11 12  1  0  0  0  0
 11 13  1  0  0  0  0
 11 14  1  0  0  0  0
 14 15  1  0  0  0  0
 14 16  1  0  0  0  0
 14 17  1  0  0  0  0
 17 18  1  0  0  0  0
 17 19  1  0  0  0  0
 17 20  1  0  0  0  0
M  END
> <VConfSearch Rank>
907

> <Conf_Id>
5

> <Delta U+W>
2.950

> <U+W>
18.289

> <U>
72.042

> <W>
-53.753

> <W(PB)>
-55.644

> <W(SA)>
1.891

> <Valence>
2.428

> <Coulomb>
69.829

> <VdW>
-0.215

> <VdW6>
-4.563

> <VdW12>
4.348

> <Bond>
0.137

> <Angle>
0.936

> <Pdih>
1.356

> <Idih>
0.000

> <Tether>
0.000

$$$$
VeraChem MOL file


 20 19  0  0  0  0  0  0  0  0999 V2000     
   18.2702   20.2901   21.1983 C   0  0  0  0  0  0  0  0  0  0  0  0
   17.4050   19.7249   20.8282 H   0  0  0  0  0  0  0  0  0  0  0  0
   18.2262   20.3039   22.2945 H   0  0  0  0  0  0  0  0  0  0  0  0
   18.1665   21.3259   20.8500 H   0  0  0  0  0  0  0  0  0  0  0  0
   19.5942   19.6763   20.6880 C   0  0  0  0  0  0  0  0  0  0  0  0
   20.4441   20.2599   21.0675 H   0  0  0  0  0  0  0  0  0  0  0  0
   19.6306   19.7655   19.5932 H   0  0  0  0  0  0  0  0  0  0  0  0
   19.7600   18.1850   21.0725 C   0  0  0  0  0  0  0  0  0  0  0  0
   18.9557   17.6007   20.6065 H   0  0  0  0  0  0  0  0  0  0  0  0
   20.6964   17.8012   20.6474 H   0  0  0  0  0  0  0  0  0  0  0  0
   19.7394   17.9223   22.5957 C   0  0  0  0  0  0  0  0  0  0  0  0
   19.8640   16.8529   22.7837 H   0  0  0  0  0  0  0  0  0  0  0  0
   18.7667   18.2201   22.9947 H   0  0  0  0  0  0  0  0  0  0  0  0
   20.8037   18.6590   23.3944 N   0  3  0  0  0  0  0  0  0  0  0  0
   20.6265   18.5353   24.4035 H   0  0  0  0  0  0  0  0  0  0  0  0
   20.7270   19.6738   23.2319 H   0  0  0  0  0  0  0  0  0  0  0  0
   22.2015   18.1586   23.0475 C   0  0  0  0  0  0  0  0  0  0  0  0
   22.4027   18.3503   21.9916 H   0  0  0  0  0  0  0  0  0  0  0  0
   22.9336   18.6871   23.6620 H   0  0  0  0  0  0  0  0  0  0  0  0
   22.2590   17.0865   23.2469 H   0  0  0  0  0  0  0  0  0  0  0  0
  1  2  1  0  0  0  0
  1  3  1  0  0  0  0
  1  4  1  0  0  0  0
  1  5  1  0  0  0  0
  5  6  1  0  0  0  0
  5  7  1  0  0  0  0
  5  8  1  0  0  0  0
  8  9  1  0  0  0  0
  8 10  1  0  0  0  0
  8 11  1  0  0  0  0
 11 12  1  0  0  0  0
 11 13  1  0  0  0  0
 11 14  1  0  0  0  0
 14 15  1  0  0  0  0
 14 16  1  0  0  0  0
 14 17  1  0  0  0  0
 17 18  1  0  0  0  0
 17 19  1  0  0  0  0
 17 20  1  0  0  0  0
M  END
> <VConfSearch Rank>
908

> <Conf_Id>
52

> <Delta U+W>
0.784

> <U+W>
16.122

> <U>
70.777

> <W>
-54.655

> <W(PB)>
-56.491

> <W(SA)>
1.836

> <Valence>
1.529

> <Coulomb>
69.166

> <VdW>
0.082

> <VdW6>
-5.166

> <VdW12>
5.248

> <Bond>
0.171

> <Angle>
0.752

> <Pdih>
0.605

> <Idih>
0.000

> <Tether>
0.000

$$$$
VeraChem MOL file


 20 19  0  0  0  0  0  0  0  0999 V2000     
   21.4741   19.5718   20.6394 C   0  0  0  0  0  0  0  0  0  0  0  0
   22.2616   19.7399   19.8932 H   0  0  0  0  0  0  0  0  0  0  0  0
   20.5160   19.6146   20.1089 H   0  0  0  0  0  0  0  0  0  0  0  0
   21.5177   20.3979   21.3611 H   0  0  0  0  0  0  0  0  0  0  0  0
   21.6786   18.2066   21.3350 C   0  0  0  0  0  0  0  0  0  0  0  0
   22.7299   18.1278   21.6459 H   0  0  0  0  0  0  0  0  0  0  0  0
   21.5153   17.3967   20.6101 H   0  0  0  0  0  0  0  0  0  0  0  0
   20.7851   17.9812   22.5814 C   0  0  0  0  0  0  0  0  0  0  0  0
   21.0832   17.0297   23.0410 H   0  0  0  0  0  0  0  0  0  0  0  0
   20.9860   18.7513   23.3368 H   0  0  0  0  0  0  0  0  0  0  0  0
   19.2703   17.8997   22.2807 C   0  0  0  0  0  0  0  0  0  0  0  0
   18.7624   17.4190   23.1206 H   0  0  0  0  0  0  0  0  0  0  0  0
   19.1154   17.2762   21.3967 H   0  0  0  0  0  0  0  0  0  0  0  0
   18.5715   19.2292   22.0425 N   0  3  0  0  0  0  0  0  0  0  0  0
   17.6252   19.0596   21.6672 H   0  0  0  0  0  0  0  0  0  0  0  0
   19.0622   19.7597   21.3094 H   0  0  0  0  0  0  0  0  0  0  0  0
   18.4793   20.0436   23.3282 C   0  0  0  0  0  0  0  0  0  0  0  0
   17.9421   19.4646   24.0824 H   0  0  0  0  0  0  0  0  0  0  0  0
   19.4848   20.2740   23.6852 H   0  0  0  0  0  0  0  0  0  0  0  0
   17.9411   20.9722   23.1255 H   0  0  0  0  0  0  0  0  0  0  0  0
  1  2  1  0  0  0  0
  1  3  1  0  0  0  0
  1  4  1  0  0  0  0
  1  5  1  0  0  0  0
  5  6  1  0  0  0  0
  5  7  1  0  0  0  0
  5  8  1  0  0  0  0
  8  9  1  0  0  0  0
  8 10  1  0  0  0  0
  8 11  1  0  0  0  0
 11 12  1  0  0  0  0
 11 13  1  0  0  0  0
 11 14  1  0  0  0  0
 14 15  1  0  0  0  0
 14 16  1  0  0  0  0
 14 17  1  0  0  0  0
 17 18  1  0  0  0  0
 17 19  1  0  0  0  0
 17 20  1  0  0  0  0
M  END
> <VConfSearch Rank>
909

> <Conf_Id>
55

> <Delta U+W>
2.745

> <U+W>
18.083

> <U>
72.490

> <W>
-54.407

> <W(PB)>
-56.269

> <W(SA)>
1.861

> <Valence>
2.738

> <Coulomb>
69.795

> <VdW>
-0.043

> <VdW6>
-5.333

> <VdW12>
5.290

> <Bond>
0.182

> <Angle>
1.135

> <Pdih>
1.422

> <Idih>
0.000

> <Tether>
0.000

$$$$
VeraChem MOL file


 20 19  0  0  0  0  0  0  0  0999 V2000     
   20.8389   18.5813   23.9198 C   0  0  0  0  0  0  0  0  0  0  0  0
   21.1290   18.4646   24.9722 H   0  0  0  0  0  0  0  0  0  0  0  0
   21.5026   17.9455   23.3194 H   0  0  0  0  0  0  0  0  0  0  0  0
   21.0155   19.6296   23.6534 H   0  0  0  0  0  0  0  0  0  0  0  0
   19.3568   18.1870   23.7265 C   0  0  0  0  0  0  0  0  0  0  0  0
   18.7133   18.9107   24.2463 H   0  0  0  0  0  0  0  0  0  0  0  0
   19.1860   17.2200   24.2202 H   0  0  0  0  0  0  0  0  0  0  0  0
   18.9140   18.0617   22.2463 C   0  0  0  0  0  0  0  0  0  0  0  0
   19.5114   17.2967   21.7347 H   0  0  0  0  0  0  0  0  0  0  0  0
   17.8814   17.6886   22.2348 H   0  0  0  0  0  0  0  0  0  0  0  0
   18.9393   19.3888   21.4527 C   0  0  0  0  0  0  0  0  0  0  0  0
   18.5093   20.1816   22.0700 H   0  0  0  0  0  0  0  0  0  0  0  0
   18.3162   19.2863   20.5607 H   0  0  0  0  0  0  0  0  0  0  0  0
   20.3098   19.8529   20.9849 N   0  3  0  0  0  0  0  0  0  0  0  0
   20.9609   19.8902   21.7815 H   0  0  0  0  0  0  0  0  0  0  0  0
   20.2467   20.8237   20.6404 H   0  0  0  0  0  0  0  0  0  0  0  0
   20.8542   18.9485   19.8847 C   0  0  0  0  0  0  0  0  0  0  0  0
   20.9787   17.9366   20.2747 H   0  0  0  0  0  0  0  0  0  0  0  0
   20.1529   18.9391   19.0476 H   0  0  0  0  0  0  0  0  0  0  0  0
   21.8202   19.3334   19.5506 H   0  0  0  0  0  0  0  0  0  0  0  0
  1  2  1  0  0  0  0
  1  3  1  0  0  0  0
  1  4  1  0  0  0  0
  1  5  1  0  0  0  0
  5  6  1  0  0  0  0
  5  7  1  0  0  0  0
  5  8  1  0  0  0  0
  8  9  1  0  0  0  0
  8 10  1  0  0  0  0
  8 11  1  0  0  0  0
 11 12  1  0  0  0  0
 11 13  1  0  0  0  0
 11 14  1  0  0  0  0
 14 15  1  0  0  0  0
 14 16  1  0  0  0  0
 14 17  1  0  0  0  0
 17 18  1  0  0  0  0
 17 19  1  0  0  0  0
 17 20  1  0  0  0  0
M  END
> <VConfSearch Rank>
910

> <Conf_Id>
76

> <Delta U+W>
2.799

> <U+W>
18.137

> <U>
72.490

> <W>
-54.353

> <W(PB)>
-56.201

> <W(SA)>
1.848

> <Valence>
2.738

> <Coulomb>
69.795

> <VdW>
-0.043

> <VdW6>
-5.334

> <VdW12>
5.290

> <Bond>
0.182

> <Angle>
1.135

> <Pdih>
1.421

> <Idih>
0.000

> <Tether>
0.000

$$$$
VeraChem MOL file


 20 19  0  0  0  0  0  0  0  0999 V2000     
   18.5792   17.3899   21.2452 C   0  0  0  0  0  0  0  0  0  0  0  0
   19.1321   17.9461   20.4784 H   0  0  0  0  0  0  0  0  0  0  0  0
   18.8639   16.3323   21.1709 H   0  0  0  0  0  0  0  0  0  0  0  0
   17.5110   17.4662   21.0046 H   0  0  0  0  0  0  0  0  0  0  0  0
   18.8567   17.9406   22.6630 C   0  0  0  0  0  0  0  0  0  0  0  0
   18.2269   17.3990   23.3826 H   0  0  0  0  0  0  0  0  0  0  0  0
   18.5461   18.9914   22.7276 H   0  0  0  0  0  0  0  0  0  0  0  0
   20.3371   17.7942   23.0925 C   0  0  0  0  0  0  0  0  0  0  0  0
   20.4556   18.1629   24.1198 H   0  0  0  0  0  0  0  0  0  0  0  0
   20.5887   16.7259   23.1258 H   0  0  0  0  0  0  0  0  0  0  0  0
   21.3648   18.5034   22.1795 C   0  0  0  0  0  0  0  0  0  0  0  0
   21.2622   18.1609   21.1471 H   0  0  0  0  0  0  0  0  0  0  0  0
   22.3643   18.2232   22.5217 H   0  0  0  0  0  0  0  0  0  0  0  0
   21.3151   20.0240   22.1906 N   0  3  0  0  0  0  0  0  0  0  0  0
   22.2642   20.3956   22.0290 H   0  0  0  0  0  0  0  0  0  0  0  0
   21.0545   20.3679   23.1268 H   0  0  0  0  0  0  0  0  0  0  0  0
   20.3767   20.5661   21.1179 C   0  0  0  0  0  0  0  0  0  0  0  0
   20.3972   21.6578   21.1445 H   0  0  0  0  0  0  0  0  0  0  0  0
   20.7124   20.2172   20.1391 H   0  0  0  0  0  0  0  0  0  0  0  0
   19.3612   20.2155   21.3047 H   0  0  0  0  0  0  0  0  0  0  0  0
  1  2  1  0  0  0  0
  1  3  1  0  0  0  0
  1  4  1  0  0  0  0
  1  5  1  0  0  0  0
  5  6  1  0  0  0  0
  5  7  1  0  0  0  0
  5  8  1  0  0  0  0
  8  9  1  0  0  0  0
  8 10  1  0  0  0  0
  8 11  1  0  0  0  0
 11 12  1  0  0  0  0
 11 13  1  0  0  0  0
 11 14  1  0  0  0  0
 14 15  1  0  0  0  0
 14 16  1  0  0  0  0
 14 17  1  0  0  0  0
 17 18  1  0  0  0  0
 17 19  1  0  0  0  0
 17 20  1  0  0  0  0
M  END
> <VConfSearch Rank>
911

> <Conf_Id>
60

> <Delta U+W>
1.788

> <U+W>
17.127

> <U>
72.122

> <W>
-54.995

> <W(PB)>
-56.810

> <W(SA)>
1.815

> <Valence>
3.197

> <Coulomb>
69.115

> <VdW>
-0.190

> <VdW6>
-5.585

> <VdW12>
5.395

> <Bond>
0.177

> <Angle>
1.207

> <Pdih>
1.813

> <Idih>
0.000

> <Tether>
0.000

$$$$
VeraChem MOL file


 20 19  0  0  0  0  0  0  0  0999 V2000     
   22.1823   18.2599   21.6008 C   0  0  0  0  0  0  0  0  0  0  0  0
   22.9612   18.6042   20.9083 H   0  0  0  0  0  0  0  0  0  0  0  0
   22.6473   17.5575   22.3046 H   0  0  0  0  0  0  0  0  0  0  0  0
   21.4364   17.7104   21.0138 H   0  0  0  0  0  0  0  0  0  0  0  0
   21.5526   19.4582   22.3479 C   0  0  0  0  0  0  0  0  0  0  0  0
   21.1122   20.1619   21.6299 H   0  0  0  0  0  0  0  0  0  0  0  0
   22.3500   20.0149   22.8598 H   0  0  0  0  0  0  0  0  0  0  0  0
   20.4949   19.0327   23.3957 C   0  0  0  0  0  0  0  0  0  0  0  0
   20.9874   18.4202   24.1624 H   0  0  0  0  0  0  0  0  0  0  0  0
   20.1213   19.9237   23.9173 H   0  0  0  0  0  0  0  0  0  0  0  0
   19.2941   18.2333   22.8377 C   0  0  0  0  0  0  0  0  0  0  0  0
   18.6941   17.8962   23.6868 H   0  0  0  0  0  0  0  0  0  0  0  0
   19.6389   17.3442   22.3045 H   0  0  0  0  0  0  0  0  0  0  0  0
   18.3546   19.0085   21.9259 N   0  3  0  0  0  0  0  0  0  0  0  0
   18.2910   19.9919   22.2285 H   0  0  0  0  0  0  0  0  0  0  0  0
   17.3971   18.6385   22.0320 H   0  0  0  0  0  0  0  0  0  0  0  0
   18.7723   18.9026   20.4632 C   0  0  0  0  0  0  0  0  0  0  0  0
   18.7836   17.8508   20.1696 H   0  0  0  0  0  0  0  0  0  0  0  0
   18.0540   19.4474   19.8467 H   0  0  0  0  0  0  0  0  0  0  0  0
   19.7660   19.3317   20.3314 H   0  0  0  0  0  0  0  0  0  0  0  0
  1  2  1  0  0  0  0
  1  3  1  0  0  0  0
  1  4  1  0  0  0  0
  1  5  1  0  0  0  0
  5  6  1  0  0  0  0
  5  7  1  0  0  0  0
  5  8  1  0  0  0  0
  8  9  1  0  0  0  0
  8 10  1  0  0  0  0
  8 11  1  0  0  0  0
 11 12  1  0  0  0  0
 11 13  1  0  0  0  0
 11 14  1  0  0  0  0
 14 15  1  0  0  0  0
 14 16  1  0  0  0  0
 14 17  1  0  0  0  0
 17 18  1  0  0  0  0
 17 19  1  0  0  0  0
 17 20  1  0  0  0  0
M  END
> <VConfSearch Rank>
912

> <Conf_Id>
54

> <Delta U+W>
1.880

> <U+W>
17.218

> <U>
72.122

> <W>
-54.903

> <W(PB)>
-56.724

> <W(SA)>
1.821

> <Valence>
3.197

> <Coulomb>
69.115

> <VdW>
-0.190

> <VdW6>
-5.585

> <VdW12>
5.395

> <Bond>
0.177

> <Angle>
1.207

> <Pdih>
1.813

> <Idih>
0.000

> <Tether>
0.000

$$$$
VeraChem MOL file


 20 19  0  0  0  0  0  0  0  0999 V2000     
   20.6196   15.8356   23.0442 C   0  0  0  0  0  0  0  0  0  0  0  0
   21.7141   15.8714   22.9668 H   0  0  0  0  0  0  0  0  0  0  0  0
   20.3648   15.2410   23.9311 H   0  0  0  0  0  0  0  0  0  0  0  0
   20.2319   15.3079   22.1631 H   0  0  0  0  0  0  0  0  0  0  0  0
   20.0227   17.2558   23.1495 C   0  0  0  0  0  0  0  0  0  0  0  0
   20.4018   17.7448   24.0581 H   0  0  0  0  0  0  0  0  0  0  0  0
   18.9313   17.1857   23.2606 H   0  0  0  0  0  0  0  0  0  0  0  0
   20.3658   18.1163   21.9136 C   0  0  0  0  0  0  0  0  0  0  0  0
   21.4562   18.1886   21.8053 H   0  0  0  0  0  0  0  0  0  0  0  0
   19.9838   17.6288   21.0067 H   0  0  0  0  0  0  0  0  0  0  0  0
   19.7670   19.5306   22.0261 C   0  0  0  0  0  0  0  0  0  0  0  0
   20.1572   20.0245   22.9195 H   0  0  0  0  0  0  0  0  0  0  0  0
   18.6801   19.4629   22.1182 H   0  0  0  0  0  0  0  0  0  0  0  0
   20.0786   20.4130   20.8331 N   0  3  0  0  0  0  0  0  0  0  0  0
   19.7316   19.9756   19.9657 H   0  0  0  0  0  0  0  0  0  0  0  0
   21.0992   20.4957   20.7076 H   0  0  0  0  0  0  0  0  0  0  0  0
   19.4516   21.7874   21.0255 C   0  0  0  0  0  0  0  0  0  0  0  0
   19.8586   22.2454   21.9296 H   0  0  0  0  0  0  0  0  0  0  0  0
   19.6837   22.4120   20.1601 H   0  0  0  0  0  0  0  0  0  0  0  0
   18.3691   21.6789   21.1214 H   0  0  0  0  0  0  0  0  0  0  0  0
  1  2  1  0  0  0  0
  1  3  1  0  0  0  0
  1  4  1  0  0  0  0
  1  5  1  0  0  0  0
  5  6  1  0  0  0  0
  5  7  1  0  0  0  0
  5  8  1  0  0  0  0
  8  9  1  0  0  0  0
  8 10  1  0  0  0  0
  8 11  1  0  0  0  0
 11 12  1  0  0  0  0
 11 13  1  0  0  0  0
 11 14  1  0  0  0  0
 14 15  1  0  0  0  0
 14 16  1  0  0  0  0
 14 17  1  0  0  0  0
 17 18  1  0  0  0  0
 17 19  1  0  0  0  0
 17 20  1  0  0  0  0
M  END
> <VConfSearch Rank>
913

> <Conf_Id>
67

> <Delta U+W>
0.000

> <U+W>
15.338

> <U>
69.277

> <W>
-53.939

> <W(PB)>
-55.889

> <W(SA)>
1.950

> <Valence>
0.846

> <Coulomb>
68.557

> <VdW>
-0.127

> <VdW6>
-3.008

> <VdW12>
2.882

> <Bond>
0.088

> <Angle>
0.332

> <Pdih>
0.426

> <Idih>
0.000

> <Tether>
0.000

$$$$
VeraChem MOL file


 20 19  0  0  0  0  0  0  0  0999 V2000     
   18.5572   18.6308   19.4122 C   0  0  0  0  0  0  0  0  0  0  0  0
   17.7029   19.1537   19.8616 H   0  0  0  0  0  0  0  0  0  0  0  0
   18.6018   18.9098   18.3514 H   0  0  0  0  0  0  0  0  0  0  0  0
   18.3648   17.5514   19.4680 H   0  0  0  0  0  0  0  0  0  0  0  0
   19.8744   18.9988   20.1289 C   0  0  0  0  0  0  0  0  0  0  0  0
   20.0568   20.0779   20.0264 H   0  0  0  0  0  0  0  0  0  0  0  0
   20.7136   18.4885   19.6352 H   0  0  0  0  0  0  0  0  0  0  0  0
   19.8406   18.6169   21.6251 C   0  0  0  0  0  0  0  0  0  0  0  0
   19.0014   19.1286   22.1138 H   0  0  0  0  0  0  0  0  0  0  0  0
   19.6628   17.5382   21.7267 H   0  0  0  0  0  0  0  0  0  0  0  0
   21.1610   18.9870   22.3319 C   0  0  0  0  0  0  0  0  0  0  0  0
   21.3212   20.0667   22.2774 H   0  0  0  0  0  0  0  0  0  0  0  0
   21.9895   18.4959   21.8151 H   0  0  0  0  0  0  0  0  0  0  0  0
   21.2334   18.5759   23.7936 N   0  3  0  0  0  0  0  0  0  0  0  0
   22.1960   18.7081   24.1419 H   0  0  0  0  0  0  0  0  0  0  0  0
   21.0546   17.5647   23.8898 H   0  0  0  0  0  0  0  0  0  0  0  0
   20.2597   19.3829   24.6458 C   0  0  0  0  0  0  0  0  0  0  0  0
   19.2383   19.1863   24.3140 H   0  0  0  0  0  0  0  0  0  0  0  0
   20.3685   19.0859   25.6912 H   0  0  0  0  0  0  0  0  0  0  0  0
   20.4854   20.4462   24.5402 H   0  0  0  0  0  0  0  0  0  0  0  0
  1  2  1  0  0  0  0
  1  3  1  0  0  0  0
  1  4  1  0  0  0  0
  1  5  1  0  0  0  0
  5  6  1  0  0  0  0
  5  7  1  0  0  0  0
  5  8  1  0  0  0  0
  8  9  1  0  0  0  0
  8 10  1  0  0  0  0
  8 11  1  0  0  0  0
 11 12  1  0  0  0  0
 11 13  1  0  0  0  0
 11 14  1  0  0  0  0
 14 15  1  0  0  0  0
 14 16  1  0  0  0  0
 14 17  1  0  0  0  0
 17 18  1  0  0  0  0
 17 19  1  0  0  0  0
 17 20  1  0  0  0  0
M  END
> <VConfSearch Rank>
914

> <Conf_Id>
37

> <Delta U+W>
-0.021

> <U+W>
15.318

> <U>
69.657

> <W>
-54.340

> <W(PB)>
-56.238

> <W(SA)>
1.899

> <Valence>
1.137

> <Coulomb>
68.383

> <VdW>
0.138

> <VdW6>
-3.703

> <VdW12>
3.841

> <Bond>
0.125

> <Angle>
0.468

> <Pdih>
0.543

> <Idih>
0.000

> <Tether>
0.000

$$$$
VeraChem MOL file


 20 19  0  0  0  0  0  0  0  0999 V2000     
   20.6986   21.5877   22.8112 C   0  0  0  0  0  0  0  0  0  0  0  0
   20.3517   22.6260   22.7303 H   0  0  0  0  0  0  0  0  0  0  0  0
   20.6428   21.2961   23.8681 H   0  0  0  0  0  0  0  0  0  0  0  0
   21.7524   21.5606   22.5046 H   0  0  0  0  0  0  0  0  0  0  0  0
   19.8390   20.6550   21.9306 C   0  0  0  0  0  0  0  0  0  0  0  0
   19.8870   20.9929   20.8857 H   0  0  0  0  0  0  0  0  0  0  0  0
   18.7865   20.7297   22.2386 H   0  0  0  0  0  0  0  0  0  0  0  0
   20.3052   19.1854   22.0244 C   0  0  0  0  0  0  0  0  0  0  0  0
   21.3553   19.1109   21.7125 H   0  0  0  0  0  0  0  0  0  0  0  0
   20.2556   18.8525   23.0692 H   0  0  0  0  0  0  0  0  0  0  0  0
   19.4416   18.2620   21.1404 C   0  0  0  0  0  0  0  0  0  0  0  0
   19.4755   18.6246   20.1098 H   0  0  0  0  0  0  0  0  0  0  0  0
   18.4019   18.2933   21.4756 H   0  0  0  0  0  0  0  0  0  0  0  0
   19.8842   16.8079   21.1223 N   0  3  0  0  0  0  0  0  0  0  0  0
   20.8741   16.7390   20.8408 H   0  0  0  0  0  0  0  0  0  0  0  0
   19.3654   16.2984   20.3898 H   0  0  0  0  0  0  0  0  0  0  0  0
   19.6570   16.1419   22.4752 C   0  0  0  0  0  0  0  0  0  0  0  0
   18.5991   16.2122   22.7374 H   0  0  0  0  0  0  0  0  0  0  0  0
   19.9509   15.0919   22.4108 H   0  0  0  0  0  0  0  0  0  0  0  0
   20.2606   16.6449   23.2331 H   0  0  0  0  0  0  0  0  0  0  0  0
  1  2  1  0  0  0  0
  1  3  1  0  0  0  0
  1  4  1  0  0  0  0
  1  5  1  0  0  0  0
  5  6  1  0  0  0  0
  5  7  1  0  0  0  0
  5  8  1  0  0  0  0
  8  9  1  0  0  0  0
  8 10  1  0  0  0  0
  8 11  1  0  0  0  0
 11 12  1  0  0  0  0
 11 13  1  0  0  0  0
 11 14  1  0  0  0  0
 14 15  1  0  0  0  0
 14 16  1  0  0  0  0
 14 17  1  0  0  0  0
 17 18  1  0  0  0  0
 17 19  1  0  0  0  0
 17 20  1  0  0  0  0
M  END
> <VConfSearch Rank>
915

> <Conf_Id>
2

> <Delta U+W>
0.069

> <U+W>
15.407

> <U>
69.657

> <W>
-54.250

> <W(PB)>
-56.176

> <W(SA)>
1.926

> <Valence>
1.137

> <Coulomb>
68.383

> <VdW>
0.138

> <VdW6>
-3.703

> <VdW12>
3.841

> <Bond>
0.125

> <Angle>
0.468

> <Pdih>
0.543

> <Idih>
0.000

> <Tether>
0.000

$$$$
VeraChem MOL file


 20 19  0  0  0  0  0  0  0  0999 V2000     
   21.2816   16.5074   21.3150 C   0  0  0  0  0  0  0  0  0  0  0  0
   21.9606   17.2014   21.8264 H   0  0  0  0  0  0  0  0  0  0  0  0
   20.8124   15.8661   22.0724 H   0  0  0  0  0  0  0  0  0  0  0  0
   21.8918   15.8664   20.6655 H   0  0  0  0  0  0  0  0  0  0  0  0
   20.2161   17.2612   20.4863 C   0  0  0  0  0  0  0  0  0  0  0  0
   19.6202   16.5315   19.9201 H   0  0  0  0  0  0  0  0  0  0  0  0
   20.7117   17.8994   19.7411 H   0  0  0  0  0  0  0  0  0  0  0  0
   19.2670   18.1173   21.3571 C   0  0  0  0  0  0  0  0  0  0  0  0
   18.4937   18.5590   20.7146 H   0  0  0  0  0  0  0  0  0  0  0  0
   18.7468   17.4724   22.0778 H   0  0  0  0  0  0  0  0  0  0  0  0
   20.0041   19.2434   22.1080 C   0  0  0  0  0  0  0  0  0  0  0  0
   20.5197   19.8865   21.3905 H   0  0  0  0  0  0  0  0  0  0  0  0
   20.7494   18.8114   22.7801 H   0  0  0  0  0  0  0  0  0  0  0  0
   19.0834   20.1162   22.9381 N   0  3  0  0  0  0  0  0  0  0  0  0
   18.5696   19.5417   23.6236 H   0  0  0  0  0  0  0  0  0  0  0  0
   18.3583   20.5403   22.3393 H   0  0  0  0  0  0  0  0  0  0  0  0
   19.8902   21.1968   23.6455 C   0  0  0  0  0  0  0  0  0  0  0  0
   20.3975   21.8132   22.9001 H   0  0  0  0  0  0  0  0  0  0  0  0
   19.2155   21.8177   24.2390 H   0  0  0  0  0  0  0  0  0  0  0  0
   20.6275   20.7257   24.2991 H   0  0  0  0  0  0  0  0  0  0  0  0
  1  2  1  0  0  0  0
  1  3  1  0  0  0  0
  1  4  1  0  0  0  0
  1  5  1  0  0  0  0
  5  6  1  0  0  0  0
  5  7  1  0  0  0  0
  5  8  1  0  0  0  0
  8  9  1  0  0  0  0
  8 10  1  0  0  0  0
  8 11  1  0  0  0  0
 11 12  1  0  0  0  0
 11 13  1  0  0  0  0
 11 14  1  0  0  0  0
 14 15  1  0  0  0  0
 14 16  1  0  0  0  0
 14 17  1  0  0  0  0
 17 18  1  0  0  0  0
 17 19  1  0  0  0  0
 17 20  1  0  0  0  0
M  END
> <VConfSearch Rank>
916

> <Conf_Id>
34

> <Delta U+W>
0.276

> <U+W>
15.615

> <U>
69.798

> <W>
-54.184

> <W(PB)>
-56.116

> <W(SA)>
1.933

> <Valence>
1.134

> <Coulomb>
68.735

> <VdW>
-0.070

> <VdW6>
-3.565

> <VdW12>
3.494

> <Bond>
0.108

> <Angle>
0.456

> <Pdih>
0.569

> <Idih>
0.000

> <Tether>
0.000

$$$$
VeraChem MOL file


 20 19  0  0  0  0  0  0  0  0999 V2000     
   17.3404   19.8528   21.0705 C   0  0  0  0  0  0  0  0  0  0  0  0
   16.9773   20.5941   21.7943 H   0  0  0  0  0  0  0  0  0  0  0  0
   17.1295   20.2355   20.0635 H   0  0  0  0  0  0  0  0  0  0  0  0
   16.7618   18.9300   21.2074 H   0  0  0  0  0  0  0  0  0  0  0  0
   18.8518   19.5933   21.2502 C   0  0  0  0  0  0  0  0  0  0  0  0
   19.4049   20.5272   21.0760 H   0  0  0  0  0  0  0  0  0  0  0  0
   19.1865   18.8793   20.4856 H   0  0  0  0  0  0  0  0  0  0  0  0
   19.1757   19.0523   22.6629 C   0  0  0  0  0  0  0  0  0  0  0  0
   18.8006   19.7577   23.4162 H   0  0  0  0  0  0  0  0  0  0  0  0
   18.6484   18.1043   22.8335 H   0  0  0  0  0  0  0  0  0  0  0  0
   20.6868   18.8507   22.8944 C   0  0  0  0  0  0  0  0  0  0  0  0
   20.8568   18.5551   23.9328 H   0  0  0  0  0  0  0  0  0  0  0  0
   21.2141   19.7916   22.7181 H   0  0  0  0  0  0  0  0  0  0  0  0
   21.3124   17.7895   22.0087 N   0  3  0  0  0  0  0  0  0  0  0  0
   21.1766   18.0300   21.0157 H   0  0  0  0  0  0  0  0  0  0  0  0
   20.8311   16.8869   22.1414 H   0  0  0  0  0  0  0  0  0  0  0  0
   22.7956   17.6558   22.3265 C   0  0  0  0  0  0  0  0  0  0  0  0
   23.2898   18.6131   22.1474 H   0  0  0  0  0  0  0  0  0  0  0  0
   22.9148   17.3685   23.3734 H   0  0  0  0  0  0  0  0  0  0  0  0
   23.2329   16.8896   21.6826 H   0  0  0  0  0  0  0  0  0  0  0  0
  1  2  1  0  0  0  0
  1  3  1  0  0  0  0
  1  4  1  0  0  0  0
  1  5  1  0  0  0  0
  5  6  1  0  0  0  0
  5  7  1  0  0  0  0
  5  8  1  0  0  0  0
  8  9  1  0  0  0  0
  8 10  1  0  0  0  0
  8 11  1  0  0  0  0
 11 12  1  0  0  0  0
 11 13  1  0  0  0  0
 11 14  1  0  0  0  0
 14 15  1  0  0  0  0
 14 16  1  0  0  0  0
 14 17  1  0  0  0  0
 17 18  1  0  0  0  0
 17 19  1  0  0  0  0
 17 20  1  0  0  0  0
M  END
> <VConfSearch Rank>
917

> <Conf_Id>
50

> <Delta U+W>
0.319

> <U+W>
15.657

> <U>
69.962

> <W>
-54.305

> <W(PB)>
-56.223

> <W(SA)>
1.918

> <Valence>
0.982

> <Coulomb>
69.058

> <VdW>
-0.078

> <VdW6>
-3.548

> <VdW12>
3.471

> <Bond>
0.105

> <Angle>
0.408

> <Pdih>
0.469

> <Idih>
0.000

> <Tether>
0.000

$$$$
VeraChem MOL file


 20 19  0  0  0  0  0  0  0  0999 V2000     
   21.4333   21.5375   22.2855 C   0  0  0  0  0  0  0  0  0  0  0  0
   22.4743   21.7490   22.0087 H   0  0  0  0  0  0  0  0  0  0  0  0
   20.8001   22.3059   21.8231 H   0  0  0  0  0  0  0  0  0  0  0  0
   21.3488   21.6360   23.3756 H   0  0  0  0  0  0  0  0  0  0  0  0
   21.0216   20.1236   21.8214 C   0  0  0  0  0  0  0  0  0  0  0  0
   21.7005   19.3867   22.2714 H   0  0  0  0  0  0  0  0  0  0  0  0
   21.1473   20.0470   20.7320 H   0  0  0  0  0  0  0  0  0  0  0  0
   19.5570   19.8005   22.2005 C   0  0  0  0  0  0  0  0  0  0  0  0
   19.4307   19.8475   23.2904 H   0  0  0  0  0  0  0  0  0  0  0  0
   18.8950   20.5672   21.7765 H   0  0  0  0  0  0  0  0  0  0  0  0
   19.0964   18.4215   21.6870 C   0  0  0  0  0  0  0  0  0  0  0  0
   19.2280   18.3704   20.6033 H   0  0  0  0  0  0  0  0  0  0  0  0
   18.0338   18.2907   21.9070 H   0  0  0  0  0  0  0  0  0  0  0  0
   19.8386   17.2515   22.3052 N   0  3  0  0  0  0  0  0  0  0  0  0
   19.7446   17.2735   23.3322 H   0  0  0  0  0  0  0  0  0  0  0  0
   20.8492   17.3337   22.1199 H   0  0  0  0  0  0  0  0  0  0  0  0
   19.2995   15.9411   21.7475 C   0  0  0  0  0  0  0  0  0  0  0  0
   19.8419   15.1081   22.2002 H   0  0  0  0  0  0  0  0  0  0  0  0
   18.2363   15.8597   21.9839 H   0  0  0  0  0  0  0  0  0  0  0  0
   19.4393   15.9262   20.6644 H   0  0  0  0  0  0  0  0  0  0  0  0
  1  2  1  0  0  0  0
  1  3  1  0  0  0  0
  1  4  1  0  0  0  0
  1  5  1  0  0  0  0
  5  6  1  0  0  0  0
  5  7  1  0  0  0  0
  5  8  1  0  0  0  0
  8  9  1  0  0  0  0
  8 10  1  0  0  0  0
  8 11  1  0  0  0  0
 11 12  1  0  0  0  0
 11 13  1  0  0  0  0
 11 14  1  0  0  0  0
 14 15  1  0  0  0  0
 14 16  1  0  0  0  0
 14 17  1  0  0  0  0
 17 18  1  0  0  0  0
 17 19  1  0  0  0  0
 17 20  1  0  0  0  0
M  END
> <VConfSearch Rank>
918

> <Conf_Id>
35

> <Delta U+W>
0.360

> <U+W>
15.698

> <U>
69.962

> <W>
-54.264

> <W(PB)>
-56.166

> <W(SA)>
1.902

> <Valence>
0.982

> <Coulomb>
69.058

> <VdW>
-0.078

> <VdW6>
-3.548

> <VdW12>
3.471

> <Bond>
0.105

> <Angle>
0.408

> <Pdih>
0.469

> <Idih>
0.000

> <Tether>
0.000

$$$$
VeraChem MOL file


 20 19  0  0  0  0  0  0  0  0999 V2000     
   18.1126   17.3339   21.0633 C   0  0  0  0  0  0  0  0  0  0  0  0
   17.7666   18.3692   20.9514 H   0  0  0  0  0  0  0  0  0  0  0  0
   17.5161   16.7106   20.3845 H   0  0  0  0  0  0  0  0  0  0  0  0
   17.8983   17.0099   22.0901 H   0  0  0  0  0  0  0  0  0  0  0  0
   19.6185   17.1997   20.7402 C   0  0  0  0  0  0  0  0  0  0  0  0
   19.8064   17.5347   19.7103 H   0  0  0  0  0  0  0  0  0  0  0  0
   19.8997   16.1378   20.7755 H   0  0  0  0  0  0  0  0  0  0  0  0
   20.5184   17.9907   21.7182 C   0  0  0  0  0  0  0  0  0  0  0  0
   20.3537   17.6260   22.7402 H   0  0  0  0  0  0  0  0  0  0  0  0
   21.5707   17.7893   21.4781 H   0  0  0  0  0  0  0  0  0  0  0  0
   20.2681   19.5128   21.6545 C   0  0  0  0  0  0  0  0  0  0  0  0
   19.2417   19.7339   21.9565 H   0  0  0  0  0  0  0  0  0  0  0  0
   20.3978   19.8504   20.6231 H   0  0  0  0  0  0  0  0  0  0  0  0
   21.1985   20.3435   22.5232 N   0  3  0  0  0  0  0  0  0  0  0  0
   21.0774   21.3440   22.3005 H   0  0  0  0  0  0  0  0  0  0  0  0
   22.1823   20.1386   22.2911 H   0  0  0  0  0  0  0  0  0  0  0  0
   20.9299   20.1072   24.0056 C   0  0  0  0  0  0  0  0  0  0  0  0
   21.1237   19.0603   24.2469 H   0  0  0  0  0  0  0  0  0  0  0  0
   21.5902   20.7471   24.5951 H   0  0  0  0  0  0  0  0  0  0  0  0
   19.8885   20.3514   24.2256 H   0  0  0  0  0  0  0  0  0  0  0  0
  1  2  1  0  0  0  0
  1  3  1  0  0  0  0
  1  4  1  0  0  0  0
  1  5  1  0  0  0  0
  5  6  1  0  0  0  0
  5  7  1  0  0  0  0
  5  8  1  0  0  0  0
  8  9  1  0  0  0  0
  8 10  1  0  0  0  0
  8 11  1  0  0  0  0
 11 12  1  0  0  0  0
 11 13  1  0  0  0  0
 11 14  1  0  0  0  0
 14 15  1  0  0  0  0
 14 16  1  0  0  0  0
 14 17  1  0  0  0  0
 17 18  1  0  0  0  0
 17 19  1  0  0  0  0
 17 20  1  0  0  0  0
M  END
> <VConfSearch Rank>
919

> <Conf_Id>
33

> <Delta U+W>
0.372

> <U+W>
15.711

> <U>
70.163

> <W>
-54.452

> <W(PB)>
-56.363

> <W(SA)>
1.911

> <Valence>
1.420

> <Coulomb>
68.566

> <VdW>
0.177

> <VdW6>
-4.267

> <VdW12>
4.445

> <Bond>
0.146

> <Angle>
0.581

> <Pdih>
0.693

> <Idih>
0.000

> <Tether>
0.000

$$$$
VeraChem MOL file


 20 19  0  0  0  0  0  0  0  0999 V2000     
   20.9058   21.2466   22.3507 C   0  0  0  0  0  0  0  0  0  0  0  0
   20.8827   22.3350   22.4915 H   0  0  0  0  0  0  0  0  0  0  0  0
   21.0184   20.7875   23.3410 H   0  0  0  0  0  0  0  0  0  0  0  0
   21.7972   21.0048   21.7575 H   0  0  0  0  0  0  0  0  0  0  0  0
   19.6187   20.7639   21.6433 C   0  0  0  0  0  0  0  0  0  0  0  0
   19.4996   21.3153   20.7000 H   0  0  0  0  0  0  0  0  0  0  0  0
   18.7431   21.0132   22.2592 H   0  0  0  0  0  0  0  0  0  0  0  0
   19.6287   19.2471   21.3410 C   0  0  0  0  0  0  0  0  0  0  0  0
   18.7249   18.9898   20.7733 H   0  0  0  0  0  0  0  0  0  0  0  0
   20.4839   19.0105   20.6950 H   0  0  0  0  0  0  0  0  0  0  0  0
   19.6821   18.3879   22.6225 C   0  0  0  0  0  0  0  0  0  0  0  0
   18.8464   18.6651   23.2701 H   0  0  0  0  0  0  0  0  0  0  0  0
   20.6101   18.5853   23.1644 H   0  0  0  0  0  0  0  0  0  0  0  0
   19.5919   16.8895   22.3834 N   0  3  0  0  0  0  0  0  0  0  0  0
   18.7425   16.6641   21.8436 H   0  0  0  0  0  0  0  0  0  0  0  0
   19.4687   16.4027   23.2851 H   0  0  0  0  0  0  0  0  0  0  0  0
   20.8384   16.3653   21.6785 C   0  0  0  0  0  0  0  0  0  0  0  0
   20.7528   15.2831   21.5582 H   0  0  0  0  0  0  0  0  0  0  0  0
   20.9256   16.8368   20.6976 H   0  0  0  0  0  0  0  0  0  0  0  0
   21.7180   16.5999   22.2817 H   0  0  0  0  0  0  0  0  0  0  0  0
  1  2  1  0  0  0  0
  1  3  1  0  0  0  0
  1  4  1  0  0  0  0
  1  5  1  0  0  0  0
  5  6  1  0  0  0  0
  5  7  1  0  0  0  0
  5  8  1  0  0  0  0
  8  9  1  0  0  0  0
  8 10  1  0  0  0  0
  8 11  1  0  0  0  0
 11 12  1  0  0  0  0
 11 13  1  0  0  0  0
 11 14  1  0  0  0  0
 14 15  1  0  0  0  0
 14 16  1  0  0  0  0
 14 17  1  0  0  0  0
 17 18  1  0  0  0  0
 17 19  1  0  0  0  0
 17 20  1  0  0  0  0
M  END
> <VConfSearch Rank>
920

> <Conf_Id>
53

> <Delta U+W>
0.379

> <U+W>
15.717

> <U>
70.163

> <W>
-54.446

> <W(PB)>
-56.322

> <W(SA)>
1.876

> <Valence>
1.420

> <Coulomb>
68.566

> <VdW>
0.177

> <VdW6>
-4.267

> <VdW12>
4.445

> <Bond>
0.146

> <Angle>
0.581

> <Pdih>
0.693

> <Idih>
0.000

> <Tether>
0.000

$$$$
VeraChem MOL file


 20 19  0  0  0  0  0  0  0  0999 V2000     
   21.8267   18.7490   19.7735 C   0  0  0  0  0  0  0  0  0  0  0  0
   21.5630   18.5623   18.7244 H   0  0  0  0  0  0  0  0  0  0  0  0
   22.5660   19.5602   19.7948 H   0  0  0  0  0  0  0  0  0  0  0  0
   22.3037   17.8418   20.1667 H   0  0  0  0  0  0  0  0  0  0  0  0
   20.5719   19.1176   20.5942 C   0  0  0  0  0  0  0  0  0  0  0  0
   19.8411   18.3010   20.5180 H   0  0  0  0  0  0  0  0  0  0  0  0
   20.0998   20.0091   20.1578 H   0  0  0  0  0  0  0  0  0  0  0  0
   20.9165   19.3838   22.0785 C   0  0  0  0  0  0  0  0  0  0  0  0
   21.3636   18.4873   22.5270 H   0  0  0  0  0  0  0  0  0  0  0  0
   21.6797   20.1710   22.1382 H   0  0  0  0  0  0  0  0  0  0  0  0
   19.6925   19.8311   22.9084 C   0  0  0  0  0  0  0  0  0  0  0  0
   19.2944   20.7558   22.4830 H   0  0  0  0  0  0  0  0  0  0  0  0
   20.0053   20.0422   23.9341 H   0  0  0  0  0  0  0  0  0  0  0  0
   18.5480   18.8309   22.9733 N   0  3  0  0  0  0  0  0  0  0  0  0
   18.2227   18.6002   22.0230 H   0  0  0  0  0  0  0  0  0  0  0  0
   17.7340   19.2676   23.4337 H   0  0  0  0  0  0  0  0  0  0  0  0
   18.9554   17.5700   23.7277 C   0  0  0  0  0  0  0  0  0  0  0  0
   19.2762   17.8421   24.7356 H   0  0  0  0  0  0  0  0  0  0  0  0
   18.0991   16.8943   23.7840 H   0  0  0  0  0  0  0  0  0  0  0  0
   19.7745   17.0799   23.1978 H   0  0  0  0  0  0  0  0  0  0  0  0
  1  2  1  0  0  0  0
  1  3  1  0  0  0  0
  1  4  1  0  0  0  0
  1  5  1  0  0  0  0
  5  6  1  0  0  0  0
  5  7  1  0  0  0  0
  5  8  1  0  0  0  0
  8  9  1  0  0  0  0
  8 10  1  0  0  0  0
  8 11  1  0  0  0  0
 11 12  1  0  0  0  0
 11 13  1  0  0  0  0
 11 14  1  0  0  0  0
 14 15  1  0  0  0  0
 14 16  1  0  0  0  0
 14 17  1  0  0  0  0
 17 18  1  0  0  0  0
 17 19  1  0  0  0  0
 17 20  1  0  0  0  0
M  END
> <VConfSearch Rank>
921

> <Conf_Id>
49

> <Delta U+W>
0.268

> <U+W>
15.607

> <U>
70.298

> <W>
-54.692

> <W(PB)>
-56.576

> <W(SA)>
1.885

> <Valence>
1.245

> <Coulomb>
68.933

> <VdW>
0.120

> <VdW6>
-4.430

> <VdW12>
4.550

> <Bond>
0.148

> <Angle>
0.587

> <Pdih>
0.509

> <Idih>
0.000

> <Tether>
0.000

$$$$
VeraChem MOL file


 20 19  0  0  0  0  0  0  0  0999 V2000     
   22.2307   20.2097   21.0642 C   0  0  0  0  0  0  0  0  0  0  0  0
   22.2356   21.0564   21.7630 H   0  0  0  0  0  0  0  0  0  0  0  0
   23.1604   19.6436   21.2069 H   0  0  0  0  0  0  0  0  0  0  0  0
   22.2380   20.6155   20.0443 H   0  0  0  0  0  0  0  0  0  0  0  0
   20.9931   19.3133   21.2858 C   0  0  0  0  0  0  0  0  0  0  0  0
   21.0011   18.4923   20.5551 H   0  0  0  0  0  0  0  0  0  0  0  0
   20.0883   19.9055   21.0952 H   0  0  0  0  0  0  0  0  0  0  0  0
   20.9528   18.7369   22.7203 C   0  0  0  0  0  0  0  0  0  0  0  0
   21.9116   18.2473   22.9367 H   0  0  0  0  0  0  0  0  0  0  0  0
   20.8541   19.5545   23.4464 H   0  0  0  0  0  0  0  0  0  0  0  0
   19.8278   17.7033   22.9548 C   0  0  0  0  0  0  0  0  0  0  0  0
   19.9324   17.3168   23.9719 H   0  0  0  0  0  0  0  0  0  0  0  0
   19.9366   16.8605   22.2678 H   0  0  0  0  0  0  0  0  0  0  0  0
   18.4087   18.2370   22.8338 N   0  3  0  0  0  0  0  0  0  0  0  0
   18.3663   19.2198   23.1425 H   0  0  0  0  0  0  0  0  0  0  0  0
   17.7966   17.7279   23.4904 H   0  0  0  0  0  0  0  0  0  0  0  0
   17.8702   18.0728   21.4162 C   0  0  0  0  0  0  0  0  0  0  0  0
   16.8444   18.4460   21.3787 H   0  0  0  0  0  0  0  0  0  0  0  0
   18.4899   18.6363   20.7178 H   0  0  0  0  0  0  0  0  0  0  0  0
   17.8846   17.0141   21.1485 H   0  0  0  0  0  0  0  0  0  0  0  0
  1  2  1  0  0  0  0
  1  3  1  0  0  0  0
  1  4  1  0  0  0  0
  1  5  1  0  0  0  0
  5  6  1  0  0  0  0
  5  7  1  0  0  0  0
  5  8  1  0  0  0  0
  8  9  1  0  0  0  0
  8 10  1  0  0  0  0
  8 11  1  0  0  0  0
 11 12  1  0  0  0  0
 11 13  1  0  0  0  0
 11 14  1  0  0  0  0
 14 15  1  0  0  0  0
 14 16  1  0  0  0  0
 14 17  1  0  0  0  0
 17 18  1  0  0  0  0
 17 19  1  0  0  0  0
 17 20  1  0  0  0  0
M  END
> <VConfSearch Rank>
922

> <Conf_Id>
65

> <Delta U+W>
1.775

> <U+W>
17.114

> <U>
71.726

> <W>
-54.613

> <W(PB)>
-56.495

> <W(SA)>
1.883

> <Valence>
2.885

> <Coulomb>
68.822

> <VdW>
0.019

> <VdW6>
-4.600

> <VdW12>
4.619

> <Bond>
0.152

> <Angle>
0.862

> <Pdih>
1.871

> <Idih>
0.000

> <Tether>
0.000

$$$$
VeraChem MOL file


 20 19  0  0  0  0  0  0  0  0999 V2000     
   19.8223   20.4550   20.3922 C   0  0  0  0  0  0  0  0  0  0  0  0
   19.8139   19.4171   20.0362 H   0  0  0  0  0  0  0  0  0  0  0  0
   19.0433   20.9993   19.8428 H   0  0  0  0  0  0  0  0  0  0  0  0
   20.7905   20.8999   20.1281 H   0  0  0  0  0  0  0  0  0  0  0  0
   19.5697   20.5373   21.9152 C   0  0  0  0  0  0  0  0  0  0  0  0
   18.5964   20.0873   22.1535 H   0  0  0  0  0  0  0  0  0  0  0  0
   19.4940   21.5940   22.2080 H   0  0  0  0  0  0  0  0  0  0  0  0
   20.6871   19.8669   22.7532 C   0  0  0  0  0  0  0  0  0  0  0  0
   21.6339   20.3957   22.5808 H   0  0  0  0  0  0  0  0  0  0  0  0
   20.4620   19.9843   23.8215 H   0  0  0  0  0  0  0  0  0  0  0  0
   20.8946   18.3704   22.4398 C   0  0  0  0  0  0  0  0  0  0  0  0
   21.7167   17.9837   23.0475 H   0  0  0  0  0  0  0  0  0  0  0  0
   21.1647   18.2487   21.3882 H   0  0  0  0  0  0  0  0  0  0  0  0
   19.6764   17.5089   22.7127 N   0  3  0  0  0  0  0  0  0  0  0  0
   18.8744   17.8480   22.1611 H   0  0  0  0  0  0  0  0  0  0  0  0
   19.3906   17.5997   23.6996 H   0  0  0  0  0  0  0  0  0  0  0  0
   19.9807   16.0557   22.3751 C   0  0  0  0  0  0  0  0  0  0  0  0
   20.8120   15.7094   22.9929 H   0  0  0  0  0  0  0  0  0  0  0  0
   19.0955   15.4479   22.5749 H   0  0  0  0  0  0  0  0  0  0  0  0
   20.2485   15.9800   21.3190 H   0  0  0  0  0  0  0  0  0  0  0  0
  1  2  1  0  0  0  0
  1  3  1  0  0  0  0
  1  4  1  0  0  0  0
  1  5  1  0  0  0  0
  5  6  1  0  0  0  0
  5  7  1  0  0  0  0
  5  8  1  0  0  0  0
  8  9  1  0  0  0  0
  8 10  1  0  0  0  0
  8 11  1  0  0  0  0
 11 12  1  0  0  0  0
 11 13  1  0  0  0  0
 11 14  1  0  0  0  0
 14 15  1  0  0  0  0
 14 16  1  0  0  0  0
 14 17  1  0  0  0  0
 17 18  1  0  0  0  0
 17 19  1  0  0  0  0
 17 20  1  0  0  0  0
M  END
> <VConfSearch Rank>
923

> <Conf_Id>
23

> <Delta U+W>
0.896

> <U+W>
16.234

> <U>
70.374

> <W>
-54.140

> <W(PB)>
-56.046

> <W(SA)>
1.907

> <Valence>
1.257

> <Coulomb>
69.240

> <VdW>
-0.123

> <VdW6>
-4.336

> <VdW12>
4.213

> <Bond>
0.128

> <Angle>
0.603

> <Pdih>
0.526

> <Idih>
0.000

> <Tether>
0.000

$$$$
VeraChem MOL file


 20 19  0  0  0  0  0  0  0  0999 V2000     
   21.8984   17.2059   22.1193 C   0  0  0  0  0  0  0  0  0  0  0  0
   22.8565   17.7084   22.3054 H   0  0  0  0  0  0  0  0  0  0  0  0
   22.0871   16.1248   22.0956 H   0  0  0  0  0  0  0  0  0  0  0  0
   21.5445   17.5015   21.1237 H   0  0  0  0  0  0  0  0  0  0  0  0
   20.8666   17.5523   23.2173 C   0  0  0  0  0  0  0  0  0  0  0  0
   21.2215   17.1553   24.1787 H   0  0  0  0  0  0  0  0  0  0  0  0
   19.9186   17.0378   23.0093 H   0  0  0  0  0  0  0  0  0  0  0  0
   20.6258   19.0755   23.3655 C   0  0  0  0  0  0  0  0  0  0  0  0
   19.9072   19.2540   24.1764 H   0  0  0  0  0  0  0  0  0  0  0  0
   21.5614   19.5603   23.6745 H   0  0  0  0  0  0  0  0  0  0  0  0
   20.1186   19.7591   22.0785 C   0  0  0  0  0  0  0  0  0  0  0  0
   20.8504   19.6258   21.2782 H   0  0  0  0  0  0  0  0  0  0  0  0
   20.0051   20.8311   22.2584 H   0  0  0  0  0  0  0  0  0  0  0  0
   18.7847   19.2318   21.5853 N   0  3  0  0  0  0  0  0  0  0  0  0
   18.0667   19.3404   22.3179 H   0  0  0  0  0  0  0  0  0  0  0  0
   18.8493   18.2180   21.4108 H   0  0  0  0  0  0  0  0  0  0  0  0
   18.3713   19.9668   20.3175 C   0  0  0  0  0  0  0  0  0  0  0  0
   19.1297   19.8104   19.5473 H   0  0  0  0  0  0  0  0  0  0  0  0
   17.4110   19.5766   19.9734 H   0  0  0  0  0  0  0  0  0  0  0  0
   18.2790   21.0333   20.5339 H   0  0  0  0  0  0  0  0  0  0  0  0
  1  2  1  0  0  0  0
  1  3  1  0  0  0  0
  1  4  1  0  0  0  0
  1  5  1  0  0  0  0
  5  6  1  0  0  0  0
  5  7  1  0  0  0  0
  5  8  1  0  0  0  0
  8  9  1  0  0  0  0
  8 10  1  0  0  0  0
  8 11  1  0  0  0  0
 11 12  1  0  0  0  0
 11 13  1  0  0  0  0
 11 14  1  0  0  0  0
 14 15  1  0  0  0  0
 14 16  1  0  0  0  0
 14 17  1  0  0  0  0
 17 18  1  0  0  0  0
 17 19  1  0  0  0  0
 17 20  1  0  0  0  0
M  END
> <VConfSearch Rank>
924

> <Conf_Id>
24

> <Delta U+W>
0.792

> <U+W>
16.130

> <U>
70.374

> <W>
-54.243

> <W(PB)>
-56.130

> <W(SA)>
1.887

> <Valence>
1.257

> <Coulomb>
69.240

> <VdW>
-0.123

> <VdW6>
-4.336

> <VdW12>
4.213

> <Bond>
0.128

> <Angle>
0.603

> <Pdih>
0.526

> <Idih>
0.000

> <Tether>
0.000

$$$$
VeraChem MOL file


 20 19  0  0  0  0  0  0  0  0999 V2000     
   21.4380   17.6669   23.2129 C   0  0  0  0  0  0  0  0  0  0  0  0
   21.9779   17.2121   24.0537 H   0  0  0  0  0  0  0  0  0  0  0  0
   20.4170   17.2679   23.2339 H   0  0  0  0  0  0  0  0  0  0  0  0
   21.9293   17.3397   22.2872 H   0  0  0  0  0  0  0  0  0  0  0  0
   21.4487   19.2073   23.3409 C   0  0  0  0  0  0  0  0  0  0  0  0
   22.4804   19.5362   23.5297 H   0  0  0  0  0  0  0  0  0  0  0  0
   20.8688   19.5046   24.2261 H   0  0  0  0  0  0  0  0  0  0  0  0
   20.9172   19.9589   22.0938 C   0  0  0  0  0  0  0  0  0  0  0  0
   21.0370   21.0359   22.2718 H   0  0  0  0  0  0  0  0  0  0  0  0
   21.5355   19.7283   21.2162 H   0  0  0  0  0  0  0  0  0  0  0  0
   19.4298   19.6963   21.7759 C   0  0  0  0  0  0  0  0  0  0  0  0
   19.0485   20.5099   21.1537 H   0  0  0  0  0  0  0  0  0  0  0  0
   18.8515   19.6791   22.7031 H   0  0  0  0  0  0  0  0  0  0  0  0
   19.1694   18.4053   21.0232 N   0  3  0  0  0  0  0  0  0  0  0  0
   19.5595   17.6081   21.5455 H   0  0  0  0  0  0  0  0  0  0  0  0
   19.6700   18.4137   20.1213 H   0  0  0  0  0  0  0  0  0  0  0  0
   17.6739   18.2230   20.8031 C   0  0  0  0  0  0  0  0  0  0  0  0
   17.1697   18.1842   21.7711 H   0  0  0  0  0  0  0  0  0  0  0  0
   17.2910   19.0636   20.2205 H   0  0  0  0  0  0  0  0  0  0  0  0
   17.5019   17.2907   20.2606 H   0  0  0  0  0  0  0  0  0  0  0  0
  1  2  1  0  0  0  0
  1  3  1  0  0  0  0
  1  4  1  0  0  0  0
  1  5  1  0  0  0  0
  5  6  1  0  0  0  0
  5  7  1  0  0  0  0
  5  8  1  0  0  0  0
  8  9  1  0  0  0  0
  8 10  1  0  0  0  0
  8 11  1  0  0  0  0
 11 12  1  0  0  0  0
 11 13  1  0  0  0  0
 11 14  1  0  0  0  0
 14 15  1  0  0  0  0
 14 16  1  0  0  0  0
 14 17  1  0  0  0  0
 17 18  1  0  0  0  0
 17 19  1  0  0  0  0
 17 20  1  0  0  0  0
M  END
> <VConfSearch Rank>
925

> <Conf_Id>
26

> <Delta U+W>
2.888

> <U+W>
18.226

> <U>
72.042

> <W>
-53.816

> <W(PB)>
-55.689

> <W(SA)>
1.873

> <Valence>
2.428

> <Coulomb>
69.829

> <VdW>
-0.215

> <VdW6>
-4.563

> <VdW12>
4.348

> <Bond>
0.137

> <Angle>
0.936

> <Pdih>
1.356

> <Idih>
0.000

> <Tether>
0.000

$$$$
VeraChem MOL file


 20 19  0  0  0  0  0  0  0  0999 V2000     
   19.5935   20.4066   20.5558 C   0  0  0  0  0  0  0  0  0  0  0  0
   19.6764   21.2140   19.8166 H   0  0  0  0  0  0  0  0  0  0  0  0
   18.5257   20.1940   20.6967 H   0  0  0  0  0  0  0  0  0  0  0  0
   20.0071   20.7891   21.4964 H   0  0  0  0  0  0  0  0  0  0  0  0
   20.3565   19.1541   20.0675 C   0  0  0  0  0  0  0  0  0  0  0  0
   21.4327   19.3740   20.0281 H   0  0  0  0  0  0  0  0  0  0  0  0
   20.0526   18.9396   19.0332 H   0  0  0  0  0  0  0  0  0  0  0  0
   20.1158   17.8825   20.9207 C   0  0  0  0  0  0  0  0  0  0  0  0
   19.0527   17.6083   20.9066 H   0  0  0  0  0  0  0  0  0  0  0  0
   20.6479   17.0492   20.4428 H   0  0  0  0  0  0  0  0  0  0  0  0
   20.6153   17.9871   22.3774 C   0  0  0  0  0  0  0  0  0  0  0  0
   21.5812   18.4977   22.4008 H   0  0  0  0  0  0  0  0  0  0  0  0
   20.7540   16.9807   22.7805 H   0  0  0  0  0  0  0  0  0  0  0  0
   19.6662   18.7109   23.3136 N   0  3  0  0  0  0  0  0  0  0  0  0
   18.7579   18.2231   23.3442 H   0  0  0  0  0  0  0  0  0  0  0  0
   19.4599   19.6514   22.9483 H   0  0  0  0  0  0  0  0  0  0  0  0
   20.2739   18.7974   24.7070 C   0  0  0  0  0  0  0  0  0  0  0  0
   21.2172   19.3454   24.6550 H   0  0  0  0  0  0  0  0  0  0  0  0
   19.5803   19.3203   25.3693 H   0  0  0  0  0  0  0  0  0  0  0  0
   20.4531   17.7884   25.0845 H   0  0  0  0  0  0  0  0  0  0  0  0
  1  2  1  0  0  0  0
  1  3  1  0  0  0  0
  1  4  1  0  0  0  0
  1  5  1  0  0  0  0
  5  6  1  0  0  0  0
  5  7  1  0  0  0  0
  5  8  1  0  0  0  0
  8  9  1  0  0  0  0
  8 10  1  0  0  0  0
  8 11  1  0  0  0  0
 11 12  1  0  0  0  0
 11 13  1  0  0  0  0
 11 14  1  0  0  0  0
 14 15  1  0  0  0  0
 14 16  1  0  0  0  0
 14 17  1  0  0  0  0
 17 18  1  0  0  0  0
 17 19  1  0  0  0  0
 17 20  1  0  0  0  0
M  END
> <VConfSearch Rank>
926

> <Conf_Id>
5

> <Delta U+W>
2.950

> <U+W>
18.289

> <U>
72.042

> <W>
-53.753

> <W(PB)>
-55.644

> <W(SA)>
1.891

> <Valence>
2.428

> <Coulomb>
69.829

> <VdW>
-0.215

> <VdW6>
-4.563

> <VdW12>
4.348

> <Bond>
0.137

> <Angle>
0.936

> <Pdih>
1.356

> <Idih>
0.000

> <Tether>
0.000

$$$$
VeraChem MOL file


 20 19  0  0  0  0  0  0  0  0999 V2000     
   17.9521   19.8648   22.6814 C   0  0  0  0  0  0  0  0  0  0  0  0
   18.0803   20.7372   23.3354 H   0  0  0  0  0  0  0  0  0  0  0  0
   18.1480   20.1797   21.6488 H   0  0  0  0  0  0  0  0  0  0  0  0
   16.9005   19.5555   22.7392 H   0  0  0  0  0  0  0  0  0  0  0  0
   18.8823   18.7071   23.1111 C   0  0  0  0  0  0  0  0  0  0  0  0
   18.7338   17.8456   22.4458 H   0  0  0  0  0  0  0  0  0  0  0  0
   18.5902   18.3682   24.1149 H   0  0  0  0  0  0  0  0  0  0  0  0
   20.3784   19.1075   23.1357 C   0  0  0  0  0  0  0  0  0  0  0  0
   20.5263   19.9054   23.8752 H   0  0  0  0  0  0  0  0  0  0  0  0
   20.9773   18.2571   23.4863 H   0  0  0  0  0  0  0  0  0  0  0  0
   20.9217   19.5938   21.7726 C   0  0  0  0  0  0  0  0  0  0  0  0
   21.9786   19.8535   21.8722 H   0  0  0  0  0  0  0  0  0  0  0  0
   20.3827   20.4972   21.4769 H   0  0  0  0  0  0  0  0  0  0  0  0
   20.7965   18.5954   20.6321 N   0  3  0  0  0  0  0  0  0  0  0  0
   21.0519   19.0523   19.7427 H   0  0  0  0  0  0  0  0  0  0  0  0
   19.8117   18.3150   20.5155 H   0  0  0  0  0  0  0  0  0  0  0  0
   21.6833   17.3769   20.8632 C   0  0  0  0  0  0  0  0  0  0  0  0
   21.3652   16.8654   21.7738 H   0  0  0  0  0  0  0  0  0  0  0  0
   21.5908   16.7001   20.0111 H   0  0  0  0  0  0  0  0  0  0  0  0
   22.7211   17.7018   20.9641 H   0  0  0  0  0  0  0  0  0  0  0  0
  1  2  1  0  0  0  0
  1  3  1  0  0  0  0
  1  4  1  0  0  0  0
  1  5  1  0  0  0  0
  5  6  1  0  0  0  0
  5  7  1  0  0  0  0
  5  8  1  0  0  0  0
  8  9  1  0  0  0  0
  8 10  1  0  0  0  0
  8 11  1  0  0  0  0
 11 12  1  0  0  0  0
 11 13  1  0  0  0  0
 11 14  1  0  0  0  0
 14 15  1  0  0  0  0
 14 16  1  0  0  0  0
 14 17  1  0  0  0  0
 17 18  1  0  0  0  0
 17 19  1  0  0  0  0
 17 20  1  0  0  0  0
M  END
> <VConfSearch Rank>
927

> <Conf_Id>
52

> <Delta U+W>
0.784

> <U+W>
16.122

> <U>
70.777

> <W>
-54.655

> <W(PB)>
-56.491

> <W(SA)>
1.836

> <Valence>
1.529

> <Coulomb>
69.166

> <VdW>
0.082

> <VdW6>
-5.166

> <VdW12>
5.248

> <Bond>
0.171

> <Angle>
0.752

> <Pdih>
0.605

> <Idih>
0.000

> <Tether>
0.000

$$$$
VeraChem MOL file


 20 19  0  0  0  0  0  0  0  0999 V2000     
   18.2340   18.4181   21.0699 C   0  0  0  0  0  0  0  0  0  0  0  0
   17.2361   18.1070   20.7341 H   0  0  0  0  0  0  0  0  0  0  0  0
   18.2009   19.5049   21.2077 H   0  0  0  0  0  0  0  0  0  0  0  0
   18.9437   18.1835   20.2658 H   0  0  0  0  0  0  0  0  0  0  0  0
   18.6089   17.6895   22.3805 C   0  0  0  0  0  0  0  0  0  0  0  0
   18.4015   16.6174   22.2551 H   0  0  0  0  0  0  0  0  0  0  0  0
   17.9521   18.0324   23.1924 H   0  0  0  0  0  0  0  0  0  0  0  0
   20.0914   17.8513   22.8032 C   0  0  0  0  0  0  0  0  0  0  0  0
   20.2602   17.2198   23.6855 H   0  0  0  0  0  0  0  0  0  0  0  0
   20.7539   17.4550   22.0236 H   0  0  0  0  0  0  0  0  0  0  0  0
   20.4995   19.2951   23.1780 C   0  0  0  0  0  0  0  0  0  0  0  0
   21.4200   19.2674   23.7665 H   0  0  0  0  0  0  0  0  0  0  0  0
   19.7182   19.7357   23.8025 H   0  0  0  0  0  0  0  0  0  0  0  0
   20.7488   20.2358   22.0095 N   0  3  0  0  0  0  0  0  0  0  0  0
   20.8247   21.2049   22.3562 H   0  0  0  0  0  0  0  0  0  0  0  0
   19.9359   20.2374   21.3778 H   0  0  0  0  0  0  0  0  0  0  0  0
   22.0181   19.8560   21.2549 C   0  0  0  0  0  0  0  0  0  0  0  0
   22.8653   19.8769   21.9437 H   0  0  0  0  0  0  0  0  0  0  0  0
   21.9059   18.8540   20.8365 H   0  0  0  0  0  0  0  0  0  0  0  0
   22.1826   20.5733   20.4479 H   0  0  0  0  0  0  0  0  0  0  0  0
  1  2  1  0  0  0  0
  1  3  1  0  0  0  0
  1  4  1  0  0  0  0
  1  5  1  0  0  0  0
  5  6  1  0  0  0  0
  5  7  1  0  0  0  0
  5  8  1  0  0  0  0
  8  9  1  0  0  0  0
  8 10  1  0  0  0  0
  8 11  1  0  0  0  0
 11 12  1  0  0  0  0
 11 13  1  0  0  0  0
 11 14  1  0  0  0  0
 14 15  1  0  0  0  0
 14 16  1  0  0  0  0
 14 17  1  0  0  0  0
 17 18  1  0  0  0  0
 17 19  1  0  0  0  0
 17 20  1  0  0  0  0
M  END
> <VConfSearch Rank>
928

> <Conf_Id>
55

> <Delta U+W>
2.745

> <U+W>
18.083

> <U>
72.490

> <W>
-54.407

> <W(PB)>
-56.269

> <W(SA)>
1.861

> <Valence>
2.738

> <Coulomb>
69.795

> <VdW>
-0.043

> <VdW6>
-5.333

> <VdW12>
5.290

> <Bond>
0.182

> <Angle>
1.135

> <Pdih>
1.422

> <Idih>
0.000

> <Tether>
0.000

$$$$
VeraChem MOL file


 20 19  0  0  0  0  0  0  0  0999 V2000     
   21.8273   18.1039   21.3919 C   0  0  0  0  0  0  0  0  0  0  0  0
   22.8728   17.8431   21.1820 H   0  0  0  0  0  0  0  0  0  0  0  0
   21.2319   17.1853   21.3078 H   0  0  0  0  0  0  0  0  0  0  0  0
   21.5094   18.8050   20.6119 H   0  0  0  0  0  0  0  0  0  0  0  0
   21.7037   18.7265   22.8013 C   0  0  0  0  0  0  0  0  0  0  0  0
   22.2139   19.6998   22.8190 H   0  0  0  0  0  0  0  0  0  0  0  0
   22.2447   18.0876   23.5134 H   0  0  0  0  0  0  0  0  0  0  0  0
   20.2469   18.8901   23.3051 C   0  0  0  0  0  0  0  0  0  0  0  0
   19.7483   17.9137   23.3486 H   0  0  0  0  0  0  0  0  0  0  0  0
   20.2881   19.2488   24.3420 H   0  0  0  0  0  0  0  0  0  0  0  0
   19.3959   19.8971   22.4966 C   0  0  0  0  0  0  0  0  0  0  0  0
   19.9930   20.7911   22.2998 H   0  0  0  0  0  0  0  0  0  0  0  0
   18.5318   20.1986   23.0939 H   0  0  0  0  0  0  0  0  0  0  0  0
   18.8603   19.3912   21.1663 N   0  3  0  0  0  0  0  0  0  0  0  0
   19.6311   19.0203   20.5934 H   0  0  0  0  0  0  0  0  0  0  0  0
   18.4764   20.1819   20.6254 H   0  0  0  0  0  0  0  0  0  0  0  0
   17.7820   18.3329   21.3708 C   0  0  0  0  0  0  0  0  0  0  0  0
   18.2109   17.4721   21.8872 H   0  0  0  0  0  0  0  0  0  0  0  0
   16.9714   18.7566   21.9675 H   0  0  0  0  0  0  0  0  0  0  0  0
   17.3975   18.0212   20.3971 H   0  0  0  0  0  0  0  0  0  0  0  0
  1  2  1  0  0  0  0
  1  3  1  0  0  0  0
  1  4  1  0  0  0  0
  1  5  1  0  0  0  0
  5  6  1  0  0  0  0
  5  7  1  0  0  0  0
  5  8  1  0  0  0  0
  8  9  1  0  0  0  0
  8 10  1  0  0  0  0
  8 11  1  0  0  0  0
 11 12  1  0  0  0  0
 11 13  1  0  0  0  0
 11 14  1  0  0  0  0
 14 15  1  0  0  0  0
 14 16  1  0  0  0  0
 14 17  1  0  0  0  0
 17 18  1  0  0  0  0
 17 19  1  0  0  0  0
 17 20  1  0  0  0  0
M  END
> <VConfSearch Rank>
929

> <Conf_Id>
76

> <Delta U+W>
2.799

> <U+W>
18.137

> <U>
72.490

> <W>
-54.353

> <W(PB)>
-56.201

> <W(SA)>
1.848

> <Valence>
2.738

> <Coulomb>
69.795

> <VdW>
-0.043

> <VdW6>
-5.334

> <VdW12>
5.290

> <Bond>
0.182

> <Angle>
1.135

> <Pdih>
1.421

> <Idih>
0.000

> <Tether>
0.000

$$$$
VeraChem MOL file


 20 19  0  0  0  0  0  0  0  0999 V2000     
   19.9807   19.2893   24.0600 C   0  0  0  0  0  0  0  0  0  0  0  0
   19.0440   19.4060   23.5013 H   0  0  0  0  0  0  0  0  0  0  0  0
   19.8480   18.4723   24.7811 H   0  0  0  0  0  0  0  0  0  0  0  0
   20.1450   20.2137   24.6286 H   0  0  0  0  0  0  0  0  0  0  0  0
   21.1763   19.0106   23.1201 C   0  0  0  0  0  0  0  0  0  0  0  0
   22.0967   18.9740   23.7196 H   0  0  0  0  0  0  0  0  0  0  0  0
   21.3098   19.8460   22.4208 H   0  0  0  0  0  0  0  0  0  0  0  0
   21.0394   17.6792   22.3416 C   0  0  0  0  0  0  0  0  0  0  0  0
   21.9372   17.5224   21.7293 H   0  0  0  0  0  0  0  0  0  0  0  0
   21.0193   16.8516   23.0628 H   0  0  0  0  0  0  0  0  0  0  0  0
   19.7872   17.5645   21.4408 C   0  0  0  0  0  0  0  0  0  0  0  0
   18.8780   17.7260   22.0245 H   0  0  0  0  0  0  0  0  0  0  0  0
   19.7503   16.5448   21.0490 H   0  0  0  0  0  0  0  0  0  0  0  0
   19.7574   18.4917   20.2348 N   0  3  0  0  0  0  0  0  0  0  0  0
   19.2455   18.0317   19.4659 H   0  0  0  0  0  0  0  0  0  0  0  0
   20.7101   18.6341   19.8677 H   0  0  0  0  0  0  0  0  0  0  0  0
   19.0827   19.8199   20.5603 C   0  0  0  0  0  0  0  0  0  0  0  0
   19.0580   20.4376   19.6599 H   0  0  0  0  0  0  0  0  0  0  0  0
   18.0630   19.6291   20.9017 H   0  0  0  0  0  0  0  0  0  0  0  0
   19.6414   20.3358   21.3418 H   0  0  0  0  0  0  0  0  0  0  0  0
  1  2  1  0  0  0  0
  1  3  1  0  0  0  0
  1  4  1  0  0  0  0
  1  5  1  0  0  0  0
  5  6  1  0  0  0  0
  5  7  1  0  0  0  0
  5  8  1  0  0  0  0
  8  9  1  0  0  0  0
  8 10  1  0  0  0  0
  8 11  1  0  0  0  0
 11 12  1  0  0  0  0
 11 13  1  0  0  0  0
 11 14  1  0  0  0  0
 14 15  1  0  0  0  0
 14 16  1  0  0  0  0
 14 17  1  0  0  0  0
 17 18  1  0  0  0  0
 17 19  1  0  0  0  0
 17 20  1  0  0  0  0
M  END
> <VConfSearch Rank>
930

> <Conf_Id>
60

> <Delta U+W>
1.788

> <U+W>
17.127

> <U>
72.122

> <W>
-54.995

> <W(PB)>
-56.810

> <W(SA)>
1.815

> <Valence>
3.197

> <Coulomb>
69.115

> <VdW>
-0.190

> <VdW6>
-5.585

> <VdW12>
5.395

> <Bond>
0.177

> <Angle>
1.207

> <Pdih>
1.813

> <Idih>
0.000

> <Tether>
0.000

$$$$
VeraChem MOL file


 20 19  0  0  0  0  0  0  0  0999 V2000     
   21.8295   17.7138   22.7696 C   0  0  0  0  0  0  0  0  0  0  0  0
   22.8581   17.5243   22.4367 H   0  0  0  0  0  0  0  0  0  0  0  0
   21.7344   17.3334   23.7949 H   0  0  0  0  0  0  0  0  0  0  0  0
   21.1602   17.1297   22.1262 H   0  0  0  0  0  0  0  0  0  0  0  0
   21.5086   19.2249   22.7067 C   0  0  0  0  0  0  0  0  0  0  0  0
   21.6300   19.5945   21.6803 H   0  0  0  0  0  0  0  0  0  0  0  0
   22.2493   19.7694   23.3089 H   0  0  0  0  0  0  0  0  0  0  0  0
   20.0936   19.5678   23.2337 C   0  0  0  0  0  0  0  0  0  0  0  0
   20.0369   19.2880   24.2940 H   0  0  0  0  0  0  0  0  0  0  0  0
   19.9477   20.6555   23.2019 H   0  0  0  0  0  0  0  0  0  0  0  0
   18.9250   18.8793   22.4900 C   0  0  0  0  0  0  0  0  0  0  0  0
   18.0037   19.1087   23.0315 H   0  0  0  0  0  0  0  0  0  0  0  0
   19.0505   17.7941   22.4987 H   0  0  0  0  0  0  0  0  0  0  0  0
   18.7046   19.3282   21.0531 N   0  3  0  0  0  0  0  0  0  0  0  0
   18.9327   20.3282   20.9503 H   0  0  0  0  0  0  0  0  0  0  0  0
   17.6996   19.2634   20.8279 H   0  0  0  0  0  0  0  0  0  0  0  0
   19.4938   18.4735   20.0672 C   0  0  0  0  0  0  0  0  0  0  0  0
   19.1912   17.4299   20.1762 H   0  0  0  0  0  0  0  0  0  0  0  0
   19.2809   18.8125   19.0510 H   0  0  0  0  0  0  0  0  0  0  0  0
   20.5613   18.5695   20.2680 H   0  0  0  0  0  0  0  0  0  0  0  0
  1  2  1  0  0  0  0
  1  3  1  0  0  0  0
  1  4  1  0  0  0  0
  1  5  1  0  0  0  0
  5  6  1  0  0  0  0
  5  7  1  0  0  0  0
  5  8  1  0  0  0  0
  8  9  1  0  0  0  0
  8 10  1  0  0  0  0
  8 11  1  0  0  0  0
 11 12  1  0  0  0  0
 11 13  1  0  0  0  0
 11 14  1  0  0  0  0
 14 15  1  0  0  0  0
 14 16  1  0  0  0  0
 14 17  1  0  0  0  0
 17 18  1  0  0  0  0
 17 19  1  0  0  0  0
 17 20  1  0  0  0  0
M  END
> <VConfSearch Rank>
931

> <Conf_Id>
54

> <Delta U+W>
1.880

> <U+W>
17.218

> <U>
72.122

> <W>
-54.903

> <W(PB)>
-56.724

> <W(SA)>
1.821

> <Valence>
3.197

> <Coulomb>
69.115

> <VdW>
-0.190

> <VdW6>
-5.585

> <VdW12>
5.395

> <Bond>
0.177

> <Angle>
1.207

> <Pdih>
1.813

> <Idih>
0.000

> <Tether>
0.000

$$$$
VeraChem MOL file


 20 19  0  0  0  0  0  0  0  0999 V2000     
   22.6556   20.2739   20.8214 C   0  0  0  0  0  0  0  0  0  0  0  0
   23.3954   19.7586   21.4478 H   0  0  0  0  0  0  0  0  0  0  0  0
   23.1006   20.4219   19.8289 H   0  0  0  0  0  0  0  0  0  0  0  0
   22.4695   21.2641   21.2573 H   0  0  0  0  0  0  0  0  0  0  0  0
   21.3493   19.4572   20.7174 C   0  0  0  0  0  0  0  0  0  0  0  0
   21.5618   18.4870   20.2463 H   0  0  0  0  0  0  0  0  0  0  0  0
   20.6431   19.9807   20.0574 H   0  0  0  0  0  0  0  0  0  0  0  0
   20.7002   19.2330   22.1009 C   0  0  0  0  0  0  0  0  0  0  0  0
   21.4051   18.7069   22.7585 H   0  0  0  0  0  0  0  0  0  0  0  0
   20.4852   20.2027   22.5694 H   0  0  0  0  0  0  0  0  0  0  0  0
   19.3983   18.4182   21.9887 C   0  0  0  0  0  0  0  0  0  0  0  0
   19.6113   17.4461   21.5369 H   0  0  0  0  0  0  0  0  0  0  0  0
   18.6885   18.9467   21.3474 H   0  0  0  0  0  0  0  0  0  0  0  0
   18.7246   18.1727   23.3247 N   0  3  0  0  0  0  0  0  0  0  0  0
   18.5136   19.0700   23.7879 H   0  0  0  0  0  0  0  0  0  0  0  0
   19.3680   17.6805   23.9634 H   0  0  0  0  0  0  0  0  0  0  0  0
   17.4503   17.3636   23.1231 C   0  0  0  0  0  0  0  0  0  0  0  0
   17.7014   16.4051   22.6637 H   0  0  0  0  0  0  0  0  0  0  0  0
   16.9758   17.1942   24.0923 H   0  0  0  0  0  0  0  0  0  0  0  0
   16.7707   17.9185   22.4727 H   0  0  0  0  0  0  0  0  0  0  0  0
  1  2  1  0  0  0  0
  1  3  1  0  0  0  0
  1  4  1  0  0  0  0
  1  5  1  0  0  0  0
  5  6  1  0  0  0  0
  5  7  1  0  0  0  0
  5  8  1  0  0  0  0
  8  9  1  0  0  0  0
  8 10  1  0  0  0  0
  8 11  1  0  0  0  0
 11 12  1  0  0  0  0
 11 13  1  0  0  0  0
 11 14  1  0  0  0  0
 14 15  1  0  0  0  0
 14 16  1  0  0  0  0
 14 17  1  0  0  0  0
 17 18  1  0  0  0  0
 17 19  1  0  0  0  0
 17 20  1  0  0  0  0
M  END
> <VConfSearch Rank>
932

> <Conf_Id>
67

> <Delta U+W>
0.000

> <U+W>
15.338

> <U>
69.277

> <W>
-53.939

> <W(PB)>
-55.889

> <W(SA)>
1.950

> <Valence>
0.846

> <Coulomb>
68.557

> <VdW>
-0.127

> <VdW6>
-3.008

> <VdW12>
2.882

> <Bond>
0.088

> <Angle>
0.332

> <Pdih>
0.426

> <Idih>
0.000

> <Tether>
0.000

$$$$
VeraChem MOL file


 20 19  0  0  0  0  0  0  0  0999 V2000     
   17.6105   19.0697   23.6868 C   0  0  0  0  0  0  0  0  0  0  0  0
   17.0152   19.3244   22.8003 H   0  0  0  0  0  0  0  0  0  0  0  0
   16.9761   18.4767   24.3584 H   0  0  0  0  0  0  0  0  0  0  0  0
   17.8682   20.0026   24.2048 H   0  0  0  0  0  0  0  0  0  0  0  0
   18.8794   18.2809   23.2971 C   0  0  0  0  0  0  0  0  0  0  0  0
   18.5888   17.3380   22.8125 H   0  0  0  0  0  0  0  0  0  0  0  0
   19.4348   18.0104   24.2064 H   0  0  0  0  0  0  0  0  0  0  0  0
   19.7924   19.0919   22.3514 C   0  0  0  0  0  0  0  0  0  0  0  0
   19.2338   19.3596   21.4453 H   0  0  0  0  0  0  0  0  0  0  0  0
   20.0857   20.0315   22.8379 H   0  0  0  0  0  0  0  0  0  0  0  0
   21.0576   18.2964   21.9691 C   0  0  0  0  0  0  0  0  0  0  0  0
   20.7757   17.3821   21.4408 H   0  0  0  0  0  0  0  0  0  0  0  0
   21.5857   18.0099   22.8822 H   0  0  0  0  0  0  0  0  0  0  0  0
   22.0437   19.0563   21.0967 N   0  3  0  0  0  0  0  0  0  0  0  0
   22.9239   18.5222   21.0252 H   0  0  0  0  0  0  0  0  0  0  0  0
   22.3099   19.9444   21.5485 H   0  0  0  0  0  0  0  0  0  0  0  0
   21.4750   19.3049   19.7038 C   0  0  0  0  0  0  0  0  0  0  0  0
   20.5809   19.9264   19.7825 H   0  0  0  0  0  0  0  0  0  0  0  0
   22.2250   19.8179   19.0976 H   0  0  0  0  0  0  0  0  0  0  0  0
   21.2215   18.3479   19.2428 H   0  0  0  0  0  0  0  0  0  0  0  0
  1  2  1  0  0  0  0
  1  3  1  0  0  0  0
  1  4  1  0  0  0  0
  1  5  1  0  0  0  0
  5  6  1  0  0  0  0
  5  7  1  0  0  0  0
  5  8  1  0  0  0  0
  8  9  1  0  0  0  0
  8 10  1  0  0  0  0
  8 11  1  0  0  0  0
 11 12  1  0  0  0  0
 11 13  1  0  0  0  0
 11 14  1  0  0  0  0
 14 15  1  0  0  0  0
 14 16  1  0  0  0  0
 14 17  1  0  0  0  0
 17 18  1  0  0  0  0
 17 19  1  0  0  0  0
 17 20  1  0  0  0  0
M  END
> <VConfSearch Rank>
933

> <Conf_Id>
37

> <Delta U+W>
-0.021

> <U+W>
15.318

> <U>
69.657

> <W>
-54.340

> <W(PB)>
-56.238

> <W(SA)>
1.899

> <Valence>
1.137

> <Coulomb>
68.383

> <VdW>
0.138

> <VdW6>
-3.703

> <VdW12>
3.841

> <Bond>
0.125

> <Angle>
0.468

> <Pdih>
0.543

> <Idih>
0.000

> <Tether>
0.000

$$$$
VeraChem MOL file


 20 19  0  0  0  0  0  0  0  0999 V2000     
   19.0769   16.0396   21.1709 C   0  0  0  0  0  0  0  0  0  0  0  0
   18.1812   15.4072   21.1188 H   0  0  0  0  0  0  0  0  0  0  0  0
   19.4175   16.2253   20.1439 H   0  0  0  0  0  0  0  0  0  0  0  0
   19.8588   15.4726   21.6928 H   0  0  0  0  0  0  0  0  0  0  0  0
   18.7679   17.3638   21.9026 C   0  0  0  0  0  0  0  0  0  0  0  0
   18.3966   17.1443   22.9136 H   0  0  0  0  0  0  0  0  0  0  0  0
   17.9594   17.8914   21.3769 H   0  0  0  0  0  0  0  0  0  0  0  0
   20.0118   18.2751   21.9914 C   0  0  0  0  0  0  0  0  0  0  0  0
   20.8175   17.7491   22.5203 H   0  0  0  0  0  0  0  0  0  0  0  0
   20.3790   18.4916   20.9799 H   0  0  0  0  0  0  0  0  0  0  0  0
   19.6936   19.5944   22.7250 C   0  0  0  0  0  0  0  0  0  0  0  0
   19.2997   19.3619   23.7177 H   0  0  0  0  0  0  0  0  0  0  0  0
   18.9261   20.1475   22.1779 H   0  0  0  0  0  0  0  0  0  0  0  0
   20.8874   20.5156   22.9172 N   0  3  0  0  0  0  0  0  0  0  0  0
   21.6485   20.0177   23.4035 H   0  0  0  0  0  0  0  0  0  0  0  0
   20.6290   21.2874   23.5521 H   0  0  0  0  0  0  0  0  0  0  0  0
   21.3719   21.0810   21.5864 C   0  0  0  0  0  0  0  0  0  0  0  0
   20.5525   21.6188   21.1046 H   0  0  0  0  0  0  0  0  0  0  0  0
   22.2033   21.7652   21.7699 H   0  0  0  0  0  0  0  0  0  0  0  0
   21.7059   20.2632   20.9449 H   0  0  0  0  0  0  0  0  0  0  0  0
  1  2  1  0  0  0  0
  1  3  1  0  0  0  0
  1  4  1  0  0  0  0
  1  5  1  0  0  0  0
  5  6  1  0  0  0  0
  5  7  1  0  0  0  0
  5  8  1  0  0  0  0
  8  9  1  0  0  0  0
  8 10  1  0  0  0  0
  8 11  1  0  0  0  0
 11 12  1  0  0  0  0
 11 13  1  0  0  0  0
 11 14  1  0  0  0  0
 14 15  1  0  0  0  0
 14 16  1  0  0  0  0
 14 17  1  0  0  0  0
 17 18  1  0  0  0  0
 17 19  1  0  0  0  0
 17 20  1  0  0  0  0
M  END
> <VConfSearch Rank>
934

> <Conf_Id>
2

> <Delta U+W>
0.069

> <U+W>
15.407

> <U>
69.657

> <W>
-54.250

> <W(PB)>
-56.176

> <W(SA)>
1.926

> <Valence>
1.137

> <Coulomb>
68.383

> <VdW>
0.138

> <VdW6>
-3.703

> <VdW12>
3.841

> <Bond>
0.125

> <Angle>
0.468

> <Pdih>
0.543

> <Idih>
0.000

> <Tether>
0.000

$$$$
VeraChem MOL file


 20 19  0  0  0  0  0  0  0  0999 V2000     
   19.5969   16.3056   23.0040 C   0  0  0  0  0  0  0  0  0  0  0  0
   19.5913   17.0608   23.8001 H   0  0  0  0  0  0  0  0  0  0  0  0
   18.5730   16.2026   22.6218 H   0  0  0  0  0  0  0  0  0  0  0  0
   19.8821   15.3481   23.4589 H   0  0  0  0  0  0  0  0  0  0  0  0
   20.5791   16.6812   21.8706 C   0  0  0  0  0  0  0  0  0  0  0  0
   20.6215   15.8565   21.1452 H   0  0  0  0  0  0  0  0  0  0  0  0
   21.5938   16.7840   22.2805 H   0  0  0  0  0  0  0  0  0  0  0  0
   20.1813   17.9803   21.1315 C   0  0  0  0  0  0  0  0  0  0  0  0
   20.8747   18.1423   20.2956 H   0  0  0  0  0  0  0  0  0  0  0  0
   19.1815   17.8629   20.6930 H   0  0  0  0  0  0  0  0  0  0  0  0
   20.2012   19.2167   22.0515 C   0  0  0  0  0  0  0  0  0  0  0  0
   21.1970   19.3347   22.4860 H   0  0  0  0  0  0  0  0  0  0  0  0
   19.4849   19.0817   22.8654 H   0  0  0  0  0  0  0  0  0  0  0  0
   19.8498   20.5057   21.3350 N   0  3  0  0  0  0  0  0  0  0  0  0
   18.9168   20.4298   20.9017 H   0  0  0  0  0  0  0  0  0  0  0  0
   20.5018   20.6679   20.5523 H   0  0  0  0  0  0  0  0  0  0  0  0
   19.8905   21.6717   22.3137 C   0  0  0  0  0  0  0  0  0  0  0  0
   20.8953   21.7542   22.7337 H   0  0  0  0  0  0  0  0  0  0  0  0
   19.6358   22.5929   21.7850 H   0  0  0  0  0  0  0  0  0  0  0  0
   19.1687   21.4952   23.1141 H   0  0  0  0  0  0  0  0  0  0  0  0
  1  2  1  0  0  0  0
  1  3  1  0  0  0  0
  1  4  1  0  0  0  0
  1  5  1  0  0  0  0
  5  6  1  0  0  0  0
  5  7  1  0  0  0  0
  5  8  1  0  0  0  0
  8  9  1  0  0  0  0
  8 10  1  0  0  0  0
  8 11  1  0  0  0  0
 11 12  1  0  0  0  0
 11 13  1  0  0  0  0
 11 14  1  0  0  0  0
 14 15  1  0  0  0  0
 14 16  1  0  0  0  0
 14 17  1  0  0  0  0
 17 18  1  0  0  0  0
 17 19  1  0  0  0  0
 17 20  1  0  0  0  0
M  END
> <VConfSearch Rank>
935

> <Conf_Id>
34

> <Delta U+W>
0.276

> <U+W>
15.615

> <U>
69.798

> <W>
-54.184

> <W(PB)>
-56.116

> <W(SA)>
1.933

> <Valence>
1.134

> <Coulomb>
68.735

> <VdW>
-0.070

> <VdW6>
-3.565

> <VdW12>
3.494

> <Bond>
0.108

> <Angle>
0.456

> <Pdih>
0.569

> <Idih>
0.000

> <Tether>
0.000

$$$$
VeraChem MOL file


 20 19  0  0  0  0  0  0  0  0999 V2000     
   21.4953   16.3591   23.0635 C   0  0  0  0  0  0  0  0  0  0  0  0
   22.2521   16.6851   23.7889 H   0  0  0  0  0  0  0  0  0  0  0  0
   21.0121   15.4586   23.4642 H   0  0  0  0  0  0  0  0  0  0  0  0
   22.0103   16.0794   22.1352 H   0  0  0  0  0  0  0  0  0  0  0  0
   20.4536   17.4699   22.8086 C   0  0  0  0  0  0  0  0  0  0  0  0
   19.9342   17.7047   23.7485 H   0  0  0  0  0  0  0  0  0  0  0  0
   19.6926   17.0945   22.1111 H   0  0  0  0  0  0  0  0  0  0  0  0
   21.1100   18.7512   22.2424 C   0  0  0  0  0  0  0  0  0  0  0  0
   21.8944   19.0916   22.9313 H   0  0  0  0  0  0  0  0  0  0  0  0
   21.6071   18.5300   21.2885 H   0  0  0  0  0  0  0  0  0  0  0  0
   20.1029   19.9019   22.0444 C   0  0  0  0  0  0  0  0  0  0  0  0
   20.6391   20.8009   21.7299 H   0  0  0  0  0  0  0  0  0  0  0  0
   19.6020   20.1186   22.9912 H   0  0  0  0  0  0  0  0  0  0  0  0
   19.0361   19.6183   21.0036 N   0  3  0  0  0  0  0  0  0  0  0  0
   18.5022   18.7754   21.2623 H   0  0  0  0  0  0  0  0  0  0  0  0
   19.4743   19.3985   20.0960 H   0  0  0  0  0  0  0  0  0  0  0  0
   18.1071   20.8177   20.8716 C   0  0  0  0  0  0  0  0  0  0  0  0
   17.6299   21.0111   21.8348 H   0  0  0  0  0  0  0  0  0  0  0  0
   18.6877   21.6905   20.5650 H   0  0  0  0  0  0  0  0  0  0  0  0
   17.3448   20.6003   20.1201 H   0  0  0  0  0  0  0  0  0  0  0  0
  1  2  1  0  0  0  0
  1  3  1  0  0  0  0
  1  4  1  0  0  0  0
  1  5  1  0  0  0  0
  5  6  1  0  0  0  0
  5  7  1  0  0  0  0
  5  8  1  0  0  0  0
  8  9  1  0  0  0  0
  8 10  1  0  0  0  0
  8 11  1  0  0  0  0
 11 12  1  0  0  0  0
 11 13  1  0  0  0  0
 11 14  1  0  0  0  0
 14 15  1  0  0  0  0
 14 16  1  0  0  0  0
 14 17  1  0  0  0  0
 17 18  1  0  0  0  0
 17 19  1  0  0  0  0
 17 20  1  0  0  0  0
M  END
> <VConfSearch Rank>
936

> <Conf_Id>
50

> <Delta U+W>
0.319

> <U+W>
15.657

> <U>
69.962

> <W>
-54.305

> <W(PB)>
-56.223

> <W(SA)>
1.918

> <Valence>
0.982

> <Coulomb>
69.058

> <VdW>
-0.078

> <VdW6>
-3.548

> <VdW12>
3.471

> <Bond>
0.105

> <Angle>
0.408

> <Pdih>
0.469

> <Idih>
0.000

> <Tether>
0.000

$$$$
VeraChem MOL file


 20 19  0  0  0  0  0  0  0  0999 V2000     
   21.2602   21.3876   23.1496 C   0  0  0  0  0  0  0  0  0  0  0  0
   22.2923   21.7268   22.9919 H   0  0  0  0  0  0  0  0  0  0  0  0
   20.5919   22.2274   22.9191 H   0  0  0  0  0  0  0  0  0  0  0  0
   21.1459   21.1423   24.2135 H   0  0  0  0  0  0  0  0  0  0  0  0
   20.9456   20.1654   22.2601 C   0  0  0  0  0  0  0  0  0  0  0  0
   21.6580   19.3616   22.4902 H   0  0  0  0  0  0  0  0  0  0  0  0
   21.0996   20.4334   21.2052 H   0  0  0  0  0  0  0  0  0  0  0  0
   19.4954   19.6670   22.4643 C   0  0  0  0  0  0  0  0  0  0  0  0
   19.3424   19.3707   23.5106 H   0  0  0  0  0  0  0  0  0  0  0  0
   18.7975   20.4920   22.2686 H   0  0  0  0  0  0  0  0  0  0  0  0
   19.1309   18.4906   21.5366 C   0  0  0  0  0  0  0  0  0  0  0  0
   19.2891   18.7814   20.4951 H   0  0  0  0  0  0  0  0  0  0  0  0
   18.0736   18.2444   21.6639 H   0  0  0  0  0  0  0  0  0  0  0  0
   19.9290   17.2268   21.7970 N   0  3  0  0  0  0  0  0  0  0  0  0
   19.8113   16.9277   22.7772 H   0  0  0  0  0  0  0  0  0  0  0  0
   20.9366   17.4135   21.6858 H   0  0  0  0  0  0  0  0  0  0  0  0
   19.4830   16.1251   20.8451 C   0  0  0  0  0  0  0  0  0  0  0  0
   20.0650   15.2223   21.0431 H   0  0  0  0  0  0  0  0  0  0  0  0
   18.4218   15.9209   21.0031 H   0  0  0  0  0  0  0  0  0  0  0  0
   19.6473   16.4506   19.8156 H   0  0  0  0  0  0  0  0  0  0  0  0
  1  2  1  0  0  0  0
  1  3  1  0  0  0  0
  1  4  1  0  0  0  0
  1  5  1  0  0  0  0
  5  6  1  0  0  0  0
  5  7  1  0  0  0  0
  5  8  1  0  0  0  0
  8  9  1  0  0  0  0
  8 10  1  0  0  0  0
  8 11  1  0  0  0  0
 11 12  1  0  0  0  0
 11 13  1  0  0  0  0
 11 14  1  0  0  0  0
 14 15  1  0  0  0  0
 14 16  1  0  0  0  0
 14 17  1  0  0  0  0
 17 18  1  0  0  0  0
 17 19  1  0  0  0  0
 17 20  1  0  0  0  0
M  END
> <VConfSearch Rank>
937

> <Conf_Id>
35

> <Delta U+W>
0.360

> <U+W>
15.698

> <U>
69.962

> <W>
-54.264

> <W(PB)>
-56.166

> <W(SA)>
1.902

> <Valence>
0.982

> <Coulomb>
69.058

> <VdW>
-0.078

> <VdW6>
-3.548

> <VdW12>
3.471

> <Bond>
0.105

> <Angle>
0.408

> <Pdih>
0.469

> <Idih>
0.000

> <Tether>
0.000

$$$$
VeraChem MOL file


 20 19  0  0  0  0  0  0  0  0999 V2000     
   21.6473   17.9930   20.1336 C   0  0  0  0  0  0  0  0  0  0  0  0
   21.8281   17.2749   20.9433 H   0  0  0  0  0  0  0  0  0  0  0  0
   22.0196   17.5437   19.2038 H   0  0  0  0  0  0  0  0  0  0  0  0
   22.2445   18.8923   20.3331 H   0  0  0  0  0  0  0  0  0  0  0  0
   20.1460   18.3392   20.0054 C   0  0  0  0  0  0  0  0  0  0  0  0
   19.5710   17.4228   19.8112 H   0  0  0  0  0  0  0  0  0  0  0  0
   20.0007   18.9862   19.1288 H   0  0  0  0  0  0  0  0  0  0  0  0
   19.5822   19.0533   21.2560 C   0  0  0  0  0  0  0  0  0  0  0  0
   20.1358   19.9863   21.4229 H   0  0  0  0  0  0  0  0  0  0  0  0
   18.5385   19.3363   21.0661 H   0  0  0  0  0  0  0  0  0  0  0  0
   19.6440   18.1701   22.5208 C   0  0  0  0  0  0  0  0  0  0  0  0
   20.6839   17.9359   22.7606 H   0  0  0  0  0  0  0  0  0  0  0  0
   19.1224   17.2303   22.3227 H   0  0  0  0  0  0  0  0  0  0  0  0
   19.0091   18.7886   23.7556 N   0  3  0  0  0  0  0  0  0  0  0  0
   18.9448   18.0796   24.5028 H   0  0  0  0  0  0  0  0  0  0  0  0
   18.0323   19.0552   23.5599 H   0  0  0  0  0  0  0  0  0  0  0  0
   19.8110   19.9884   24.2484 C   0  0  0  0  0  0  0  0  0  0  0  0
   19.8190   20.7609   23.4770 H   0  0  0  0  0  0  0  0  0  0  0  0
   19.3459   20.3813   25.1552 H   0  0  0  0  0  0  0  0  0  0  0  0
   20.8333   19.6724   24.4668 H   0  0  0  0  0  0  0  0  0  0  0  0
  1  2  1  0  0  0  0
  1  3  1  0  0  0  0
  1  4  1  0  0  0  0
  1  5  1  0  0  0  0
  5  6  1  0  0  0  0
  5  7  1  0  0  0  0
  5  8  1  0  0  0  0
  8  9  1  0  0  0  0
  8 10  1  0  0  0  0
  8 11  1  0  0  0  0
 11 12  1  0  0  0  0
 11 13  1  0  0  0  0
 11 14  1  0  0  0  0
 14 15  1  0  0  0  0
 14 16  1  0  0  0  0
 14 17  1  0  0  0  0
 17 18  1  0  0  0  0
 17 19  1  0  0  0  0
 17 20  1  0  0  0  0
M  END
> <VConfSearch Rank>
938

> <Conf_Id>
33

> <Delta U+W>
0.372

> <U+W>
15.711

> <U>
70.163

> <W>
-54.452

> <W(PB)>
-56.363

> <W(SA)>
1.911

> <Valence>
1.420

> <Coulomb>
68.566

> <VdW>
0.177

> <VdW6>
-4.267

> <VdW12>
4.445

> <Bond>
0.146

> <Angle>
0.581

> <Pdih>
0.693

> <Idih>
0.000

> <Tether>
0.000

$$$$
VeraChem MOL file


 20 19  0  0  0  0  0  0  0  0999 V2000     
   20.0313   16.7906   23.5861 C   0  0  0  0  0  0  0  0  0  0  0  0
   19.7325   15.8310   24.0274 H   0  0  0  0  0  0  0  0  0  0  0  0
   20.9210   16.6085   22.9702 H   0  0  0  0  0  0  0  0  0  0  0  0
   20.3143   17.4627   24.4067 H   0  0  0  0  0  0  0  0  0  0  0  0
   18.8746   17.3873   22.7518 C   0  0  0  0  0  0  0  0  0  0  0  0
   17.9798   17.4672   23.3849 H   0  0  0  0  0  0  0  0  0  0  0  0
   18.6146   16.6987   21.9355 H   0  0  0  0  0  0  0  0  0  0  0  0
   19.2059   18.7822   22.1716 C   0  0  0  0  0  0  0  0  0  0  0  0
   18.3184   19.1763   21.6593 H   0  0  0  0  0  0  0  0  0  0  0  0
   19.4281   19.4748   22.9935 H   0  0  0  0  0  0  0  0  0  0  0  0
   20.3876   18.7455   21.1788 C   0  0  0  0  0  0  0  0  0  0  0  0
   20.1655   18.0224   20.3899 H   0  0  0  0  0  0  0  0  0  0  0  0
   21.2948   18.4182   21.6923 H   0  0  0  0  0  0  0  0  0  0  0  0
   20.6879   20.0739   20.5038 N   0  3  0  0  0  0  0  0  0  0  0  0
   19.8440   20.4347   20.0334 H   0  0  0  0  0  0  0  0  0  0  0  0
   21.3718   19.9288   19.7446 H   0  0  0  0  0  0  0  0  0  0  0  0
   21.2304   21.0917   21.5014 C   0  0  0  0  0  0  0  0  0  0  0  0
   21.4684   22.0179   20.9737 H   0  0  0  0  0  0  0  0  0  0  0  0
   20.4754   21.2892   22.2649 H   0  0  0  0  0  0  0  0  0  0  0  0
   22.1333   20.6918   21.9679 H   0  0  0  0  0  0  0  0  0  0  0  0
  1  2  1  0  0  0  0
  1  3  1  0  0  0  0
  1  4  1  0  0  0  0
  1  5  1  0  0  0  0
  5  6  1  0  0  0  0
  5  7  1  0  0  0  0
  5  8  1  0  0  0  0
  8  9  1  0  0  0  0
  8 10  1  0  0  0  0
  8 11  1  0  0  0  0
 11 12  1  0  0  0  0
 11 13  1  0  0  0  0
 11 14  1  0  0  0  0
 14 15  1  0  0  0  0
 14 16  1  0  0  0  0
 14 17  1  0  0  0  0
 17 18  1  0  0  0  0
 17 19  1  0  0  0  0
 17 20  1  0  0  0  0
M  END
> <VConfSearch Rank>
939

> <Conf_Id>
53

> <Delta U+W>
0.379

> <U+W>
15.717

> <U>
70.163

> <W>
-54.446

> <W(PB)>
-56.322

> <W(SA)>
1.876

> <Valence>
1.420

> <Coulomb>
68.566

> <VdW>
0.177

> <VdW6>
-4.267

> <VdW12>
4.445

> <Bond>
0.146

> <Angle>
0.581

> <Pdih>
0.693

> <Idih>
0.000

> <Tether>
0.000

$$$$
VeraChem MOL file


 20 19  0  0  0  0  0  0  0  0999 V2000     
   22.5913   19.5098   23.1028 C   0  0  0  0  0  0  0  0  0  0  0  0
   22.8952   20.4662   23.5477 H   0  0  0  0  0  0  0  0  0  0  0  0
   22.9801   18.7045   23.7396 H   0  0  0  0  0  0  0  0  0  0  0  0
   23.0715   19.4291   22.1189 H   0  0  0  0  0  0  0  0  0  0  0  0
   21.0544   19.4291   22.9795 C   0  0  0  0  0  0  0  0  0  0  0  0
   20.6991   20.2704   22.3691 H   0  0  0  0  0  0  0  0  0  0  0  0
   20.6023   19.5447   23.9747 H   0  0  0  0  0  0  0  0  0  0  0  0
   20.5997   18.0901   22.3526 C   0  0  0  0  0  0  0  0  0  0  0  0
   21.0266   17.9819   21.3472 H   0  0  0  0  0  0  0  0  0  0  0  0
   20.9981   17.2574   22.9472 H   0  0  0  0  0  0  0  0  0  0  0  0
   19.0627   17.9482   22.2882 C   0  0  0  0  0  0  0  0  0  0  0  0
   18.6589   18.0005   23.3025 H   0  0  0  0  0  0  0  0  0  0  0  0
   18.8042   16.9699   21.8752 H   0  0  0  0  0  0  0  0  0  0  0  0
   18.3448   19.0019   21.4582 N   0  3  0  0  0  0  0  0  0  0  0  0
   18.5641   19.9444   21.8128 H   0  0  0  0  0  0  0  0  0  0  0  0
   17.3250   18.9025   21.5820 H   0  0  0  0  0  0  0  0  0  0  0  0
   18.7017   18.8821   19.9806 C   0  0  0  0  0  0  0  0  0  0  0  0
   18.4410   17.8820   19.6279 H   0  0  0  0  0  0  0  0  0  0  0  0
   18.1408   19.6295   19.4152 H   0  0  0  0  0  0  0  0  0  0  0  0
   19.7724   19.0529   19.8519 H   0  0  0  0  0  0  0  0  0  0  0  0
  1  2  1  0  0  0  0
  1  3  1  0  0  0  0
  1  4  1  0  0  0  0
  1  5  1  0  0  0  0
  5  6  1  0  0  0  0
  5  7  1  0  0  0  0
  5  8  1  0  0  0  0
  8  9  1  0  0  0  0
  8 10  1  0  0  0  0
  8 11  1  0  0  0  0
 11 12  1  0  0  0  0
 11 13  1  0  0  0  0
 11 14  1  0  0  0  0
 14 15  1  0  0  0  0
 14 16  1  0  0  0  0
 14 17  1  0  0  0  0
 17 18  1  0  0  0  0
 17 19  1  0  0  0  0
 17 20  1  0  0  0  0
M  END
> <VConfSearch Rank>
940

> <Conf_Id>
49

> <Delta U+W>
0.268

> <U+W>
15.607

> <U>
70.298

> <W>
-54.692

> <W(PB)>
-56.576

> <W(SA)>
1.885

> <Valence>
1.245

> <Coulomb>
68.933

> <VdW>
0.120

> <VdW6>
-4.430

> <VdW12>
4.550

> <Bond>
0.148

> <Angle>
0.587

> <Pdih>
0.509

> <Idih>
0.000

> <Tether>
0.000

$$$$
VeraChem MOL file


 20 19  0  0  0  0  0  0  0  0999 V2000     
   17.7017   17.3209   22.3460 C   0  0  0  0  0  0  0  0  0  0  0  0
   17.0483   18.0829   22.7904 H   0  0  0  0  0  0  0  0  0  0  0  0
   17.2726   17.0243   21.3800 H   0  0  0  0  0  0  0  0  0  0  0  0
   17.6883   16.4418   23.0033 H   0  0  0  0  0  0  0  0  0  0  0  0
   19.1411   17.8532   22.1763 C   0  0  0  0  0  0  0  0  0  0  0  0
   19.7766   17.0608   21.7564 H   0  0  0  0  0  0  0  0  0  0  0  0
   19.5462   18.1004   23.1665 H   0  0  0  0  0  0  0  0  0  0  0  0
   19.1867   19.0999   21.2624 C   0  0  0  0  0  0  0  0  0  0  0  0
   18.6738   18.8713   20.3187 H   0  0  0  0  0  0  0  0  0  0  0  0
   18.6251   19.9214   21.7265 H   0  0  0  0  0  0  0  0  0  0  0  0
   20.6151   19.5825   20.9223 C   0  0  0  0  0  0  0  0  0  0  0  0
   20.5304   20.4202   20.2252 H   0  0  0  0  0  0  0  0  0  0  0  0
   21.1747   18.7895   20.4200 H   0  0  0  0  0  0  0  0  0  0  0  0
   21.4406   20.0760   22.1005 N   0  3  0  0  0  0  0  0  0  0  0  0
   20.8324   20.5176   22.8062 H   0  0  0  0  0  0  0  0  0  0  0  0
   22.0683   20.8313   21.7836 H   0  0  0  0  0  0  0  0  0  0  0  0
   22.2748   18.9520   22.7065 C   0  0  0  0  0  0  0  0  0  0  0  0
   22.8677   19.3526   23.5317 H   0  0  0  0  0  0  0  0  0  0  0  0
   21.6190   18.1633   23.0769 H   0  0  0  0  0  0  0  0  0  0  0  0
   22.9399   18.5473   21.9407 H   0  0  0  0  0  0  0  0  0  0  0  0
  1  2  1  0  0  0  0
  1  3  1  0  0  0  0
  1  4  1  0  0  0  0
  1  5  1  0  0  0  0
  5  6  1  0  0  0  0
  5  7  1  0  0  0  0
  5  8  1  0  0  0  0
  8  9  1  0  0  0  0
  8 10  1  0  0  0  0
  8 11  1  0  0  0  0
 11 12  1  0  0  0  0
 11 13  1  0  0  0  0
 11 14  1  0  0  0  0
 14 15  1  0  0  0  0
 14 16  1  0  0  0  0
 14 17  1  0  0  0  0
 17 18  1  0  0  0  0
 17 19  1  0  0  0  0
 17 20  1  0  0  0  0
M  END
> <VConfSearch Rank>
941

> <Conf_Id>
65

> <Delta U+W>
1.775

> <U+W>
17.114

> <U>
71.726

> <W>
-54.613

> <W(PB)>
-56.495

> <W(SA)>
1.883

> <Valence>
2.885

> <Coulomb>
68.822

> <VdW>
0.019

> <VdW6>
-4.600

> <VdW12>
4.619

> <Bond>
0.152

> <Angle>
0.862

> <Pdih>
1.871

> <Idih>
0.000

> <Tether>
0.000

$$$$
VeraChem MOL file


 20 19  0  0  0  0  0  0  0  0999 V2000     
   18.0475   19.0621   23.2060 C   0  0  0  0  0  0  0  0  0  0  0  0
   18.6999   18.2478   23.5455 H   0  0  0  0  0  0  0  0  0  0  0  0
   17.6423   19.5553   24.0990 H   0  0  0  0  0  0  0  0  0  0  0  0
   17.2056   18.6203   22.6571 H   0  0  0  0  0  0  0  0  0  0  0  0
   18.8132   20.0770   22.3263 C   0  0  0  0  0  0  0  0  0  0  0  0
   19.6486   20.5048   22.8972 H   0  0  0  0  0  0  0  0  0  0  0  0
   18.1468   20.9182   22.0894 H   0  0  0  0  0  0  0  0  0  0  0  0
   19.3311   19.4631   21.0016 C   0  0  0  0  0  0  0  0  0  0  0  0
   18.4753   19.1339   20.3976 H   0  0  0  0  0  0  0  0  0  0  0  0
   19.8390   20.2393   20.4139 H   0  0  0  0  0  0  0  0  0  0  0  0
   20.2864   18.2669   21.1952 C   0  0  0  0  0  0  0  0  0  0  0  0
   20.5789   17.8750   20.2178 H   0  0  0  0  0  0  0  0  0  0  0  0
   19.7733   17.4706   21.7395 H   0  0  0  0  0  0  0  0  0  0  0  0
   21.5557   18.6083   21.9523 N   0  3  0  0  0  0  0  0  0  0  0  0
   21.3206   18.9896   22.8806 H   0  0  0  0  0  0  0  0  0  0  0  0
   22.0679   19.3605   21.4667 H   0  0  0  0  0  0  0  0  0  0  0  0
   22.4288   17.3684   22.0897 C   0  0  0  0  0  0  0  0  0  0  0  0
   22.6908   17.0009   21.0951 H   0  0  0  0  0  0  0  0  0  0  0  0
   23.3375   17.6282   22.6372 H   0  0  0  0  0  0  0  0  0  0  0  0
   21.8779   16.5988   22.6347 H   0  0  0  0  0  0  0  0  0  0  0  0
  1  2  1  0  0  0  0
  1  3  1  0  0  0  0
  1  4  1  0  0  0  0
  1  5  1  0  0  0  0
  5  6  1  0  0  0  0
  5  7  1  0  0  0  0
  5  8  1  0  0  0  0
  8  9  1  0  0  0  0
  8 10  1  0  0  0  0
  8 11  1  0  0  0  0
 11 12  1  0  0  0  0
 11 13  1  0  0  0  0
 11 14  1  0  0  0  0
 14 15  1  0  0  0  0
 14 16  1  0  0  0  0
 14 17  1  0  0  0  0
 17 18  1  0  0  0  0
 17 19  1  0  0  0  0
 17 20  1  0  0  0  0
M  END
> <VConfSearch Rank>
942

> <Conf_Id>
23

> <Delta U+W>
0.896

> <U+W>
16.234

> <U>
70.374

> <W>
-54.140

> <W(PB)>
-56.046

> <W(SA)>
1.907

> <Valence>
1.257

> <Coulomb>
69.240

> <VdW>
-0.123

> <VdW6>
-4.336

> <VdW12>
4.213

> <Bond>
0.128

> <Angle>
0.603

> <Pdih>
0.526

> <Idih>
0.000

> <Tether>
0.000

$$$$
VeraChem MOL file


 20 19  0  0  0  0  0  0  0  0999 V2000     
   20.5379   21.0991   21.7275 C   0  0  0  0  0  0  0  0  0  0  0  0
   19.6264   21.6257   21.4162 H   0  0  0  0  0  0  0  0  0  0  0  0
   21.3311   21.8478   21.8504 H   0  0  0  0  0  0  0  0  0  0  0  0
   20.8403   20.4278   20.9138 H   0  0  0  0  0  0  0  0  0  0  0  0
   20.3107   20.3279   23.0480 C   0  0  0  0  0  0  0  0  0  0  0  0
   20.1025   21.0488   23.8511 H   0  0  0  0  0  0  0  0  0  0  0  0
   21.2355   19.8111   23.3382 H   0  0  0  0  0  0  0  0  0  0  0  0
   19.1380   19.3188   22.9679 C   0  0  0  0  0  0  0  0  0  0  0  0
   19.0127   18.8271   23.9418 H   0  0  0  0  0  0  0  0  0  0  0  0
   18.2043   19.8649   22.7793 H   0  0  0  0  0  0  0  0  0  0  0  0
   19.3089   18.2432   21.8748 C   0  0  0  0  0  0  0  0  0  0  0  0
   19.3879   18.7225   20.8962 H   0  0  0  0  0  0  0  0  0  0  0  0
   18.4293   17.5946   21.8642 H   0  0  0  0  0  0  0  0  0  0  0  0
   20.5284   17.3612   22.0635 N   0  3  0  0  0  0  0  0  0  0  0  0
   20.4889   16.8914   22.9809 H   0  0  0  0  0  0  0  0  0  0  0  0
   21.3814   17.9394   22.0864 H   0  0  0  0  0  0  0  0  0  0  0  0
   20.6079   16.3362   20.9403 C   0  0  0  0  0  0  0  0  0  0  0  0
   20.6819   16.8564   19.9829 H   0  0  0  0  0  0  0  0  0  0  0  0
   21.4902   15.7095   21.0881 H   0  0  0  0  0  0  0  0  0  0  0  0
   19.7092   15.7158   20.9553 H   0  0  0  0  0  0  0  0  0  0  0  0
  1  2  1  0  0  0  0
  1  3  1  0  0  0  0
  1  4  1  0  0  0  0
  1  5  1  0  0  0  0
  5  6  1  0  0  0  0
  5  7  1  0  0  0  0
  5  8  1  0  0  0  0
  8  9  1  0  0  0  0
  8 10  1  0  0  0  0
  8 11  1  0  0  0  0
 11 12  1  0  0  0  0
 11 13  1  0  0  0  0
 11 14  1  0  0  0  0
 14 15  1  0  0  0  0
 14 16  1  0  0  0  0
 14 17  1  0  0  0  0
 17 18  1  0  0  0  0
 17 19  1  0  0  0  0
 17 20  1  0  0  0  0
M  END
> <VConfSearch Rank>
943

> <Conf_Id>
24

> <Delta U+W>
0.792

> <U+W>
16.130

> <U>
70.374

> <W>
-54.243

> <W(PB)>
-56.130

> <W(SA)>
1.887

> <Valence>
1.257

> <Coulomb>
69.240

> <VdW>
-0.123

> <VdW6>
-4.336

> <VdW12>
4.213

> <Bond>
0.128

> <Angle>
0.603

> <Pdih>
0.526

> <Idih>
0.000

> <Tether>
0.000

$$$$
VeraChem MOL file


 20 19  0  0  0  0  0  0  0  0999 V2000     
   20.7478   20.1276   23.5673 C   0  0  0  0  0  0  0  0  0  0  0  0
   21.3497   20.5491   24.3829 H   0  0  0  0  0  0  0  0  0  0  0  0
   21.4376   19.8926   22.7481 H   0  0  0  0  0  0  0  0  0  0  0  0
   20.0501   20.9064   23.2330 H   0  0  0  0  0  0  0  0  0  0  0  0
   19.9942   18.8688   24.0541 C   0  0  0  0  0  0  0  0  0  0  0  0
   19.4866   19.1078   24.9992 H   0  0  0  0  0  0  0  0  0  0  0  0
   20.7193   18.0774   24.2909 H   0  0  0  0  0  0  0  0  0  0  0  0
   18.9389   18.3265   23.0566 C   0  0  0  0  0  0  0  0  0  0  0  0
   18.4243   17.4824   23.5347 H   0  0  0  0  0  0  0  0  0  0  0  0
   18.1656   19.0832   22.8692 H   0  0  0  0  0  0  0  0  0  0  0  0
   19.5231   17.8256   21.7186 C   0  0  0  0  0  0  0  0  0  0  0  0
   18.8096   17.1428   21.2506 H   0  0  0  0  0  0  0  0  0  0  0  0
   20.4486   17.2745   21.9031 H   0  0  0  0  0  0  0  0  0  0  0  0
   19.8100   18.9230   20.7114 N   0  3  0  0  0  0  0  0  0  0  0  0
   20.4399   19.6250   21.1249 H   0  0  0  0  0  0  0  0  0  0  0  0
   18.9420   19.4325   20.4855 H   0  0  0  0  0  0  0  0  0  0  0  0
   20.4234   18.3269   19.4517 C   0  0  0  0  0  0  0  0  0  0  0  0
   21.3564   17.8215   19.7102 H   0  0  0  0  0  0  0  0  0  0  0  0
   19.7239   17.6107   19.0154 H   0  0  0  0  0  0  0  0  0  0  0  0
   20.6242   19.1277   18.7366 H   0  0  0  0  0  0  0  0  0  0  0  0
  1  2  1  0  0  0  0
  1  3  1  0  0  0  0
  1  4  1  0  0  0  0
  1  5  1  0  0  0  0
  5  6  1  0  0  0  0
  5  7  1  0  0  0  0
  5  8  1  0  0  0  0
  8  9  1  0  0  0  0
  8 10  1  0  0  0  0
  8 11  1  0  0  0  0
 11 12  1  0  0  0  0
 11 13  1  0  0  0  0
 11 14  1  0  0  0  0
 14 15  1  0  0  0  0
 14 16  1  0  0  0  0
 14 17  1  0  0  0  0
 17 18  1  0  0  0  0
 17 19  1  0  0  0  0
 17 20  1  0  0  0  0
M  END
> <VConfSearch Rank>
944

> <Conf_Id>
26

> <Delta U+W>
2.888

> <U+W>
18.226

> <U>
72.042

> <W>
-53.816

> <W(PB)>
-55.689

> <W(SA)>
1.873

> <Valence>
2.428

> <Coulomb>
69.829

> <VdW>
-0.215

> <VdW6>
-4.563

> <VdW12>
4.348

> <Bond>
0.137

> <Angle>
0.936

> <Pdih>
1.356

> <Idih>
0.000

> <Tether>
0.000

$$$$
VeraChem MOL file


 20 19  0  0  0  0  0  0  0  0999 V2000     
   22.2391   18.9491   21.6765 C   0  0  0  0  0  0  0  0  0  0  0  0
   23.3179   19.1122   21.7979 H   0  0  0  0  0  0  0  0  0  0  0  0
   22.0724   18.5765   20.6574 H   0  0  0  0  0  0  0  0  0  0  0  0
   21.7532   19.9263   21.7818 H   0  0  0  0  0  0  0  0  0  0  0  0
   21.7279   17.9437   22.7334 C   0  0  0  0  0  0  0  0  0  0  0  0
   21.8226   18.3864   23.7350 H   0  0  0  0  0  0  0  0  0  0  0  0
   22.3864   17.0636   22.7274 H   0  0  0  0  0  0  0  0  0  0  0  0
   20.2705   17.4644   22.5116 C   0  0  0  0  0  0  0  0  0  0  0  0
   20.1795   16.9525   21.5445 H   0  0  0  0  0  0  0  0  0  0  0  0
   20.0436   16.7083   23.2749 H   0  0  0  0  0  0  0  0  0  0  0  0
   19.2083   18.5788   22.6216 C   0  0  0  0  0  0  0  0  0  0  0  0
   19.4546   19.2430   23.4538 H   0  0  0  0  0  0  0  0  0  0  0  0
   18.2350   18.1257   22.8262 H   0  0  0  0  0  0  0  0  0  0  0  0
   19.0499   19.4180   21.3679 N   0  3  0  0  0  0  0  0  0  0  0  0
   18.7738   18.8203   20.5738 H   0  0  0  0  0  0  0  0  0  0  0  0
   19.9565   19.8269   21.1006 H   0  0  0  0  0  0  0  0  0  0  0  0
   18.0154   20.5109   21.5995 C   0  0  0  0  0  0  0  0  0  0  0  0
   18.3445   21.1496   22.4220 H   0  0  0  0  0  0  0  0  0  0  0  0
   17.9121   21.1062   20.6896 H   0  0  0  0  0  0  0  0  0  0  0  0
   17.0567   20.0514   21.8495 H   0  0  0  0  0  0  0  0  0  0  0  0
  1  2  1  0  0  0  0
  1  3  1  0  0  0  0
  1  4  1  0  0  0  0
  1  5  1  0  0  0  0
  5  6  1  0  0  0  0
  5  7  1  0  0  0  0
  5  8  1  0  0  0  0
  8  9  1  0  0  0  0
  8 10  1  0  0  0  0
  8 11  1  0  0  0  0
 11 12  1  0  0  0  0
 11 13  1  0  0  0  0
 11 14  1  0  0  0  0
 14 15  1  0  0  0  0
 14 16  1  0  0  0  0
 14 17  1  0  0  0  0
 17 18  1  0  0  0  0
 17 19  1  0  0  0  0
 17 20  1  0  0  0  0
M  END
> <VConfSearch Rank>
945

> <Conf_Id>
5

> <Delta U+W>
2.950

> <U+W>
18.289

> <U>
72.042

> <W>
-53.753

> <W(PB)>
-55.644

> <W(SA)>
1.891

> <Valence>
2.428

> <Coulomb>
69.829

> <VdW>
-0.215

> <VdW6>
-4.563

> <VdW12>
4.348

> <Bond>
0.137

> <Angle>
0.936

> <Pdih>
1.356

> <Idih>
0.000

> <Tether>
0.000

$$$$
VeraChem MOL file


 20 19  0  0  0  0  0  0  0  0999 V2000     
   20.8026   19.8583   24.1155 C   0  0  0  0  0  0  0  0  0  0  0  0
   21.6316   20.5666   23.9889 H   0  0  0  0  0  0  0  0  0  0  0  0
   19.8738   20.3626   23.8210 H   0  0  0  0  0  0  0  0  0  0  0  0
   20.7258   19.6214   25.1846 H   0  0  0  0  0  0  0  0  0  0  0  0
   21.0398   18.5723   23.2908 C   0  0  0  0  0  0  0  0  0  0  0  0
   20.2007   17.8784   23.4361 H   0  0  0  0  0  0  0  0  0  0  0  0
   21.9292   18.0574   23.6802 H   0  0  0  0  0  0  0  0  0  0  0  0
   21.2449   18.8488   21.7806 C   0  0  0  0  0  0  0  0  0  0  0  0
   22.1432   19.4655   21.6454 H   0  0  0  0  0  0  0  0  0  0  0  0
   21.4478   17.9032   21.2615 H   0  0  0  0  0  0  0  0  0  0  0  0
   20.0523   19.5627   21.1043 C   0  0  0  0  0  0  0  0  0  0  0  0
   20.2725   19.7185   20.0452 H   0  0  0  0  0  0  0  0  0  0  0  0
   19.9178   20.5444   21.5650 H   0  0  0  0  0  0  0  0  0  0  0  0
   18.7222   18.8307   21.1970 N   0  3  0  0  0  0  0  0  0  0  0  0
   17.9668   19.4401   20.8462 H   0  0  0  0  0  0  0  0  0  0  0  0
   18.4857   18.6528   22.1841 H   0  0  0  0  0  0  0  0  0  0  0  0
   18.7502   17.5292   20.4033 C   0  0  0  0  0  0  0  0  0  0  0  0
   19.5108   16.8668   20.8213 H   0  0  0  0  0  0  0  0  0  0  0  0
   17.7711   17.0497   20.4674 H   0  0  0  0  0  0  0  0  0  0  0  0
   18.9842   17.7498   19.3596 H   0  0  0  0  0  0  0  0  0  0  0  0
  1  2  1  0  0  0  0
  1  3  1  0  0  0  0
  1  4  1  0  0  0  0
  1  5  1  0  0  0  0
  5  6  1  0  0  0  0
  5  7  1  0  0  0  0
  5  8  1  0  0  0  0
  8  9  1  0  0  0  0
  8 10  1  0  0  0  0
  8 11  1  0  0  0  0
 11 12  1  0  0  0  0
 11 13  1  0  0  0  0
 11 14  1  0  0  0  0
 14 15  1  0  0  0  0
 14 16  1  0  0  0  0
 14 17  1  0  0  0  0
 17 18  1  0  0  0  0
 17 19  1  0  0  0  0
 17 20  1  0  0  0  0
M  END
> <VConfSearch Rank>
946

> <Conf_Id>
52

> <Delta U+W>
0.784

> <U+W>
16.122

> <U>
70.777

> <W>
-54.655

> <W(PB)>
-56.491

> <W(SA)>
1.836

> <Valence>
1.529

> <Coulomb>
69.166

> <VdW>
0.082

> <VdW6>
-5.166

> <VdW12>
5.248

> <Bond>
0.171

> <Angle>
0.752

> <Pdih>
0.605

> <Idih>
0.000

> <Tether>
0.000

$$$$
VeraChem MOL file


 20 19  0  0  0  0  0  0  0  0999 V2000     
   21.3670   20.0467   20.8571 C   0  0  0  0  0  0  0  0  0  0  0  0
   22.1227   20.7019   20.4045 H   0  0  0  0  0  0  0  0  0  0  0  0
   21.7880   19.0350   20.8718 H   0  0  0  0  0  0  0  0  0  0  0  0
   20.4850   20.0550   20.2034 H   0  0  0  0  0  0  0  0  0  0  0  0
   21.0163   20.5378   22.2802 C   0  0  0  0  0  0  0  0  0  0  0  0
   20.8246   21.6193   22.2386 H   0  0  0  0  0  0  0  0  0  0  0  0
   21.8872   20.4094   22.9383 H   0  0  0  0  0  0  0  0  0  0  0  0
   19.7786   19.8490   22.9099 C   0  0  0  0  0  0  0  0  0  0  0  0
   19.5724   20.3407   23.8697 H   0  0  0  0  0  0  0  0  0  0  0  0
   18.8904   20.0240   22.2900 H   0  0  0  0  0  0  0  0  0  0  0  0
   19.9555   18.3381   23.1883 C   0  0  0  0  0  0  0  0  0  0  0  0
   19.2037   18.0156   23.9130 H   0  0  0  0  0  0  0  0  0  0  0  0
   20.9399   18.1703   23.6325 H   0  0  0  0  0  0  0  0  0  0  0  0
   19.8269   17.4240   21.9798 N   0  3  0  0  0  0  0  0  0  0  0  0
   20.1460   16.4747   22.2292 H   0  0  0  0  0  0  0  0  0  0  0  0
   20.4625   17.7354   21.2323 H   0  0  0  0  0  0  0  0  0  0  0  0
   18.3882   17.3704   21.4777 C   0  0  0  0  0  0  0  0  0  0  0  0
   17.7390   17.0233   22.2843 H   0  0  0  0  0  0  0  0  0  0  0  0
   18.0784   18.3664   21.1557 H   0  0  0  0  0  0  0  0  0  0  0  0
   18.3292   16.6784   20.6347 H   0  0  0  0  0  0  0  0  0  0  0  0
  1  2  1  0  0  0  0
  1  3  1  0  0  0  0
  1  4  1  0  0  0  0
  1  5  1  0  0  0  0
  5  6  1  0  0  0  0
  5  7  1  0  0  0  0
  5  8  1  0  0  0  0
  8  9  1  0  0  0  0
  8 10  1  0  0  0  0
  8 11  1  0  0  0  0
 11 12  1  0  0  0  0
 11 13  1  0  0  0  0
 11 14  1  0  0  0  0
 14 15  1  0  0  0  0
 14 16  1  0  0  0  0
 14 17  1  0  0  0  0
 17 18  1  0  0  0  0
 17 19  1  0  0  0  0
 17 20  1  0  0  0  0
M  END
> <VConfSearch Rank>
947

> <Conf_Id>
55

> <Delta U+W>
2.745

> <U+W>
18.083

> <U>
72.490

> <W>
-54.407

> <W(PB)>
-56.269

> <W(SA)>
1.861

> <Valence>
2.738

> <Coulomb>
69.795

> <VdW>
-0.043

> <VdW6>
-5.333

> <VdW12>
5.290

> <Bond>
0.182

> <Angle>
1.135

> <Pdih>
1.422

> <Idih>
0.000

> <Tether>
0.000

$$$$
VeraChem MOL file


 20 19  0  0  0  0  0  0  0  0999 V2000     
   21.0660   17.1772   21.3412 C   0  0  0  0  0  0  0  0  0  0  0  0
   21.4870   16.2581   20.9133 H   0  0  0  0  0  0  0  0  0  0  0  0
   21.8270   17.9637   21.2538 H   0  0  0  0  0  0  0  0  0  0  0  0
   20.8803   16.9801   22.4032 H   0  0  0  0  0  0  0  0  0  0  0  0
   19.7672   17.5670   20.5992 C   0  0  0  0  0  0  0  0  0  0  0  0
   18.9896   16.8169   20.8009 H   0  0  0  0  0  0  0  0  0  0  0  0
   19.9572   17.5236   19.5175 H   0  0  0  0  0  0  0  0  0  0  0  0
   19.2319   18.9808   20.9421 C   0  0  0  0  0  0  0  0  0  0  0  0
   19.9797   19.7421   20.6868 H   0  0  0  0  0  0  0  0  0  0  0  0
   18.3705   19.1809   20.2913 H   0  0  0  0  0  0  0  0  0  0  0  0
   18.7614   19.1531   22.4051 C   0  0  0  0  0  0  0  0  0  0  0  0
   18.1744   18.2784   22.6962 H   0  0  0  0  0  0  0  0  0  0  0  0
   18.1105   20.0285   22.4727 H   0  0  0  0  0  0  0  0  0  0  0  0
   19.8636   19.3398   23.4360 N   0  3  0  0  0  0  0  0  0  0  0  0
   20.5510   18.5773   23.3600 H   0  0  0  0  0  0  0  0  0  0  0  0
   19.4671   19.2539   24.3850 H   0  0  0  0  0  0  0  0  0  0  0  0
   20.5424   20.6962   23.2804 C   0  0  0  0  0  0  0  0  0  0  0  0
   21.0146   20.7555   22.2980 H   0  0  0  0  0  0  0  0  0  0  0  0
   19.7946   21.4857   23.3802 H   0  0  0  0  0  0  0  0  0  0  0  0
   21.3009   20.8078   24.0583 H   0  0  0  0  0  0  0  0  0  0  0  0
  1  2  1  0  0  0  0
  1  3  1  0  0  0  0
  1  4  1  0  0  0  0
  1  5  1  0  0  0  0
  5  6  1  0  0  0  0
  5  7  1  0  0  0  0
  5  8  1  0  0  0  0
  8  9  1  0  0  0  0
  8 10  1  0  0  0  0
  8 11  1  0  0  0  0
 11 12  1  0  0  0  0
 11 13  1  0  0  0  0
 11 14  1  0  0  0  0
 14 15  1  0  0  0  0
 14 16  1  0  0  0  0
 14 17  1  0  0  0  0
 17 18  1  0  0  0  0
 17 19  1  0  0  0  0
 17 20  1  0  0  0  0
M  END
> <VConfSearch Rank>
948

> <Conf_Id>
76

> <Delta U+W>
2.799

> <U+W>
18.137

> <U>
72.490

> <W>
-54.353

> <W(PB)>
-56.201

> <W(SA)>
1.848

> <Valence>
2.738

> <Coulomb>
69.795

> <VdW>
-0.043

> <VdW6>
-5.334

> <VdW12>
5.290

> <Bond>
0.182

> <Angle>
1.135

> <Pdih>
1.421

> <Idih>
0.000

> <Tether>
0.000

$$$$
VeraChem MOL file


 20 19  0  0  0  0  0  0  0  0999 V2000     
   21.6259   20.1978   22.1515 C   0  0  0  0  0  0  0  0  0  0  0  0
   21.8259   19.3875   21.4399 H   0  0  0  0  0  0  0  0  0  0  0  0
   21.4741   21.1231   21.5807 H   0  0  0  0  0  0  0  0  0  0  0  0
   22.5254   20.3284   22.7669 H   0  0  0  0  0  0  0  0  0  0  0  0
   20.4001   19.8879   23.0414 C   0  0  0  0  0  0  0  0  0  0  0  0
   20.2869   20.6931   23.7809 H   0  0  0  0  0  0  0  0  0  0  0  0
   20.5763   18.9733   23.6221 H   0  0  0  0  0  0  0  0  0  0  0  0
   19.0821   19.7646   22.2382 C   0  0  0  0  0  0  0  0  0  0  0  0
   18.2492   19.5884   22.9315 H   0  0  0  0  0  0  0  0  0  0  0  0
   18.8732   20.7291   21.7567 H   0  0  0  0  0  0  0  0  0  0  0  0
   19.0716   18.6684   21.1469 C   0  0  0  0  0  0  0  0  0  0  0  0
   19.8978   18.8150   20.4473 H   0  0  0  0  0  0  0  0  0  0  0  0
   18.1407   18.7680   20.5829 H   0  0  0  0  0  0  0  0  0  0  0  0
   19.1176   17.2348   21.6544 N   0  3  0  0  0  0  0  0  0  0  0  0
   18.6014   16.6266   20.9998 H   0  0  0  0  0  0  0  0  0  0  0  0
   18.6075   17.1531   22.5464 H   0  0  0  0  0  0  0  0  0  0  0  0
   20.5498   16.7276   21.7843 C   0  0  0  0  0  0  0  0  0  0  0  0
   20.5312   15.6888   22.1212 H   0  0  0  0  0  0  0  0  0  0  0  0
   21.0406   16.7880   20.8106 H   0  0  0  0  0  0  0  0  0  0  0  0
   21.0926   17.3364   22.5079 H   0  0  0  0  0  0  0  0  0  0  0  0
  1  2  1  0  0  0  0
  1  3  1  0  0  0  0
  1  4  1  0  0  0  0
  1  5  1  0  0  0  0
  5  6  1  0  0  0  0
  5  7  1  0  0  0  0
  5  8  1  0  0  0  0
  8  9  1  0  0  0  0
  8 10  1  0  0  0  0
  8 11  1  0  0  0  0
 11 12  1  0  0  0  0
 11 13  1  0  0  0  0
 11 14  1  0  0  0  0
 14 15  1  0  0  0  0
 14 16  1  0  0  0  0
 14 17  1  0  0  0  0
 17 18  1  0  0  0  0
 17 19  1  0  0  0  0
 17 20  1  0  0  0  0
M  END
> <VConfSearch Rank>
949

> <Conf_Id>
60

> <Delta U+W>
1.788

> <U+W>
17.127

> <U>
72.122

> <W>
-54.995

> <W(PB)>
-56.810

> <W(SA)>
1.815

> <Valence>
3.197

> <Coulomb>
69.115

> <VdW>
-0.190

> <VdW6>
-5.585

> <VdW12>
5.395

> <Bond>
0.177

> <Angle>
1.207

> <Pdih>
1.813

> <Idih>
0.000

> <Tether>
0.000

$$$$
VeraChem MOL file


 20 19  0  0  0  0  0  0  0  0999 V2000     
   20.1611   18.8595   24.1397 C   0  0  0  0  0  0  0  0  0  0  0  0
   19.4579   18.5910   24.9386 H   0  0  0  0  0  0  0  0  0  0  0  0
   21.1207   19.1112   24.6096 H   0  0  0  0  0  0  0  0  0  0  0  0
   19.7757   19.7611   23.6482 H   0  0  0  0  0  0  0  0  0  0  0  0
   20.3220   17.6889   23.1426 C   0  0  0  0  0  0  0  0  0  0  0  0
   19.3509   17.4346   22.6986 H   0  0  0  0  0  0  0  0  0  0  0  0
   20.6401   16.7940   23.6956 H   0  0  0  0  0  0  0  0  0  0  0  0
   21.3588   17.9774   22.0294 C   0  0  0  0  0  0  0  0  0  0  0  0
   22.3431   18.1188   22.4949 H   0  0  0  0  0  0  0  0  0  0  0  0
   21.4554   17.0938   21.3849 H   0  0  0  0  0  0  0  0  0  0  0  0
   21.0593   19.2140   21.1497 C   0  0  0  0  0  0  0  0  0  0  0  0
   21.9184   19.3721   20.4927 H   0  0  0  0  0  0  0  0  0  0  0  0
   20.9490   20.1078   21.7683 H   0  0  0  0  0  0  0  0  0  0  0  0
   19.8404   19.0989   20.2465 N   0  3  0  0  0  0  0  0  0  0  0  0
   19.7263   18.1280   19.9193 H   0  0  0  0  0  0  0  0  0  0  0  0
   20.0013   19.6484   19.3880 H   0  0  0  0  0  0  0  0  0  0  0  0
   18.5776   19.6057   20.9349 C   0  0  0  0  0  0  0  0  0  0  0  0
   18.7221   20.6485   21.2250 H   0  0  0  0  0  0  0  0  0  0  0  0
   17.7382   19.5317   20.2400 H   0  0  0  0  0  0  0  0  0  0  0  0
   18.3729   19.0029   21.8202 H   0  0  0  0  0  0  0  0  0  0  0  0
  1  2  1  0  0  0  0
  1  3  1  0  0  0  0
  1  4  1  0  0  0  0
  1  5  1  0  0  0  0
  5  6  1  0  0  0  0
  5  7  1  0  0  0  0
  5  8  1  0  0  0  0
  8  9  1  0  0  0  0
  8 10  1  0  0  0  0
  8 11  1  0  0  0  0
 11 12  1  0  0  0  0
 11 13  1  0  0  0  0
 11 14  1  0  0  0  0
 14 15  1  0  0  0  0
 14 16  1  0  0  0  0
 14 17  1  0  0  0  0
 17 18  1  0  0  0  0
 17 19  1  0  0  0  0
 17 20  1  0  0  0  0
M  END
> <VConfSearch Rank>
950

> <Conf_Id>
54

> <Delta U+W>
1.880

> <U+W>
17.218

> <U>
72.122

> <W>
-54.903

> <W(PB)>
-56.724

> <W(SA)>
1.821

> <Valence>
3.197

> <Coulomb>
69.115

> <VdW>
-0.190

> <VdW6>
-5.585

> <VdW12>
5.395

> <Bond>
0.177

> <Angle>
1.207

> <Pdih>
1.813

> <Idih>
0.000

> <Tether>
0.000

$$$$
VeraChem MOL file


 20 19  0  0  0  0  0  0  0  0999 V2000     
   17.6852   17.4007   23.6526 C   0  0  0  0  0  0  0  0  0  0  0  0
   17.5244   16.5609   22.9641 H   0  0  0  0  0  0  0  0  0  0  0  0
   17.5424   17.0288   24.6755 H   0  0  0  0  0  0  0  0  0  0  0  0
   16.9114   18.1548   23.4581 H   0  0  0  0  0  0  0  0  0  0  0  0
   19.0990   17.9975   23.4814 C   0  0  0  0  0  0  0  0  0  0  0  0
   19.8502   17.2300   23.7163 H   0  0  0  0  0  0  0  0  0  0  0  0
   19.2420   18.8114   24.2063 H   0  0  0  0  0  0  0  0  0  0  0  0
   19.3287   18.5295   22.0497 C   0  0  0  0  0  0  0  0  0  0  0  0
   19.1891   17.7150   21.3264 H   0  0  0  0  0  0  0  0  0  0  0  0
   18.5800   19.2985   21.8171 H   0  0  0  0  0  0  0  0  0  0  0  0
   20.7404   19.1229   21.8871 C   0  0  0  0  0  0  0  0  0  0  0  0
   21.4883   18.3557   22.1029 H   0  0  0  0  0  0  0  0  0  0  0  0
   20.8771   19.9443   22.5950 H   0  0  0  0  0  0  0  0  0  0  0  0
   21.0117   19.6586   20.4949 N   0  3  0  0  0  0  0  0  0  0  0  0
   20.3190   20.3827   20.2502 H   0  0  0  0  0  0  0  0  0  0  0  0
   20.8849   18.9119   19.7945 H   0  0  0  0  0  0  0  0  0  0  0  0
   22.4237   20.2244   20.4219 C   0  0  0  0  0  0  0  0  0  0  0  0
   23.1408   19.4330   20.6505 H   0  0  0  0  0  0  0  0  0  0  0  0
   22.6055   20.6062   19.4149 H   0  0  0  0  0  0  0  0  0  0  0  0
   22.5245   21.0352   21.1467 H   0  0  0  0  0  0  0  0  0  0  0  0
  1  2  1  0  0  0  0
  1  3  1  0  0  0  0
  1  4  1  0  0  0  0
  1  5  1  0  0  0  0
  5  6  1  0  0  0  0
  5  7  1  0  0  0  0
  5  8  1  0  0  0  0
  8  9  1  0  0  0  0
  8 10  1  0  0  0  0
  8 11  1  0  0  0  0
 11 12  1  0  0  0  0
 11 13  1  0  0  0  0
 11 14  1  0  0  0  0
 14 15  1  0  0  0  0
 14 16  1  0  0  0  0
 14 17  1  0  0  0  0
 17 18  1  0  0  0  0
 17 19  1  0  0  0  0
 17 20  1  0  0  0  0
M  END
> <VConfSearch Rank>
951

> <Conf_Id>
67

> <Delta U+W>
0.000

> <U+W>
15.338

> <U>
69.277

> <W>
-53.939

> <W(PB)>
-55.889

> <W(SA)>
1.950

> <Valence>
0.846

> <Coulomb>
68.557

> <VdW>
-0.127

> <VdW6>
-3.008

> <VdW12>
2.882

> <Bond>
0.088

> <Angle>
0.332

> <Pdih>
0.426

> <Idih>
0.000

> <Tether>
0.000

$$$$
VeraChem MOL file


 20 19  0  0  0  0  0  0  0  0999 V2000     
   18.1582   21.1831   22.1348 C   0  0  0  0  0  0  0  0  0  0  0  0
   17.5328   20.6226   22.8419 H   0  0  0  0  0  0  0  0  0  0  0  0
   18.1011   22.2456   22.4049 H   0  0  0  0  0  0  0  0  0  0  0  0
   17.7271   21.0677   21.1318 H   0  0  0  0  0  0  0  0  0  0  0  0
   19.6204   20.6885   22.1721 C   0  0  0  0  0  0  0  0  0  0  0  0
   20.0345   20.8484   23.1778 H   0  0  0  0  0  0  0  0  0  0  0  0
   20.2273   21.2908   21.4813 H   0  0  0  0  0  0  0  0  0  0  0  0
   19.7315   19.1946   21.7956 C   0  0  0  0  0  0  0  0  0  0  0  0
   19.1241   18.5973   22.4878 H   0  0  0  0  0  0  0  0  0  0  0  0
   19.3217   19.0363   20.7893 H   0  0  0  0  0  0  0  0  0  0  0  0
   21.1957   18.7104   21.8343 C   0  0  0  0  0  0  0  0  0  0  0  0
   21.5962   18.8195   22.8453 H   0  0  0  0  0  0  0  0  0  0  0  0
   21.7934   19.3344   21.1649 H   0  0  0  0  0  0  0  0  0  0  0  0
   21.3964   17.2662   21.4044 N   0  3  0  0  0  0  0  0  0  0  0  0
   22.4052   17.0741   21.3005 H   0  0  0  0  0  0  0  0  0  0  0  0
   21.0008   17.1149   20.4640 H   0  0  0  0  0  0  0  0  0  0  0  0
   20.7866   16.2975   22.4121 C   0  0  0  0  0  0  0  0  0  0  0  0
   19.7088   16.4623   22.4673 H   0  0  0  0  0  0  0  0  0  0  0  0
   20.9841   15.2733   22.0882 H   0  0  0  0  0  0  0  0  0  0  0  0
   21.2380   16.4668   23.3920 H   0  0  0  0  0  0  0  0  0  0  0  0
  1  2  1  0  0  0  0
  1  3  1  0  0  0  0
  1  4  1  0  0  0  0
  1  5  1  0  0  0  0
  5  6  1  0  0  0  0
  5  7  1  0  0  0  0
  5  8  1  0  0  0  0
  8  9  1  0  0  0  0
  8 10  1  0  0  0  0
  8 11  1  0  0  0  0
 11 12  1  0  0  0  0
 11 13  1  0  0  0  0
 11 14  1  0  0  0  0
 14 15  1  0  0  0  0
 14 16  1  0  0  0  0
 14 17  1  0  0  0  0
 17 18  1  0  0  0  0
 17 19  1  0  0  0  0
 17 20  1  0  0  0  0
M  END
> <VConfSearch Rank>
952

> <Conf_Id>
37

> <Delta U+W>
-0.021

> <U+W>
15.318

> <U>
69.657

> <W>
-54.340

> <W(PB)>
-56.238

> <W(SA)>
1.899

> <Valence>
1.137

> <Coulomb>
68.383

> <VdW>
0.138

> <VdW6>
-3.703

> <VdW12>
3.841

> <Bond>
0.125

> <Angle>
0.468

> <Pdih>
0.543

> <Idih>
0.000

> <Tether>
0.000

$$$$
VeraChem MOL file


 20 19  0  0  0  0  0  0  0  0999 V2000     
   20.9081   16.1686   20.8267 C   0  0  0  0  0  0  0  0  0  0  0  0
   21.1452   15.6828   19.8713 H   0  0  0  0  0  0  0  0  0  0  0  0
   21.8347   16.2285   21.4123 H   0  0  0  0  0  0  0  0  0  0  0  0
   20.2040   15.5222   21.3667 H   0  0  0  0  0  0  0  0  0  0  0  0
   20.3072   17.5713   20.5911 C   0  0  0  0  0  0  0  0  0  0  0  0
   19.4021   17.4817   19.9738 H   0  0  0  0  0  0  0  0  0  0  0  0
   21.0199   18.1827   20.0197 H   0  0  0  0  0  0  0  0  0  0  0  0
   19.9629   18.2795   21.9199 C   0  0  0  0  0  0  0  0  0  0  0  0
   19.2477   17.6703   22.4882 H   0  0  0  0  0  0  0  0  0  0  0  0
   20.8693   18.3666   22.5328 H   0  0  0  0  0  0  0  0  0  0  0  0
   19.3620   19.6789   21.6742 C   0  0  0  0  0  0  0  0  0  0  0  0
   18.4795   19.5790   21.0371 H   0  0  0  0  0  0  0  0  0  0  0  0
   20.0870   20.3076   21.1512 H   0  0  0  0  0  0  0  0  0  0  0  0
   18.9290   20.4119   22.9336 N   0  3  0  0  0  0  0  0  0  0  0  0
   18.2662   19.8345   23.4732 H   0  0  0  0  0  0  0  0  0  0  0  0
   18.3939   21.2558   22.6750 H   0  0  0  0  0  0  0  0  0  0  0  0
   20.1296   20.8026   23.7888 C   0  0  0  0  0  0  0  0  0  0  0  0
   20.8025   21.4288   23.1990 H   0  0  0  0  0  0  0  0  0  0  0  0
   19.7810   21.3584   24.6620 H   0  0  0  0  0  0  0  0  0  0  0  0
   20.6524   19.9010   24.1137 H   0  0  0  0  0  0  0  0  0  0  0  0
  1  2  1  0  0  0  0
  1  3  1  0  0  0  0
  1  4  1  0  0  0  0
  1  5  1  0  0  0  0
  5  6  1  0  0  0  0
  5  7  1  0  0  0  0
  5  8  1  0  0  0  0
  8  9  1  0  0  0  0
  8 10  1  0  0  0  0
  8 11  1  0  0  0  0
 11 12  1  0  0  0  0
 11 13  1  0  0  0  0
 11 14  1  0  0  0  0
 14 15  1  0  0  0  0
 14 16  1  0  0  0  0
 14 17  1  0  0  0  0
 17 18  1  0  0  0  0
 17 19  1  0  0  0  0
 17 20  1  0  0  0  0
M  END
> <VConfSearch Rank>
953

> <Conf_Id>
2

> <Delta U+W>
0.069

> <U+W>
15.407

> <U>
69.657

> <W>
-54.250

> <W(PB)>
-56.176

> <W(SA)>
1.926

> <Valence>
1.137

> <Coulomb>
68.383

> <VdW>
0.138

> <VdW6>
-3.703

> <VdW12>
3.841

> <Bond>
0.125

> <Angle>
0.468

> <Pdih>
0.543

> <Idih>
0.000

> <Tether>
0.000

$$$$
VeraChem MOL file


 20 19  0  0  0  0  0  0  0  0999 V2000     
   22.3311   19.9894   21.5359 C   0  0  0  0  0  0  0  0  0  0  0  0
   22.4326   18.9024   21.4261 H   0  0  0  0  0  0  0  0  0  0  0  0
   22.0371   20.4064   20.5639 H   0  0  0  0  0  0  0  0  0  0  0  0
   23.3220   20.3903   21.7858 H   0  0  0  0  0  0  0  0  0  0  0  0
   21.3053   20.3571   22.6326 C   0  0  0  0  0  0  0  0  0  0  0  0
   21.3052   21.4472   22.7724 H   0  0  0  0  0  0  0  0  0  0  0  0
   21.6196   19.9230   23.5923 H   0  0  0  0  0  0  0  0  0  0  0  0
   19.8685   19.8935   22.2966 C   0  0  0  0  0  0  0  0  0  0  0  0
   19.1851   20.2541   23.0769 H   0  0  0  0  0  0  0  0  0  0  0  0
   19.5434   20.3559   21.3551 H   0  0  0  0  0  0  0  0  0  0  0  0
   19.7490   18.3607   22.1890 C   0  0  0  0  0  0  0  0  0  0  0  0
   20.0704   17.9009   23.1269 H   0  0  0  0  0  0  0  0  0  0  0  0
   20.3963   17.9961   21.3879 H   0  0  0  0  0  0  0  0  0  0  0  0
   18.3391   17.8861   21.8966 N   0  3  0  0  0  0  0  0  0  0  0  0
   17.9955   18.3077   21.0201 H   0  0  0  0  0  0  0  0  0  0  0  0
   17.6926   18.2155   22.6298 H   0  0  0  0  0  0  0  0  0  0  0  0
   18.3114   16.3663   21.8043 C   0  0  0  0  0  0  0  0  0  0  0  0
   18.6459   15.9419   22.7535 H   0  0  0  0  0  0  0  0  0  0  0  0
   17.2911   16.0382   21.5937 H   0  0  0  0  0  0  0  0  0  0  0  0
   18.9756   16.0423   21.0001 H   0  0  0  0  0  0  0  0  0  0  0  0
  1  2  1  0  0  0  0
  1  3  1  0  0  0  0
  1  4  1  0  0  0  0
  1  5  1  0  0  0  0
  5  6  1  0  0  0  0
  5  7  1  0  0  0  0
  5  8  1  0  0  0  0
  8  9  1  0  0  0  0
  8 10  1  0  0  0  0
  8 11  1  0  0  0  0
 11 12  1  0  0  0  0
 11 13  1  0  0  0  0
 11 14  1  0  0  0  0
 14 15  1  0  0  0  0
 14 16  1  0  0  0  0
 14 17  1  0  0  0  0
 17 18  1  0  0  0  0
 17 19  1  0  0  0  0
 17 20  1  0  0  0  0
M  END
> <VConfSearch Rank>
954

> <Conf_Id>
34

> <Delta U+W>
0.276

> <U+W>
15.615

> <U>
69.798

> <W>
-54.184

> <W(PB)>
-56.116

> <W(SA)>
1.933

> <Valence>
1.134

> <Coulomb>
68.735

> <VdW>
-0.070

> <VdW6>
-3.565

> <VdW12>
3.494

> <Bond>
0.108

> <Angle>
0.456

> <Pdih>
0.569

> <Idih>
0.000

> <Tether>
0.000

$$$$
VeraChem MOL file


 20 19  0  0  0  0  0  0  0  0999 V2000     
   18.2503   16.3797   22.4565 C   0  0  0  0  0  0  0  0  0  0  0  0
   17.8309   16.0609   21.4934 H   0  0  0  0  0  0  0  0  0  0  0  0
   18.5418   15.4780   23.0107 H   0  0  0  0  0  0  0  0  0  0  0  0
   17.4566   16.8818   23.0251 H   0  0  0  0  0  0  0  0  0  0  0  0
   19.4642   17.3120   22.2539 C   0  0  0  0  0  0  0  0  0  0  0  0
   20.2520   16.7712   21.7107 H   0  0  0  0  0  0  0  0  0  0  0  0
   19.8805   17.5770   23.2352 H   0  0  0  0  0  0  0  0  0  0  0  0
   19.0792   18.5919   21.4749 C   0  0  0  0  0  0  0  0  0  0  0  0
   18.6292   18.3099   20.5138 H   0  0  0  0  0  0  0  0  0  0  0  0
   18.3123   19.1522   22.0260 H   0  0  0  0  0  0  0  0  0  0  0  0
   20.2872   19.5088   21.1964 C   0  0  0  0  0  0  0  0  0  0  0  0
   19.9686   20.3455   20.5695 H   0  0  0  0  0  0  0  0  0  0  0  0
   21.0547   18.9508   20.6541 H   0  0  0  0  0  0  0  0  0  0  0  0
   20.9241   20.0897   22.4449 N   0  3  0  0  0  0  0  0  0  0  0  0
   21.2424   19.3320   23.0671 H   0  0  0  0  0  0  0  0  0  0  0  0
   20.2238   20.6164   22.9891 H   0  0  0  0  0  0  0  0  0  0  0  0
   22.0909   20.9903   22.0622 C   0  0  0  0  0  0  0  0  0  0  0  0
   22.8338   20.4045   21.5167 H   0  0  0  0  0  0  0  0  0  0  0  0
   21.7257   21.8036   21.4313 H   0  0  0  0  0  0  0  0  0  0  0  0
   22.5396   21.4012   22.9693 H   0  0  0  0  0  0  0  0  0  0  0  0
  1  2  1  0  0  0  0
  1  3  1  0  0  0  0
  1  4  1  0  0  0  0
  1  5  1  0  0  0  0
  5  6  1  0  0  0  0
  5  7  1  0  0  0  0
  5  8  1  0  0  0  0
  8  9  1  0  0  0  0
  8 10  1  0  0  0  0
  8 11  1  0  0  0  0
 11 12  1  0  0  0  0
 11 13  1  0  0  0  0
 11 14  1  0  0  0  0
 14 15  1  0  0  0  0
 14 16  1  0  0  0  0
 14 17  1  0  0  0  0
 17 18  1  0  0  0  0
 17 19  1  0  0  0  0
 17 20  1  0  0  0  0
M  END
> <VConfSearch Rank>
955

> <Conf_Id>
50

> <Delta U+W>
0.319

> <U+W>
15.657

> <U>
69.962

> <W>
-54.305

> <W(PB)>
-56.223

> <W(SA)>
1.918

> <Valence>
0.982

> <Coulomb>
69.058

> <VdW>
-0.078

> <VdW6>
-3.548

> <VdW12>
3.471

> <Bond>
0.105

> <Angle>
0.408

> <Pdih>
0.469

> <Idih>
0.000

> <Tether>
0.000

$$$$
VeraChem MOL file


 20 19  0  0  0  0  0  0  0  0999 V2000     
   17.0585   19.1815   22.1663 C   0  0  0  0  0  0  0  0  0  0  0  0
   16.5448   20.1025   22.4711 H   0  0  0  0  0  0  0  0  0  0  0  0
   16.6109   18.8441   21.2223 H   0  0  0  0  0  0  0  0  0  0  0  0
   16.8612   18.4180   22.9299 H   0  0  0  0  0  0  0  0  0  0  0  0
   18.5741   19.4295   22.0064 C   0  0  0  0  0  0  0  0  0  0  0  0
   18.9784   19.8033   22.9568 H   0  0  0  0  0  0  0  0  0  0  0  0
   18.7370   20.2195   21.2597 H   0  0  0  0  0  0  0  0  0  0  0  0
   19.3221   18.1452   21.5772 C   0  0  0  0  0  0  0  0  0  0  0  0
   19.1870   17.3600   22.3329 H   0  0  0  0  0  0  0  0  0  0  0  0
   18.8811   17.7623   20.6473 H   0  0  0  0  0  0  0  0  0  0  0  0
   20.8276   18.3803   21.3414 C   0  0  0  0  0  0  0  0  0  0  0  0
   20.9641   19.1665   20.5946 H   0  0  0  0  0  0  0  0  0  0  0  0
   21.2804   17.4631   20.9560 H   0  0  0  0  0  0  0  0  0  0  0  0
   21.5944   18.7796   22.5882 N   0  3  0  0  0  0  0  0  0  0  0  0
   21.4794   18.0629   23.3210 H   0  0  0  0  0  0  0  0  0  0  0  0
   21.2003   19.6451   22.9859 H   0  0  0  0  0  0  0  0  0  0  0  0
   23.0677   18.9698   22.2535 C   0  0  0  0  0  0  0  0  0  0  0  0
   23.6072   19.2569   23.1587 H   0  0  0  0  0  0  0  0  0  0  0  0
   23.4724   18.0325   21.8656 H   0  0  0  0  0  0  0  0  0  0  0  0
   23.1674   19.7549   21.5009 H   0  0  0  0  0  0  0  0  0  0  0  0
  1  2  1  0  0  0  0
  1  3  1  0  0  0  0
  1  4  1  0  0  0  0
  1  5  1  0  0  0  0
  5  6  1  0  0  0  0
  5  7  1  0  0  0  0
  5  8  1  0  0  0  0
  8  9  1  0  0  0  0
  8 10  1  0  0  0  0
  8 11  1  0  0  0  0
 11 12  1  0  0  0  0
 11 13  1  0  0  0  0
 11 14  1  0  0  0  0
 14 15  1  0  0  0  0
 14 16  1  0  0  0  0
 14 17  1  0  0  0  0
 17 18  1  0  0  0  0
 17 19  1  0  0  0  0
 17 20  1  0  0  0  0
M  END
> <VConfSearch Rank>
956

> <Conf_Id>
35

> <Delta U+W>
0.360

> <U+W>
15.698

> <U>
69.962

> <W>
-54.264

> <W(PB)>
-56.166

> <W(SA)>
1.902

> <Valence>
0.982

> <Coulomb>
69.058

> <VdW>
-0.078

> <VdW6>
-3.548

> <VdW12>
3.471

> <Bond>
0.105

> <Angle>
0.408

> <Pdih>
0.469

> <Idih>
0.000

> <Tether>
0.000

$$$$
VeraChem MOL file


 20 19  0  0  0  0  0  0  0  0999 V2000     
   19.1623   20.6277   20.4907 C   0  0  0  0  0  0  0  0  0  0  0  0
   18.4417   20.5889   21.3172 H   0  0  0  0  0  0  0  0  0  0  0  0
   19.0562   21.6065   20.0051 H   0  0  0  0  0  0  0  0  0  0  0  0
   18.8852   19.8588   19.7579 H   0  0  0  0  0  0  0  0  0  0  0  0
   20.6114   20.4244   20.9898 C   0  0  0  0  0  0  0  0  0  0  0  0
   20.8615   21.2026   21.7246 H   0  0  0  0  0  0  0  0  0  0  0  0
   21.3036   20.5617   20.1471 H   0  0  0  0  0  0  0  0  0  0  0  0
   20.8457   19.0271   21.6099 C   0  0  0  0  0  0  0  0  0  0  0  0
   20.6303   18.2553   20.8598 H   0  0  0  0  0  0  0  0  0  0  0  0
   21.9073   18.9250   21.8705 H   0  0  0  0  0  0  0  0  0  0  0  0
   19.9903   18.7884   22.8728 C   0  0  0  0  0  0  0  0  0  0  0  0
   18.9291   18.8205   22.6149 H   0  0  0  0  0  0  0  0  0  0  0  0
   20.1885   19.5877   23.5914 H   0  0  0  0  0  0  0  0  0  0  0  0
   20.2585   17.4688   23.5780 N   0  3  0  0  0  0  0  0  0  0  0  0
   19.7745   17.4598   24.4896 H   0  0  0  0  0  0  0  0  0  0  0  0
   21.2599   17.3846   23.8101 H   0  0  0  0  0  0  0  0  0  0  0  0
   19.7953   16.2860   22.7344 C   0  0  0  0  0  0  0  0  0  0  0  0
   20.3588   16.2645   21.7996 H   0  0  0  0  0  0  0  0  0  0  0  0
   19.9701   15.3612   23.2886 H   0  0  0  0  0  0  0  0  0  0  0  0
   18.7292   16.3915   22.5220 H   0  0  0  0  0  0  0  0  0  0  0  0
  1  2  1  0  0  0  0
  1  3  1  0  0  0  0
  1  4  1  0  0  0  0
  1  5  1  0  0  0  0
  5  6  1  0  0  0  0
  5  7  1  0  0  0  0
  5  8  1  0  0  0  0
  8  9  1  0  0  0  0
  8 10  1  0  0  0  0
  8 11  1  0  0  0  0
 11 12  1  0  0  0  0
 11 13  1  0  0  0  0
 11 14  1  0  0  0  0
 14 15  1  0  0  0  0
 14 16  1  0  0  0  0
 14 17  1  0  0  0  0
 17 18  1  0  0  0  0
 17 19  1  0  0  0  0
 17 20  1  0  0  0  0
M  END
> <VConfSearch Rank>
957

> <Conf_Id>
33

> <Delta U+W>
0.372

> <U+W>
15.711

> <U>
70.163

> <W>
-54.452

> <W(PB)>
-56.363

> <W(SA)>
1.911

> <Valence>
1.420

> <Coulomb>
68.566

> <VdW>
0.177

> <VdW6>
-4.267

> <VdW12>
4.445

> <Bond>
0.146

> <Angle>
0.581

> <Pdih>
0.693

> <Idih>
0.000

> <Tether>
0.000

$$$$
VeraChem MOL file


 20 19  0  0  0  0  0  0  0  0999 V2000     
   21.6151   18.7232   19.9124 C   0  0  0  0  0  0  0  0  0  0  0  0
   22.2689   18.3363   19.1200 H   0  0  0  0  0  0  0  0  0  0  0  0
   20.5943   18.7574   19.5114 H   0  0  0  0  0  0  0  0  0  0  0  0
   21.9308   19.7508   20.1346 H   0  0  0  0  0  0  0  0  0  0  0  0
   21.7018   17.8299   21.1713 C   0  0  0  0  0  0  0  0  0  0  0  0
   22.7526   17.7511   21.4835 H   0  0  0  0  0  0  0  0  0  0  0  0
   21.3762   16.8098   20.9233 H   0  0  0  0  0  0  0  0  0  0  0  0
   20.8653   18.3711   22.3542 C   0  0  0  0  0  0  0  0  0  0  0  0
   21.0337   17.7338   23.2323 H   0  0  0  0  0  0  0  0  0  0  0  0
   21.2199   19.3749   22.6215 H   0  0  0  0  0  0  0  0  0  0  0  0
   19.3540   18.4115   22.0417 C   0  0  0  0  0  0  0  0  0  0  0  0
   19.0277   17.4130   21.7398 H   0  0  0  0  0  0  0  0  0  0  0  0
   19.1640   19.0953   21.2109 H   0  0  0  0  0  0  0  0  0  0  0  0
   18.4784   18.8407   23.2077 N   0  3  0  0  0  0  0  0  0  0  0  0
   18.6526   18.2381   24.0263 H   0  0  0  0  0  0  0  0  0  0  0  0
   17.4862   18.6839   22.9706 H   0  0  0  0  0  0  0  0  0  0  0  0
   18.7012   20.3084   23.5566 C   0  0  0  0  0  0  0  0  0  0  0  0
   18.0300   20.5881   24.3715 H   0  0  0  0  0  0  0  0  0  0  0  0
   19.7370   20.4535   23.8696 H   0  0  0  0  0  0  0  0  0  0  0  0
   18.4900   20.9227   22.6787 H   0  0  0  0  0  0  0  0  0  0  0  0
  1  2  1  0  0  0  0
  1  3  1  0  0  0  0
  1  4  1  0  0  0  0
  1  5  1  0  0  0  0
  5  6  1  0  0  0  0
  5  7  1  0  0  0  0
  5  8  1  0  0  0  0
  8  9  1  0  0  0  0
  8 10  1  0  0  0  0
  8 11  1  0  0  0  0
 11 12  1  0  0  0  0
 11 13  1  0  0  0  0
 11 14  1  0  0  0  0
 14 15  1  0  0  0  0
 14 16  1  0  0  0  0
 14 17  1  0  0  0  0
 17 18  1  0  0  0  0
 17 19  1  0  0  0  0
 17 20  1  0  0  0  0
M  END
> <VConfSearch Rank>
958

> <Conf_Id>
53

> <Delta U+W>
0.379

> <U+W>
15.717

> <U>
70.163

> <W>
-54.446

> <W(PB)>
-56.322

> <W(SA)>
1.876

> <Valence>
1.420

> <Coulomb>
68.566

> <VdW>
0.177

> <VdW6>
-4.267

> <VdW12>
4.445

> <Bond>
0.146

> <Angle>
0.581

> <Pdih>
0.693

> <Idih>
0.000

> <Tether>
0.000

$$$$
VeraChem MOL file


 20 19  0  0  0  0  0  0  0  0999 V2000     
   19.8325   21.1957   20.4967 C   0  0  0  0  0  0  0  0  0  0  0  0
   19.1672   22.0452   20.6987 H   0  0  0  0  0  0  0  0  0  0  0  0
   20.8038   21.5976   20.1802 H   0  0  0  0  0  0  0  0  0  0  0  0
   19.4080   20.6283   19.6582 H   0  0  0  0  0  0  0  0  0  0  0  0
   19.9796   20.3075   21.7511 C   0  0  0  0  0  0  0  0  0  0  0  0
   18.9857   19.9561   22.0600 H   0  0  0  0  0  0  0  0  0  0  0  0
   20.3760   20.9104   22.5802 H   0  0  0  0  0  0  0  0  0  0  0  0
   20.9116   19.1005   21.4919 C   0  0  0  0  0  0  0  0  0  0  0  0
   20.5062   18.4797   20.6826 H   0  0  0  0  0  0  0  0  0  0  0  0
   21.8868   19.4639   21.1418 H   0  0  0  0  0  0  0  0  0  0  0  0
   21.1399   18.2365   22.7521 C   0  0  0  0  0  0  0  0  0  0  0  0
   21.5969   18.8554   23.5284 H   0  0  0  0  0  0  0  0  0  0  0  0
   21.8354   17.4267   22.5174 H   0  0  0  0  0  0  0  0  0  0  0  0
   19.8885   17.6095   23.3484 N   0  3  0  0  0  0  0  0  0  0  0  0
   19.2012   18.3408   23.5826 H   0  0  0  0  0  0  0  0  0  0  0  0
   20.1215   17.1656   24.2505 H   0  0  0  0  0  0  0  0  0  0  0  0
   19.2814   16.5775   22.4044 C   0  0  0  0  0  0  0  0  0  0  0  0
   20.0241   15.8061   22.1896 H   0  0  0  0  0  0  0  0  0  0  0  0
   18.4090   16.1256   22.8814 H   0  0  0  0  0  0  0  0  0  0  0  0
   18.9787   17.0686   21.4775 H   0  0  0  0  0  0  0  0  0  0  0  0
  1  2  1  0  0  0  0
  1  3  1  0  0  0  0
  1  4  1  0  0  0  0
  1  5  1  0  0  0  0
  5  6  1  0  0  0  0
  5  7  1  0  0  0  0
  5  8  1  0  0  0  0
  8  9  1  0  0  0  0
  8 10  1  0  0  0  0
  8 11  1  0  0  0  0
 11 12  1  0  0  0  0
 11 13  1  0  0  0  0
 11 14  1  0  0  0  0
 14 15  1  0  0  0  0
 14 16  1  0  0  0  0
 14 17  1  0  0  0  0
 17 18  1  0  0  0  0
 17 19  1  0  0  0  0
 17 20  1  0  0  0  0
M  END
> <VConfSearch Rank>
959

> <Conf_Id>
49

> <Delta U+W>
0.268

> <U+W>
15.607

> <U>
70.298

> <W>
-54.692

> <W(PB)>
-56.576

> <W(SA)>
1.885

> <Valence>
1.245

> <Coulomb>
68.933

> <VdW>
0.120

> <VdW6>
-4.430

> <VdW12>
4.550

> <Bond>
0.148

> <Angle>
0.587

> <Pdih>
0.509

> <Idih>
0.000

> <Tether>
0.000

$$$$
VeraChem MOL file


 20 19  0  0  0  0  0  0  0  0999 V2000     
   22.6372   17.7658   21.7563 C   0  0  0  0  0  0  0  0  0  0  0  0
   22.8679   17.5212   22.8014 H   0  0  0  0  0  0  0  0  0  0  0  0
   22.6480   16.8335   21.1769 H   0  0  0  0  0  0  0  0  0  0  0  0
   23.4428   18.4069   21.3754 H   0  0  0  0  0  0  0  0  0  0  0  0
   21.2721   18.4781   21.6404 C   0  0  0  0  0  0  0  0  0  0  0  0
   21.0822   18.7348   20.5887 H   0  0  0  0  0  0  0  0  0  0  0  0
   21.3167   19.4220   22.1995 H   0  0  0  0  0  0  0  0  0  0  0  0
   20.1200   17.5995   22.1810 C   0  0  0  0  0  0  0  0  0  0  0  0
   20.1608   16.6160   21.6944 H   0  0  0  0  0  0  0  0  0  0  0  0
   20.2636   17.4179   23.2543 H   0  0  0  0  0  0  0  0  0  0  0  0
   18.7109   18.1889   21.9442 C   0  0  0  0  0  0  0  0  0  0  0  0
   17.9774   17.4626   22.3034 H   0  0  0  0  0  0  0  0  0  0  0  0
   18.5351   18.3358   20.8756 H   0  0  0  0  0  0  0  0  0  0  0  0
   18.4167   19.4981   22.6603 N   0  3  0  0  0  0  0  0  0  0  0  0
   18.9167   19.5357   23.5611 H   0  0  0  0  0  0  0  0  0  0  0  0
   17.4165   19.5308   22.9123 H   0  0  0  0  0  0  0  0  0  0  0  0
   18.7526   20.7007   21.7841 C   0  0  0  0  0  0  0  0  0  0  0  0
   18.5057   21.6167   22.3253 H   0  0  0  0  0  0  0  0  0  0  0  0
   19.8156   20.6952   21.5407 H   0  0  0  0  0  0  0  0  0  0  0  0
   18.1649   20.6489   20.8650 H   0  0  0  0  0  0  0  0  0  0  0  0
  1  2  1  0  0  0  0
  1  3  1  0  0  0  0
  1  4  1  0  0  0  0
  1  5  1  0  0  0  0
  5  6  1  0  0  0  0
  5  7  1  0  0  0  0
  5  8  1  0  0  0  0
  8  9  1  0  0  0  0
  8 10  1  0  0  0  0
  8 11  1  0  0  0  0
 11 12  1  0  0  0  0
 11 13  1  0  0  0  0
 11 14  1  0  0  0  0
 14 15  1  0  0  0  0
 14 16  1  0  0  0  0
 14 17  1  0  0  0  0
 17 18  1  0  0  0  0
 17 19  1  0  0  0  0
 17 20  1  0  0  0  0
M  END
> <VConfSearch Rank>
960

> <Conf_Id>
65

> <Delta U+W>
1.775

> <U+W>
17.114

> <U>
71.726

> <W>
-54.613

> <W(PB)>
-56.495

> <W(SA)>
1.883

> <Valence>
2.885

> <Coulomb>
68.822

> <VdW>
0.019

> <VdW6>
-4.600

> <VdW12>
4.619

> <Bond>
0.152

> <Angle>
0.862

> <Pdih>
1.871

> <Idih>
0.000

> <Tether>
0.000

$$$$
VeraChem MOL file


 20 19  0  0  0  0  0  0  0  0999 V2000     
   20.2212   20.3224   20.2493 C   0  0  0  0  0  0  0  0  0  0  0  0
   19.2179   20.0088   20.5638 H   0  0  0  0  0  0  0  0  0  0  0  0
   20.1852   21.4028   20.0585 H   0  0  0  0  0  0  0  0  0  0  0  0
   20.4544   19.8229   19.3000 H   0  0  0  0  0  0  0  0  0  0  0  0
   21.2835   19.9967   21.3243 C   0  0  0  0  0  0  0  0  0  0  0  0
   21.0287   20.5078   22.2626 H   0  0  0  0  0  0  0  0  0  0  0  0
   22.2509   20.4110   21.0073 H   0  0  0  0  0  0  0  0  0  0  0  0
   21.4498   18.4766   21.5727 C   0  0  0  0  0  0  0  0  0  0  0  0
   21.8044   17.9970   20.6508 H   0  0  0  0  0  0  0  0  0  0  0  0
   22.2346   18.3134   22.3232 H   0  0  0  0  0  0  0  0  0  0  0  0
   20.1564   17.7699   22.0294 C   0  0  0  0  0  0  0  0  0  0  0  0
   20.3511   16.7014   22.1513 H   0  0  0  0  0  0  0  0  0  0  0  0
   19.3834   17.8882   21.2663 H   0  0  0  0  0  0  0  0  0  0  0  0
   19.6012   18.2889   23.3421 N   0  3  0  0  0  0  0  0  0  0  0  0
   19.4108   19.2993   23.2693 H   0  0  0  0  0  0  0  0  0  0  0  0
   20.3065   18.1942   24.0887 H   0  0  0  0  0  0  0  0  0  0  0  0
   18.3316   17.5310   23.7059 C   0  0  0  0  0  0  0  0  0  0  0  0
   18.5637   16.4687   23.8082 H   0  0  0  0  0  0  0  0  0  0  0  0
   17.9426   17.9154   24.6513 H   0  0  0  0  0  0  0  0  0  0  0  0
   17.5893   17.6728   22.9174 H   0  0  0  0  0  0  0  0  0  0  0  0
  1  2  1  0  0  0  0
  1  3  1  0  0  0  0
  1  4  1  0  0  0  0
  1  5  1  0  0  0  0
  5  6  1  0  0  0  0
  5  7  1  0  0  0  0
  5  8  1  0  0  0  0
  8  9  1  0  0  0  0
  8 10  1  0  0  0  0
  8 11  1  0  0  0  0
 11 12  1  0  0  0  0
 11 13  1  0  0  0  0
 11 14  1  0  0  0  0
 14 15  1  0  0  0  0
 14 16  1  0  0  0  0
 14 17  1  0  0  0  0
 17 18  1  0  0  0  0
 17 19  1  0  0  0  0
 17 20  1  0  0  0  0
M  END
> <VConfSearch Rank>
961

> <Conf_Id>
23

> <Delta U+W>
0.896

> <U+W>
16.234

> <U>
70.374

> <W>
-54.140

> <W(PB)>
-56.046

> <W(SA)>
1.907

> <Valence>
1.257

> <Coulomb>
69.240

> <VdW>
-0.123

> <VdW6>
-4.336

> <VdW12>
4.213

> <Bond>
0.128

> <Angle>
0.603

> <Pdih>
0.526

> <Idih>
0.000

> <Tether>
0.000

$$$$
VeraChem MOL file


 20 19  0  0  0  0  0  0  0  0999 V2000     
   21.6390   17.8229   20.4711 C   0  0  0  0  0  0  0  0  0  0  0  0
   21.8048   16.7594   20.6867 H   0  0  0  0  0  0  0  0  0  0  0  0
   22.1984   18.0704   19.5597 H   0  0  0  0  0  0  0  0  0  0  0  0
   22.0689   18.4099   21.2925 H   0  0  0  0  0  0  0  0  0  0  0  0
   20.1343   18.1237   20.2822 C   0  0  0  0  0  0  0  0  0  0  0  0
   19.7716   17.5868   19.3944 H   0  0  0  0  0  0  0  0  0  0  0  0
   19.9949   19.1919   20.0673 H   0  0  0  0  0  0  0  0  0  0  0  0
   19.2742   17.7081   21.5018 C   0  0  0  0  0  0  0  0  0  0  0  0
   18.2176   17.9221   21.2929 H   0  0  0  0  0  0  0  0  0  0  0  0
   19.3441   16.6208   21.6389 H   0  0  0  0  0  0  0  0  0  0  0  0
   19.6804   18.3979   22.8209 C   0  0  0  0  0  0  0  0  0  0  0  0
   20.7177   18.1521   23.0604 H   0  0  0  0  0  0  0  0  0  0  0  0
   19.0487   18.0282   23.6325 H   0  0  0  0  0  0  0  0  0  0  0  0
   19.5528   19.9090   22.7908 N   0  3  0  0  0  0  0  0  0  0  0  0
   18.5832   20.1795   22.5656 H   0  0  0  0  0  0  0  0  0  0  0  0
   20.1307   20.2964   22.0303 H   0  0  0  0  0  0  0  0  0  0  0  0
   19.9737   20.4935   24.1323 C   0  0  0  0  0  0  0  0  0  0  0  0
   21.0122   20.2218   24.3334 H   0  0  0  0  0  0  0  0  0  0  0  0
   19.8780   21.5810   24.0958 H   0  0  0  0  0  0  0  0  0  0  0  0
   19.3284   20.0934   24.9173 H   0  0  0  0  0  0  0  0  0  0  0  0
  1  2  1  0  0  0  0
  1  3  1  0  0  0  0
  1  4  1  0  0  0  0
  1  5  1  0  0  0  0
  5  6  1  0  0  0  0
  5  7  1  0  0  0  0
  5  8  1  0  0  0  0
  8  9  1  0  0  0  0
  8 10  1  0  0  0  0
  8 11  1  0  0  0  0
 11 12  1  0  0  0  0
 11 13  1  0  0  0  0
 11 14  1  0  0  0  0
 14 15  1  0  0  0  0
 14 16  1  0  0  0  0
 14 17  1  0  0  0  0
 17 18  1  0  0  0  0
 17 19  1  0  0  0  0
 17 20  1  0  0  0  0
M  END
> <VConfSearch Rank>
962

> <Conf_Id>
24

> <Delta U+W>
0.792

> <U+W>
16.130

> <U>
70.374

> <W>
-54.243

> <W(PB)>
-56.130

> <W(SA)>
1.887

> <Valence>
1.257

> <Coulomb>
69.240

> <VdW>
-0.123

> <VdW6>
-4.336

> <VdW12>
4.213

> <Bond>
0.128

> <Angle>
0.603

> <Pdih>
0.526

> <Idih>
0.000

> <Tether>
0.000

$$$$
VeraChem MOL file


 20 19  0  0  0  0  0  0  0  0999 V2000     
   18.4789   17.2592   21.5659 C   0  0  0  0  0  0  0  0  0  0  0  0
   17.6105   16.5904   21.6273 H   0  0  0  0  0  0  0  0  0  0  0  0
   18.1003   18.2849   21.6485 H   0  0  0  0  0  0  0  0  0  0  0  0
   18.9314   17.1255   20.5746 H   0  0  0  0  0  0  0  0  0  0  0  0
   19.4860   16.9329   22.6923 C   0  0  0  0  0  0  0  0  0  0  0  0
   19.6690   15.8492   22.6957 H   0  0  0  0  0  0  0  0  0  0  0  0
   19.0336   17.1672   23.6662 H   0  0  0  0  0  0  0  0  0  0  0  0
   20.8500   17.6581   22.5639 C   0  0  0  0  0  0  0  0  0  0  0  0
   21.5011   17.2987   23.3718 H   0  0  0  0  0  0  0  0  0  0  0  0
   21.3475   17.3734   21.6273 H   0  0  0  0  0  0  0  0  0  0  0  0
   20.7685   19.1955   22.6728 C   0  0  0  0  0  0  0  0  0  0  0  0
   21.7519   19.5870   22.9452 H   0  0  0  0  0  0  0  0  0  0  0  0
   20.0632   19.4731   23.4601 H   0  0  0  0  0  0  0  0  0  0  0  0
   20.3556   19.8924   21.3903 N   0  3  0  0  0  0  0  0  0  0  0  0
   19.4543   19.5188   21.0606 H   0  0  0  0  0  0  0  0  0  0  0  0
   21.0308   19.6822   20.6394 H   0  0  0  0  0  0  0  0  0  0  0  0
   20.2622   21.3947   21.6202 C   0  0  0  0  0  0  0  0  0  0  0  0
   19.5189   21.5947   22.3950 H   0  0  0  0  0  0  0  0  0  0  0  0
   21.2371   21.7712   21.9376 H   0  0  0  0  0  0  0  0  0  0  0  0
   19.9645   21.8826   20.6895 H   0  0  0  0  0  0  0  0  0  0  0  0
  1  2  1  0  0  0  0
  1  3  1  0  0  0  0
  1  4  1  0  0  0  0
  1  5  1  0  0  0  0
  5  6  1  0  0  0  0
  5  7  1  0  0  0  0
  5  8  1  0  0  0  0
  8  9  1  0  0  0  0
  8 10  1  0  0  0  0
  8 11  1  0  0  0  0
 11 12  1  0  0  0  0
 11 13  1  0  0  0  0
 11 14  1  0  0  0  0
 14 15  1  0  0  0  0
 14 16  1  0  0  0  0
 14 17  1  0  0  0  0
 17 18  1  0  0  0  0
 17 19  1  0  0  0  0
 17 20  1  0  0  0  0
M  END
> <VConfSearch Rank>
963

> <Conf_Id>
26

> <Delta U+W>
2.888

> <U+W>
18.226

> <U>
72.042

> <W>
-53.816

> <W(PB)>
-55.689

> <W(SA)>
1.873

> <Valence>
2.428

> <Coulomb>
69.829

> <VdW>
-0.215

> <VdW6>
-4.563

> <VdW12>
4.348

> <Bond>
0.137

> <Angle>
0.936

> <Pdih>
1.356

> <Idih>
0.000

> <Tether>
0.000

$$$$
VeraChem MOL file


 20 19  0  0  0  0  0  0  0  0999 V2000     
   18.6842   20.3466   21.2284 C   0  0  0  0  0  0  0  0  0  0  0  0
   17.7570   20.8359   20.9025 H   0  0  0  0  0  0  0  0  0  0  0  0
   19.5218   20.9902   20.9299 H   0  0  0  0  0  0  0  0  0  0  0  0
   18.7539   19.3970   20.6847 H   0  0  0  0  0  0  0  0  0  0  0  0
   18.6627   20.1250   22.7581 C   0  0  0  0  0  0  0  0  0  0  0  0
   17.8734   19.4034   23.0119 H   0  0  0  0  0  0  0  0  0  0  0  0
   18.3788   21.0687   23.2450 H   0  0  0  0  0  0  0  0  0  0  0  0
   20.0120   19.6529   23.3575 C   0  0  0  0  0  0  0  0  0  0  0  0
   20.7940   20.4021   23.1756 H   0  0  0  0  0  0  0  0  0  0  0  0
   19.8963   19.5973   24.4480 H   0  0  0  0  0  0  0  0  0  0  0  0
   20.4812   18.2685   22.8620 C   0  0  0  0  0  0  0  0  0  0  0  0
   19.6284   17.5873   22.8076 H   0  0  0  0  0  0  0  0  0  0  0  0
   21.1982   17.8574   23.5771 H   0  0  0  0  0  0  0  0  0  0  0  0
   21.1678   18.2878   21.5095 N   0  3  0  0  0  0  0  0  0  0  0  0
   22.0040   18.8908   21.5451 H   0  0  0  0  0  0  0  0  0  0  0  0
   20.5499   18.7176   20.8067 H   0  0  0  0  0  0  0  0  0  0  0  0
   21.5468   16.8719   21.0972 C   0  0  0  0  0  0  0  0  0  0  0  0
   20.6434   16.2613   21.0346 H   0  0  0  0  0  0  0  0  0  0  0  0
   22.0396   16.9015   20.1229 H   0  0  0  0  0  0  0  0  0  0  0  0
   22.2266   16.4506   21.8408 H   0  0  0  0  0  0  0  0  0  0  0  0
  1  2  1  0  0  0  0
  1  3  1  0  0  0  0
  1  4  1  0  0  0  0
  1  5  1  0  0  0  0
  5  6  1  0  0  0  0
  5  7  1  0  0  0  0
  5  8  1  0  0  0  0
  8  9  1  0  0  0  0
  8 10  1  0  0  0  0
  8 11  1  0  0  0  0
 11 12  1  0  0  0  0
 11 13  1  0  0  0  0
 11 14  1  0  0  0  0
 14 15  1  0  0  0  0
 14 16  1  0  0  0  0
 14 17  1  0  0  0  0
 17 18  1  0  0  0  0
 17 19  1  0  0  0  0
 17 20  1  0  0  0  0
M  END
> <VConfSearch Rank>
964

> <Conf_Id>
5

> <Delta U+W>
2.950

> <U+W>
18.289

> <U>
72.042

> <W>
-53.753

> <W(PB)>
-55.644

> <W(SA)>
1.891

> <Valence>
2.428

> <Coulomb>
69.829

> <VdW>
-0.215

> <VdW6>
-4.563

> <VdW12>
4.348

> <Bond>
0.137

> <Angle>
0.936

> <Pdih>
1.356

> <Idih>
0.000

> <Tether>
0.000

$$$$
VeraChem MOL file


 20 19  0  0  0  0  0  0  0  0999 V2000     
   21.8318   20.4363   21.3946 C   0  0  0  0  0  0  0  0  0  0  0  0
   22.5627   20.0142   20.6926 H   0  0  0  0  0  0  0  0  0  0  0  0
   20.9341   20.7137   20.8280 H   0  0  0  0  0  0  0  0  0  0  0  0
   22.2600   21.3584   21.8085 H   0  0  0  0  0  0  0  0  0  0  0  0
   21.5055   19.4345   22.5259 C   0  0  0  0  0  0  0  0  0  0  0  0
   20.7764   19.8796   23.2166 H   0  0  0  0  0  0  0  0  0  0  0  0
   22.4140   19.2564   23.1182 H   0  0  0  0  0  0  0  0  0  0  0  0
   20.9786   18.0759   22.0006 C   0  0  0  0  0  0  0  0  0  0  0  0
   21.7561   17.5996   21.3889 H   0  0  0  0  0  0  0  0  0  0  0  0
   20.8058   17.4000   22.8480 H   0  0  0  0  0  0  0  0  0  0  0  0
   19.6880   18.1857   21.1569 C   0  0  0  0  0  0  0  0  0  0  0  0
   19.3809   17.1898   20.8276 H   0  0  0  0  0  0  0  0  0  0  0  0
   19.8956   18.7826   20.2655 H   0  0  0  0  0  0  0  0  0  0  0  0
   18.5033   18.8238   21.8659 N   0  3  0  0  0  0  0  0  0  0  0  0
   17.7395   18.9815   21.1899 H   0  0  0  0  0  0  0  0  0  0  0  0
   18.7590   19.7630   22.2044 H   0  0  0  0  0  0  0  0  0  0  0  0
   18.0088   17.9501   23.0134 C   0  0  0  0  0  0  0  0  0  0  0  0
   18.8042   17.8402   23.7532 H   0  0  0  0  0  0  0  0  0  0  0  0
   17.1407   18.4246   23.4762 H   0  0  0  0  0  0  0  0  0  0  0  0
   17.7278   16.9696   22.6232 H   0  0  0  0  0  0  0  0  0  0  0  0
  1  2  1  0  0  0  0
  1  3  1  0  0  0  0
  1  4  1  0  0  0  0
  1  5  1  0  0  0  0
  5  6  1  0  0  0  0
  5  7  1  0  0  0  0
  5  8  1  0  0  0  0
  8  9  1  0  0  0  0
  8 10  1  0  0  0  0
  8 11  1  0  0  0  0
 11 12  1  0  0  0  0
 11 13  1  0  0  0  0
 11 14  1  0  0  0  0
 14 15  1  0  0  0  0
 14 16  1  0  0  0  0
 14 17  1  0  0  0  0
 17 18  1  0  0  0  0
 17 19  1  0  0  0  0
 17 20  1  0  0  0  0
M  END
> <VConfSearch Rank>
965

> <Conf_Id>
52

> <Delta U+W>
0.784

> <U+W>
16.122

> <U>
70.777

> <W>
-54.655

> <W(PB)>
-56.491

> <W(SA)>
1.836

> <Valence>
1.529

> <Coulomb>
69.166

> <VdW>
0.082

> <VdW6>
-5.166

> <VdW12>
5.248

> <Bond>
0.171

> <Angle>
0.752

> <Pdih>
0.605

> <Idih>
0.000

> <Tether>
0.000

$$$$
VeraChem MOL file


 20 19  0  0  0  0  0  0  0  0999 V2000     
   21.3047   20.5866   21.8939 C   0  0  0  0  0  0  0  0  0  0  0  0
   22.0866   21.3444   21.7546 H   0  0  0  0  0  0  0  0  0  0  0  0
   20.6233   20.6688   21.0395 H   0  0  0  0  0  0  0  0  0  0  0  0
   20.7564   20.8390   22.8110 H   0  0  0  0  0  0  0  0  0  0  0  0
   21.9348   19.1780   21.9857 C   0  0  0  0  0  0  0  0  0  0  0  0
   22.7704   19.2157   22.6986 H   0  0  0  0  0  0  0  0  0  0  0  0
   22.3758   18.9089   21.0156 H   0  0  0  0  0  0  0  0  0  0  0  0
   20.9563   18.0658   22.4422 C   0  0  0  0  0  0  0  0  0  0  0  0
   21.5328   17.1389   22.5607 H   0  0  0  0  0  0  0  0  0  0  0  0
   20.5574   18.2964   23.4381 H   0  0  0  0  0  0  0  0  0  0  0  0
   19.8048   17.7757   21.4516 C   0  0  0  0  0  0  0  0  0  0  0  0
   19.3800   16.7931   21.6717 H   0  0  0  0  0  0  0  0  0  0  0  0
   20.2075   17.7445   20.4361 H   0  0  0  0  0  0  0  0  0  0  0  0
   18.6538   18.7695   21.4669 N   0  3  0  0  0  0  0  0  0  0  0  0
   18.0410   18.6008   20.6538 H   0  0  0  0  0  0  0  0  0  0  0  0
   19.0119   19.7265   21.3418 H   0  0  0  0  0  0  0  0  0  0  0  0
   17.8454   18.6595   22.7549 C   0  0  0  0  0  0  0  0  0  0  0  0
   17.4656   17.6405   22.8548 H   0  0  0  0  0  0  0  0  0  0  0  0
   18.4840   18.9016   23.6065 H   0  0  0  0  0  0  0  0  0  0  0  0
   17.0093   19.3610   22.7134 H   0  0  0  0  0  0  0  0  0  0  0  0
  1  2  1  0  0  0  0
  1  3  1  0  0  0  0
  1  4  1  0  0  0  0
  1  5  1  0  0  0  0
  5  6  1  0  0  0  0
  5  7  1  0  0  0  0
  5  8  1  0  0  0  0
  8  9  1  0  0  0  0
  8 10  1  0  0  0  0
  8 11  1  0  0  0  0
 11 12  1  0  0  0  0
 11 13  1  0  0  0  0
 11 14  1  0  0  0  0
 14 15  1  0  0  0  0
 14 16  1  0  0  0  0
 14 17  1  0  0  0  0
 17 18  1  0  0  0  0
 17 19  1  0  0  0  0
 17 20  1  0  0  0  0
M  END
> <VConfSearch Rank>
966

> <Conf_Id>
55

> <Delta U+W>
2.745

> <U+W>
18.083

> <U>
72.490

> <W>
-54.407

> <W(PB)>
-56.269

> <W(SA)>
1.861

> <Valence>
2.738

> <Coulomb>
69.795

> <VdW>
-0.043

> <VdW6>
-5.333

> <VdW12>
5.290

> <Bond>
0.182

> <Angle>
1.135

> <Pdih>
1.422

> <Idih>
0.000

> <Tether>
0.000

$$$$
VeraChem MOL file


 20 19  0  0  0  0  0  0  0  0999 V2000     
   21.0422   19.4210   20.3243 C   0  0  0  0  0  0  0  0  0  0  0  0
   21.7469   19.7561   19.5520 H   0  0  0  0  0  0  0  0  0  0  0  0
   20.4076   18.6428   19.8804 H   0  0  0  0  0  0  0  0  0  0  0  0
   20.4171   20.2833   20.5831 H   0  0  0  0  0  0  0  0  0  0  0  0
   21.8107   18.8858   21.5540 C   0  0  0  0  0  0  0  0  0  0  0  0
   22.3442   19.7133   22.0426 H   0  0  0  0  0  0  0  0  0  0  0  0
   22.5860   18.1895   21.2047 H   0  0  0  0  0  0  0  0  0  0  0  0
   20.9268   18.1479   22.5918 C   0  0  0  0  0  0  0  0  0  0  0  0
   20.4372   17.2829   22.1269 H   0  0  0  0  0  0  0  0  0  0  0  0
   21.5890   17.7345   23.3639 H   0  0  0  0  0  0  0  0  0  0  0  0
   19.8845   19.0431   23.3016 C   0  0  0  0  0  0  0  0  0  0  0  0
   20.3582   19.9869   23.5833 H   0  0  0  0  0  0  0  0  0  0  0  0
   19.5523   18.5504   24.2187 H   0  0  0  0  0  0  0  0  0  0  0  0
   18.6362   19.3694   22.4967 N   0  3  0  0  0  0  0  0  0  0  0  0
   18.8985   19.7662   21.5837 H   0  0  0  0  0  0  0  0  0  0  0  0
   18.1030   20.1138   22.9728 H   0  0  0  0  0  0  0  0  0  0  0  0
   17.7562   18.1373   22.3172 C   0  0  0  0  0  0  0  0  0  0  0  0
   18.3046   17.3777   21.7569 H   0  0  0  0  0  0  0  0  0  0  0  0
   17.4808   17.7465   23.2990 H   0  0  0  0  0  0  0  0  0  0  0  0
   16.8552   18.4183   21.7675 H   0  0  0  0  0  0  0  0  0  0  0  0
  1  2  1  0  0  0  0
  1  3  1  0  0  0  0
  1  4  1  0  0  0  0
  1  5  1  0  0  0  0
  5  6  1  0  0  0  0
  5  7  1  0  0  0  0
  5  8  1  0  0  0  0
  8  9  1  0  0  0  0
  8 10  1  0  0  0  0
  8 11  1  0  0  0  0
 11 12  1  0  0  0  0
 11 13  1  0  0  0  0
 11 14  1  0  0  0  0
 14 15  1  0  0  0  0
 14 16  1  0  0  0  0
 14 17  1  0  0  0  0
 17 18  1  0  0  0  0
 17 19  1  0  0  0  0
 17 20  1  0  0  0  0
M  END
> <VConfSearch Rank>
967

> <Conf_Id>
76

> <Delta U+W>
2.799

> <U+W>
18.137

> <U>
72.490

> <W>
-54.353

> <W(PB)>
-56.201

> <W(SA)>
1.848

> <Valence>
2.738

> <Coulomb>
69.795

> <VdW>
-0.043

> <VdW6>
-5.334

> <VdW12>
5.290

> <Bond>
0.182

> <Angle>
1.135

> <Pdih>
1.421

> <Idih>
0.000

> <Tether>
0.000

$$$$
VeraChem MOL file


 20 19  0  0  0  0  0  0  0  0999 V2000     
   18.9193   18.2711   23.7397 C   0  0  0  0  0  0  0  0  0  0  0  0
   19.5005   19.1996   23.7962 H   0  0  0  0  0  0  0  0  0  0  0  0
   17.8552   18.5370   23.6977 H   0  0  0  0  0  0  0  0  0  0  0  0
   19.0888   17.7166   24.6717 H   0  0  0  0  0  0  0  0  0  0  0  0
   19.3257   17.4154   22.5178 C   0  0  0  0  0  0  0  0  0  0  0  0
   18.7684   16.4686   22.5476 H   0  0  0  0  0  0  0  0  0  0  0  0
   20.3858   17.1389   22.5860 H   0  0  0  0  0  0  0  0  0  0  0  0
   19.0422   18.1143   21.1655 C   0  0  0  0  0  0  0  0  0  0  0  0
   19.3121   17.4384   20.3435 H   0  0  0  0  0  0  0  0  0  0  0  0
   17.9603   18.2792   21.0760 H   0  0  0  0  0  0  0  0  0  0  0  0
   19.7556   19.4711   20.9589 C   0  0  0  0  0  0  0  0  0  0  0  0
   19.5111   20.1611   21.7699 H   0  0  0  0  0  0  0  0  0  0  0  0
   19.3795   19.9078   20.0302 H   0  0  0  0  0  0  0  0  0  0  0  0
   21.2695   19.4040   20.8224 N   0  3  0  0  0  0  0  0  0  0  0  0
   21.5879   20.1637   20.2009 H   0  0  0  0  0  0  0  0  0  0  0  0
   21.5485   18.5364   20.3407 H   0  0  0  0  0  0  0  0  0  0  0  0
   21.9647   19.5385   22.1729 C   0  0  0  0  0  0  0  0  0  0  0  0
   23.0461   19.5152   22.0214 H   0  0  0  0  0  0  0  0  0  0  0  0
   21.6792   20.4886   22.6293 H   0  0  0  0  0  0  0  0  0  0  0  0
   21.6694   18.7148   22.8234 H   0  0  0  0  0  0  0  0  0  0  0  0
  1  2  1  0  0  0  0
  1  3  1  0  0  0  0
  1  4  1  0  0  0  0
  1  5  1  0  0  0  0
  5  6  1  0  0  0  0
  5  7  1  0  0  0  0
  5  8  1  0  0  0  0
  8  9  1  0  0  0  0
  8 10  1  0  0  0  0
  8 11  1  0  0  0  0
 11 12  1  0  0  0  0
 11 13  1  0  0  0  0
 11 14  1  0  0  0  0
 14 15  1  0  0  0  0
 14 16  1  0  0  0  0
 14 17  1  0  0  0  0
 17 18  1  0  0  0  0
 17 19  1  0  0  0  0
 17 20  1  0  0  0  0
M  END
> <VConfSearch Rank>
968

> <Conf_Id>
60

> <Delta U+W>
1.788

> <U+W>
17.127

> <U>
72.122

> <W>
-54.995

> <W(PB)>
-56.810

> <W(SA)>
1.815

> <Valence>
3.197

> <Coulomb>
69.115

> <VdW>
-0.190

> <VdW6>
-5.585

> <VdW12>
5.395

> <Bond>
0.177

> <Angle>
1.207

> <Pdih>
1.813

> <Idih>
0.000

> <Tether>
0.000

$$$$
VeraChem MOL file


 20 19  0  0  0  0  0  0  0  0999 V2000     
   18.8629   19.8650   23.3368 C   0  0  0  0  0  0  0  0  0  0  0  0
   17.7820   20.0376   23.4184 H   0  0  0  0  0  0  0  0  0  0  0  0
   19.3351   20.2676   24.2422 H   0  0  0  0  0  0  0  0  0  0  0  0
   19.2267   20.4417   22.4777 H   0  0  0  0  0  0  0  0  0  0  0  0
   19.1609   18.3559   23.1800 C   0  0  0  0  0  0  0  0  0  0  0  0
   18.6638   17.9638   22.2835 H   0  0  0  0  0  0  0  0  0  0  0  0
   18.7148   17.8171   24.0277 H   0  0  0  0  0  0  0  0  0  0  0  0
   20.6755   18.0376   23.1330 C   0  0  0  0  0  0  0  0  0  0  0  0
   21.1272   18.3401   24.0870 H   0  0  0  0  0  0  0  0  0  0  0  0
   20.8164   16.9509   23.0651 H   0  0  0  0  0  0  0  0  0  0  0  0
   21.4608   18.7214   21.9892 C   0  0  0  0  0  0  0  0  0  0  0  0
   22.5226   18.5121   22.1419 H   0  0  0  0  0  0  0  0  0  0  0  0
   21.3299   19.8054   22.0279 H   0  0  0  0  0  0  0  0  0  0  0  0
   21.1245   18.2447   20.5840 N   0  3  0  0  0  0  0  0  0  0  0  0
   20.8912   17.2407   20.5917 H   0  0  0  0  0  0  0  0  0  0  0  0
   21.9666   18.3143   19.9917 H   0  0  0  0  0  0  0  0  0  0  0  0
   20.0050   19.0710   19.9603 C   0  0  0  0  0  0  0  0  0  0  0  0
   20.3087   20.1195   19.9292 H   0  0  0  0  0  0  0  0  0  0  0  0
   19.8202   18.7129   18.9451 H   0  0  0  0  0  0  0  0  0  0  0  0
   19.0963   18.9691   20.5544 H   0  0  0  0  0  0  0  0  0  0  0  0
  1  2  1  0  0  0  0
  1  3  1  0  0  0  0
  1  4  1  0  0  0  0
  1  5  1  0  0  0  0
  5  6  1  0  0  0  0
  5  7  1  0  0  0  0
  5  8  1  0  0  0  0
  8  9  1  0  0  0  0
  8 10  1  0  0  0  0
  8 11  1  0  0  0  0
 11 12  1  0  0  0  0
 11 13  1  0  0  0  0
 11 14  1  0  0  0  0
 14 15  1  0  0  0  0
 14 16  1  0  0  0  0
 14 17  1  0  0  0  0
 17 18  1  0  0  0  0
 17 19  1  0  0  0  0
 17 20  1  0  0  0  0
M  END
> <VConfSearch Rank>
969

> <Conf_Id>
54

> <Delta U+W>
1.880

> <U+W>
17.218

> <U>
72.122

> <W>
-54.903

> <W(PB)>
-56.724

> <W(SA)>
1.821

> <Valence>
3.197

> <Coulomb>
69.115

> <VdW>
-0.190

> <VdW6>
-5.585

> <VdW12>
5.395

> <Bond>
0.177

> <Angle>
1.207

> <Pdih>
1.813

> <Idih>
0.000

> <Tether>
0.000

$$$$
VeraChem MOL file


 20 19  0  0  0  0  0  0  0  0999 V2000     
   19.8408   16.1878   20.1775 C   0  0  0  0  0  0  0  0  0  0  0  0
   18.9044   15.8015   20.6006 H   0  0  0  0  0  0  0  0  0  0  0  0
   19.8409   15.9653   19.1026 H   0  0  0  0  0  0  0  0  0  0  0  0
   20.6742   15.6384   20.6344 H   0  0  0  0  0  0  0  0  0  0  0  0
   19.9762   17.7067   20.4203 C   0  0  0  0  0  0  0  0  0  0  0  0
   19.1483   18.2312   19.9225 H   0  0  0  0  0  0  0  0  0  0  0  0
   20.9043   18.0694   19.9562 H   0  0  0  0  0  0  0  0  0  0  0  0
   19.9789   18.0498   21.9263 C   0  0  0  0  0  0  0  0  0  0  0  0
   19.0499   17.6902   22.3885 H   0  0  0  0  0  0  0  0  0  0  0  0
   20.8082   17.5280   22.4223 H   0  0  0  0  0  0  0  0  0  0  0  0
   20.1142   19.5659   22.1601 C   0  0  0  0  0  0  0  0  0  0  0  0
   19.2817   20.0871   21.6808 H   0  0  0  0  0  0  0  0  0  0  0  0
   21.0458   19.9243   21.7148 H   0  0  0  0  0  0  0  0  0  0  0  0
   20.1214   19.9506   23.6266 N   0  3  0  0  0  0  0  0  0  0  0  0
   20.8916   19.4709   24.1174 H   0  0  0  0  0  0  0  0  0  0  0  0
   19.2583   19.6216   24.0859 H   0  0  0  0  0  0  0  0  0  0  0  0
   20.2581   21.4609   23.7669 C   0  0  0  0  0  0  0  0  0  0  0  0
   19.4151   21.9462   23.2703 H   0  0  0  0  0  0  0  0  0  0  0  0
   20.2619   21.7238   24.8271 H   0  0  0  0  0  0  0  0  0  0  0  0
   21.1941   21.7821   23.3048 H   0  0  0  0  0  0  0  0  0  0  0  0
  1  2  1  0  0  0  0
  1  3  1  0  0  0  0
  1  4  1  0  0  0  0
  1  5  1  0  0  0  0
  5  6  1  0  0  0  0
  5  7  1  0  0  0  0
  5  8  1  0  0  0  0
  8  9  1  0  0  0  0
  8 10  1  0  0  0  0
  8 11  1  0  0  0  0
 11 12  1  0  0  0  0
 11 13  1  0  0  0  0
 11 14  1  0  0  0  0
 14 15  1  0  0  0  0
 14 16  1  0  0  0  0
 14 17  1  0  0  0  0
 17 18  1  0  0  0  0
 17 19  1  0  0  0  0
 17 20  1  0  0  0  0
M  END
> <VConfSearch Rank>
970

> <Conf_Id>
67

> <Delta U+W>
0.000

> <U+W>
15.338

> <U>
69.277

> <W>
-53.939

> <W(PB)>
-55.889

> <W(SA)>
1.950

> <Valence>
0.846

> <Coulomb>
68.557

> <VdW>
-0.127

> <VdW6>
-3.008

> <VdW12>
2.882

> <Bond>
0.088

> <Angle>
0.332

> <Pdih>
0.426

> <Idih>
0.000

> <Tether>
0.000

$$$$
VeraChem MOL file


 20 19  0  0  0  0  0  0  0  0999 V2000     
   21.4328   16.2457   22.5182 C   0  0  0  0  0  0  0  0  0  0  0  0
   20.9925   16.2159   23.5234 H   0  0  0  0  0  0  0  0  0  0  0  0
   21.4902   15.2146   22.1458 H   0  0  0  0  0  0  0  0  0  0  0  0
   22.4578   16.6290   22.6055 H   0  0  0  0  0  0  0  0  0  0  0  0
   20.5899   17.1230   21.5673 C   0  0  0  0  0  0  0  0  0  0  0  0
   19.5816   16.6953   21.4736 H   0  0  0  0  0  0  0  0  0  0  0  0
   21.0353   17.1045   20.5626 H   0  0  0  0  0  0  0  0  0  0  0  0
   20.4919   18.5813   22.0666 C   0  0  0  0  0  0  0  0  0  0  0  0
   20.0467   18.5948   23.0698 H   0  0  0  0  0  0  0  0  0  0  0  0
   21.4991   19.0092   22.1559 H   0  0  0  0  0  0  0  0  0  0  0  0
   19.6494   19.4499   21.1097 C   0  0  0  0  0  0  0  0  0  0  0  0
   18.6306   19.0585   21.0530 H   0  0  0  0  0  0  0  0  0  0  0  0
   20.0863   19.4010   20.1090 H   0  0  0  0  0  0  0  0  0  0  0  0
   19.5663   20.9181   21.4949 N   0  3  0  0  0  0  0  0  0  0  0  0
   19.1310   21.4523   20.7265 H   0  0  0  0  0  0  0  0  0  0  0  0
   20.5128   21.3167   21.5902 H   0  0  0  0  0  0  0  0  0  0  0  0
   18.7645   21.1106   22.7777 C   0  0  0  0  0  0  0  0  0  0  0  0
   19.2670   20.5976   23.6001 H   0  0  0  0  0  0  0  0  0  0  0  0
   18.6957   22.1778   22.9996 H   0  0  0  0  0  0  0  0  0  0  0  0
   17.7626   20.6981   22.6407 H   0  0  0  0  0  0  0  0  0  0  0  0
  1  2  1  0  0  0  0
  1  3  1  0  0  0  0
  1  4  1  0  0  0  0
  1  5  1  0  0  0  0
  5  6  1  0  0  0  0
  5  7  1  0  0  0  0
  5  8  1  0  0  0  0
  8  9  1  0  0  0  0
  8 10  1  0  0  0  0
  8 11  1  0  0  0  0
 11 12  1  0  0  0  0
 11 13  1  0  0  0  0
 11 14  1  0  0  0  0
 14 15  1  0  0  0  0
 14 16  1  0  0  0  0
 14 17  1  0  0  0  0
 17 18  1  0  0  0  0
 17 19  1  0  0  0  0
 17 20  1  0  0  0  0
M  END
> <VConfSearch Rank>
971

> <Conf_Id>
37

> <Delta U+W>
-0.021

> <U+W>
15.318

> <U>
69.657

> <W>
-54.340

> <W(PB)>
-56.238

> <W(SA)>
1.899

> <Valence>
1.137

> <Coulomb>
68.383

> <VdW>
0.138

> <VdW6>
-3.703

> <VdW12>
3.841

> <Bond>
0.125

> <Angle>
0.468

> <Pdih>
0.543

> <Idih>
0.000

> <Tether>
0.000

$$$$
VeraChem MOL file


 20 19  0  0  0  0  0  0  0  0999 V2000     
   21.3371   17.4434   24.3132 C   0  0  0  0  0  0  0  0  0  0  0  0
   21.3514   17.4266   25.4107 H   0  0  0  0  0  0  0  0  0  0  0  0
   20.9745   16.4668   23.9668 H   0  0  0  0  0  0  0  0  0  0  0  0
   22.3710   17.5667   23.9655 H   0  0  0  0  0  0  0  0  0  0  0  0
   20.4364   18.5863   23.7967 C   0  0  0  0  0  0  0  0  0  0  0  0
   20.8035   19.5457   24.1881 H   0  0  0  0  0  0  0  0  0  0  0  0
   19.4180   18.4543   24.1887 H   0  0  0  0  0  0  0  0  0  0  0  0
   20.3974   18.6344   22.2534 C   0  0  0  0  0  0  0  0  0  0  0  0
   21.4144   18.7707   21.8626 H   0  0  0  0  0  0  0  0  0  0  0  0
   20.0304   17.6748   21.8672 H   0  0  0  0  0  0  0  0  0  0  0  0
   19.4966   19.7800   21.7472 C   0  0  0  0  0  0  0  0  0  0  0  0
   19.8552   20.7242   22.1652 H   0  0  0  0  0  0  0  0  0  0  0  0
   18.4710   19.6258   22.0918 H   0  0  0  0  0  0  0  0  0  0  0  0
   19.4638   19.9389   20.2357 N   0  3  0  0  0  0  0  0  0  0  0  0
   20.4203   20.0549   19.8677 H   0  0  0  0  0  0  0  0  0  0  0  0
   18.9788   20.8165   19.9915 H   0  0  0  0  0  0  0  0  0  0  0  0
   18.7650   18.7589   19.5689 C   0  0  0  0  0  0  0  0  0  0  0  0
   17.7499   18.6730   19.9624 H   0  0  0  0  0  0  0  0  0  0  0  0
   18.7282   18.9280   18.4904 H   0  0  0  0  0  0  0  0  0  0  0  0
   19.3215   17.8429   19.7768 H   0  0  0  0  0  0  0  0  0  0  0  0
  1  2  1  0  0  0  0
  1  3  1  0  0  0  0
  1  4  1  0  0  0  0
  1  5  1  0  0  0  0
  5  6  1  0  0  0  0
  5  7  1  0  0  0  0
  5  8  1  0  0  0  0
  8  9  1  0  0  0  0
  8 10  1  0  0  0  0
  8 11  1  0  0  0  0
 11 12  1  0  0  0  0
 11 13  1  0  0  0  0
 11 14  1  0  0  0  0
 14 15  1  0  0  0  0
 14 16  1  0  0  0  0
 14 17  1  0  0  0  0
 17 18  1  0  0  0  0
 17 19  1  0  0  0  0
 17 20  1  0  0  0  0
M  END
> <VConfSearch Rank>
972

> <Conf_Id>
2

> <Delta U+W>
0.069

> <U+W>
15.407

> <U>
69.657

> <W>
-54.250

> <W(PB)>
-56.176

> <W(SA)>
1.926

> <Valence>
1.137

> <Coulomb>
68.383

> <VdW>
0.138

> <VdW6>
-3.703

> <VdW12>
3.841

> <Bond>
0.125

> <Angle>
0.468

> <Pdih>
0.543

> <Idih>
0.000

> <Tether>
0.000

$$$$
VeraChem MOL file


 20 19  0  0  0  0  0  0  0  0999 V2000     
   19.6675   20.9835   20.6098 C   0  0  0  0  0  0  0  0  0  0  0  0
   20.0662   21.2027   21.6083 H   0  0  0  0  0  0  0  0  0  0  0  0
   20.5144   20.8262   19.9293 H   0  0  0  0  0  0  0  0  0  0  0  0
   19.1245   21.8741   20.2679 H   0  0  0  0  0  0  0  0  0  0  0  0
   18.7323   19.7524   20.6285 C   0  0  0  0  0  0  0  0  0  0  0  0
   18.2850   19.6270   19.6324 H   0  0  0  0  0  0  0  0  0  0  0  0
   17.8980   19.9332   21.3209 H   0  0  0  0  0  0  0  0  0  0  0  0
   19.4608   18.4455   21.0202 C   0  0  0  0  0  0  0  0  0  0  0  0
   18.7577   17.6060   20.9375 H   0  0  0  0  0  0  0  0  0  0  0  0
   20.2719   18.2483   20.3068 H   0  0  0  0  0  0  0  0  0  0  0  0
   20.0298   18.4890   22.4519 C   0  0  0  0  0  0  0  0  0  0  0  0
   19.2220   18.6829   23.1620 H   0  0  0  0  0  0  0  0  0  0  0  0
   20.7605   19.2972   22.5334 H   0  0  0  0  0  0  0  0  0  0  0  0
   20.7154   17.2019   22.8664 N   0  3  0  0  0  0  0  0  0  0  0  0
   21.4810   16.9790   22.2120 H   0  0  0  0  0  0  0  0  0  0  0  0
   20.0583   16.4097   22.7977 H   0  0  0  0  0  0  0  0  0  0  0  0
   21.2484   17.3315   24.2870 C   0  0  0  0  0  0  0  0  0  0  0  0
   20.4172   17.5331   24.9663 H   0  0  0  0  0  0  0  0  0  0  0  0
   21.7391   16.3985   24.5726 H   0  0  0  0  0  0  0  0  0  0  0  0
   21.9670   18.1529   24.3283 H   0  0  0  0  0  0  0  0  0  0  0  0
  1  2  1  0  0  0  0
  1  3  1  0  0  0  0
  1  4  1  0  0  0  0
  1  5  1  0  0  0  0
  5  6  1  0  0  0  0
  5  7  1  0  0  0  0
  5  8  1  0  0  0  0
  8  9  1  0  0  0  0
  8 10  1  0  0  0  0
  8 11  1  0  0  0  0
 11 12  1  0  0  0  0
 11 13  1  0  0  0  0
 11 14  1  0  0  0  0
 14 15  1  0  0  0  0
 14 16  1  0  0  0  0
 14 17  1  0  0  0  0
 17 18  1  0  0  0  0
 17 19  1  0  0  0  0
 17 20  1  0  0  0  0
M  END
> <VConfSearch Rank>
973

> <Conf_Id>
34

> <Delta U+W>
0.276

> <U+W>
15.615

> <U>
69.798

> <W>
-54.184

> <W(PB)>
-56.116

> <W(SA)>
1.933

> <Valence>
1.134

> <Coulomb>
68.735

> <VdW>
-0.070

> <VdW6>
-3.565

> <VdW12>
3.494

> <Bond>
0.108

> <Angle>
0.456

> <Pdih>
0.569

> <Idih>
0.000

> <Tether>
0.000

$$$$
VeraChem MOL file


 20 19  0  0  0  0  0  0  0  0999 V2000     
   19.4977   21.7588   22.4139 C   0  0  0  0  0  0  0  0  0  0  0  0
   19.4191   21.9615   23.4900 H   0  0  0  0  0  0  0  0  0  0  0  0
   20.0799   22.5716   21.9607 H   0  0  0  0  0  0  0  0  0  0  0  0
   18.4873   21.7899   21.9859 H   0  0  0  0  0  0  0  0  0  0  0  0
   20.1706   20.3940   22.1523 C   0  0  0  0  0  0  0  0  0  0  0  0
   21.1898   20.4056   22.5640 H   0  0  0  0  0  0  0  0  0  0  0  0
   20.2683   20.2442   21.0685 H   0  0  0  0  0  0  0  0  0  0  0  0
   19.3684   19.2303   22.7811 C   0  0  0  0  0  0  0  0  0  0  0  0
   19.2458   19.4140   23.8568 H   0  0  0  0  0  0  0  0  0  0  0  0
   18.3575   19.1951   22.3536 H   0  0  0  0  0  0  0  0  0  0  0  0
   20.0545   17.8619   22.5960 C   0  0  0  0  0  0  0  0  0  0  0  0
   19.4889   17.0983   23.1360 H   0  0  0  0  0  0  0  0  0  0  0  0
   21.0634   17.8972   23.0146 H   0  0  0  0  0  0  0  0  0  0  0  0
   20.1621   17.4141   21.1504 N   0  3  0  0  0  0  0  0  0  0  0  0
   20.6922   18.1075   20.6020 H   0  0  0  0  0  0  0  0  0  0  0  0
   19.2260   17.3793   20.7184 H   0  0  0  0  0  0  0  0  0  0  0  0
   20.8350   16.0501   21.0776 C   0  0  0  0  0  0  0  0  0  0  0  0
   21.8356   16.1188   21.5100 H   0  0  0  0  0  0  0  0  0  0  0  0
   20.2399   15.3250   21.6368 H   0  0  0  0  0  0  0  0  0  0  0  0
   20.9060   15.7402   20.0326 H   0  0  0  0  0  0  0  0  0  0  0  0
  1  2  1  0  0  0  0
  1  3  1  0  0  0  0
  1  4  1  0  0  0  0
  1  5  1  0  0  0  0
  5  6  1  0  0  0  0
  5  7  1  0  0  0  0
  5  8  1  0  0  0  0
  8  9  1  0  0  0  0
  8 10  1  0  0  0  0
  8 11  1  0  0  0  0
 11 12  1  0  0  0  0
 11 13  1  0  0  0  0
 11 14  1  0  0  0  0
 14 15  1  0  0  0  0
 14 16  1  0  0  0  0
 14 17  1  0  0  0  0
 17 18  1  0  0  0  0
 17 19  1  0  0  0  0
 17 20  1  0  0  0  0
M  END
> <VConfSearch Rank>
974

> <Conf_Id>
50

> <Delta U+W>
0.319

> <U+W>
15.657

> <U>
69.962

> <W>
-54.305

> <W(PB)>
-56.223

> <W(SA)>
1.918

> <Valence>
0.982

> <Coulomb>
69.058

> <VdW>
-0.078

> <VdW6>
-3.548

> <VdW12>
3.471

> <Bond>
0.105

> <Angle>
0.408

> <Pdih>
0.469

> <Idih>
0.000

> <Tether>
0.000

$$$$
VeraChem MOL file


 20 19  0  0  0  0  0  0  0  0999 V2000     
   22.4749   17.2969   23.0360 C   0  0  0  0  0  0  0  0  0  0  0  0
   22.4972   16.2149   23.2204 H   0  0  0  0  0  0  0  0  0  0  0  0
   23.3502   17.5513   22.4242 H   0  0  0  0  0  0  0  0  0  0  0  0
   22.5755   17.8050   24.0040 H   0  0  0  0  0  0  0  0  0  0  0  0
   21.1640   17.7029   22.3284 C   0  0  0  0  0  0  0  0  0  0  0  0
   20.3115   17.3972   22.9500 H   0  0  0  0  0  0  0  0  0  0  0  0
   21.0775   17.1547   21.3796 H   0  0  0  0  0  0  0  0  0  0  0  0
   21.1075   19.2249   22.0574 C   0  0  0  0  0  0  0  0  0  0  0  0
   21.1650   19.7787   23.0039 H   0  0  0  0  0  0  0  0  0  0  0  0
   21.9859   19.5213   21.4687 H   0  0  0  0  0  0  0  0  0  0  0  0
   19.8403   19.6489   21.2880 C   0  0  0  0  0  0  0  0  0  0  0  0
   19.7777   19.0936   20.3488 H   0  0  0  0  0  0  0  0  0  0  0  0
   19.9018   20.7138   21.0498 H   0  0  0  0  0  0  0  0  0  0  0  0
   18.5487   19.4252   22.0520 N   0  3  0  0  0  0  0  0  0  0  0  0
   18.5764   19.9282   22.9521 H   0  0  0  0  0  0  0  0  0  0  0  0
   18.4484   18.4290   22.2968 H   0  0  0  0  0  0  0  0  0  0  0  0
   17.3636   19.8905   21.2165 C   0  0  0  0  0  0  0  0  0  0  0  0
   16.4414   19.7238   21.7776 H   0  0  0  0  0  0  0  0  0  0  0  0
   17.4736   20.9547   20.9972 H   0  0  0  0  0  0  0  0  0  0  0  0
   17.3352   19.3221   20.2843 H   0  0  0  0  0  0  0  0  0  0  0  0
  1  2  1  0  0  0  0
  1  3  1  0  0  0  0
  1  4  1  0  0  0  0
  1  5  1  0  0  0  0
  5  6  1  0  0  0  0
  5  7  1  0  0  0  0
  5  8  1  0  0  0  0
  8  9  1  0  0  0  0
  8 10  1  0  0  0  0
  8 11  1  0  0  0  0
 11 12  1  0  0  0  0
 11 13  1  0  0  0  0
 11 14  1  0  0  0  0
 14 15  1  0  0  0  0
 14 16  1  0  0  0  0
 14 17  1  0  0  0  0
 17 18  1  0  0  0  0
 17 19  1  0  0  0  0
 17 20  1  0  0  0  0
M  END
> <VConfSearch Rank>
975

> <Conf_Id>
35

> <Delta U+W>
0.360

> <U+W>
15.698

> <U>
69.962

> <W>
-54.264

> <W(PB)>
-56.166

> <W(SA)>
1.902

> <Valence>
0.982

> <Coulomb>
69.058

> <VdW>
-0.078

> <VdW6>
-3.548

> <VdW12>
3.471

> <Bond>
0.105

> <Angle>
0.408

> <Pdih>
0.469

> <Idih>
0.000

> <Tether>
0.000

$$$$
VeraChem MOL file


 20 19  0  0  0  0  0  0  0  0999 V2000     
   21.2032   19.0411   24.2835 C   0  0  0  0  0  0  0  0  0  0  0  0
   21.2563   17.9611   24.0964 H   0  0  0  0  0  0  0  0  0  0  0  0
   21.9608   19.2832   25.0401 H   0  0  0  0  0  0  0  0  0  0  0  0
   20.2181   19.2667   24.7122 H   0  0  0  0  0  0  0  0  0  0  0  0
   21.4476   19.8546   22.9917 C   0  0  0  0  0  0  0  0  0  0  0  0
   22.4365   19.6068   22.5809 H   0  0  0  0  0  0  0  0  0  0  0  0
   21.4765   20.9244   23.2418 H   0  0  0  0  0  0  0  0  0  0  0  0
   20.3620   19.6191   21.9157 C   0  0  0  0  0  0  0  0  0  0  0  0
   19.3817   19.9037   22.3193 H   0  0  0  0  0  0  0  0  0  0  0  0
   20.5551   20.2819   21.0619 H   0  0  0  0  0  0  0  0  0  0  0  0
   20.3246   18.1569   21.4217 C   0  0  0  0  0  0  0  0  0  0  0  0
   20.0668   17.4913   22.2489 H   0  0  0  0  0  0  0  0  0  0  0  0
   21.3182   17.8793   21.0607 H   0  0  0  0  0  0  0  0  0  0  0  0
   19.3430   17.8963   20.2909 N   0  3  0  0  0  0  0  0  0  0  0  0
   19.4959   16.9485   19.9122 H   0  0  0  0  0  0  0  0  0  0  0  0
   19.5325   18.5303   19.4998 H   0  0  0  0  0  0  0  0  0  0  0  0
   17.9008   18.0372   20.7661 C   0  0  0  0  0  0  0  0  0  0  0  0
   17.7286   19.0609   21.1039 H   0  0  0  0  0  0  0  0  0  0  0  0
   17.2272   17.8068   19.9377 H   0  0  0  0  0  0  0  0  0  0  0  0
   17.7238   17.3409   21.5886 H   0  0  0  0  0  0  0  0  0  0  0  0
  1  2  1  0  0  0  0
  1  3  1  0  0  0  0
  1  4  1  0  0  0  0
  1  5  1  0  0  0  0
  5  6  1  0  0  0  0
  5  7  1  0  0  0  0
  5  8  1  0  0  0  0
  8  9  1  0  0  0  0
  8 10  1  0  0  0  0
  8 11  1  0  0  0  0
 11 12  1  0  0  0  0
 11 13  1  0  0  0  0
 11 14  1  0  0  0  0
 14 15  1  0  0  0  0
 14 16  1  0  0  0  0
 14 17  1  0  0  0  0
 17 18  1  0  0  0  0
 17 19  1  0  0  0  0
 17 20  1  0  0  0  0
M  END
> <VConfSearch Rank>
976

> <Conf_Id>
33

> <Delta U+W>
0.372

> <U+W>
15.711

> <U>
70.163

> <W>
-54.452

> <W(PB)>
-56.363

> <W(SA)>
1.911

> <Valence>
1.420

> <Coulomb>
68.566

> <VdW>
0.177

> <VdW6>
-4.267

> <VdW12>
4.445

> <Bond>
0.146

> <Angle>
0.581

> <Pdih>
0.693

> <Idih>
0.000

> <Tether>
0.000

$$$$
VeraChem MOL file


 20 19  0  0  0  0  0  0  0  0999 V2000     
   18.8305   20.5152   20.5676 C   0  0  0  0  0  0  0  0  0  0  0  0
   18.1371   20.9324   19.8259 H   0  0  0  0  0  0  0  0  0  0  0  0
   18.3369   20.5651   21.5464 H   0  0  0  0  0  0  0  0  0  0  0  0
   19.7172   21.1617   20.5975 H   0  0  0  0  0  0  0  0  0  0  0  0
   19.2123   19.0637   20.1967 C   0  0  0  0  0  0  0  0  0  0  0  0
   19.6181   19.0494   19.1754 H   0  0  0  0  0  0  0  0  0  0  0  0
   18.3091   18.4375   20.1787 H   0  0  0  0  0  0  0  0  0  0  0  0
   20.2541   18.4487   21.1602 C   0  0  0  0  0  0  0  0  0  0  0  0
   20.5345   17.4520   20.7948 H   0  0  0  0  0  0  0  0  0  0  0  0
   21.1673   19.0574   21.1455 H   0  0  0  0  0  0  0  0  0  0  0  0
   19.7250   18.3264   22.6054 C   0  0  0  0  0  0  0  0  0  0  0  0
   18.7956   17.7514   22.5951 H   0  0  0  0  0  0  0  0  0  0  0  0
   19.5046   19.3187   23.0061 H   0  0  0  0  0  0  0  0  0  0  0  0
   20.6745   17.6349   23.5701 N   0  3  0  0  0  0  0  0  0  0  0  0
   20.9342   16.7039   23.2103 H   0  0  0  0  0  0  0  0  0  0  0  0
   20.1868   17.4475   24.4601 H   0  0  0  0  0  0  0  0  0  0  0  0
   21.9155   18.4826   23.8286 C   0  0  0  0  0  0  0  0  0  0  0  0
   22.5536   17.9710   24.5526 H   0  0  0  0  0  0  0  0  0  0  0  0
   22.4614   18.6212   22.8934 H   0  0  0  0  0  0  0  0  0  0  0  0
   21.6115   19.4528   24.2273 H   0  0  0  0  0  0  0  0  0  0  0  0
  1  2  1  0  0  0  0
  1  3  1  0  0  0  0
  1  4  1  0  0  0  0
  1  5  1  0  0  0  0
  5  6  1  0  0  0  0
  5  7  1  0  0  0  0
  5  8  1  0  0  0  0
  8  9  1  0  0  0  0
  8 10  1  0  0  0  0
  8 11  1  0  0  0  0
 11 12  1  0  0  0  0
 11 13  1  0  0  0  0
 11 14  1  0  0  0  0
 14 15  1  0  0  0  0
 14 16  1  0  0  0  0
 14 17  1  0  0  0  0
 17 18  1  0  0  0  0
 17 19  1  0  0  0  0
 17 20  1  0  0  0  0
M  END
> <VConfSearch Rank>
977

> <Conf_Id>
53

> <Delta U+W>
0.379

> <U+W>
15.717

> <U>
70.163

> <W>
-54.446

> <W(PB)>
-56.322

> <W(SA)>
1.876

> <Valence>
1.420

> <Coulomb>
68.566

> <VdW>
0.177

> <VdW6>
-4.267

> <VdW12>
4.445

> <Bond>
0.146

> <Angle>
0.581

> <Pdih>
0.693

> <Idih>
0.000

> <Tether>
0.000

$$$$
VeraChem MOL file


 20 19  0  0  0  0  0  0  0  0999 V2000     
   20.4451   17.2377   19.7193 C   0  0  0  0  0  0  0  0  0  0  0  0
   20.2918   16.1541   19.6334 H   0  0  0  0  0  0  0  0  0  0  0  0
   20.0250   17.7086   18.8210 H   0  0  0  0  0  0  0  0  0  0  0  0
   21.5268   17.4245   19.7288 H   0  0  0  0  0  0  0  0  0  0  0  0
   19.7755   17.7837   20.9989 C   0  0  0  0  0  0  0  0  0  0  0  0
   20.1925   17.2632   21.8718 H   0  0  0  0  0  0  0  0  0  0  0  0
   18.7009   17.5537   20.9747 H   0  0  0  0  0  0  0  0  0  0  0  0
   19.9789   19.3102   21.1449 C   0  0  0  0  0  0  0  0  0  0  0  0
   21.0502   19.5431   21.1970 H   0  0  0  0  0  0  0  0  0  0  0  0
   19.5978   19.8144   20.2470 H   0  0  0  0  0  0  0  0  0  0  0  0
   19.2535   19.8978   22.3758 C   0  0  0  0  0  0  0  0  0  0  0  0
   18.1815   19.7076   22.2800 H   0  0  0  0  0  0  0  0  0  0  0  0
   19.4000   20.9805   22.4025 H   0  0  0  0  0  0  0  0  0  0  0  0
   19.6956   19.3406   23.7207 N   0  3  0  0  0  0  0  0  0  0  0  0
   19.5768   18.3171   23.7383 H   0  0  0  0  0  0  0  0  0  0  0  0
   19.0704   19.6931   24.4624 H   0  0  0  0  0  0  0  0  0  0  0  0
   21.1379   19.7243   24.0329 C   0  0  0  0  0  0  0  0  0  0  0  0
   21.2297   20.8125   24.0268 H   0  0  0  0  0  0  0  0  0  0  0  0
   21.4056   19.3380   25.0189 H   0  0  0  0  0  0  0  0  0  0  0  0
   21.7987   19.2925   23.2786 H   0  0  0  0  0  0  0  0  0  0  0  0
  1  2  1  0  0  0  0
  1  3  1  0  0  0  0
  1  4  1  0  0  0  0
  1  5  1  0  0  0  0
  5  6  1  0  0  0  0
  5  7  1  0  0  0  0
  5  8  1  0  0  0  0
  8  9  1  0  0  0  0
  8 10  1  0  0  0  0
  8 11  1  0  0  0  0
 11 12  1  0  0  0  0
 11 13  1  0  0  0  0
 11 14  1  0  0  0  0
 14 15  1  0  0  0  0
 14 16  1  0  0  0  0
 14 17  1  0  0  0  0
 17 18  1  0  0  0  0
 17 19  1  0  0  0  0
 17 20  1  0  0  0  0
M  END
> <VConfSearch Rank>
978

> <Conf_Id>
49

> <Delta U+W>
0.268

> <U+W>
15.607

> <U>
70.298

> <W>
-54.692

> <W(PB)>
-56.576

> <W(SA)>
1.885

> <Valence>
1.245

> <Coulomb>
68.933

> <VdW>
0.120

> <VdW6>
-4.430

> <VdW12>
4.550

> <Bond>
0.148

> <Angle>
0.587

> <Pdih>
0.509

> <Idih>
0.000

> <Tether>
0.000

$$$$
VeraChem MOL file


 20 19  0  0  0  0  0  0  0  0999 V2000     
   17.9792   16.9064   22.0726 C   0  0  0  0  0  0  0  0  0  0  0  0
   18.3865   16.1544   22.7609 H   0  0  0  0  0  0  0  0  0  0  0  0
   17.0900   17.3503   22.5389 H   0  0  0  0  0  0  0  0  0  0  0  0
   17.6563   16.3876   21.1607 H   0  0  0  0  0  0  0  0  0  0  0  0
   19.0325   17.9860   21.7420 C   0  0  0  0  0  0  0  0  0  0  0  0
   18.6057   18.7072   21.0309 H   0  0  0  0  0  0  0  0  0  0  0  0
   19.8854   17.5074   21.2429 H   0  0  0  0  0  0  0  0  0  0  0  0
   19.5129   18.7254   23.0125 C   0  0  0  0  0  0  0  0  0  0  0  0
   18.6385   19.0986   23.5620 H   0  0  0  0  0  0  0  0  0  0  0  0
   20.0198   18.0196   23.6837 H   0  0  0  0  0  0  0  0  0  0  0  0
   20.4451   19.9257   22.7310 C   0  0  0  0  0  0  0  0  0  0  0  0
   20.6684   20.4096   23.6852 H   0  0  0  0  0  0  0  0  0  0  0  0
   19.9394   20.6594   22.0983 H   0  0  0  0  0  0  0  0  0  0  0  0
   21.7817   19.5843   22.0905 N   0  3  0  0  0  0  0  0  0  0  0  0
   22.1077   18.6597   22.4093 H   0  0  0  0  0  0  0  0  0  0  0  0
   22.4986   20.2466   22.4256 H   0  0  0  0  0  0  0  0  0  0  0  0
   21.7053   19.6558   20.5687 C   0  0  0  0  0  0  0  0  0  0  0  0
   22.6882   19.4272   20.1509 H   0  0  0  0  0  0  0  0  0  0  0  0
   20.9750   18.9341   20.2010 H   0  0  0  0  0  0  0  0  0  0  0  0
   21.4070   20.6638   20.2725 H   0  0  0  0  0  0  0  0  0  0  0  0
  1  2  1  0  0  0  0
  1  3  1  0  0  0  0
  1  4  1  0  0  0  0
  1  5  1  0  0  0  0
  5  6  1  0  0  0  0
  5  7  1  0  0  0  0
  5  8  1  0  0  0  0
  8  9  1  0  0  0  0
  8 10  1  0  0  0  0
  8 11  1  0  0  0  0
 11 12  1  0  0  0  0
 11 13  1  0  0  0  0
 11 14  1  0  0  0  0
 14 15  1  0  0  0  0
 14 16  1  0  0  0  0
 14 17  1  0  0  0  0
 17 18  1  0  0  0  0
 17 19  1  0  0  0  0
 17 20  1  0  0  0  0
M  END
> <VConfSearch Rank>
979

> <Conf_Id>
65

> <Delta U+W>
1.775

> <U+W>
17.114

> <U>
71.726

> <W>
-54.613

> <W(PB)>
-56.495

> <W(SA)>
1.883

> <Valence>
2.885

> <Coulomb>
68.822

> <VdW>
0.019

> <VdW6>
-4.600

> <VdW12>
4.619

> <Bond>
0.152

> <Angle>
0.862

> <Pdih>
1.871

> <Idih>
0.000

> <Tether>
0.000

$$$$
VeraChem MOL file


 20 19  0  0  0  0  0  0  0  0999 V2000     
   20.9692   20.1557   23.7298 C   0  0  0  0  0  0  0  0  0  0  0  0
   20.1916   20.5820   23.0835 H   0  0  0  0  0  0  0  0  0  0  0  0
   20.7648   20.4876   24.7560 H   0  0  0  0  0  0  0  0  0  0  0  0
   21.9358   20.5794   23.4278 H   0  0  0  0  0  0  0  0  0  0  0  0
   20.9907   18.6118   23.6533 C   0  0  0  0  0  0  0  0  0  0  0  0
   20.0145   18.2127   23.9605 H   0  0  0  0  0  0  0  0  0  0  0  0
   21.7174   18.2283   24.3834 H   0  0  0  0  0  0  0  0  0  0  0  0
   21.3671   18.0785   22.2484 C   0  0  0  0  0  0  0  0  0  0  0  0
   22.3870   18.4018   22.0010 H   0  0  0  0  0  0  0  0  0  0  0  0
   21.3914   16.9809   22.2693 H   0  0  0  0  0  0  0  0  0  0  0  0
   20.4170   18.5437   21.1250 C   0  0  0  0  0  0  0  0  0  0  0  0
   20.7690   18.1517   20.1674 H   0  0  0  0  0  0  0  0  0  0  0  0
   20.4225   19.6347   21.0668 H   0  0  0  0  0  0  0  0  0  0  0  0
   18.9805   18.0921   21.3066 N   0  3  0  0  0  0  0  0  0  0  0  0
   18.6136   18.4373   22.2059 H   0  0  0  0  0  0  0  0  0  0  0  0
   18.9361   17.0634   21.3672 H   0  0  0  0  0  0  0  0  0  0  0  0
   18.1263   18.5976   20.1519 C   0  0  0  0  0  0  0  0  0  0  0  0
   18.5144   18.1945   19.2140 H   0  0  0  0  0  0  0  0  0  0  0  0
   17.0955   18.2666   20.2962 H   0  0  0  0  0  0  0  0  0  0  0  0
   18.1626   19.6889   20.1282 H   0  0  0  0  0  0  0  0  0  0  0  0
  1  2  1  0  0  0  0
  1  3  1  0  0  0  0
  1  4  1  0  0  0  0
  1  5  1  0  0  0  0
  5  6  1  0  0  0  0
  5  7  1  0  0  0  0
  5  8  1  0  0  0  0
  8  9  1  0  0  0  0
  8 10  1  0  0  0  0
  8 11  1  0  0  0  0
 11 12  1  0  0  0  0
 11 13  1  0  0  0  0
 11 14  1  0  0  0  0
 14 15  1  0  0  0  0
 14 16  1  0  0  0  0
 14 17  1  0  0  0  0
 17 18  1  0  0  0  0
 17 19  1  0  0  0  0
 17 20  1  0  0  0  0
M  END
> <VConfSearch Rank>
980

> <Conf_Id>
23

> <Delta U+W>
0.896

> <U+W>
16.234

> <U>
70.374

> <W>
-54.140

> <W(PB)>
-56.046

> <W(SA)>
1.907

> <Valence>
1.257

> <Coulomb>
69.240

> <VdW>
-0.123

> <VdW6>
-4.336

> <VdW12>
4.213

> <Bond>
0.128

> <Angle>
0.603

> <Pdih>
0.526

> <Idih>
0.000

> <Tether>
0.000

$$$$
VeraChem MOL file


 20 19  0  0  0  0  0  0  0  0999 V2000     
   22.3736   18.9471   21.2972 C   0  0  0  0  0  0  0  0  0  0  0  0
   22.7032   19.9941   21.2795 H   0  0  0  0  0  0  0  0  0  0  0  0
   23.2324   18.3217   21.0208 H   0  0  0  0  0  0  0  0  0  0  0  0
   21.6069   18.8163   20.5232 H   0  0  0  0  0  0  0  0  0  0  0  0
   21.8446   18.5543   22.6958 C   0  0  0  0  0  0  0  0  0  0  0  0
   22.6703   18.6117   23.4189 H   0  0  0  0  0  0  0  0  0  0  0  0
   21.5224   17.5042   22.6878 H   0  0  0  0  0  0  0  0  0  0  0  0
   20.6895   19.4632   23.1853 C   0  0  0  0  0  0  0  0  0  0  0  0
   20.3799   19.1498   24.1912 H   0  0  0  0  0  0  0  0  0  0  0  0
   21.0583   20.4926   23.2862 H   0  0  0  0  0  0  0  0  0  0  0  0
   19.4586   19.4702   22.2548 C   0  0  0  0  0  0  0  0  0  0  0  0
   19.7489   19.8254   21.2632 H   0  0  0  0  0  0  0  0  0  0  0  0
   18.7069   20.1561   22.6536 H   0  0  0  0  0  0  0  0  0  0  0  0
   18.8018   18.1127   22.0916 N   0  3  0  0  0  0  0  0  0  0  0  0
   18.5145   17.7439   23.0110 H   0  0  0  0  0  0  0  0  0  0  0  0
   19.4838   17.4333   21.7230 H   0  0  0  0  0  0  0  0  0  0  0  0
   17.6020   18.2238   21.1607 C   0  0  0  0  0  0  0  0  0  0  0  0
   17.9355   18.5843   20.1852 H   0  0  0  0  0  0  0  0  0  0  0  0
   17.1402   17.2400   21.0515 H   0  0  0  0  0  0  0  0  0  0  0  0
   16.8801   18.9240   21.5864 H   0  0  0  0  0  0  0  0  0  0  0  0
  1  2  1  0  0  0  0
  1  3  1  0  0  0  0
  1  4  1  0  0  0  0
  1  5  1  0  0  0  0
  5  6  1  0  0  0  0
  5  7  1  0  0  0  0
  5  8  1  0  0  0  0
  8  9  1  0  0  0  0
  8 10  1  0  0  0  0
  8 11  1  0  0  0  0
 11 12  1  0  0  0  0
 11 13  1  0  0  0  0
 11 14  1  0  0  0  0
 14 15  1  0  0  0  0
 14 16  1  0  0  0  0
 14 17  1  0  0  0  0
 17 18  1  0  0  0  0
 17 19  1  0  0  0  0
 17 20  1  0  0  0  0
M  END
> <VConfSearch Rank>
981

> <Conf_Id>
24

> <Delta U+W>
0.792

> <U+W>
16.130

> <U>
70.374

> <W>
-54.243

> <W(PB)>
-56.130

> <W(SA)>
1.887

> <Valence>
1.257

> <Coulomb>
69.240

> <VdW>
-0.123

> <VdW6>
-4.336

> <VdW12>
4.213

> <Bond>
0.128

> <Angle>
0.603

> <Pdih>
0.526

> <Idih>
0.000

> <Tether>
0.000

$$$$
VeraChem MOL file


 20 19  0  0  0  0  0  0  0  0999 V2000     
   20.2323   17.2300   23.5570 C   0  0  0  0  0  0  0  0  0  0  0  0
   20.1150   16.3089   24.1427 H   0  0  0  0  0  0  0  0  0  0  0  0
   20.4649   16.9288   22.5287 H   0  0  0  0  0  0  0  0  0  0  0  0
   21.0888   17.7789   23.9696 H   0  0  0  0  0  0  0  0  0  0  0  0
   18.9390   18.0740   23.6228 C   0  0  0  0  0  0  0  0  0  0  0  0
   18.6344   18.1671   24.6748 H   0  0  0  0  0  0  0  0  0  0  0  0
   18.1248   17.5352   23.1179 H   0  0  0  0  0  0  0  0  0  0  0  0
   19.0704   19.4980   23.0247 C   0  0  0  0  0  0  0  0  0  0  0  0
   18.1199   20.0227   23.1892 H   0  0  0  0  0  0  0  0  0  0  0  0
   19.8300   20.0732   23.5705 H   0  0  0  0  0  0  0  0  0  0  0  0
   19.3704   19.5295   21.5110 C   0  0  0  0  0  0  0  0  0  0  0  0
   19.0819   20.5044   21.1099 H   0  0  0  0  0  0  0  0  0  0  0  0
   18.7789   18.7648   21.0013 H   0  0  0  0  0  0  0  0  0  0  0  0
   20.8310   19.3215   21.1583 N   0  3  0  0  0  0  0  0  0  0  0  0
   21.1682   18.4358   21.5613 H   0  0  0  0  0  0  0  0  0  0  0  0
   21.4087   20.0578   21.5919 H   0  0  0  0  0  0  0  0  0  0  0  0
   21.0075   19.3247   19.6459 C   0  0  0  0  0  0  0  0  0  0  0  0
   20.4131   18.5175   19.2124 H   0  0  0  0  0  0  0  0  0  0  0  0
   20.6733   20.2849   19.2469 H   0  0  0  0  0  0  0  0  0  0  0  0
   22.0626   19.1742   19.4072 H   0  0  0  0  0  0  0  0  0  0  0  0
  1  2  1  0  0  0  0
  1  3  1  0  0  0  0
  1  4  1  0  0  0  0
  1  5  1  0  0  0  0
  5  6  1  0  0  0  0
  5  7  1  0  0  0  0
  5  8  1  0  0  0  0
  8  9  1  0  0  0  0
  8 10  1  0  0  0  0
  8 11  1  0  0  0  0
 11 12  1  0  0  0  0
 11 13  1  0  0  0  0
 11 14  1  0  0  0  0
 14 15  1  0  0  0  0
 14 16  1  0  0  0  0
 14 17  1  0  0  0  0
 17 18  1  0  0  0  0
 17 19  1  0  0  0  0
 17 20  1  0  0  0  0
M  END
> <VConfSearch Rank>
982

> <Conf_Id>
26

> <Delta U+W>
2.888

> <U+W>
18.226

> <U>
72.042

> <W>
-53.816

> <W(PB)>
-55.689

> <W(SA)>
1.873

> <Valence>
2.428

> <Coulomb>
69.829

> <VdW>
-0.215

> <VdW6>
-4.563

> <VdW12>
4.348

> <Bond>
0.137

> <Angle>
0.936

> <Pdih>
1.356

> <Idih>
0.000

> <Tether>
0.000

$$$$
VeraChem MOL file


 20 19  0  0  0  0  0  0  0  0999 V2000     
   21.0177   20.7218   22.7964 C   0  0  0  0  0  0  0  0  0  0  0  0
   21.7351   21.5331   22.9764 H   0  0  0  0  0  0  0  0  0  0  0  0
   20.1542   20.8906   23.4529 H   0  0  0  0  0  0  0  0  0  0  0  0
   21.5102   19.7872   23.0897 H   0  0  0  0  0  0  0  0  0  0  0  0
   20.5973   20.7000   21.3090 C   0  0  0  0  0  0  0  0  0  0  0  0
   21.4647   20.4355   20.6879 H   0  0  0  0  0  0  0  0  0  0  0  0
   20.3099   21.7181   21.0110 H   0  0  0  0  0  0  0  0  0  0  0  0
   19.4178   19.7464   20.9891 C   0  0  0  0  0  0  0  0  0  0  0  0
   18.5215   20.0463   21.5479 H   0  0  0  0  0  0  0  0  0  0  0  0
   19.1647   19.8663   19.9274 H   0  0  0  0  0  0  0  0  0  0  0  0
   19.7193   18.2529   21.2361 C   0  0  0  0  0  0  0  0  0  0  0  0
   20.7311   18.0192   20.8957 H   0  0  0  0  0  0  0  0  0  0  0  0
   19.0184   17.6465   20.6568 H   0  0  0  0  0  0  0  0  0  0  0  0
   19.5870   17.8190   22.6836 N   0  3  0  0  0  0  0  0  0  0  0  0
   18.6260   17.9884   23.0179 H   0  0  0  0  0  0  0  0  0  0  0  0
   20.1916   18.3994   23.2821 H   0  0  0  0  0  0  0  0  0  0  0  0
   19.9494   16.3465   22.8215 C   0  0  0  0  0  0  0  0  0  0  0  0
   20.9801   16.1972   22.4928 H   0  0  0  0  0  0  0  0  0  0  0  0
   19.8496   16.0487   23.8676 H   0  0  0  0  0  0  0  0  0  0  0  0
   19.2744   15.7507   22.2032 H   0  0  0  0  0  0  0  0  0  0  0  0
  1  2  1  0  0  0  0
  1  3  1  0  0  0  0
  1  4  1  0  0  0  0
  1  5  1  0  0  0  0
  5  6  1  0  0  0  0
  5  7  1  0  0  0  0
  5  8  1  0  0  0  0
  8  9  1  0  0  0  0
  8 10  1  0  0  0  0
  8 11  1  0  0  0  0
 11 12  1  0  0  0  0
 11 13  1  0  0  0  0
 11 14  1  0  0  0  0
 14 15  1  0  0  0  0
 14 16  1  0  0  0  0
 14 17  1  0  0  0  0
 17 18  1  0  0  0  0
 17 19  1  0  0  0  0
 17 20  1  0  0  0  0
M  END
> <VConfSearch Rank>
983

> <Conf_Id>
5

> <Delta U+W>
2.950

> <U+W>
18.289

> <U>
72.042

> <W>
-53.753

> <W(PB)>
-55.644

> <W(SA)>
1.891

> <Valence>
2.428

> <Coulomb>
69.829

> <VdW>
-0.215

> <VdW6>
-4.563

> <VdW12>
4.348

> <Bond>
0.137

> <Angle>
0.936

> <Pdih>
1.356

> <Idih>
0.000

> <Tether>
0.000

$$$$
VeraChem MOL file


 20 19  0  0  0  0  0  0  0  0999 V2000     
   18.5730   18.7598   20.0830 C   0  0  0  0  0  0  0  0  0  0  0  0
   18.8462   19.4693   19.2912 H   0  0  0  0  0  0  0  0  0  0  0  0
   19.2438   17.8944   20.0133 H   0  0  0  0  0  0  0  0  0  0  0  0
   17.5542   18.4062   19.8780 H   0  0  0  0  0  0  0  0  0  0  0  0
   18.6454   19.4270   21.4758 C   0  0  0  0  0  0  0  0  0  0  0  0
   18.3647   18.7002   22.2503 H   0  0  0  0  0  0  0  0  0  0  0  0
   17.8955   20.2287   21.5271 H   0  0  0  0  0  0  0  0  0  0  0  0
   20.0386   20.0266   21.7901 C   0  0  0  0  0  0  0  0  0  0  0  0
   20.2632   20.8180   21.0630 H   0  0  0  0  0  0  0  0  0  0  0  0
   20.0107   20.5180   22.7712 H   0  0  0  0  0  0  0  0  0  0  0  0
   21.1883   18.9937   21.7632 C   0  0  0  0  0  0  0  0  0  0  0  0
   22.1327   19.4920   21.9962 H   0  0  0  0  0  0  0  0  0  0  0  0
   21.2699   18.5785   20.7557 H   0  0  0  0  0  0  0  0  0  0  0  0
   21.0324   17.8259   22.7252 N   0  3  0  0  0  0  0  0  0  0  0  0
   21.7661   17.1243   22.5395 H   0  0  0  0  0  0  0  0  0  0  0  0
   20.1432   17.3370   22.5451 H   0  0  0  0  0  0  0  0  0  0  0  0
   21.1121   18.2891   24.1756 C   0  0  0  0  0  0  0  0  0  0  0  0
   20.2947   18.9837   24.3790 H   0  0  0  0  0  0  0  0  0  0  0  0
   21.0282   17.4214   24.8336 H   0  0  0  0  0  0  0  0  0  0  0  0
   22.0703   18.7858   24.3420 H   0  0  0  0  0  0  0  0  0  0  0  0
  1  2  1  0  0  0  0
  1  3  1  0  0  0  0
  1  4  1  0  0  0  0
  1  5  1  0  0  0  0
  5  6  1  0  0  0  0
  5  7  1  0  0  0  0
  5  8  1  0  0  0  0
  8  9  1  0  0  0  0
  8 10  1  0  0  0  0
  8 11  1  0  0  0  0
 11 12  1  0  0  0  0
 11 13  1  0  0  0  0
 11 14  1  0  0  0  0
 14 15  1  0  0  0  0
 14 16  1  0  0  0  0
 14 17  1  0  0  0  0
 17 18  1  0  0  0  0
 17 19  1  0  0  0  0
 17 20  1  0  0  0  0
M  END
> <VConfSearch Rank>
984

> <Conf_Id>
52

> <Delta U+W>
0.784

> <U+W>
16.122

> <U>
70.777

> <W>
-54.655

> <W(PB)>
-56.491

> <W(SA)>
1.836

> <Valence>
1.529

> <Coulomb>
69.166

> <VdW>
0.082

> <VdW6>
-5.166

> <VdW12>
5.248

> <Bond>
0.171

> <Angle>
0.752

> <Pdih>
0.605

> <Idih>
0.000

> <Tether>
0.000

$$$$
VeraChem MOL file


 20 19  0  0  0  0  0  0  0  0999 V2000     
   19.7739   16.8413   22.2985 C   0  0  0  0  0  0  0  0  0  0  0  0
   19.6703   15.7951   22.6144 H   0  0  0  0  0  0  0  0  0  0  0  0
   18.7619   17.2561   22.2280 H   0  0  0  0  0  0  0  0  0  0  0  0
   20.2290   16.8436   21.2994 H   0  0  0  0  0  0  0  0  0  0  0  0
   20.6400   17.6232   23.3123 C   0  0  0  0  0  0  0  0  0  0  0  0
   21.5476   17.0389   23.5191 H   0  0  0  0  0  0  0  0  0  0  0  0
   20.1050   17.7012   24.2693 H   0  0  0  0  0  0  0  0  0  0  0  0
   21.0687   19.0346   22.8359 C   0  0  0  0  0  0  0  0  0  0  0  0
   21.7504   19.4509   23.5893 H   0  0  0  0  0  0  0  0  0  0  0  0
   21.6565   18.9613   21.9123 H   0  0  0  0  0  0  0  0  0  0  0  0
   19.9030   20.0351   22.6579 C   0  0  0  0  0  0  0  0  0  0  0  0
   20.3003   21.0532   22.6544 H   0  0  0  0  0  0  0  0  0  0  0  0
   19.2233   19.9457   23.5092 H   0  0  0  0  0  0  0  0  0  0  0  0
   19.0830   19.8751   21.3873 N   0  3  0  0  0  0  0  0  0  0  0  0
   18.2292   20.4511   21.4523 H   0  0  0  0  0  0  0  0  0  0  0  0
   18.7491   18.9049   21.3023 H   0  0  0  0  0  0  0  0  0  0  0  0
   19.8866   20.2792   20.1561 C   0  0  0  0  0  0  0  0  0  0  0  0
   20.2149   21.3150   20.2655 H   0  0  0  0  0  0  0  0  0  0  0  0
   20.7543   19.6243   20.0576 H   0  0  0  0  0  0  0  0  0  0  0  0
   19.2548   20.1854   19.2701 H   0  0  0  0  0  0  0  0  0  0  0  0
  1  2  1  0  0  0  0
  1  3  1  0  0  0  0
  1  4  1  0  0  0  0
  1  5  1  0  0  0  0
  5  6  1  0  0  0  0
  5  7  1  0  0  0  0
  5  8  1  0  0  0  0
  8  9  1  0  0  0  0
  8 10  1  0  0  0  0
  8 11  1  0  0  0  0
 11 12  1  0  0  0  0
 11 13  1  0  0  0  0
 11 14  1  0  0  0  0
 14 15  1  0  0  0  0
 14 16  1  0  0  0  0
 14 17  1  0  0  0  0
 17 18  1  0  0  0  0
 17 19  1  0  0  0  0
 17 20  1  0  0  0  0
M  END
> <VConfSearch Rank>
985

> <Conf_Id>
55

> <Delta U+W>
2.745

> <U+W>
18.083

> <U>
72.490

> <W>
-54.407

> <W(PB)>
-56.269

> <W(SA)>
1.861

> <Valence>
2.738

> <Coulomb>
69.795

> <VdW>
-0.043

> <VdW6>
-5.333

> <VdW12>
5.290

> <Bond>
0.182

> <Angle>
1.135

> <Pdih>
1.422

> <Idih>
0.000

> <Tether>
0.000

$$$$
VeraChem MOL file


 20 19  0  0  0  0  0  0  0  0999 V2000     
   19.3944   19.6372   20.1674 C   0  0  0  0  0  0  0  0  0  0  0  0
   19.2525   20.1592   19.2121 H   0  0  0  0  0  0  0  0  0  0  0  0
   19.0355   18.6074   20.0402 H   0  0  0  0  0  0  0  0  0  0  0  0
   18.7630   20.1440   20.9060 H   0  0  0  0  0  0  0  0  0  0  0  0
   20.8846   19.6663   20.5770 C   0  0  0  0  0  0  0  0  0  0  0  0
   21.1819   20.6988   20.8083 H   0  0  0  0  0  0  0  0  0  0  0  0
   21.4901   19.3631   19.7113 H   0  0  0  0  0  0  0  0  0  0  0  0
   21.2411   18.7399   21.7676 C   0  0  0  0  0  0  0  0  0  0  0  0
   21.0036   17.6973   21.5218 H   0  0  0  0  0  0  0  0  0  0  0  0
   22.3301   18.7720   21.9040 H   0  0  0  0  0  0  0  0  0  0  0  0
   20.5904   19.1410   23.1119 C   0  0  0  0  0  0  0  0  0  0  0  0
   20.6722   20.2234   23.2387 H   0  0  0  0  0  0  0  0  0  0  0  0
   21.1370   18.6675   23.9314 H   0  0  0  0  0  0  0  0  0  0  0  0
   19.1273   18.7609   23.2773 N   0  3  0  0  0  0  0  0  0  0  0  0
   18.5777   19.1184   22.4836 H   0  0  0  0  0  0  0  0  0  0  0  0
   18.7399   19.2324   24.1096 H   0  0  0  0  0  0  0  0  0  0  0  0
   18.9599   17.2516   23.4135 C   0  0  0  0  0  0  0  0  0  0  0  0
   19.3129   16.7633   22.5032 H   0  0  0  0  0  0  0  0  0  0  0  0
   19.5399   16.9017   24.2702 H   0  0  0  0  0  0  0  0  0  0  0  0
   17.9033   17.0212   23.5662 H   0  0  0  0  0  0  0  0  0  0  0  0
  1  2  1  0  0  0  0
  1  3  1  0  0  0  0
  1  4  1  0  0  0  0
  1  5  1  0  0  0  0
  5  6  1  0  0  0  0
  5  7  1  0  0  0  0
  5  8  1  0  0  0  0
  8  9  1  0  0  0  0
  8 10  1  0  0  0  0
  8 11  1  0  0  0  0
 11 12  1  0  0  0  0
 11 13  1  0  0  0  0
 11 14  1  0  0  0  0
 14 15  1  0  0  0  0
 14 16  1  0  0  0  0
 14 17  1  0  0  0  0
 17 18  1  0  0  0  0
 17 19  1  0  0  0  0
 17 20  1  0  0  0  0
M  END
> <VConfSearch Rank>
986

> <Conf_Id>
76

> <Delta U+W>
2.799

> <U+W>
18.137

> <U>
72.490

> <W>
-54.353

> <W(PB)>
-56.201

> <W(SA)>
1.848

> <Valence>
2.738

> <Coulomb>
69.795

> <VdW>
-0.043

> <VdW6>
-5.334

> <VdW12>
5.290

> <Bond>
0.182

> <Angle>
1.135

> <Pdih>
1.421

> <Idih>
0.000

> <Tether>
0.000

$$$$
VeraChem MOL file


 20 19  0  0  0  0  0  0  0  0999 V2000     
   18.7685   20.3891   21.6759 C   0  0  0  0  0  0  0  0  0  0  0  0
   19.8146   20.5600   21.3939 H   0  0  0  0  0  0  0  0  0  0  0  0
   18.1676   20.3645   20.7576 H   0  0  0  0  0  0  0  0  0  0  0  0
   18.4393   21.2529   22.2678 H   0  0  0  0  0  0  0  0  0  0  0  0
   18.6002   19.0818   22.4840 C   0  0  0  0  0  0  0  0  0  0  0  0
   17.5518   18.9948   22.8021 H   0  0  0  0  0  0  0  0  0  0  0  0
   19.1887   19.1311   23.4092 H   0  0  0  0  0  0  0  0  0  0  0  0
   18.9792   17.8158   21.6770 C   0  0  0  0  0  0  0  0  0  0  0  0
   18.7961   16.9247   22.2917 H   0  0  0  0  0  0  0  0  0  0  0  0
   18.3016   17.7321   20.8171 H   0  0  0  0  0  0  0  0  0  0  0  0
   20.4333   17.7766   21.1508 C   0  0  0  0  0  0  0  0  0  0  0  0
   20.6455   18.6587   20.5422 H   0  0  0  0  0  0  0  0  0  0  0  0
   20.5310   16.8998   20.5055 H   0  0  0  0  0  0  0  0  0  0  0  0
   21.5144   17.6526   22.2142 N   0  3  0  0  0  0  0  0  0  0  0  0
   22.3132   17.1272   21.8261 H   0  0  0  0  0  0  0  0  0  0  0  0
   21.1794   17.0775   23.0014 H   0  0  0  0  0  0  0  0  0  0  0  0
   21.9979   19.0184   22.6896 C   0  0  0  0  0  0  0  0  0  0  0  0
   22.7914   18.8791   23.4271 H   0  0  0  0  0  0  0  0  0  0  0  0
   22.3857   19.5779   21.8357 H   0  0  0  0  0  0  0  0  0  0  0  0
   21.1705   19.5656   23.1425 H   0  0  0  0  0  0  0  0  0  0  0  0
  1  2  1  0  0  0  0
  1  3  1  0  0  0  0
  1  4  1  0  0  0  0
  1  5  1  0  0  0  0
  5  6  1  0  0  0  0
  5  7  1  0  0  0  0
  5  8  1  0  0  0  0
  8  9  1  0  0  0  0
  8 10  1  0  0  0  0
  8 11  1  0  0  0  0
 11 12  1  0  0  0  0
 11 13  1  0  0  0  0
 11 14  1  0  0  0  0
 14 15  1  0  0  0  0
 14 16  1  0  0  0  0
 14 17  1  0  0  0  0
 17 18  1  0  0  0  0
 17 19  1  0  0  0  0
 17 20  1  0  0  0  0
M  END
> <VConfSearch Rank>
987

> <Conf_Id>
60

> <Delta U+W>
1.788

> <U+W>
17.127

> <U>
72.122

> <W>
-54.995

> <W(PB)>
-56.810

> <W(SA)>
1.815

> <Valence>
3.197

> <Coulomb>
69.115

> <VdW>
-0.190

> <VdW6>
-5.585

> <VdW12>
5.395

> <Bond>
0.177

> <Angle>
1.207

> <Pdih>
1.813

> <Idih>
0.000

> <Tether>
0.000

$$$$
VeraChem MOL file


 20 19  0  0  0  0  0  0  0  0999 V2000     
   22.1898   18.5619   22.5949 C   0  0  0  0  0  0  0  0  0  0  0  0
   22.9978   17.8535   22.3712 H   0  0  0  0  0  0  0  0  0  0  0  0
   22.6204   19.3875   23.1763 H   0  0  0  0  0  0  0  0  0  0  0  0
   21.4604   18.0431   23.2288 H   0  0  0  0  0  0  0  0  0  0  0  0
   21.5458   19.0805   21.2885 C   0  0  0  0  0  0  0  0  0  0  0  0
   21.1403   18.2416   20.7083 H   0  0  0  0  0  0  0  0  0  0  0  0
   22.3296   19.5260   20.6601 H   0  0  0  0  0  0  0  0  0  0  0  0
   20.4451   20.1416   21.5335 C   0  0  0  0  0  0  0  0  0  0  0  0
   20.9018   21.0157   22.0161 H   0  0  0  0  0  0  0  0  0  0  0  0
   20.0620   20.4974   20.5681 H   0  0  0  0  0  0  0  0  0  0  0  0
   19.2572   19.6741   22.4071 C   0  0  0  0  0  0  0  0  0  0  0  0
   18.6222   20.5427   22.5993 H   0  0  0  0  0  0  0  0  0  0  0  0
   19.6120   19.3055   23.3724 H   0  0  0  0  0  0  0  0  0  0  0  0
   18.3610   18.6133   21.7853 N   0  3  0  0  0  0  0  0  0  0  0  0
   18.2970   18.7502   20.7656 H   0  0  0  0  0  0  0  0  0  0  0  0
   17.3963   18.7407   22.1287 H   0  0  0  0  0  0  0  0  0  0  0  0
   18.8320   17.2043   22.1288 C   0  0  0  0  0  0  0  0  0  0  0  0
   18.8428   17.0852   23.2143 H   0  0  0  0  0  0  0  0  0  0  0  0
   18.1433   16.4804   21.6877 H   0  0  0  0  0  0  0  0  0  0  0  0
   19.8346   17.0433   21.7315 H   0  0  0  0  0  0  0  0  0  0  0  0
  1  2  1  0  0  0  0
  1  3  1  0  0  0  0
  1  4  1  0  0  0  0
  1  5  1  0  0  0  0
  5  6  1  0  0  0  0
  5  7  1  0  0  0  0
  5  8  1  0  0  0  0
  8  9  1  0  0  0  0
  8 10  1  0  0  0  0
  8 11  1  0  0  0  0
 11 12  1  0  0  0  0
 11 13  1  0  0  0  0
 11 14  1  0  0  0  0
 14 15  1  0  0  0  0
 14 16  1  0  0  0  0
 14 17  1  0  0  0  0
 17 18  1  0  0  0  0
 17 19  1  0  0  0  0
 17 20  1  0  0  0  0
M  END
> <VConfSearch Rank>
988

> <Conf_Id>
54

> <Delta U+W>
1.880

> <U+W>
17.218

> <U>
72.122

> <W>
-54.903

> <W(PB)>
-56.724

> <W(SA)>
1.821

> <Valence>
3.197

> <Coulomb>
69.115

> <VdW>
-0.190

> <VdW6>
-5.585

> <VdW12>
5.395

> <Bond>
0.177

> <Angle>
1.207

> <Pdih>
1.813

> <Idih>
0.000

> <Tether>
0.000

$$$$
