@<TRIPOS>MOLECULE
CD_vm2.mol2 : vm2 host conformer 1
         126         132           1
SMALL
USER_CHARGES
 
@<TRIPOS>ATOM
       1    C1      17.014953   16.242859   22.819863 C.3        1 MOL1         0.2972
       2    H1      16.043592   16.258797   23.326241 H          1 MOL1         0.0751
       3    O1      17.266621   17.504299   22.155727 O.3        1 MOL1        -0.3740
       4    C2      18.132409   15.981452   23.864827 C.3        1 MOL1         0.1003
       5    H2      17.909337   15.015970   24.337892 H          1 MOL1         0.0783
       6    O2      18.170170   17.001351   24.877438 O.3        1 MOL1        -0.5519
       7    H3      17.273413   17.065587   25.267736 H          1 MOL1         0.3769
       8    C3      19.513375   15.863265   23.180245 C.3        1 MOL1         0.1053
       9    H4      19.775603   16.846158   22.764953 H          1 MOL1         0.0783
      10    O3      20.482201   15.468627   24.157670 O.3        1 MOL1        -0.5519
      11    H5      20.338273   16.084540   24.911270 H          1 MOL1         0.3769
      12    C4      19.479099   14.834366   22.023510 C.3        1 MOL1         0.1018
      13    H6      19.432955   13.824772   22.452738 H          1 MOL1         0.0783
      14    C5      18.265374   15.052373   21.080197 C.3        1 MOL1         0.1043
      15    H7      18.430969   15.978313   20.521217 H          1 MOL1         0.0783
      16    O4      17.049275   15.163814   21.857959 O.3        1 MOL1        -0.3740
      17    C6      18.065439   13.918806   20.050496 C.3        1 MOL1         0.0138
      18    H8      18.924112   13.902002   19.366270 H          1 MOL1         0.0794
      19    H9      17.174839   14.143336   19.448170 H          1 MOL1         0.0794
      20    O5      17.923549   12.650776   20.697546 O.3        1 MOL1        -0.5486
      21    H10     17.153916   12.735429   21.303452 H          1 MOL1         0.3769
      22    C7      15.018080   20.335136   20.031938 C.3        1 MOL1         0.2972
      23    H11     14.399999   20.862487   19.294301 H          1 MOL1         0.0751
      24    O6      15.521501   21.241589   21.031745 O.3        1 MOL1        -0.3740
      25    C8      14.175169   19.259320   20.757473 C.3        1 MOL1         0.1003
      26    H12     13.797037   18.568462   19.992472 H          1 MOL1         0.0783
      27    O7      13.067309   19.870187   21.435700 O.3        1 MOL1        -0.5519
      28    H13     13.442171   20.633356   21.931158 H          1 MOL1         0.3769
      29    C9      15.026271   18.442123   21.762762 C.3        1 MOL1         0.1053
      30    H14     15.303309   19.104170   22.594652 H          1 MOL1         0.0783
      31    O8      14.211488   17.368571   22.243758 O.3        1 MOL1        -0.5519
      32    H15     13.343876   17.779060   22.457018 H          1 MOL1         0.3769
      33    C10     16.339926   17.910125   21.117030 C.3        1 MOL1         0.1018
      34    H16     16.102641   17.074640   20.445760 H          1 MOL1         0.0783
      35    C11     17.062886   19.020413   20.304628 C.3        1 MOL1         0.1043
      36    H17     17.465082   19.757786   21.012533 H          1 MOL1         0.0783
      37    O9      16.128334   19.661107   19.402405 O.3        1 MOL1        -0.3740
      38    C12     18.243847   18.505501   19.453103 C.3        1 MOL1         0.0138
      39    H18     19.010559   18.091107   20.120453 H          1 MOL1         0.0794
      40    H19     18.693927   19.357227   18.925690 H          1 MOL1         0.0794
      41    O10     17.816404   17.515543   18.513626 O.3        1 MOL1        -0.5486
      42    H20     17.093710   17.927187   17.990712 H          1 MOL1         0.3769
      43    C13     18.429501   24.101158   20.876457 C.3        1 MOL1         0.2972
      44    H21     19.113462   24.953234   20.771162 H          1 MOL1         0.0751
      45    O11     19.131852   22.903301   21.271568 O.3        1 MOL1        -0.3740
      46    C14     17.292691   24.419236   21.877803 C.3        1 MOL1         0.1003
      47    H22     16.714917   25.252076   21.456066 H          1 MOL1         0.0783
      48    O12     17.801432   24.807782   23.163125 O.3        1 MOL1        -0.5519
      49    H23     18.259942   24.014243   23.538600 H          1 MOL1         0.3769
      50    C15     16.345779   23.207422   22.024924 C.3        1 MOL1         0.1053
      51    H24     16.899070   22.427746   22.566951 H          1 MOL1         0.0783
      52    O13     15.205687   23.603643   22.795020 O.3        1 MOL1        -0.5519
      53    H25     15.570045   24.080957   23.572804 H          1 MOL1         0.3769
      54    C16     15.885310   22.598447   20.668320 C.3        1 MOL1         0.1018
      55    H26     15.001404   23.149433   20.322494 H          1 MOL1         0.0783
      56    C17     16.985413   22.627942   19.548132 C.3        1 MOL1         0.1043
      57    H27     17.645126   21.761075   19.676571 H          1 MOL1         0.0783
      58    O14     17.780275   23.837407   19.622488 O.3        1 MOL1        -0.3740
      59    C18     16.427778   22.603358   18.102826 C.3        1 MOL1         0.0138
      60    H28     15.928061   21.650348   17.900019 H          1 MOL1         0.0794
      61    H29     17.272526   22.670750   17.404069 H          1 MOL1         0.0794
      62    O15     15.521591   23.687440   17.880506 O.3        1 MOL1        -0.5486
      63    H30     16.021941   24.508854   18.085003 H          1 MOL1         0.3769
      64    C19     22.676972   21.661904   23.068843 C.3        1 MOL1         0.2972
      65    H31     23.611241   21.635178   23.640366 H          1 MOL1         0.0751
      66    O16     22.472412   20.414159   22.363913 O.3        1 MOL1        -0.3740
      67    C20     21.490166   21.903165   24.039549 C.3        1 MOL1         0.1003
      68    H32     21.679553   22.858842   24.546028 H          1 MOL1         0.0783
      69    O17     21.383575   20.863259   25.026584 O.3        1 MOL1        -0.5519
      70    H33     22.251411   20.790637   25.476272 H          1 MOL1         0.3769
      71    C21     20.159436   22.035992   23.264182 C.3        1 MOL1         0.1053
      72    H34     19.927018   21.061779   22.812297 H          1 MOL1         0.0783
      73    O18     19.125476   22.411710   24.180416 O.3        1 MOL1        -0.5519
      74    H35     19.217719   21.780783   24.929683 H          1 MOL1         0.3769
      75    C22     20.272437   23.087770   22.133324 C.3        1 MOL1         0.1018
      76    H36     20.288290   24.088559   22.584783 H          1 MOL1         0.0783
      77    C23     21.548263   22.887788   21.271483 C.3        1 MOL1         0.1043
      78    H37     21.422086   21.973319   20.684053 H          1 MOL1         0.0783
      79    O19     22.708112   22.759969   22.128597 O.3        1 MOL1        -0.3740
      80    C24     21.817732   24.041564   20.280818 C.3        1 MOL1         0.0138
      81    H38     21.008041   24.072722   19.539740 H          1 MOL1         0.0794
      82    H39     22.747710   23.828430   19.736675 H          1 MOL1         0.0794
      83    O20     21.914120   25.296286   20.961324 O.3        1 MOL1        -0.5486
      84    H40     22.640399   25.198929   21.616812 H          1 MOL1         0.3769
      85    C25     24.863592   17.624755   20.343635 C.3        1 MOL1         0.2972
      86    H41     25.531289   17.111810   19.639858 H          1 MOL1         0.0751
      87    O21     24.293235   16.698869   21.288160 O.3        1 MOL1        -0.3740
      88    C26     25.653888   18.685288   21.146742 C.3        1 MOL1         0.1003
      89    H42     26.083234   19.391032   20.423498 H          1 MOL1         0.0783
      90    O22     26.712934   18.060254   21.887188 O.3        1 MOL1        -0.5519
      91    H43     26.305422   17.287648   22.340441 H          1 MOL1         0.3769
      92    C27     24.735125   19.482822   22.107263 C.3        1 MOL1         0.1053
      93    H44     24.402005   18.804479   22.904747 H          1 MOL1         0.0783
      94    O23     25.514181   20.545990   22.664480 O.3        1 MOL1        -0.5519
      95    H45     26.365385   20.130737   22.928579 H          1 MOL1         0.3769
      96    C28     23.468612   20.028520   21.383495 C.3        1 MOL1         0.1018
      97    H46     23.750921   20.877084   20.746953 H          1 MOL1         0.0783
      98    C29     22.803979   18.935186   20.501287 C.3        1 MOL1         0.1043
      99    H47     22.354556   18.184095   21.164983 H          1 MOL1         0.0783
     100    O24     23.798792   18.311992   19.652839 O.3        1 MOL1        -0.3740
     101    C30     21.684017   19.467850   19.581040 C.3        1 MOL1         0.0138
     102    H48     20.872965   19.869371   20.202249 H          1 MOL1         0.0794
     103    H49     21.271825   18.627156   19.007016 H          1 MOL1         0.0794
     104    O25     22.174379   20.476083   18.693148 O.3        1 MOL1        -0.5486
     105    H50     22.931590   20.074464   18.213033 H          1 MOL1         0.3769
     106    C31     21.404733   13.845020   20.876265 C.3        1 MOL1         0.2972
     107    H51     20.730196   12.995701   20.707210 H          1 MOL1         0.0751
     108    O26     20.676086   15.035235   21.246037 O.3        1 MOL1        -0.3740
     109    C32     22.470252   13.506185   21.946807 C.3        1 MOL1         0.1003
     110    H52     23.076205   12.681541   21.549198 H          1 MOL1         0.0783
     111    O27     21.874636   13.092370   23.186097 O.3        1 MOL1        -0.5519
     112    H53     21.390852   13.878556   23.544957 H          1 MOL1         0.3769
     113    C33     23.403997   14.714150   22.182858 C.3        1 MOL1         0.1053
     114    H54     22.814239   15.483222   22.701057 H          1 MOL1         0.0783
     115    O28     24.488743   14.301824   23.021407 O.3        1 MOL1        -0.5519
     116    H55     24.072121   13.809377   23.762658 H          1 MOL1         0.3769
     117    C34     23.956200   15.349794   20.873552 C.3        1 MOL1         0.1018
     118    H56     24.862168   14.805224   20.578363 H          1 MOL1         0.0783
     119    C35     22.935728   15.343442   19.680022 C.3        1 MOL1         0.1043
     120    H57     22.268182   16.208050   19.780071 H          1 MOL1         0.0783
     121    O29     22.138421   14.133311   19.675397 O.3        1 MOL1        -0.3740
     122    C36     23.591404   15.396443   18.277258 C.3        1 MOL1         0.0138
     123    H58     24.103316   16.352924   18.128365 H          1 MOL1         0.0794
     124    H59     22.796742   15.343664   17.520866 H          1 MOL1         0.0794
     125    O30     24.511380   14.316310   18.096171 O.3        1 MOL1        -0.5486
     126    H60     23.998638   13.491369   18.249335 H          1 MOL1         0.3769
@<TRIPOS>BOND
    1     1     2    1
    2     1     3    1
    3     1     4    1
    4     4     5    1
    5     4     6    1
    6     6     7    1
    7     4     8    1
    8     8     9    1
    9     8    10    1
   10    10    11    1
   11     8    12    1
   12    12    13    1
   13    12    14    1
   14    14    15    1
   15     1    16    1
   16    14    16    1
   17    14    17    1
   18    17    18    1
   19    17    19    1
   20    17    20    1
   21    20    21    1
   22    22    23    1
   23    22    24    1
   24    22    25    1
   25    25    26    1
   26    25    27    1
   27    27    28    1
   28    25    29    1
   29    29    30    1
   30    29    31    1
   31    31    32    1
   32     3    33    1
   33    29    33    1
   34    33    34    1
   35    33    35    1
   36    35    36    1
   37    22    37    1
   38    35    37    1
   39    35    38    1
   40    38    39    1
   41    38    40    1
   42    38    41    1
   43    41    42    1
   44    43    44    1
   45    43    45    1
   46    43    46    1
   47    46    47    1
   48    46    48    1
   49    48    49    1
   50    46    50    1
   51    50    51    1
   52    50    52    1
   53    52    53    1
   54    24    54    1
   55    50    54    1
   56    54    55    1
   57    54    56    1
   58    56    57    1
   59    43    58    1
   60    56    58    1
   61    56    59    1
   62    59    60    1
   63    59    61    1
   64    59    62    1
   65    62    63    1
   66    64    65    1
   67    64    66    1
   68    64    67    1
   69    67    68    1
   70    67    69    1
   71    69    70    1
   72    67    71    1
   73    71    72    1
   74    71    73    1
   75    73    74    1
   76    45    75    1
   77    71    75    1
   78    75    76    1
   79    75    77    1
   80    77    78    1
   81    64    79    1
   82    77    79    1
   83    77    80    1
   84    80    81    1
   85    80    82    1
   86    80    83    1
   87    83    84    1
   88    85    86    1
   89    85    87    1
   90    85    88    1
   91    88    89    1
   92    88    90    1
   93    90    91    1
   94    88    92    1
   95    92    93    1
   96    92    94    1
   97    94    95    1
   98    66    96    1
   99    92    96    1
  100    96    97    1
  101    96    98    1
  102    98    99    1
  103    85   100    1
  104    98   100    1
  105    98   101    1
  106   101   102    1
  107   101   103    1
  108   101   104    1
  109   104   105    1
  110   106   107    1
  111    12   108    1
  112   106   108    1
  113   106   109    1
  114   109   110    1
  115   109   111    1
  116   111   112    1
  117   109   113    1
  118   113   114    1
  119   113   115    1
  120   115   116    1
  121    87   117    1
  122   113   117    1
  123   117   118    1
  124   117   119    1
  125   119   120    1
  126   106   121    1
  127   119   121    1
  128   119   122    1
  129   122   123    1
  130   122   124    1
  131   122   125    1
  132   125   126    1
@<TRIPOS>SUBSTRUCTURE
       1 MOL1            1 RESIDUE      1      MOL     
@<SCITEGIC>MOL_PROPERTY
VM2 Rank
SciTegic.value.IntegerValue
1

@<SCITEGIC>MOL_PROPERTY
Conf_Id
SciTegic.value.IntegerValue
12647

@<SCITEGIC>MOL_PROPERTY
Probability
SciTegic.value.DoubleValue
1.70

@<SCITEGIC>MOL_PROPERTY
Sum Probability
SciTegic.value.DoubleValue
1.70

@<SCITEGIC>MOL_PROPERTY
Delta G
SciTegic.value.DoubleValue
0.000

@<SCITEGIC>MOL_PROPERTY
G
SciTegic.value.DoubleValue
522.282

@<SCITEGIC>MOL_PROPERTY
E
SciTegic.value.DoubleValue
363.382

@<SCITEGIC>MOL_PROPERTY
-TS
SciTegic.value.DoubleValue
158.900

@<SCITEGIC>MOL_PROPERTY
U+W
SciTegic.value.DoubleValue
252.496

@<SCITEGIC>MOL_PROPERTY
U
SciTegic.value.DoubleValue
288.668

@<SCITEGIC>MOL_PROPERTY
W
SciTegic.value.DoubleValue
-36.172

@<SCITEGIC>MOL_PROPERTY
W(PB)
SciTegic.value.DoubleValue
-42.077

@<SCITEGIC>MOL_PROPERTY
W(SA)
SciTegic.value.DoubleValue
5.905

@<SCITEGIC>MOL_PROPERTY
Valence
SciTegic.value.DoubleValue
132.706

@<SCITEGIC>MOL_PROPERTY
Coulomb
SciTegic.value.DoubleValue
165.277

@<SCITEGIC>MOL_PROPERTY
VdW
SciTegic.value.DoubleValue
-9.316

@<SCITEGIC>MOL_PROPERTY
VdW6
SciTegic.value.DoubleValue
-143.634

@<SCITEGIC>MOL_PROPERTY
VdW12
SciTegic.value.DoubleValue
134.318

@<SCITEGIC>MOL_PROPERTY
Bond
SciTegic.value.DoubleValue
4.988

@<SCITEGIC>MOL_PROPERTY
Angle
SciTegic.value.DoubleValue
14.685

@<SCITEGIC>MOL_PROPERTY
Pdih
SciTegic.value.DoubleValue
113.034

@<SCITEGIC>MOL_PROPERTY
Idih
SciTegic.value.DoubleValue
0.000

@<SCITEGIC>MOL_PROPERTY
Tether
SciTegic.value.DoubleValue
0.000

@<TRIPOS>MOLECULE
CD_vm2.mol2 : vm2 host conformer 2
         126         132           1
SMALL
USER_CHARGES
 
@<TRIPOS>ATOM
       1    C1      16.961188   16.232970   22.817330 C.3        1 MOL1         0.2972
       2    H1      15.981614   16.262173   23.307236 H          1 MOL1         0.0751
       3    O1      17.235986   17.483275   22.139820 O.3        1 MOL1        -0.3740
       4    C2      18.055876   15.973251   23.883127 C.3        1 MOL1         0.1003
       5    H2      17.825919   15.007486   24.351862 H          1 MOL1         0.0783
       6    O2      18.069362   16.986711   24.896181 O.3        1 MOL1        -0.5519
       7    H3      18.919641   16.851323   25.371744 H          1 MOL1         0.3769
       8    C3      19.451943   15.856165   23.232133 C.3        1 MOL1         0.1053
       9    H4      19.725631   16.836364   22.817821 H          1 MOL1         0.0783
      10    O3      20.400023   15.461920   24.231578 O.3        1 MOL1        -0.5519
      11    H5      21.006318   14.809024   23.807091 H          1 MOL1         0.3769
      12    C4      19.445314   14.823371   22.077678 C.3        1 MOL1         0.1018
      13    H6      19.412947   13.813316   22.508386 H          1 MOL1         0.0783
      14    C5      18.242468   15.021901   21.113657 C.3        1 MOL1         0.1043
      15    H7      18.412901   15.939855   20.542595 H          1 MOL1         0.0783
      16    O4      17.012182   15.141818   21.868952 O.3        1 MOL1        -0.3740
      17    C6      18.061520   13.873471   20.097057 C.3        1 MOL1         0.0138
      18    H8      18.928351   13.852060   19.423395 H          1 MOL1         0.0794
      19    H9      17.177214   14.084987   19.480898 H          1 MOL1         0.0794
      20    O5      17.917961   12.613678   20.759440 O.3        1 MOL1        -0.5486
      21    H10     17.140261   12.702356   21.354409 H          1 MOL1         0.3769
      22    C7      15.044843   20.326817   19.987422 C.3        1 MOL1         0.2972
      23    H11     14.444493   20.866852   19.244330 H          1 MOL1         0.0751
      24    O6      15.540699   21.219038   21.003685 O.3        1 MOL1        -0.3740
      25    C8      14.179264   19.252963   20.687966 C.3        1 MOL1         0.1003
      26    H12     13.809787   18.572094   19.909887 H          1 MOL1         0.0783
      27    O7      13.063876   19.868097   21.349811 O.3        1 MOL1        -0.5519
      28    H13     13.436143   20.621774   21.861461 H          1 MOL1         0.3769
      29    C9      15.003092   18.419164   21.702277 C.3        1 MOL1         0.1053
      30    H14     15.263555   19.068881   22.549180 H          1 MOL1         0.0783
      31    O8      14.170717   17.344010   22.148648 O.3        1 MOL1        -0.5519
      32    H15     13.302932   17.757724   22.354412 H          1 MOL1         0.3769
      33    C10     16.329318   17.886263   21.082914 C.3        1 MOL1         0.1018
      34    H16     16.104722   17.048670   20.409958 H          1 MOL1         0.0783
      35    C11     17.072742   18.992456   20.283350 C.3        1 MOL1         0.1043
      36    H17     17.472366   19.723666   20.999052 H          1 MOL1         0.0783
      37    O9      16.158147   19.646365   19.370583 O.3        1 MOL1        -0.3740
      38    C12     18.260837   18.468120   19.447686 C.3        1 MOL1         0.0138
      39    H18     19.016382   18.050418   20.125686 H          1 MOL1         0.0794
      40    H19     18.722443   19.315958   18.924035 H          1 MOL1         0.0794
      41    O10     17.839863   17.478353   18.505142 O.3        1 MOL1        -0.5486
      42    H20     17.128257   17.893497   17.969963 H          1 MOL1         0.3769
      43    C13     18.452699   24.085326   20.908872 C.3        1 MOL1         0.2972
      44    H21     19.132427   24.942349   20.817225 H          1 MOL1         0.0751
      45    O11     19.158015   22.888936   21.302081 O.3        1 MOL1        -0.3740
      46    C14     17.305311   24.388077   21.902709 C.3        1 MOL1         0.1003
      47    H22     16.728275   25.223358   21.484816 H          1 MOL1         0.0783
      48    O12     17.801259   24.764284   23.196742 O.3        1 MOL1        -0.5519
      49    H23     18.266178   23.971002   23.564918 H          1 MOL1         0.3769
      50    C15     16.361664   23.171168   22.027855 C.3        1 MOL1         0.1053
      51    H24     16.913164   22.386709   22.564956 H          1 MOL1         0.0783
      52    O13     15.213929   23.554835   22.792971 O.3        1 MOL1        -0.5519
      53    H25     15.570361   24.024395   23.579114 H          1 MOL1         0.3769
      54    C16     15.914440   22.578147   20.659795 C.3        1 MOL1         0.1018
      55    H26     15.037128   23.136679   20.309349 H          1 MOL1         0.0783
      56    C17     17.028696   22.615780   19.554077 C.3        1 MOL1         0.1043
      57    H27     17.688628   21.749501   19.686484 H          1 MOL1         0.0783
      58    O14     17.818193   23.827538   19.646154 O.3        1 MOL1        -0.3740
      59    C18     16.491429   22.599292   18.100839 C.3        1 MOL1         0.0138
      60    H28     16.002025   21.644463   17.882464 H          1 MOL1         0.0794
      61    H29     17.345465   22.678705   17.414737 H          1 MOL1         0.0794
      62    O15     15.580553   23.678588   17.874421 O.3        1 MOL1        -0.5486
      63    H30     16.072417   24.502046   18.090861 H          1 MOL1         0.3769
      64    C19     22.709113   21.651167   23.084941 C.3        1 MOL1         0.2972
      65    H31     23.646179   21.619460   23.652055 H          1 MOL1         0.0751
      66    O16     22.502738   20.409184   22.370746 O.3        1 MOL1        -0.3740
      67    C20     21.524043   21.882204   24.060582 C.3        1 MOL1         0.1003
      68    H32     21.711456   22.834945   24.573283 H          1 MOL1         0.0783
      69    O17     21.422312   20.834914   25.040385 O.3        1 MOL1        -0.5519
      70    H33     22.290683   20.762785   25.489150 H          1 MOL1         0.3769
      71    C21     20.191235   22.015821   23.288365 C.3        1 MOL1         0.1053
      72    H34     19.961875   21.044021   22.829793 H          1 MOL1         0.0783
      73    O18     19.156420   22.380933   24.207965 O.3        1 MOL1        -0.5519
      74    H35     19.251365   21.745207   24.952789 H          1 MOL1         0.3769
      75    C22     20.297410   23.076014   22.164798 C.3        1 MOL1         0.1018
      76    H36     20.305754   24.073665   22.623425 H          1 MOL1         0.0783
      77    C23     21.573955   22.891205   21.300587 C.3        1 MOL1         0.1043
      78    H37     21.451024   21.982955   20.702966 H          1 MOL1         0.0783
      79    O19     22.735169   22.758342   22.155115 O.3        1 MOL1        -0.3740
      80    C24     21.838345   24.056762   20.322408 C.3        1 MOL1         0.0138
      81    H38     21.028879   24.092027   19.581274 H          1 MOL1         0.0794
      82    H39     22.769539   23.853897   19.776439 H          1 MOL1         0.0794
      83    O20     21.928662   25.304564   21.016296 O.3        1 MOL1        -0.5486
      84    H40     22.655508   25.203822   21.670651 H          1 MOL1         0.3769
      85    C25     24.866177   17.643611   20.300693 C.3        1 MOL1         0.2972
      86    H41     25.514290   17.125009   19.583131 H          1 MOL1         0.0751
      87    O21     24.313965   16.720424   21.259849 O.3        1 MOL1        -0.3740
      88    C26     25.671699   18.729414   21.060647 C.3        1 MOL1         0.1003
      89    H42     26.035151   19.443120   20.309296 H          1 MOL1         0.0783
      90    O22     26.797917   18.166047   21.755890 O.3        1 MOL1        -0.5519
      91    H43     27.371499   17.731022   21.090034 H          1 MOL1         0.3769
      92    C27     24.772627   19.508895   22.053146 C.3        1 MOL1         0.1053
      93    H44     24.474523   18.820637   22.855870 H          1 MOL1         0.0783
      94    O23     25.552007   20.580890   22.592584 O.3        1 MOL1        -0.5519
      95    H45     26.406918   20.165654   22.845732 H          1 MOL1         0.3769
      96    C28     23.480480   20.041366   21.365400 C.3        1 MOL1         0.1018
      97    H46     23.736923   20.896642   20.727031 H          1 MOL1         0.0783
      98    C29     22.804815   18.946737   20.493231 C.3        1 MOL1         0.1043
      99    H47     22.367450   18.195871   21.164993 H          1 MOL1         0.0783
     100    O24     23.784931   18.322875   19.627897 O.3        1 MOL1        -0.3740
     101    C30     21.668788   19.477477   19.591910 C.3        1 MOL1         0.0138
     102    H48     20.867897   19.878960   20.226338 H          1 MOL1         0.0794
     103    H49     21.248314   18.635724   19.025605 H          1 MOL1         0.0794
     104    O25     22.142914   20.485018   18.694537 O.3        1 MOL1        -0.5486
     105    H50     22.891019   20.083098   18.200645 H          1 MOL1         0.3769
     106    C31     21.386600   13.867388   20.927632 C.3        1 MOL1         0.2972
     107    H51     20.721167   13.007464   20.777522 H          1 MOL1         0.0751
     108    O26     20.651633   15.046694   21.320904 O.3        1 MOL1        -0.3740
     109    C32     22.484578   13.547292   21.970388 C.3        1 MOL1         0.1003
     110    H52     23.097953   12.732897   21.562893 H          1 MOL1         0.0783
     111    O27     21.928947   13.136677   23.226321 O.3        1 MOL1        -0.5519
     112    H53     22.704735   13.021581   23.820567 H          1 MOL1         0.3769
     113    C33     23.396356   14.775088   22.178893 C.3        1 MOL1         0.1053
     114    H54     22.794269   15.547737   22.677281 H          1 MOL1         0.0783
     115    O28     24.499271   14.419281   23.019669 O.3        1 MOL1        -0.5519
     116    H55     25.040035   15.234770   23.108639 H          1 MOL1         0.3769
     117    C34     23.930960   15.381701   20.852104 C.3        1 MOL1         0.1018
     118    H56     24.814178   14.811619   20.536430 H          1 MOL1         0.0783
     119    C35     22.874901   15.382740   19.690327 C.3        1 MOL1         0.1043
     120    H57     22.208924   16.245334   19.813988 H          1 MOL1         0.0783
     121    O29     22.081628   14.169037   19.706213 O.3        1 MOL1        -0.3740
     122    C36     23.488813   15.436802   18.268540 C.3        1 MOL1         0.0138
     123    H58     23.998662   16.391677   18.104662 H          1 MOL1         0.0794
     124    H59     22.671992   15.386386   17.535957 H          1 MOL1         0.0794
     125    O30     24.401186   14.355286   18.059087 O.3        1 MOL1        -0.5486
     126    H60     23.890654   13.531042   18.223022 H          1 MOL1         0.3769
@<TRIPOS>BOND
    1     1     2    1
    2     1     3    1
    3     1     4    1
    4     4     5    1
    5     4     6    1
    6     6     7    1
    7     4     8    1
    8     8     9    1
    9     8    10    1
   10    10    11    1
   11     8    12    1
   12    12    13    1
   13    12    14    1
   14    14    15    1
   15     1    16    1
   16    14    16    1
   17    14    17    1
   18    17    18    1
   19    17    19    1
   20    17    20    1
   21    20    21    1
   22    22    23    1
   23    22    24    1
   24    22    25    1
   25    25    26    1
   26    25    27    1
   27    27    28    1
   28    25    29    1
   29    29    30    1
   30    29    31    1
   31    31    32    1
   32     3    33    1
   33    29    33    1
   34    33    34    1
   35    33    35    1
   36    35    36    1
   37    22    37    1
   38    35    37    1
   39    35    38    1
   40    38    39    1
   41    38    40    1
   42    38    41    1
   43    41    42    1
   44    43    44    1
   45    43    45    1
   46    43    46    1
   47    46    47    1
   48    46    48    1
   49    48    49    1
   50    46    50    1
   51    50    51    1
   52    50    52    1
   53    52    53    1
   54    24    54    1
   55    50    54    1
   56    54    55    1
   57    54    56    1
   58    56    57    1
   59    43    58    1
   60    56    58    1
   61    56    59    1
   62    59    60    1
   63    59    61    1
   64    59    62    1
   65    62    63    1
   66    64    65    1
   67    64    66    1
   68    64    67    1
   69    67    68    1
   70    67    69    1
   71    69    70    1
   72    67    71    1
   73    71    72    1
   74    71    73    1
   75    73    74    1
   76    45    75    1
   77    71    75    1
   78    75    76    1
   79    75    77    1
   80    77    78    1
   81    64    79    1
   82    77    79    1
   83    77    80    1
   84    80    81    1
   85    80    82    1
   86    80    83    1
   87    83    84    1
   88    85    86    1
   89    85    87    1
   90    85    88    1
   91    88    89    1
   92    88    90    1
   93    90    91    1
   94    88    92    1
   95    92    93    1
   96    92    94    1
   97    94    95    1
   98    66    96    1
   99    92    96    1
  100    96    97    1
  101    96    98    1
  102    98    99    1
  103    85   100    1
  104    98   100    1
  105    98   101    1
  106   101   102    1
  107   101   103    1
  108   101   104    1
  109   104   105    1
  110   106   107    1
  111    12   108    1
  112   106   108    1
  113   106   109    1
  114   109   110    1
  115   109   111    1
  116   111   112    1
  117   109   113    1
  118   113   114    1
  119   113   115    1
  120   115   116    1
  121    87   117    1
  122   113   117    1
  123   117   118    1
  124   117   119    1
  125   119   120    1
  126   106   121    1
  127   119   121    1
  128   119   122    1
  129   122   123    1
  130   122   124    1
  131   122   125    1
  132   125   126    1
@<TRIPOS>SUBSTRUCTURE
       1 MOL1            1 RESIDUE      1      MOL     
@<SCITEGIC>MOL_PROPERTY
VM2 Rank
SciTegic.value.IntegerValue
2

@<SCITEGIC>MOL_PROPERTY
Conf_Id
SciTegic.value.IntegerValue
11457

@<SCITEGIC>MOL_PROPERTY
Probability
SciTegic.value.DoubleValue
1.44

@<SCITEGIC>MOL_PROPERTY
Sum Probability
SciTegic.value.DoubleValue
3.14

@<SCITEGIC>MOL_PROPERTY
Delta G
SciTegic.value.DoubleValue
0.098

@<SCITEGIC>MOL_PROPERTY
G
SciTegic.value.DoubleValue
522.380

@<SCITEGIC>MOL_PROPERTY
E
SciTegic.value.DoubleValue
363.922

@<SCITEGIC>MOL_PROPERTY
-TS
SciTegic.value.DoubleValue
158.457

@<SCITEGIC>MOL_PROPERTY
U+W
SciTegic.value.DoubleValue
253.036

@<SCITEGIC>MOL_PROPERTY
U
SciTegic.value.DoubleValue
290.489

@<SCITEGIC>MOL_PROPERTY
W
SciTegic.value.DoubleValue
-37.452

@<SCITEGIC>MOL_PROPERTY
W(PB)
SciTegic.value.DoubleValue
-43.363

@<SCITEGIC>MOL_PROPERTY
W(SA)
SciTegic.value.DoubleValue
5.911

@<SCITEGIC>MOL_PROPERTY
Valence
SciTegic.value.DoubleValue
132.967

@<SCITEGIC>MOL_PROPERTY
Coulomb
SciTegic.value.DoubleValue
167.044

@<SCITEGIC>MOL_PROPERTY
VdW
SciTegic.value.DoubleValue
-9.522

@<SCITEGIC>MOL_PROPERTY
VdW6
SciTegic.value.DoubleValue
-143.235

@<SCITEGIC>MOL_PROPERTY
VdW12
SciTegic.value.DoubleValue
133.713

@<SCITEGIC>MOL_PROPERTY
Bond
SciTegic.value.DoubleValue
4.938

@<SCITEGIC>MOL_PROPERTY
Angle
SciTegic.value.DoubleValue
15.156

@<SCITEGIC>MOL_PROPERTY
Pdih
SciTegic.value.DoubleValue
112.872

@<SCITEGIC>MOL_PROPERTY
Idih
SciTegic.value.DoubleValue
0.000

@<SCITEGIC>MOL_PROPERTY
Tether
SciTegic.value.DoubleValue
0.000

@<TRIPOS>MOLECULE
CD_vm2.mol2 : vm2 host conformer 3
         126         132           1
SMALL
USER_CHARGES
 
@<TRIPOS>ATOM
       1    C1      16.975956   16.248705   22.809735 C.3        1 MOL1         0.2972
       2    H1      15.999086   16.273707   23.305237 H          1 MOL1         0.0751
       3    O1      17.240546   17.499334   22.129194 O.3        1 MOL1        -0.3740
       4    C2      18.078152   15.996193   23.869690 C.3        1 MOL1         0.1003
       5    H2      17.854465   15.031097   24.342814 H          1 MOL1         0.0783
       6    O2      18.094087   17.012832   24.879509 O.3        1 MOL1        -0.5519
       7    H3      18.948575   16.883216   25.349116 H          1 MOL1         0.3769
       8    C3      19.470872   15.882141   23.210912 C.3        1 MOL1         0.1053
       9    H4      19.738198   16.861638   22.790878 H          1 MOL1         0.0783
      10    O3      20.426454   15.495884   24.206388 O.3        1 MOL1        -0.5519
      11    H5      21.012848   14.819552   23.790776 H          1 MOL1         0.3769
      12    C4      19.460122   14.844419   22.060972 C.3        1 MOL1         0.1018
      13    H6      19.425443   13.836506   22.496403 H          1 MOL1         0.0783
      14    C5      18.253937   15.040962   21.100901 C.3        1 MOL1         0.1043
      15    H7      18.420045   15.959552   20.529653 H          1 MOL1         0.0783
      16    O4      17.026582   15.157186   21.861637 O.3        1 MOL1        -0.3740
      17    C6      18.071411   13.892480   20.084631 C.3        1 MOL1         0.0138
      18    H8      18.935668   13.873100   19.407608 H          1 MOL1         0.0794
      19    H9      17.184289   14.102396   19.471974 H          1 MOL1         0.0794
      20    O5      17.933044   12.632148   20.747101 O.3        1 MOL1        -0.5486
      21    H10     17.157458   12.718982   21.345083 H          1 MOL1         0.3769
      22    C7      15.025519   20.336412   19.996071 C.3        1 MOL1         0.2972
      23    H11     14.418315   20.876967   19.258941 H          1 MOL1         0.0751
      24    O6      15.528799   21.227526   21.009802 O.3        1 MOL1        -0.3740
      25    C8      14.167494   19.260433   20.702608 C.3        1 MOL1         0.1003
      26    H12     13.793226   18.579285   19.927065 H          1 MOL1         0.0783
      27    O7      13.056204   19.872925   21.373730 O.3        1 MOL1        -0.5519
      28    H13     13.431049   20.626935   21.882991 H          1 MOL1         0.3769
      29    C9      15.001280   18.427830   21.709811 C.3        1 MOL1         0.1053
      30    H14     15.267311   19.077739   22.554836 H          1 MOL1         0.0783
      31    O8      14.174984   17.350698   22.162654 O.3        1 MOL1        -0.5519
      32    H15     13.308017   17.762420   22.375724 H          1 MOL1         0.3769
      33    C10     16.323546   17.897779   21.079606 C.3        1 MOL1         0.1018
      34    H16     16.095497   17.058399   20.410035 H          1 MOL1         0.0783
      35    C11     17.057592   19.004397   20.272198 C.3        1 MOL1         0.1043
      36    H17     17.463847   19.736008   20.983740 H          1 MOL1         0.0783
      37    O9      16.133689   19.657545   19.368439 O.3        1 MOL1        -0.3740
      38    C12     18.237581   18.480140   19.425272 C.3        1 MOL1         0.0138
      39    H18     18.999029   18.063006   20.096742 H          1 MOL1         0.0794
      40    H19     18.694717   19.327503   18.896807 H          1 MOL1         0.0794
      41    O10     17.808028   17.489077   18.487962 O.3        1 MOL1        -0.5486
      42    H20     17.091951   17.903652   17.958329 H          1 MOL1         0.3769
      43    C13     18.448177   24.082529   20.909153 C.3        1 MOL1         0.2972
      44    H21     19.132242   24.935999   20.816574 H          1 MOL1         0.0751
      45    O11     19.147667   22.882509   21.302359 O.3        1 MOL1        -0.3740
      46    C14     17.303515   24.391507   21.904066 C.3        1 MOL1         0.1003
      47    H22     16.729501   25.228800   21.486037 H          1 MOL1         0.0783
      48    O12     17.802935   24.766965   23.196962 O.3        1 MOL1        -0.5519
      49    H23     18.265275   23.972164   23.565119 H          1 MOL1         0.3769
      50    C15     16.355047   23.178635   22.031539 C.3        1 MOL1         0.1053
      51    H24     16.904096   22.392519   22.568740 H          1 MOL1         0.0783
      52    O13     15.209883   23.567526   22.797848 O.3        1 MOL1        -0.5519
      53    H25     15.569241   24.036332   23.583111 H          1 MOL1         0.3769
      54    C16     15.903635   22.586000   20.664617 C.3        1 MOL1         0.1018
      55    H26     15.026260   23.145749   20.316253 H          1 MOL1         0.0783
      56    C17     17.014797   22.621004   19.555699 C.3        1 MOL1         0.1043
      57    H27     17.671380   21.751702   19.684269 H          1 MOL1         0.0783
      58    O14     17.810638   23.828524   19.647249 O.3        1 MOL1        -0.3740
      59    C18     16.472111   22.609612   18.104465 C.3        1 MOL1         0.0138
      60    H28     15.973731   21.659060   17.887665 H          1 MOL1         0.0794
      61    H29     17.324181   22.682344   17.415193 H          1 MOL1         0.0794
      62    O15     15.569305   23.696531   17.882193 O.3        1 MOL1        -0.5486
      63    H30     16.068392   24.515608   18.098761 H          1 MOL1         0.3769
      64    C19     22.702767   21.645191   23.087362 C.3        1 MOL1         0.2972
      65    H31     23.640091   21.620381   23.654440 H          1 MOL1         0.0751
      66    O16     22.499932   20.396475   22.384005 O.3        1 MOL1        -0.3740
      67    C20     21.517395   21.880978   24.061749 C.3        1 MOL1         0.1003
      68    H32     21.704776   22.836388   24.569468 H          1 MOL1         0.0783
      69    O17     21.416151   20.838893   25.047156 O.3        1 MOL1        -0.5519
      70    H33     22.284616   20.769406   25.496125 H          1 MOL1         0.3769
      71    C21     20.184038   22.010618   23.289525 C.3        1 MOL1         0.1053
      72    H34     19.954331   21.036785   22.835466 H          1 MOL1         0.0783
      73    O18     19.149970   22.380277   24.208120 O.3        1 MOL1        -0.5519
      74    H35     19.244892   21.747605   24.955545 H          1 MOL1         0.3769
      75    C22     20.290609   23.065770   22.161341 C.3        1 MOL1         0.1018
      76    H36     20.305993   24.065135   22.616083 H          1 MOL1         0.0783
      77    C23     21.563760   22.870338   21.294905 C.3        1 MOL1         0.1043
      78    H37     21.437469   21.956254   20.706726 H          1 MOL1         0.0783
      79    O19     22.726730   22.744460   22.148053 O.3        1 MOL1        -0.3740
      80    C24     21.827403   24.026223   20.305084 C.3        1 MOL1         0.0138
      81    H38     21.015675   24.056254   19.566178 H          1 MOL1         0.0794
      82    H39     22.756508   23.816479   19.758167 H          1 MOL1         0.0794
      83    O20     21.922309   25.280208   20.987155 O.3        1 MOL1        -0.5486
      84    H40     22.650813   25.183907   21.640332 H          1 MOL1         0.3769
      85    C25     24.878458   17.639638   20.304785 C.3        1 MOL1         0.2972
      86    H41     25.530807   17.136526   19.579827 H          1 MOL1         0.0751
      87    O21     24.360953   16.702998   21.273372 O.3        1 MOL1        -0.3740
      88    C26     25.673379   18.729134   21.065617 C.3        1 MOL1         0.1003
      89    H42     26.045202   19.441666   20.317508 H          1 MOL1         0.0783
      90    O22     26.789004   18.149629   21.758139 O.3        1 MOL1        -0.5519
      91    H43     26.431440   17.386651   22.261516 H          1 MOL1         0.3769
      92    C27     24.773777   19.508970   22.058605 C.3        1 MOL1         0.1053
      93    H44     24.482455   18.826315   22.868467 H          1 MOL1         0.0783
      94    O23     25.547654   20.590815   22.586115 O.3        1 MOL1        -0.5519
      95    H45     26.421033   20.198708   22.810086 H          1 MOL1         0.3769
      96    C28     23.473587   20.026213   21.375637 C.3        1 MOL1         0.1018
      97    H46     23.718798   20.876383   20.726089 H          1 MOL1         0.0783
      98    C29     22.801412   18.916580   20.521114 C.3        1 MOL1         0.1043
      99    H47     22.384846   18.163103   21.203182 H          1 MOL1         0.0783
     100    O24     23.778855   18.303172   19.646203 O.3        1 MOL1        -0.3740
     101    C30     21.646472   19.426467   19.631869 C.3        1 MOL1         0.0138
     102    H48     20.851085   19.826482   20.274186 H          1 MOL1         0.0794
     103    H49     21.226674   18.574761   19.080193 H          1 MOL1         0.0794
     104    O25     22.096721   20.429586   18.717452 O.3        1 MOL1        -0.5486
     105    H50     22.844277   20.031597   18.219543 H          1 MOL1         0.3769
     106    C31     21.395940   13.875149   20.913776 C.3        1 MOL1         0.2972
     107    H51     20.725307   13.020581   20.756502 H          1 MOL1         0.0751
     108    O26     20.665703   15.059965   21.300103 O.3        1 MOL1        -0.3740
     109    C32     22.481322   13.544885   21.965935 C.3        1 MOL1         0.1003
     110    H52     23.090552   12.725291   21.562603 H          1 MOL1         0.0783
     111    O27     21.911569   13.136811   23.216456 O.3        1 MOL1        -0.5519
     112    H53     22.681764   13.010062   23.815613 H          1 MOL1         0.3769
     113    C33     23.403929   14.762981   22.184861 C.3        1 MOL1         0.1053
     114    H54     22.805352   15.540763   22.679318 H          1 MOL1         0.0783
     115    O28     24.491160   14.386797   23.037494 O.3        1 MOL1        -0.5519
     116    H55     25.011213   15.203844   23.189562 H          1 MOL1         0.3769
     117    C34     23.957825   15.367552   20.863635 C.3        1 MOL1         0.1018
     118    H56     24.835027   14.785324   20.553397 H          1 MOL1         0.0783
     119    C35     22.910352   15.377008   19.692596 C.3        1 MOL1         0.1043
     120    H57     22.248648   16.243249   19.810822 H          1 MOL1         0.0783
     121    O29     22.106686   14.170352   19.700262 O.3        1 MOL1        -0.3740
     122    C36     23.534878   15.425299   18.275001 C.3        1 MOL1         0.0138
     123    H58     24.053270   16.375904   18.113217 H          1 MOL1         0.0794
     124    H59     22.722741   15.380701   17.536849 H          1 MOL1         0.0794
     125    O30     24.439714   14.336179   18.072543 O.3        1 MOL1        -0.5486
     126    H60     23.921281   13.516306   18.233558 H          1 MOL1         0.3769
@<TRIPOS>BOND
    1     1     2    1
    2     1     3    1
    3     1     4    1
    4     4     5    1
    5     4     6    1
    6     6     7    1
    7     4     8    1
    8     8     9    1
    9     8    10    1
   10    10    11    1
   11     8    12    1
   12    12    13    1
   13    12    14    1
   14    14    15    1
   15     1    16    1
   16    14    16    1
   17    14    17    1
   18    17    18    1
   19    17    19    1
   20    17    20    1
   21    20    21    1
   22    22    23    1
   23    22    24    1
   24    22    25    1
   25    25    26    1
   26    25    27    1
   27    27    28    1
   28    25    29    1
   29    29    30    1
   30    29    31    1
   31    31    32    1
   32     3    33    1
   33    29    33    1
   34    33    34    1
   35    33    35    1
   36    35    36    1
   37    22    37    1
   38    35    37    1
   39    35    38    1
   40    38    39    1
   41    38    40    1
   42    38    41    1
   43    41    42    1
   44    43    44    1
   45    43    45    1
   46    43    46    1
   47    46    47    1
   48    46    48    1
   49    48    49    1
   50    46    50    1
   51    50    51    1
   52    50    52    1
   53    52    53    1
   54    24    54    1
   55    50    54    1
   56    54    55    1
   57    54    56    1
   58    56    57    1
   59    43    58    1
   60    56    58    1
   61    56    59    1
   62    59    60    1
   63    59    61    1
   64    59    62    1
   65    62    63    1
   66    64    65    1
   67    64    66    1
   68    64    67    1
   69    67    68    1
   70    67    69    1
   71    69    70    1
   72    67    71    1
   73    71    72    1
   74    71    73    1
   75    73    74    1
   76    45    75    1
   77    71    75    1
   78    75    76    1
   79    75    77    1
   80    77    78    1
   81    64    79    1
   82    77    79    1
   83    77    80    1
   84    80    81    1
   85    80    82    1
   86    80    83    1
   87    83    84    1
   88    85    86    1
   89    85    87    1
   90    85    88    1
   91    88    89    1
   92    88    90    1
   93    90    91    1
   94    88    92    1
   95    92    93    1
   96    92    94    1
   97    94    95    1
   98    66    96    1
   99    92    96    1
  100    96    97    1
  101    96    98    1
  102    98    99    1
  103    85   100    1
  104    98   100    1
  105    98   101    1
  106   101   102    1
  107   101   103    1
  108   101   104    1
  109   104   105    1
  110   106   107    1
  111    12   108    1
  112   106   108    1
  113   106   109    1
  114   109   110    1
  115   109   111    1
  116   111   112    1
  117   109   113    1
  118   113   114    1
  119   113   115    1
  120   115   116    1
  121    87   117    1
  122   113   117    1
  123   117   118    1
  124   117   119    1
  125   119   120    1
  126   106   121    1
  127   119   121    1
  128   119   122    1
  129   122   123    1
  130   122   124    1
  131   122   125    1
  132   125   126    1
@<TRIPOS>SUBSTRUCTURE
       1 MOL1            1 RESIDUE      1      MOL     
@<SCITEGIC>MOL_PROPERTY
VM2 Rank
SciTegic.value.IntegerValue
3

@<SCITEGIC>MOL_PROPERTY
Conf_Id
SciTegic.value.IntegerValue
8610

@<SCITEGIC>MOL_PROPERTY
Probability
SciTegic.value.DoubleValue
1.35

@<SCITEGIC>MOL_PROPERTY
Sum Probability
SciTegic.value.DoubleValue
4.49

@<SCITEGIC>MOL_PROPERTY
Delta G
SciTegic.value.DoubleValue
0.138

@<SCITEGIC>MOL_PROPERTY
G
SciTegic.value.DoubleValue
522.419

@<SCITEGIC>MOL_PROPERTY
E
SciTegic.value.DoubleValue
363.848

@<SCITEGIC>MOL_PROPERTY
-TS
SciTegic.value.DoubleValue
158.571

@<SCITEGIC>MOL_PROPERTY
U+W
SciTegic.value.DoubleValue
252.962

@<SCITEGIC>MOL_PROPERTY
U
SciTegic.value.DoubleValue
290.614

@<SCITEGIC>MOL_PROPERTY
W
SciTegic.value.DoubleValue
-37.652

@<SCITEGIC>MOL_PROPERTY
W(PB)
SciTegic.value.DoubleValue
-43.548

@<SCITEGIC>MOL_PROPERTY
W(SA)
SciTegic.value.DoubleValue
5.896

@<SCITEGIC>MOL_PROPERTY
Valence
SciTegic.value.DoubleValue
133.279

@<SCITEGIC>MOL_PROPERTY
Coulomb
SciTegic.value.DoubleValue
166.939

@<SCITEGIC>MOL_PROPERTY
VdW
SciTegic.value.DoubleValue
-9.605

@<SCITEGIC>MOL_PROPERTY
VdW6
SciTegic.value.DoubleValue
-143.691

@<SCITEGIC>MOL_PROPERTY
VdW12
SciTegic.value.DoubleValue
134.086

@<SCITEGIC>MOL_PROPERTY
Bond
SciTegic.value.DoubleValue
4.956

@<SCITEGIC>MOL_PROPERTY
Angle
SciTegic.value.DoubleValue
15.071

@<SCITEGIC>MOL_PROPERTY
Pdih
SciTegic.value.DoubleValue
113.253

@<SCITEGIC>MOL_PROPERTY
Idih
SciTegic.value.DoubleValue
0.000

@<SCITEGIC>MOL_PROPERTY
Tether
SciTegic.value.DoubleValue
0.000

@<TRIPOS>MOLECULE
CD_vm2.mol2 : vm2 host conformer 4
         126         132           1
SMALL
USER_CHARGES
 
@<TRIPOS>ATOM
       1    C1      17.062010   16.321738   22.839258 C.3        1 MOL1         0.2972
       2    H1      16.099700   16.346330   23.362497 H          1 MOL1         0.0751
       3    O1      17.296567   17.569308   22.144411 O.3        1 MOL1        -0.3740
       4    C2      18.199231   16.087627   23.869824 C.3        1 MOL1         0.1003
       5    H2      17.981496   15.138230   24.376713 H          1 MOL1         0.0783
       6    O2      18.262564   17.138645   24.849140 O.3        1 MOL1        -0.5519
       7    H3      17.373219   17.222773   25.252289 H          1 MOL1         0.3769
       8    C3      19.567419   15.943407   23.165234 C.3        1 MOL1         0.1053
       9    H4      19.828363   16.914385   22.722298 H          1 MOL1         0.0783
      10    O3      20.548973   15.566284   24.136887 O.3        1 MOL1        -0.5519
      11    H5      20.409235   16.189784   24.884871 H          1 MOL1         0.3769
      12    C4      19.509469   14.888432   22.033595 C.3        1 MOL1         0.1018
      13    H6      19.459426   13.889288   22.485980 H          1 MOL1         0.0783
      14    C5      18.284423   15.096456   21.103429 C.3        1 MOL1         0.1043
      15    H7      18.444684   16.013099   20.527153 H          1 MOL1         0.0783
      16    O4      17.081399   15.223307   21.898844 O.3        1 MOL1        -0.3740
      17    C6      18.065146   13.946954   20.095531 C.3        1 MOL1         0.0138
      18    H8      18.913521   13.915674   19.399078 H          1 MOL1         0.0794
      19    H9      17.166500   14.165007   19.502854 H          1 MOL1         0.0794
      20    O5      17.928325   12.690173   20.765203 O.3        1 MOL1        -0.5486
      21    H10     17.168715   12.788012   21.381684 H          1 MOL1         0.3769
      22    C7      15.000532   20.347967   20.016167 C.3        1 MOL1         0.2972
      23    H11     14.373804   20.871913   19.283435 H          1 MOL1         0.0751
      24    O6      15.500791   21.254553   21.017447 O.3        1 MOL1        -0.3740
      25    C8      14.172463   19.263508   20.745528 C.3        1 MOL1         0.1003
      26    H12     13.803364   18.564327   19.983683 H          1 MOL1         0.0783
      27    O7      13.057079   19.861532   21.422886 O.3        1 MOL1        -0.5519
      28    H13     13.422595   20.629074   21.918473 H          1 MOL1         0.3769
      29    C9      15.037252   18.463595   21.753137 C.3        1 MOL1         0.1053
      30    H14     15.307856   19.133976   22.580451 H          1 MOL1         0.0783
      31    O8      14.238804   17.381825   22.243058 O.3        1 MOL1        -0.5519
      32    H15     13.365701   17.781174   22.454983 H          1 MOL1         0.3769
      33    C10     16.355931   17.944973   21.106695 C.3        1 MOL1         0.1018
      34    H16     16.127586   17.096378   20.448969 H          1 MOL1         0.0783
      35    C11     17.059879   19.052959   20.274917 C.3        1 MOL1         0.1043
      36    H17     17.466741   19.798340   20.971668 H          1 MOL1         0.0783
      37    O9      16.111685   19.682621   19.378853 O.3        1 MOL1        -0.3740
      38    C12     18.233406   18.534879   19.415129 C.3        1 MOL1         0.0138
      39    H18     19.007972   18.129107   20.078504 H          1 MOL1         0.0794
      40    H19     18.675138   19.382926   18.874792 H          1 MOL1         0.0794
      41    O10     17.800221   17.533323   18.490765 O.3        1 MOL1        -0.5486
      42    H20     17.071844   17.937039   17.969532 H          1 MOL1         0.3769
      43    C13     18.422604   24.090324   20.886391 C.3        1 MOL1         0.2972
      44    H21     19.116940   24.935158   20.791385 H          1 MOL1         0.0751
      45    O11     19.110453   22.879172   21.267247 O.3        1 MOL1        -0.3740
      46    C14     17.288651   24.410886   21.890412 C.3        1 MOL1         0.1003
      47    H22     16.722183   25.256128   21.478116 H          1 MOL1         0.0783
      48    O12     17.800245   24.776504   23.181347 O.3        1 MOL1        -0.5519
      49    H23     18.240955   23.969846   23.549862 H          1 MOL1         0.3769
      50    C15     16.326144   23.209961   22.023205 C.3        1 MOL1         0.1053
      51    H24     16.867494   22.420631   22.563132 H          1 MOL1         0.0783
      52    O13     15.186936   23.613811   22.790628 O.3        1 MOL1        -0.5519
      53    H25     15.552811   24.078797   23.575100 H          1 MOL1         0.3769
      54    C16     15.865372   22.612870   20.661455 C.3        1 MOL1         0.1018
      55    H26     14.981870   23.166942   20.319536 H          1 MOL1         0.0783
      56    C17     16.964856   22.647423   19.541149 C.3        1 MOL1         0.1043
      57    H27     17.618185   21.774470   19.658407 H          1 MOL1         0.0783
      58    O14     17.770282   23.848953   19.629248 O.3        1 MOL1        -0.3740
      59    C18     16.404082   22.641140   18.097170 C.3        1 MOL1         0.0138
      60    H28     15.891648   21.695750   17.889575 H          1 MOL1         0.0794
      61    H29     17.247954   22.703166   17.396873 H          1 MOL1         0.0794
      62    O15     15.510966   23.738134   17.885608 O.3        1 MOL1        -0.5486
      63    H30     16.021252   24.551466   18.097810 H          1 MOL1         0.3769
      64    C19     22.634520   21.591844   23.091841 C.3        1 MOL1         0.2972
      65    H31     23.557714   21.563093   23.681831 H          1 MOL1         0.0751
      66    O16     22.446728   20.347641   22.374828 O.3        1 MOL1        -0.3740
      67    C20     21.426767   21.793971   24.041331 C.3        1 MOL1         0.1003
      68    H32     21.603608   22.720415   24.603219 H          1 MOL1         0.0783
      69    O17     21.316032   20.697380   24.960401 O.3        1 MOL1        -0.5519
      70    H33     21.381419   19.880337   24.418938 H          1 MOL1         0.3769
      71    C21     20.107825   21.960032   23.249992 C.3        1 MOL1         0.1053
      72    H34     19.869796   21.001135   22.769282 H          1 MOL1         0.0783
      73    O18     19.064698   22.324540   24.160446 O.3        1 MOL1        -0.5519
      74    H35     19.139259   21.686043   24.904653 H          1 MOL1         0.3769
      75    C22     20.243116   23.035604   22.144804 C.3        1 MOL1         0.1018
      76    H36     20.264243   24.026612   22.617054 H          1 MOL1         0.0783
      77    C23     21.526222   22.839259   21.294615 C.3        1 MOL1         0.1043
      78    H37     21.404672   21.930223   20.697522 H          1 MOL1         0.0783
      79    O19     22.673429   22.701837   22.165912 O.3        1 MOL1        -0.3740
      80    C24     21.811360   24.001822   20.318645 C.3        1 MOL1         0.0138
      81    H38     21.011242   24.042438   19.567687 H          1 MOL1         0.0794
      82    H39     22.747612   23.791360   19.784315 H          1 MOL1         0.0794
      83    O20     21.902486   25.249652   21.012421 O.3        1 MOL1        -0.5486
      84    H40     22.618872   25.143188   21.677333 H          1 MOL1         0.3769
      85    C25     24.877972   17.616825   20.330031 C.3        1 MOL1         0.2972
      86    H41     25.550383   17.111426   19.625341 H          1 MOL1         0.0751
      87    O21     24.322073   16.686385   21.278701 O.3        1 MOL1        -0.3740
      88    C26     25.655430   18.688384   21.130763 C.3        1 MOL1         0.1003
      89    H42     26.067421   19.404056   20.407176 H          1 MOL1         0.0783
      90    O22     26.729980   18.079759   21.862441 O.3        1 MOL1        -0.5519
      91    H43     26.338158   17.301309   22.319348 H          1 MOL1         0.3769
      92    C27     24.728034   19.465412   22.099868 C.3        1 MOL1         0.1053
      93    H44     24.412827   18.778262   22.897026 H          1 MOL1         0.0783
      94    O23     25.489840   20.541252   22.656216 O.3        1 MOL1        -0.5519
      95    H45     26.349436   20.141300   22.916467 H          1 MOL1         0.3769
      96    C28     23.447371   19.991355   21.386406 C.3        1 MOL1         0.1018
      97    H46     23.711584   20.851736   20.758030 H          1 MOL1         0.0783
      98    C29     22.799759   18.896942   20.492884 C.3        1 MOL1         0.1043
      99    H47     22.357241   18.135049   21.148777 H          1 MOL1         0.0783
     100    O24     23.803582   18.291561   19.641739 O.3        1 MOL1        -0.3740
     101    C30     21.676167   19.425462   19.574741 C.3        1 MOL1         0.0138
     102    H48     20.861085   19.815899   20.197613 H          1 MOL1         0.0794
     103    H49     21.272265   18.585172   18.994223 H          1 MOL1         0.0794
     104    O25     22.158176   20.444656   18.694998 O.3        1 MOL1        -0.5486
     105    H50     22.919449   20.053579   18.212576 H          1 MOL1         0.3769
     106    C31     21.413746   13.857412   20.884239 C.3        1 MOL1         0.2972
     107    H51     20.729048   13.014643   20.723624 H          1 MOL1         0.0751
     108    O26     20.698445   15.061202   21.237224 O.3        1 MOL1        -0.3740
     109    C32     22.473639   13.517009   21.960308 C.3        1 MOL1         0.1003
     110    H52     23.068069   12.679012   21.573366 H          1 MOL1         0.0783
     111    O27     21.872151   13.127596   23.204678 O.3        1 MOL1        -0.5519
     112    H53     21.408372   13.928418   23.557355 H          1 MOL1         0.3769
     113    C33     23.424432   14.713755   22.184028 C.3        1 MOL1         0.1053
     114    H54     22.846264   15.493303   22.699334 H          1 MOL1         0.0783
     115    O28     24.506309   14.293393   23.022282 O.3        1 MOL1        -0.5519
     116    H55     24.085689   13.814094   23.769823 H          1 MOL1         0.3769
     117    C34     23.980529   15.336504   20.870269 C.3        1 MOL1         0.1018
     118    H56     24.884983   14.786797   20.580036 H          1 MOL1         0.0783
     119    C35     22.961987   15.325704   19.675175 C.3        1 MOL1         0.1043
     120    H57     22.300609   16.195801   19.764653 H          1 MOL1         0.0783
     121    O29     22.154078   14.122688   19.681898 O.3        1 MOL1        -0.3740
     122    C36     23.621509   15.362076   18.273961 C.3        1 MOL1         0.0138
     123    H58     24.143079   16.312848   18.120837 H          1 MOL1         0.0794
     124    H59     22.828394   15.311794   17.515785 H          1 MOL1         0.0794
     125    O30     24.531447   14.271842   18.103117 O.3        1 MOL1        -0.5486
     126    H60     24.010743   13.453010   18.262177 H          1 MOL1         0.3769
@<TRIPOS>BOND
    1     1     2    1
    2     1     3    1
    3     1     4    1
    4     4     5    1
    5     4     6    1
    6     6     7    1
    7     4     8    1
    8     8     9    1
    9     8    10    1
   10    10    11    1
   11     8    12    1
   12    12    13    1
   13    12    14    1
   14    14    15    1
   15     1    16    1
   16    14    16    1
   17    14    17    1
   18    17    18    1
   19    17    19    1
   20    17    20    1
   21    20    21    1
   22    22    23    1
   23    22    24    1
   24    22    25    1
   25    25    26    1
   26    25    27    1
   27    27    28    1
   28    25    29    1
   29    29    30    1
   30    29    31    1
   31    31    32    1
   32     3    33    1
   33    29    33    1
   34    33    34    1
   35    33    35    1
   36    35    36    1
   37    22    37    1
   38    35    37    1
   39    35    38    1
   40    38    39    1
   41    38    40    1
   42    38    41    1
   43    41    42    1
   44    43    44    1
   45    43    45    1
   46    43    46    1
   47    46    47    1
   48    46    48    1
   49    48    49    1
   50    46    50    1
   51    50    51    1
   52    50    52    1
   53    52    53    1
   54    24    54    1
   55    50    54    1
   56    54    55    1
   57    54    56    1
   58    56    57    1
   59    43    58    1
   60    56    58    1
   61    56    59    1
   62    59    60    1
   63    59    61    1
   64    59    62    1
   65    62    63    1
   66    64    65    1
   67    64    66    1
   68    64    67    1
   69    67    68    1
   70    67    69    1
   71    69    70    1
   72    67    71    1
   73    71    72    1
   74    71    73    1
   75    73    74    1
   76    45    75    1
   77    71    75    1
   78    75    76    1
   79    75    77    1
   80    77    78    1
   81    64    79    1
   82    77    79    1
   83    77    80    1
   84    80    81    1
   85    80    82    1
   86    80    83    1
   87    83    84    1
   88    85    86    1
   89    85    87    1
   90    85    88    1
   91    88    89    1
   92    88    90    1
   93    90    91    1
   94    88    92    1
   95    92    93    1
   96    92    94    1
   97    94    95    1
   98    66    96    1
   99    92    96    1
  100    96    97    1
  101    96    98    1
  102    98    99    1
  103    85   100    1
  104    98   100    1
  105    98   101    1
  106   101   102    1
  107   101   103    1
  108   101   104    1
  109   104   105    1
  110   106   107    1
  111    12   108    1
  112   106   108    1
  113   106   109    1
  114   109   110    1
  115   109   111    1
  116   111   112    1
  117   109   113    1
  118   113   114    1
  119   113   115    1
  120   115   116    1
  121    87   117    1
  122   113   117    1
  123   117   118    1
  124   117   119    1
  125   119   120    1
  126   106   121    1
  127   119   121    1
  128   119   122    1
  129   122   123    1
  130   122   124    1
  131   122   125    1
  132   125   126    1
@<TRIPOS>SUBSTRUCTURE
       1 MOL1            1 RESIDUE      1      MOL     
@<SCITEGIC>MOL_PROPERTY
VM2 Rank
SciTegic.value.IntegerValue
4

@<SCITEGIC>MOL_PROPERTY
Conf_Id
SciTegic.value.IntegerValue
10428

@<SCITEGIC>MOL_PROPERTY
Probability
SciTegic.value.DoubleValue
1.32

@<SCITEGIC>MOL_PROPERTY
Sum Probability
SciTegic.value.DoubleValue
5.81

@<SCITEGIC>MOL_PROPERTY
Delta G
SciTegic.value.DoubleValue
0.148

@<SCITEGIC>MOL_PROPERTY
G
SciTegic.value.DoubleValue
522.430

@<SCITEGIC>MOL_PROPERTY
E
SciTegic.value.DoubleValue
363.339

@<SCITEGIC>MOL_PROPERTY
-TS
SciTegic.value.DoubleValue
159.091

@<SCITEGIC>MOL_PROPERTY
U+W
SciTegic.value.DoubleValue
252.453

@<SCITEGIC>MOL_PROPERTY
U
SciTegic.value.DoubleValue
287.192

@<SCITEGIC>MOL_PROPERTY
W
SciTegic.value.DoubleValue
-34.739

@<SCITEGIC>MOL_PROPERTY
W(PB)
SciTegic.value.DoubleValue
-40.583

@<SCITEGIC>MOL_PROPERTY
W(SA)
SciTegic.value.DoubleValue
5.844

@<SCITEGIC>MOL_PROPERTY
Valence
SciTegic.value.DoubleValue
132.995

@<SCITEGIC>MOL_PROPERTY
Coulomb
SciTegic.value.DoubleValue
163.908

@<SCITEGIC>MOL_PROPERTY
VdW
SciTegic.value.DoubleValue
-9.712

@<SCITEGIC>MOL_PROPERTY
VdW6
SciTegic.value.DoubleValue
-144.488

@<SCITEGIC>MOL_PROPERTY
VdW12
SciTegic.value.DoubleValue
134.776

@<SCITEGIC>MOL_PROPERTY
Bond
SciTegic.value.DoubleValue
4.950

@<SCITEGIC>MOL_PROPERTY
Angle
SciTegic.value.DoubleValue
14.809

@<SCITEGIC>MOL_PROPERTY
Pdih
SciTegic.value.DoubleValue
113.236

@<SCITEGIC>MOL_PROPERTY
Idih
SciTegic.value.DoubleValue
0.000

@<SCITEGIC>MOL_PROPERTY
Tether
SciTegic.value.DoubleValue
0.000

@<TRIPOS>MOLECULE
CD_vm2.mol2 : vm2 host conformer 5
         126         132           1
SMALL
USER_CHARGES
 
@<TRIPOS>ATOM
       1    C1      17.006511   16.311572   22.835072 C.3        1 MOL1         0.2972
       2    H1      16.036489   16.348253   23.343397 H          1 MOL1         0.0751
       3    O1      17.262405   17.547952   22.126380 O.3        1 MOL1        -0.3740
       4    C2      18.124227   16.080947   23.883999 C.3        1 MOL1         0.1003
       5    H2      17.905970   15.127613   24.382800 H          1 MOL1         0.0783
       6    O2      18.158732   17.121158   24.869281 O.3        1 MOL1        -0.5519
       7    H3      19.012011   16.989071   25.340051 H          1 MOL1         0.3769
       8    C3      19.506310   15.949228   23.206479 C.3        1 MOL1         0.1053
       9    H4      19.766868   16.917859   22.758226 H          1 MOL1         0.0783
      10    O3      20.478293   15.587788   24.195430 O.3        1 MOL1        -0.5519
      11    H5      21.043067   14.884293   23.795282 H          1 MOL1         0.3769
      12    C4      19.476265   14.884820   22.081706 C.3        1 MOL1         0.1018
      13    H6      19.441798   13.887188   22.540119 H          1 MOL1         0.0783
      14    C5      18.259025   15.067168   21.133119 C.3        1 MOL1         0.1043
      15    H7      18.420230   15.974504   20.542091 H          1 MOL1         0.0783
      16    O4      17.042590   15.201128   21.908302 O.3        1 MOL1        -0.3740
      17    C6      18.059625   13.899792   20.141830 C.3        1 MOL1         0.0138
      18    H8      18.914634   13.864670   19.453794 H          1 MOL1         0.0794
      19    H9      17.164890   14.100447   19.537204 H          1 MOL1         0.0794
      20    O5      17.926672   12.652921   20.830340 O.3        1 MOL1        -0.5486
      21    H10     17.159701   12.753817   21.437167 H          1 MOL1         0.3769
      22    C7      15.021691   20.340765   19.974131 C.3        1 MOL1         0.2972
      23    H11     14.411857   20.878363   19.237042 H          1 MOL1         0.0751
      24    O6      15.515299   21.231919   20.992502 O.3        1 MOL1        -0.3740
      25    C8      14.171500   19.257037   20.678012 C.3        1 MOL1         0.1003
      26    H12     13.810308   18.568708   19.902609 H          1 MOL1         0.0783
      27    O7      13.049042   19.858375   21.340578 O.3        1 MOL1        -0.5519
      28    H13     13.412420   20.615843   21.852924 H          1 MOL1         0.3769
      29    C9      15.010207   18.439192   21.693198 C.3        1 MOL1         0.1053
      30    H14     15.265208   19.096354   22.536012 H          1 MOL1         0.0783
      31    O8      14.194977   17.354686   22.148551 O.3        1 MOL1        -0.5519
      32    H15     13.321750   17.756756   22.354282 H          1 MOL1         0.3769
      33    C10     16.340988   17.920857   21.071337 C.3        1 MOL1         0.1018
      34    H16     16.125190   17.070620   20.411544 H          1 MOL1         0.0783
      35    C11     17.064914   19.026134   20.253037 C.3        1 MOL1         0.1043
      36    H17     17.469503   19.764590   20.958421 H          1 MOL1         0.0783
      37    O9      16.135615   19.669949   19.347678 O.3        1 MOL1        -0.3740
      38    C12     18.245737   18.500489   19.407897 C.3        1 MOL1         0.0138
      39    H18     19.009370   18.090010   20.081069 H          1 MOL1         0.0794
      40    H19     18.699219   19.345752   18.872979 H          1 MOL1         0.0794
      41    O10     17.818584   17.501144   18.478404 O.3        1 MOL1        -0.5486
      42    H20     17.100819   17.909396   17.946120 H          1 MOL1         0.3769
      43    C13     18.443744   24.072513   20.920995 C.3        1 MOL1         0.2972
      44    H21     19.133745   24.922281   20.839398 H          1 MOL1         0.0751
      45    O11     19.135230   22.862538   21.297976 O.3        1 MOL1        -0.3740
      46    C14     17.300570   24.377118   21.919325 C.3        1 MOL1         0.1003
      47    H22     16.734227   25.225086   21.512504 H          1 MOL1         0.0783
      48    O12     17.801220   24.729402   23.218298 O.3        1 MOL1        -0.5519
      49    H23     18.249104   23.922665   23.578017 H          1 MOL1         0.3769
      50    C15     16.341478   23.171175   22.030405 C.3        1 MOL1         0.1053
      51    H24     16.881968   22.376191   22.563079 H          1 MOL1         0.0783
      52    O13     15.196125   23.561776   22.795571 O.3        1 MOL1        -0.5519
      53    H25     15.555645   24.018145   23.588017 H          1 MOL1         0.3769
      54    C16     15.891303   22.592315   20.657266 C.3        1 MOL1         0.1018
      55    H26     15.014701   23.155562   20.312632 H          1 MOL1         0.0783
      56    C17     17.003586   22.635099   19.550075 C.3        1 MOL1         0.1043
      57    H27     17.656887   21.762265   19.669683 H          1 MOL1         0.0783
      58    O14     17.804403   23.838259   19.655886 O.3        1 MOL1        -0.3740
      59    C18     16.461317   22.638760   18.098883 C.3        1 MOL1         0.0138
      60    H28     15.957802   21.692351   17.875231 H          1 MOL1         0.0794
      61    H29     17.313832   22.712442   17.410271 H          1 MOL1         0.0794
      62    O15     15.564320   23.732238   17.885541 O.3        1 MOL1        -0.5486
      63    H30     16.067288   24.546803   18.110063 H          1 MOL1         0.3769
      64    C19     22.670638   21.583289   23.103382 C.3        1 MOL1         0.2972
      65    H31     23.597569   21.552042   23.687727 H          1 MOL1         0.0751
      66    O16     22.481832   20.343545   22.379404 O.3        1 MOL1        -0.3740
      67    C20     21.465560   21.773490   24.058954 C.3        1 MOL1         0.1003
      68    H32     21.639456   22.696918   24.626684 H          1 MOL1         0.0783
      69    O17     21.363574   20.669426   24.970161 O.3        1 MOL1        -0.5519
      70    H33     21.446748   19.857220   24.423661 H          1 MOL1         0.3769
      71    C21     20.143101   21.937680   23.272422 C.3        1 MOL1         0.1053
      72    H34     19.909306   20.980814   22.785651 H          1 MOL1         0.0783
      73    O18     19.099468   22.289926   24.187154 O.3        1 MOL1        -0.5519
      74    H35     19.177513   21.645674   24.925994 H          1 MOL1         0.3769
      75    C22     20.268524   23.021558   22.174264 C.3        1 MOL1         0.1018
      76    H36     20.282828   24.009352   22.653546 H          1 MOL1         0.0783
      77    C23     21.550878   22.840742   21.319490 C.3        1 MOL1         0.1043
      78    H37     21.432653   21.937022   20.713764 H          1 MOL1         0.0783
      79    O19     22.701193   22.700924   22.186265 O.3        1 MOL1        -0.3740
      80    C24     21.827662   24.014078   20.354035 C.3        1 MOL1         0.0138
      81    H38     21.026279   24.057017   19.604561 H          1 MOL1         0.0794
      82    H39     22.764356   23.814233   19.816426 H          1 MOL1         0.0794
      83    O20     21.912554   25.255847   21.059352 O.3        1 MOL1        -0.5486
      84    H40     22.630844   25.147532   21.721913 H          1 MOL1         0.3769
      85    C25     24.885369   17.632285   20.291866 C.3        1 MOL1         0.2972
      86    H41     25.539362   17.120099   19.575094 H          1 MOL1         0.0751
      87    O21     24.345199   16.705635   21.254643 O.3        1 MOL1        -0.3740
      88    C26     25.676947   18.729281   21.050086 C.3        1 MOL1         0.1003
      89    H42     26.025144   19.450842   20.299006 H          1 MOL1         0.0783
      90    O22     26.815181   18.182833   21.739148 O.3        1 MOL1        -0.5519
      91    H43     27.393889   17.760486   21.069573 H          1 MOL1         0.3769
      92    C27     24.768634   19.490345   22.048473 C.3        1 MOL1         0.1053
      93    H44     24.486396   18.794887   22.850666 H          1 MOL1         0.0783
      94    O23     25.530590   20.574672   22.587738 O.3        1 MOL1        -0.5519
      95    H45     26.392944   20.174055   22.838958 H          1 MOL1         0.3769
      96    C28     23.464596   20.003098   21.368146 C.3        1 MOL1         0.1018
      97    H46     23.704630   20.868849   20.737573 H          1 MOL1         0.0783
      98    C29     22.806189   18.906601   20.485116 C.3        1 MOL1         0.1043
      99    H47     22.374702   18.146079   21.149680 H          1 MOL1         0.0783
     100    O24     23.796209   18.298952   19.619031 O.3        1 MOL1        -0.3740
     101    C30     21.667253   19.431917   19.584247 C.3        1 MOL1         0.0138
     102    H48     20.861297   19.822024   20.219232 H          1 MOL1         0.0794
     103    H49     21.255998   18.590028   19.011340 H          1 MOL1         0.0794
     104    O25     22.133534   20.450272   18.695181 O.3        1 MOL1        -0.5486
     105    H50     22.886233   20.059045   18.199661 H          1 MOL1         0.3769
     106    C31     21.394662   13.882060   20.930675 C.3        1 MOL1         0.2972
     107    H51     20.718155   13.029689   20.787410 H          1 MOL1         0.0751
     108    O26     20.673011   15.077298   21.301654 O.3        1 MOL1        -0.3740
     109    C32     22.481971   13.559625   21.984294 C.3        1 MOL1         0.1003
     110    H52     23.085798   12.731501   21.590423 H          1 MOL1         0.0783
     111    O27     21.914413   13.172859   23.242670 O.3        1 MOL1        -0.5519
     112    H53     22.685814   13.049649   23.840990 H          1 MOL1         0.3769
     113    C33     23.410540   14.776168   22.183371 C.3        1 MOL1         0.1053
     114    H54     22.817735   15.560948   22.673546 H          1 MOL1         0.0783
     115    O28     24.505962   14.413014   23.030715 O.3        1 MOL1        -0.5519
     116    H55     25.055860   15.222633   23.116768 H          1 MOL1         0.3769
     117    C34     23.956710   15.366303   20.853835 C.3        1 MOL1         0.1018
     118    H56     24.838630   14.788589   20.548624 H          1 MOL1         0.0783
     119    C35     22.908216   15.362904   19.685164 C.3        1 MOL1         0.1043
     120    H57     22.248583   16.231937   19.793842 H          1 MOL1         0.0783
     121    O29     22.102857   14.157481   19.710434 O.3        1 MOL1        -0.3740
     122    C36     23.532670   15.397951   18.267646 C.3        1 MOL1         0.0138
     123    H58     24.053049   16.346742   18.100297 H          1 MOL1         0.0794
     124    H59     22.720772   15.349256   17.529505 H          1 MOL1         0.0794
     125    O30     24.435796   14.305726   18.074499 O.3        1 MOL1        -0.5486
     126    H60     23.916260   13.487959   18.242606 H          1 MOL1         0.3769
@<TRIPOS>BOND
    1     1     2    1
    2     1     3    1
    3     1     4    1
    4     4     5    1
    5     4     6    1
    6     6     7    1
    7     4     8    1
    8     8     9    1
    9     8    10    1
   10    10    11    1
   11     8    12    1
   12    12    13    1
   13    12    14    1
   14    14    15    1
   15     1    16    1
   16    14    16    1
   17    14    17    1
   18    17    18    1
   19    17    19    1
   20    17    20    1
   21    20    21    1
   22    22    23    1
   23    22    24    1
   24    22    25    1
   25    25    26    1
   26    25    27    1
   27    27    28    1
   28    25    29    1
   29    29    30    1
   30    29    31    1
   31    31    32    1
   32     3    33    1
   33    29    33    1
   34    33    34    1
   35    33    35    1
   36    35    36    1
   37    22    37    1
   38    35    37    1
   39    35    38    1
   40    38    39    1
   41    38    40    1
   42    38    41    1
   43    41    42    1
   44    43    44    1
   45    43    45    1
   46    43    46    1
   47    46    47    1
   48    46    48    1
   49    48    49    1
   50    46    50    1
   51    50    51    1
   52    50    52    1
   53    52    53    1
   54    24    54    1
   55    50    54    1
   56    54    55    1
   57    54    56    1
   58    56    57    1
   59    43    58    1
   60    56    58    1
   61    56    59    1
   62    59    60    1
   63    59    61    1
   64    59    62    1
   65    62    63    1
   66    64    65    1
   67    64    66    1
   68    64    67    1
   69    67    68    1
   70    67    69    1
   71    69    70    1
   72    67    71    1
   73    71    72    1
   74    71    73    1
   75    73    74    1
   76    45    75    1
   77    71    75    1
   78    75    76    1
   79    75    77    1
   80    77    78    1
   81    64    79    1
   82    77    79    1
   83    77    80    1
   84    80    81    1
   85    80    82    1
   86    80    83    1
   87    83    84    1
   88    85    86    1
   89    85    87    1
   90    85    88    1
   91    88    89    1
   92    88    90    1
   93    90    91    1
   94    88    92    1
   95    92    93    1
   96    92    94    1
   97    94    95    1
   98    66    96    1
   99    92    96    1
  100    96    97    1
  101    96    98    1
  102    98    99    1
  103    85   100    1
  104    98   100    1
  105    98   101    1
  106   101   102    1
  107   101   103    1
  108   101   104    1
  109   104   105    1
  110   106   107    1
  111    12   108    1
  112   106   108    1
  113   106   109    1
  114   109   110    1
  115   109   111    1
  116   111   112    1
  117   109   113    1
  118   113   114    1
  119   113   115    1
  120   115   116    1
  121    87   117    1
  122   113   117    1
  123   117   118    1
  124   117   119    1
  125   119   120    1
  126   106   121    1
  127   119   121    1
  128   119   122    1
  129   122   123    1
  130   122   124    1
  131   122   125    1
  132   125   126    1
@<TRIPOS>SUBSTRUCTURE
       1 MOL1            1 RESIDUE      1      MOL     
@<SCITEGIC>MOL_PROPERTY
VM2 Rank
SciTegic.value.IntegerValue
5

@<SCITEGIC>MOL_PROPERTY
Conf_Id
SciTegic.value.IntegerValue
11303

@<SCITEGIC>MOL_PROPERTY
Probability
SciTegic.value.DoubleValue
1.01

@<SCITEGIC>MOL_PROPERTY
Sum Probability
SciTegic.value.DoubleValue
6.83

@<SCITEGIC>MOL_PROPERTY
Delta G
SciTegic.value.DoubleValue
0.307

@<SCITEGIC>MOL_PROPERTY
G
SciTegic.value.DoubleValue
522.589

@<SCITEGIC>MOL_PROPERTY
E
SciTegic.value.DoubleValue
363.934

@<SCITEGIC>MOL_PROPERTY
-TS
SciTegic.value.DoubleValue
158.655

@<SCITEGIC>MOL_PROPERTY
U+W
SciTegic.value.DoubleValue
253.048

@<SCITEGIC>MOL_PROPERTY
U
SciTegic.value.DoubleValue
288.400

@<SCITEGIC>MOL_PROPERTY
W
SciTegic.value.DoubleValue
-35.352

@<SCITEGIC>MOL_PROPERTY
W(PB)
SciTegic.value.DoubleValue
-41.215

@<SCITEGIC>MOL_PROPERTY
W(SA)
SciTegic.value.DoubleValue
5.863

@<SCITEGIC>MOL_PROPERTY
Valence
SciTegic.value.DoubleValue
133.256

@<SCITEGIC>MOL_PROPERTY
Coulomb
SciTegic.value.DoubleValue
165.017

@<SCITEGIC>MOL_PROPERTY
VdW
SciTegic.value.DoubleValue
-9.873

@<SCITEGIC>MOL_PROPERTY
VdW6
SciTegic.value.DoubleValue
-144.134

@<SCITEGIC>MOL_PROPERTY
VdW12
SciTegic.value.DoubleValue
134.261

@<SCITEGIC>MOL_PROPERTY
Bond
SciTegic.value.DoubleValue
4.905

@<SCITEGIC>MOL_PROPERTY
Angle
SciTegic.value.DoubleValue
15.265

@<SCITEGIC>MOL_PROPERTY
Pdih
SciTegic.value.DoubleValue
113.087

@<SCITEGIC>MOL_PROPERTY
Idih
SciTegic.value.DoubleValue
0.000

@<SCITEGIC>MOL_PROPERTY
Tether
SciTegic.value.DoubleValue
0.000

@<TRIPOS>MOLECULE
CD_vm2.mol2 : vm2 host conformer 6
         126         132           1
SMALL
USER_CHARGES
 
@<TRIPOS>ATOM
       1    C1      17.021405   16.327943   22.826893 C.3        1 MOL1         0.2972
       2    H1      16.054103   16.360542   23.340645 H          1 MOL1         0.0751
       3    O1      17.266895   17.564267   22.114864 O.3        1 MOL1        -0.3740
       4    C2      18.146346   16.105216   23.870005 C.3        1 MOL1         0.1003
       5    H2      17.934638   15.152849   24.373448 H          1 MOL1         0.0783
       6    O2      18.182757   17.149006   24.851431 O.3        1 MOL1        -0.5519
       7    H3      19.039443   17.022007   25.317365 H          1 MOL1         0.3769
       8    C3      19.525056   15.976427   23.184992 C.3        1 MOL1         0.1053
       9    H4      19.778752   16.943992   22.730593 H          1 MOL1         0.0783
      10    O3      20.504537   15.623954   24.169855 O.3        1 MOL1        -0.5519
      11    H5      21.048225   14.897031   23.782587 H          1 MOL1         0.3769
      12    C4      19.491409   14.906451   22.065688 C.3        1 MOL1         0.1018
      13    H6      19.454422   13.911467   22.529514 H          1 MOL1         0.0783
      14    C5      18.271207   15.086255   21.120610 C.3        1 MOL1         0.1043
      15    H7      18.428077   15.993985   20.529076 H          1 MOL1         0.0783
      16    O4      17.057562   15.216764   21.900863 O.3        1 MOL1        -0.3740
      17    C6      18.070768   13.918315   20.130179 C.3        1 MOL1         0.0138
      18    H8      18.923413   13.884950   19.439126 H          1 MOL1         0.0794
      19    H9      17.173472   14.117010   19.528699 H          1 MOL1         0.0794
      20    O5      17.942940   12.671211   20.819251 O.3        1 MOL1        -0.5486
      21    H10     17.177932   12.770511   21.428799 H          1 MOL1         0.3769
      22    C7      15.002866   20.350503   19.982398 C.3        1 MOL1         0.2972
      23    H11     14.386308   20.888917   19.251513 H          1 MOL1         0.0751
      24    O6      15.504258   21.240169   20.998401 O.3        1 MOL1        -0.3740
      25    C8      14.160045   19.264772   20.692006 C.3        1 MOL1         0.1003
      26    H12     13.793966   18.576324   19.919003 H          1 MOL1         0.0783
      27    O7      13.041840   19.863616   21.363954 O.3        1 MOL1        -0.5519
      28    H13     13.407958   20.621237   21.874110 H          1 MOL1         0.3769
      29    C9      15.008535   18.447923   21.699905 C.3        1 MOL1         0.1053
      30    H14     15.269138   19.105161   22.540947 H          1 MOL1         0.0783
      31    O8      14.199307   17.361570   22.161517 O.3        1 MOL1        -0.5519
      32    H15     13.326980   17.761760   22.374601 H          1 MOL1         0.3769
      33    C10     16.335251   17.932256   21.067204 C.3        1 MOL1         0.1018
      34    H16     16.116128   17.080067   20.411025 H          1 MOL1         0.0783
      35    C11     17.049767   19.037589   20.240914 C.3        1 MOL1         0.1043
      36    H17     17.461417   19.776292   20.941936 H          1 MOL1         0.0783
      37    O9      16.111304   19.681076   19.344937 O.3        1 MOL1        -0.3740
      38    C12     18.221906   18.511418   19.384278 C.3        1 MOL1         0.0138
      39    H18     18.991254   18.100944   20.050631 H          1 MOL1         0.0794
      40    H19     18.671196   19.355992   18.844636 H          1 MOL1         0.0794
      41    O10     17.785524   17.511141   18.460073 O.3        1 MOL1        -0.5486
      42    H20     17.063313   17.919237   17.933708 H          1 MOL1         0.3769
      43    C13     18.439512   24.069753   20.921845 C.3        1 MOL1         0.2972
      44    H21     19.133794   24.915966   20.839589 H          1 MOL1         0.0751
      45    O11     19.125156   22.856079   21.298296 O.3        1 MOL1        -0.3740
      46    C14     17.299126   24.380153   21.921440 C.3        1 MOL1         0.1003
      47    H22     16.735844   25.230250   21.514809 H          1 MOL1         0.0783
      48    O12     17.803193   24.731172   23.219418 O.3        1 MOL1        -0.5519
      49    H23     18.248232   23.922766   23.578927 H          1 MOL1         0.3769
      50    C15     16.335249   23.178251   22.034454 C.3        1 MOL1         0.1053
      51    H24     16.873224   22.381520   22.567073 H          1 MOL1         0.0783
      52    O13     15.192444   23.573825   22.800853 O.3        1 MOL1        -0.5519
      53    H25     15.554792   24.029146   23.592615 H          1 MOL1         0.3769
      54    C16     15.881017   22.600111   20.662280 C.3        1 MOL1         0.1018
      55    H26     15.004225   23.164467   20.319922 H          1 MOL1         0.0783
      56    C17     16.990183   22.640815   19.551890 C.3        1 MOL1         0.1043
      57    H27     17.640215   21.765095   19.667382 H          1 MOL1         0.0783
      58    O14     17.797149   23.839756   19.657521 O.3        1 MOL1        -0.3740
      59    C18     16.442597   22.649822   18.102768 C.3        1 MOL1         0.0138
      60    H28     15.930799   21.707523   17.880464 H          1 MOL1         0.0794
      61    H29     17.293012   22.717644   17.410971 H          1 MOL1         0.0794
      62    O15     15.553084   23.750275   17.893954 O.3        1 MOL1        -0.5486
      63    H30     16.062719   24.560645   18.118652 H          1 MOL1         0.3769
      64    C19     22.663606   21.575725   23.106136 C.3        1 MOL1         0.2972
      65    H31     23.590568   21.550794   23.690776 H          1 MOL1         0.0751
      66    O16     22.478389   20.329897   22.391777 O.3        1 MOL1        -0.3740
      67    C20     21.457939   21.769865   24.060442 C.3        1 MOL1         0.1003
      68    H32     21.631846   22.695608   24.624386 H          1 MOL1         0.0783
      69    O17     21.355849   20.669669   24.976339 O.3        1 MOL1        -0.5519
      70    H33     21.438385   19.855150   24.433187 H          1 MOL1         0.3769
      71    C21     20.135193   21.931113   23.273515 C.3        1 MOL1         0.1053
      72    H34     19.900809   20.972525   22.790426 H          1 MOL1         0.0783
      73    O18     19.092193   22.287535   24.187328 O.3        1 MOL1        -0.5519
      74    H35     19.169481   21.645410   24.928096 H          1 MOL1         0.3769
      75    C22     20.261581   23.010823   22.171441 C.3        1 MOL1         0.1018
      76    H36     20.282703   24.000026   22.647599 H          1 MOL1         0.0783
      77    C23     21.540878   22.820116   21.314665 C.3        1 MOL1         0.1043
      78    H37     21.419364   21.911091   20.717358 H          1 MOL1         0.0783
      79    O19     22.692641   22.686371   22.180430 O.3        1 MOL1        -0.3740
      80    C24     21.817518   23.984793   20.338708 C.3        1 MOL1         0.0138
      81    H38     21.014053   24.023383   19.591213 H          1 MOL1         0.0794
      82    H39     22.752228   23.778432   19.800124 H          1 MOL1         0.0794
      83    O20     21.907211   25.232130   21.033568 O.3        1 MOL1        -0.5486
      84    H40     22.626988   25.127475   21.695102 H          1 MOL1         0.3769
      85    C25     24.896877   17.628615   20.294010 C.3        1 MOL1         0.2972
      86    H41     25.554895   17.131978   19.569770 H          1 MOL1         0.0751
      87    O21     24.391345   16.689100   21.266142 O.3        1 MOL1        -0.3740
      88    C26     25.677924   18.728464   21.053961 C.3        1 MOL1         0.1003
      89    H42     26.035152   19.449189   20.306586 H          1 MOL1         0.0783
      90    O22     26.805223   18.164733   21.740568 O.3        1 MOL1        -0.5519
      91    H43     26.461513   17.395616   22.244330 H          1 MOL1         0.3769
      92    C27     24.768920   19.489635   22.052963 C.3        1 MOL1         0.1053
      93    H44     24.493060   18.799565   22.861895 H          1 MOL1         0.0783
      94    O23     25.525216   20.583341   22.581081 O.3        1 MOL1        -0.5519
      95    H45     26.405358   20.205885   22.803465 H          1 MOL1         0.3769
      96    C28     23.457292   19.987583   21.377450 C.3        1 MOL1         0.1018
      97    H46     23.686351   20.848529   20.736265 H          1 MOL1         0.0783
      98    C29     22.802553   18.876634   20.511176 C.3        1 MOL1         0.1043
      99    H47     22.391657   18.113285   21.185573 H          1 MOL1         0.0783
     100    O24     23.789930   18.279946   19.635403 O.3        1 MOL1        -0.3740
     101    C30     21.645066   19.381473   19.622331 C.3        1 MOL1         0.0138
     102    H48     20.844491   19.769625   20.265346 H          1 MOL1         0.0794
     103    H49     21.234644   18.529946   19.063291 H          1 MOL1         0.0794
     104    O25     22.087695   20.395996   18.716994 O.3        1 MOL1        -0.5486
     105    H50     22.839790   20.009053   18.217195 H          1 MOL1         0.3769
     106    C31     21.404674   13.889527   20.919422 C.3        1 MOL1         0.2972
     107    H51     20.723312   13.042044   20.770399 H          1 MOL1         0.0751
     108    O26     20.687663   15.090365   21.282214 O.3        1 MOL1        -0.3740
     109    C32     22.479822   13.559004   21.982481 C.3        1 MOL1         0.1003
     110    H52     23.079211   12.725184   21.593818 H          1 MOL1         0.0783
     111    O27     21.899003   13.176962   23.236363 O.3        1 MOL1        -0.5519
     112    H53     22.664959   13.043503   23.839482 H          1 MOL1         0.3769
     113    C33     23.419114   14.766144   22.189758 C.3        1 MOL1         0.1053
     114    H54     22.830298   15.556471   22.675615 H          1 MOL1         0.0783
     115    O28     24.499656   14.384322   23.048316 O.3        1 MOL1        -0.5519
     116    H55     25.030546   15.195816   23.192755 H          1 MOL1         0.3769
     117    C34     23.983187   15.352665   20.864775 C.3        1 MOL1         0.1018
     118    H56     24.858989   14.762856   20.565128 H          1 MOL1         0.0783
     119    C35     22.942534   15.355934   19.687684 C.3        1 MOL1         0.1043
     120    H57     22.286720   16.228110   19.790675 H          1 MOL1         0.0783
     121    O29     22.127672   14.157078   19.706471 O.3        1 MOL1        -0.3740
     122    C36     23.576493   15.384752   18.274071 C.3        1 MOL1         0.0138
     123    H58     24.104289   16.329663   18.108073 H          1 MOL1         0.0794
     124    H59     22.768932   15.340501   17.530904 H          1 MOL1         0.0794
     125    O30     24.472948   14.285837   18.088080 O.3        1 MOL1        -0.5486
     126    H60     23.946506   13.472048   18.253962 H          1 MOL1         0.3769
@<TRIPOS>BOND
    1     1     2    1
    2     1     3    1
    3     1     4    1
    4     4     5    1
    5     4     6    1
    6     6     7    1
    7     4     8    1
    8     8     9    1
    9     8    10    1
   10    10    11    1
   11     8    12    1
   12    12    13    1
   13    12    14    1
   14    14    15    1
   15     1    16    1
   16    14    16    1
   17    14    17    1
   18    17    18    1
   19    17    19    1
   20    17    20    1
   21    20    21    1
   22    22    23    1
   23    22    24    1
   24    22    25    1
   25    25    26    1
   26    25    27    1
   27    27    28    1
   28    25    29    1
   29    29    30    1
   30    29    31    1
   31    31    32    1
   32     3    33    1
   33    29    33    1
   34    33    34    1
   35    33    35    1
   36    35    36    1
   37    22    37    1
   38    35    37    1
   39    35    38    1
   40    38    39    1
   41    38    40    1
   42    38    41    1
   43    41    42    1
   44    43    44    1
   45    43    45    1
   46    43    46    1
   47    46    47    1
   48    46    48    1
   49    48    49    1
   50    46    50    1
   51    50    51    1
   52    50    52    1
   53    52    53    1
   54    24    54    1
   55    50    54    1
   56    54    55    1
   57    54    56    1
   58    56    57    1
   59    43    58    1
   60    56    58    1
   61    56    59    1
   62    59    60    1
   63    59    61    1
   64    59    62    1
   65    62    63    1
   66    64    65    1
   67    64    66    1
   68    64    67    1
   69    67    68    1
   70    67    69    1
   71    69    70    1
   72    67    71    1
   73    71    72    1
   74    71    73    1
   75    73    74    1
   76    45    75    1
   77    71    75    1
   78    75    76    1
   79    75    77    1
   80    77    78    1
   81    64    79    1
   82    77    79    1
   83    77    80    1
   84    80    81    1
   85    80    82    1
   86    80    83    1
   87    83    84    1
   88    85    86    1
   89    85    87    1
   90    85    88    1
   91    88    89    1
   92    88    90    1
   93    90    91    1
   94    88    92    1
   95    92    93    1
   96    92    94    1
   97    94    95    1
   98    66    96    1
   99    92    96    1
  100    96    97    1
  101    96    98    1
  102    98    99    1
  103    85   100    1
  104    98   100    1
  105    98   101    1
  106   101   102    1
  107   101   103    1
  108   101   104    1
  109   104   105    1
  110   106   107    1
  111    12   108    1
  112   106   108    1
  113   106   109    1
  114   109   110    1
  115   109   111    1
  116   111   112    1
  117   109   113    1
  118   113   114    1
  119   113   115    1
  120   115   116    1
  121    87   117    1
  122   113   117    1
  123   117   118    1
  124   117   119    1
  125   119   120    1
  126   106   121    1
  127   119   121    1
  128   119   122    1
  129   122   123    1
  130   122   124    1
  131   122   125    1
  132   125   126    1
@<TRIPOS>SUBSTRUCTURE
       1 MOL1            1 RESIDUE      1      MOL     
@<SCITEGIC>MOL_PROPERTY
VM2 Rank
SciTegic.value.IntegerValue
6

@<SCITEGIC>MOL_PROPERTY
Conf_Id
SciTegic.value.IntegerValue
12784

@<SCITEGIC>MOL_PROPERTY
Probability
SciTegic.value.DoubleValue
0.90

@<SCITEGIC>MOL_PROPERTY
Sum Probability
SciTegic.value.DoubleValue
7.73

@<SCITEGIC>MOL_PROPERTY
Delta G
SciTegic.value.DoubleValue
0.377

@<SCITEGIC>MOL_PROPERTY
G
SciTegic.value.DoubleValue
522.659

@<SCITEGIC>MOL_PROPERTY
E
SciTegic.value.DoubleValue
363.902

@<SCITEGIC>MOL_PROPERTY
-TS
SciTegic.value.DoubleValue
158.757

@<SCITEGIC>MOL_PROPERTY
U+W
SciTegic.value.DoubleValue
253.016

@<SCITEGIC>MOL_PROPERTY
U
SciTegic.value.DoubleValue
288.545

@<SCITEGIC>MOL_PROPERTY
W
SciTegic.value.DoubleValue
-35.529

@<SCITEGIC>MOL_PROPERTY
W(PB)
SciTegic.value.DoubleValue
-41.386

@<SCITEGIC>MOL_PROPERTY
W(SA)
SciTegic.value.DoubleValue
5.856

@<SCITEGIC>MOL_PROPERTY
Valence
SciTegic.value.DoubleValue
133.591

@<SCITEGIC>MOL_PROPERTY
Coulomb
SciTegic.value.DoubleValue
164.923

@<SCITEGIC>MOL_PROPERTY
VdW
SciTegic.value.DoubleValue
-9.969

@<SCITEGIC>MOL_PROPERTY
VdW6
SciTegic.value.DoubleValue
-144.591

@<SCITEGIC>MOL_PROPERTY
VdW12
SciTegic.value.DoubleValue
134.622

@<SCITEGIC>MOL_PROPERTY
Bond
SciTegic.value.DoubleValue
4.920

@<SCITEGIC>MOL_PROPERTY
Angle
SciTegic.value.DoubleValue
15.194

@<SCITEGIC>MOL_PROPERTY
Pdih
SciTegic.value.DoubleValue
113.478

@<SCITEGIC>MOL_PROPERTY
Idih
SciTegic.value.DoubleValue
0.000

@<SCITEGIC>MOL_PROPERTY
Tether
SciTegic.value.DoubleValue
0.000

@<TRIPOS>MOLECULE
CD_vm2.mol2 : vm2 host conformer 7
         126         132           1
SMALL
USER_CHARGES
 
@<TRIPOS>ATOM
       1    C1      16.980097   16.263761   22.849187 C.3        1 MOL1         0.2972
       2    H1      16.011915   16.286487   23.361368 H          1 MOL1         0.0751
       3    O1      17.230777   17.515872   22.165495 O.3        1 MOL1        -0.3740
       4    C2      18.099149   16.010216   23.891029 C.3        1 MOL1         0.1003
       5    H2      17.881831   15.045370   24.367617 H          1 MOL1         0.0783
       6    O2      18.132233   17.026669   24.900627 O.3        1 MOL1        -0.5519
       7    H3      18.993912   16.896242   25.356646 H          1 MOL1         0.3769
       8    C3      19.481189   15.894135   23.210822 C.3        1 MOL1         0.1053
       9    H4      19.744698   16.874208   22.789651 H          1 MOL1         0.0783
      10    O3      20.450300   15.502308   24.190896 O.3        1 MOL1        -0.5519
      11    H5      21.033931   14.831999   23.761978 H          1 MOL1         0.3769
      12    C4      19.451179   14.859775   22.058169 C.3        1 MOL1         0.1018
      13    H6      19.423710   13.850205   22.490256 H          1 MOL1         0.0783
      14    C5      18.230450   15.060604   21.117859 C.3        1 MOL1         0.1043
      15    H7      18.388031   15.981795   20.548013 H          1 MOL1         0.0783
      16    O4      17.015650   15.173805   21.898685 O.3        1 MOL1        -0.3740
      17    C6      18.031713   13.916355   20.099868 C.3        1 MOL1         0.0138
      18    H8      18.885361   13.899489   19.409451 H          1 MOL1         0.0794
      19    H9      17.135275   14.129103   19.501928 H          1 MOL1         0.0794
      20    O5      17.903173   12.653360   20.759249 O.3        1 MOL1        -0.5486
      21    H10     17.137506   12.738318   21.370145 H          1 MOL1         0.3769
      22    C7      14.959253   20.336146   20.061866 C.3        1 MOL1         0.2972
      23    H11     14.331878   20.862072   19.331813 H          1 MOL1         0.0751
      24    O6      15.467947   21.242609   21.059675 O.3        1 MOL1        -0.3740
      25    C8      14.122999   19.257400   20.789576 C.3        1 MOL1         0.1003
      26    H12     13.739543   18.569931   20.024143 H          1 MOL1         0.0783
      27    O7      13.019526   19.865272   21.477649 O.3        1 MOL1        -0.5519
      28    H13     13.398229   20.623348   21.977975 H          1 MOL1         0.3769
      29    C9      14.980479   18.435047   21.784637 C.3        1 MOL1         0.1053
      30    H14     15.257437   19.090103   22.622135 H          1 MOL1         0.0783
      31    O8      14.168627   17.354827   22.255913 O.3        1 MOL1        -0.5519
      32    H15     13.302971   17.762230   22.482229 H          1 MOL1         0.3769
      33    C10     16.294480   17.911812   21.131690 C.3        1 MOL1         0.1018
      34    H16     16.059102   17.072258   20.464885 H          1 MOL1         0.0783
      35    C11     17.006823   19.023769   20.312007 C.3        1 MOL1         0.1043
      36    H17     17.415057   19.760693   21.016780 H          1 MOL1         0.0783
      37    O9      16.062972   19.665253   19.420173 O.3        1 MOL1        -0.3740
      38    C12     18.180658   18.511211   19.449065 C.3        1 MOL1         0.0138
      39    H18     18.957315   18.105064   20.109882 H          1 MOL1         0.0794
      40    H19     18.618961   19.362965   18.911219 H          1 MOL1         0.0794
      41    O10     17.748686   17.512579   18.520870 O.3        1 MOL1        -0.5486
      42    H20     17.031352   17.924362   17.990558 H          1 MOL1         0.3769
      43    C13     18.409318   24.082828   20.955134 C.3        1 MOL1         0.2972
      44    H21     19.093199   24.936040   20.859342 H          1 MOL1         0.0751
      45    O11     19.108264   22.883963   21.349897 O.3        1 MOL1        -0.3740
      46    C14     17.266199   24.394759   21.950285 C.3        1 MOL1         0.1003
      47    H22     16.700098   25.239556   21.536603 H          1 MOL1         0.0783
      48    O12     17.766767   24.757297   23.246510 O.3        1 MOL1        -0.5519
      49    H23     18.227917   23.958442   23.607434 H          1 MOL1         0.3769
      50    C15     16.307112   23.189633   22.070358 C.3        1 MOL1         0.1053
      51    H24     16.845534   22.401544   22.615633 H          1 MOL1         0.0783
      52    O13     15.157620   23.590106   22.823927 O.3        1 MOL1        -0.5519
      53    H25     15.512889   24.052999   23.614585 H          1 MOL1         0.3769
      54    C16     15.862218   22.593502   20.702242 C.3        1 MOL1         0.1018
      55    H26     14.997208   23.161994   20.336649 H          1 MOL1         0.0783
      56    C17     16.982397   22.610166   19.604605 C.3        1 MOL1         0.1043
      57    H27     17.632783   21.736762   19.736831 H          1 MOL1         0.0783
      58    O14     17.769630   23.824250   19.695720 O.3        1 MOL1        -0.3740
      59    C18     16.429676   22.610087   18.159383 C.3        1 MOL1         0.0138
      60    H28     15.847737   23.527552   17.998153 H          1 MOL1         0.0794
      61    H29     15.756370   21.761916   18.000061 H          1 MOL1         0.0794
      62    O15     17.510071   22.537390   17.227185 O.3        1 MOL1        -0.5486
      63    H30     18.153233   23.227247   17.506521 H          1 MOL1         0.3769
      64    C19     22.673809   21.643029   23.100886 C.3        1 MOL1         0.2972
      65    H31     23.613846   21.610919   23.663040 H          1 MOL1         0.0751
      66    O16     22.470075   20.405739   22.377521 O.3        1 MOL1        -0.3740
      67    C20     21.492920   21.862346   24.084680 C.3        1 MOL1         0.1003
      68    H32     21.681098   22.810739   24.605092 H          1 MOL1         0.0783
      69    O17     21.398602   20.806079   25.055478 O.3        1 MOL1        -0.5519
      70    H33     22.270150   20.730135   25.497355 H          1 MOL1         0.3769
      71    C21     20.155422   22.000457   23.321344 C.3        1 MOL1         0.1053
      72    H34     19.924033   21.031558   22.857616 H          1 MOL1         0.0783
      73    O18     19.124812   22.359974   24.248153 O.3        1 MOL1        -0.5519
      74    H35     19.220972   21.717785   24.987183 H          1 MOL1         0.3769
      75    C22     20.253761   23.068074   22.204590 C.3        1 MOL1         0.1018
      76    H36     20.263363   24.062560   22.669975 H          1 MOL1         0.0783
      77    C23     21.525222   22.891118   21.331501 C.3        1 MOL1         0.1043
      78    H37     21.400788   21.985568   20.730274 H          1 MOL1         0.0783
      79    O19     22.691135   22.757203   22.179291 O.3        1 MOL1        -0.3740
      80    C24     21.782132   24.061489   20.357100 C.3        1 MOL1         0.0138
      81    H38     20.970699   24.096043   19.618169 H          1 MOL1         0.0794
      82    H39     22.712601   23.864396   19.807785 H          1 MOL1         0.0794
      83    O20     21.869327   25.307118   21.055266 O.3        1 MOL1        -0.5486
      84    H40     22.599172   25.207463   21.706413 H          1 MOL1         0.3769
      85    C25     24.839367   17.678673   20.261441 C.3        1 MOL1         0.2972
      86    H41     25.486264   17.172327   19.534123 H          1 MOL1         0.0751
      87    O21     24.301447   16.741916   21.215353 O.3        1 MOL1        -0.3740
      88    C26     25.641890   18.762765   21.026853 C.3        1 MOL1         0.1003
      89    H42     25.993693   19.487549   20.280579 H          1 MOL1         0.0783
      90    O22     26.777992   18.201268   21.707398 O.3        1 MOL1        -0.5519
      91    H43     27.349879   17.778003   21.032566 H          1 MOL1         0.3769
      92    C27     24.743892   19.523814   22.034486 C.3        1 MOL1         0.1053
      93    H44     24.456587   18.824280   22.831379 H          1 MOL1         0.0783
      94    O23     25.519020   20.595503   22.580634 O.3        1 MOL1        -0.5519
      95    H45     26.378943   20.183957   22.822589 H          1 MOL1         0.3769
      96    C28     23.443101   20.054046   21.361466 C.3        1 MOL1         0.1018
      97    H46     23.689725   20.917309   20.730047 H          1 MOL1         0.0783
      98    C29     22.769092   18.964182   20.481815 C.3        1 MOL1         0.1043
      99    H47     22.340779   18.203258   21.148084 H          1 MOL1         0.0783
     100    O24     23.748117   18.356407   19.603409 O.3        1 MOL1        -0.3740
     101    C30     21.624578   19.497653   19.592638 C.3        1 MOL1         0.0138
     102    H48     20.825184   19.889041   20.235231 H          1 MOL1         0.0794
     103    H49     21.204427   18.659728   19.020412 H          1 MOL1         0.0794
     104    O25     22.089645   20.516139   18.702850 O.3        1 MOL1        -0.5486
     105    H50     22.834821   20.121491   18.198917 H          1 MOL1         0.3769
     106    C31     21.371015   13.897950   20.875618 C.3        1 MOL1         0.2972
     107    H51     20.700514   13.042268   20.723943 H          1 MOL1         0.0751
     108    O26     20.643746   15.078881   21.278885 O.3        1 MOL1        -0.3740
     109    C32     22.473844   13.565948   21.909722 C.3        1 MOL1         0.1003
     110    H52     23.081738   12.752451   21.492327 H          1 MOL1         0.0783
     111    O27     21.924761   13.147705   23.166080 O.3        1 MOL1        -0.5519
     112    H53     22.704034   13.022554   23.753702 H          1 MOL1         0.3769
     113    C33     23.391593   14.788534   22.122120 C.3        1 MOL1         0.1053
     114    H54     22.795877   15.558622   22.631860 H          1 MOL1         0.0783
     115    O28     24.499207   14.421595   22.951839 O.3        1 MOL1        -0.5519
     116    H55     25.042063   15.235041   23.046347 H          1 MOL1         0.3769
     117    C34     23.918524   15.406324   20.797421 C.3        1 MOL1         0.1018
     118    H56     24.801139   14.840415   20.472699 H          1 MOL1         0.0783
     119    C35     22.857202   15.415720   19.640390 C.3        1 MOL1         0.1043
     120    H57     22.192952   16.278314   19.772056 H          1 MOL1         0.0783
     121    O29     22.061441   14.203627   19.652551 O.3        1 MOL1        -0.3740
     122    C36     23.465302   15.478951   18.216605 C.3        1 MOL1         0.0138
     123    H58     23.976627   16.434095   18.058378 H          1 MOL1         0.0794
     124    H59     22.645410   15.435953   17.486990 H          1 MOL1         0.0794
     125    O30     24.374370   14.397010   17.995361 O.3        1 MOL1        -0.5486
     126    H60     23.862790   13.572678   18.155569 H          1 MOL1         0.3769
@<TRIPOS>BOND
    1     1     2    1
    2     1     3    1
    3     1     4    1
    4     4     5    1
    5     4     6    1
    6     6     7    1
    7     4     8    1
    8     8     9    1
    9     8    10    1
   10    10    11    1
   11     8    12    1
   12    12    13    1
   13    12    14    1
   14    14    15    1
   15     1    16    1
   16    14    16    1
   17    14    17    1
   18    17    18    1
   19    17    19    1
   20    17    20    1
   21    20    21    1
   22    22    23    1
   23    22    24    1
   24    22    25    1
   25    25    26    1
   26    25    27    1
   27    27    28    1
   28    25    29    1
   29    29    30    1
   30    29    31    1
   31    31    32    1
   32     3    33    1
   33    29    33    1
   34    33    34    1
   35    33    35    1
   36    35    36    1
   37    22    37    1
   38    35    37    1
   39    35    38    1
   40    38    39    1
   41    38    40    1
   42    38    41    1
   43    41    42    1
   44    43    44    1
   45    43    45    1
   46    43    46    1
   47    46    47    1
   48    46    48    1
   49    48    49    1
   50    46    50    1
   51    50    51    1
   52    50    52    1
   53    52    53    1
   54    24    54    1
   55    50    54    1
   56    54    55    1
   57    54    56    1
   58    56    57    1
   59    43    58    1
   60    56    58    1
   61    56    59    1
   62    59    60    1
   63    59    61    1
   64    59    62    1
   65    62    63    1
   66    64    65    1
   67    64    66    1
   68    64    67    1
   69    67    68    1
   70    67    69    1
   71    69    70    1
   72    67    71    1
   73    71    72    1
   74    71    73    1
   75    73    74    1
   76    45    75    1
   77    71    75    1
   78    75    76    1
   79    75    77    1
   80    77    78    1
   81    64    79    1
   82    77    79    1
   83    77    80    1
   84    80    81    1
   85    80    82    1
   86    80    83    1
   87    83    84    1
   88    85    86    1
   89    85    87    1
   90    85    88    1
   91    88    89    1
   92    88    90    1
   93    90    91    1
   94    88    92    1
   95    92    93    1
   96    92    94    1
   97    94    95    1
   98    66    96    1
   99    92    96    1
  100    96    97    1
  101    96    98    1
  102    98    99    1
  103    85   100    1
  104    98   100    1
  105    98   101    1
  106   101   102    1
  107   101   103    1
  108   101   104    1
  109   104   105    1
  110   106   107    1
  111    12   108    1
  112   106   108    1
  113   106   109    1
  114   109   110    1
  115   109   111    1
  116   111   112    1
  117   109   113    1
  118   113   114    1
  119   113   115    1
  120   115   116    1
  121    87   117    1
  122   113   117    1
  123   117   118    1
  124   117   119    1
  125   119   120    1
  126   106   121    1
  127   119   121    1
  128   119   122    1
  129   122   123    1
  130   122   124    1
  131   122   125    1
  132   125   126    1
@<TRIPOS>SUBSTRUCTURE
       1 MOL1            1 RESIDUE      1      MOL     
@<SCITEGIC>MOL_PROPERTY
VM2 Rank
SciTegic.value.IntegerValue
7

@<SCITEGIC>MOL_PROPERTY
Conf_Id
SciTegic.value.IntegerValue
12290

@<SCITEGIC>MOL_PROPERTY
Probability
SciTegic.value.DoubleValue
0.81

@<SCITEGIC>MOL_PROPERTY
Sum Probability
SciTegic.value.DoubleValue
8.54

@<SCITEGIC>MOL_PROPERTY
Delta G
SciTegic.value.DoubleValue
0.440

@<SCITEGIC>MOL_PROPERTY
G
SciTegic.value.DoubleValue
522.722

@<SCITEGIC>MOL_PROPERTY
E
SciTegic.value.DoubleValue
364.527

@<SCITEGIC>MOL_PROPERTY
-TS
SciTegic.value.DoubleValue
158.195

@<SCITEGIC>MOL_PROPERTY
U+W
SciTegic.value.DoubleValue
253.641

@<SCITEGIC>MOL_PROPERTY
U
SciTegic.value.DoubleValue
291.451

@<SCITEGIC>MOL_PROPERTY
W
SciTegic.value.DoubleValue
-37.810

@<SCITEGIC>MOL_PROPERTY
W(PB)
SciTegic.value.DoubleValue
-43.669

@<SCITEGIC>MOL_PROPERTY
W(SA)
SciTegic.value.DoubleValue
5.858

@<SCITEGIC>MOL_PROPERTY
Valence
SciTegic.value.DoubleValue
133.489

@<SCITEGIC>MOL_PROPERTY
Coulomb
SciTegic.value.DoubleValue
167.971

@<SCITEGIC>MOL_PROPERTY
VdW
SciTegic.value.DoubleValue
-10.009

@<SCITEGIC>MOL_PROPERTY
VdW6
SciTegic.value.DoubleValue
-143.076

@<SCITEGIC>MOL_PROPERTY
VdW12
SciTegic.value.DoubleValue
133.067

@<SCITEGIC>MOL_PROPERTY
Bond
SciTegic.value.DoubleValue
4.908

@<SCITEGIC>MOL_PROPERTY
Angle
SciTegic.value.DoubleValue
15.330

@<SCITEGIC>MOL_PROPERTY
Pdih
SciTegic.value.DoubleValue
113.251

@<SCITEGIC>MOL_PROPERTY
Idih
SciTegic.value.DoubleValue
0.000

@<SCITEGIC>MOL_PROPERTY
Tether
SciTegic.value.DoubleValue
0.000

@<TRIPOS>MOLECULE
CD_vm2.mol2 : vm2 host conformer 8
         126         132           1
SMALL
USER_CHARGES
 
@<TRIPOS>ATOM
       1    C1      17.015624   16.263439   22.803805 C.3        1 MOL1         0.2972
       2    H1      16.046046   16.277650   23.313705 H          1 MOL1         0.0751
       3    O1      17.258189   17.520929   22.129971 O.3        1 MOL1        -0.3740
       4    C2      18.139266   16.018737   23.845983 C.3        1 MOL1         0.1003
       5    H2      17.925541   15.055743   24.328346 H          1 MOL1         0.0783
       6    O2      18.174105   17.047831   24.849489 O.3        1 MOL1        -0.5519
       7    H3      17.278808   17.108754   25.243567 H          1 MOL1         0.3769
       8    C3      19.517708   15.905086   23.155521 C.3        1 MOL1         0.1053
       9    H4      19.768386   16.884714   22.725778 H          1 MOL1         0.0783
      10    O3      20.494407   15.534717   24.134476 O.3        1 MOL1        -0.5519
      11    H5      20.344587   16.157759   24.880997 H          1 MOL1         0.3769
      12    C4      19.484478   14.860797   22.011958 C.3        1 MOL1         0.1018
      13    H6      19.438637   13.856942   22.454190 H          1 MOL1         0.0783
      14    C5      18.267767   15.065745   21.069415 C.3        1 MOL1         0.1043
      15    H7      18.427408   15.987789   20.502158 H          1 MOL1         0.0783
      16    O4      17.052972   15.177713   21.849430 O.3        1 MOL1        -0.3740
      17    C6      18.070511   13.922596   20.049811 C.3        1 MOL1         0.0138
      18    H8      18.928996   13.901978   19.365451 H          1 MOL1         0.0794
      19    H9      17.179052   14.139457   19.445948 H          1 MOL1         0.0794
      20    O5      17.932146   12.659946   20.707994 O.3        1 MOL1        -0.5486
      21    H10     17.164565   12.749076   21.315846 H          1 MOL1         0.3769
      22    C7      14.996606   20.347254   20.026698 C.3        1 MOL1         0.2972
      23    H11     14.374977   20.881489   19.297020 H          1 MOL1         0.0751
      24    O6      15.509852   21.244992   21.029645 O.3        1 MOL1        -0.3740
      25    C8      14.156330   19.269189   20.751784 C.3        1 MOL1         0.1003
      26    H12     13.774196   18.581269   19.986126 H          1 MOL1         0.0783
      27    O7      13.052228   19.877990   21.437941 O.3        1 MOL1        -0.5519
      28    H13     13.430203   20.638037   21.935799 H          1 MOL1         0.3769
      29    C9      15.012752   18.448591   21.749776 C.3        1 MOL1         0.1053
      30    H14     15.294084   19.108062   22.582280 H          1 MOL1         0.0783
      31    O8      14.201267   17.373151   22.232144 O.3        1 MOL1        -0.5519
      32    H15     13.334622   17.782442   22.451507 H          1 MOL1         0.3769
      33    C10     16.323210   17.918355   21.096152 C.3        1 MOL1         0.1018
      34    H16     16.084023   17.079012   20.430375 H          1 MOL1         0.0783
      35    C11     17.040177   19.026539   20.275757 C.3        1 MOL1         0.1043
      36    H17     17.453112   19.761727   20.979729 H          1 MOL1         0.0783
      37    O9      16.099015   19.672440   19.384446 O.3        1 MOL1        -0.3740
      38    C12     18.210052   18.506565   19.412274 C.3        1 MOL1         0.0138
      39    H18     18.981693   18.091044   20.072887 H          1 MOL1         0.0794
      40    H19     18.658115   19.355442   18.878422 H          1 MOL1         0.0794
      41    O10     17.769925   17.515048   18.480336 O.3        1 MOL1        -0.5486
      42    H20     17.044753   17.927941   17.961855 H          1 MOL1         0.3769
      43    C13     18.435563   24.085112   20.894064 C.3        1 MOL1         0.2972
      44    H21     19.125590   24.932930   20.794111 H          1 MOL1         0.0751
      45    O11     19.128672   22.880819   21.286646 O.3        1 MOL1        -0.3740
      46    C14     17.299208   24.406750   21.894551 C.3        1 MOL1         0.1003
      47    H22     16.727949   25.245487   21.475633 H          1 MOL1         0.0783
      48    O12     17.808639   24.785720   23.182472 O.3        1 MOL1        -0.5519
      49    H23     18.263775   23.988231   23.553716 H          1 MOL1         0.3769
      50    C15     16.344001   23.200650   22.034217 C.3        1 MOL1         0.1053
      51    H24     16.891325   22.414699   22.573321 H          1 MOL1         0.0783
      52    O13     15.205389   23.600624   22.804550 O.3        1 MOL1        -0.5519
      53    H25     15.571748   24.071756   23.585164 H          1 MOL1         0.3769
      54    C16     15.881586   22.601580   20.673783 C.3        1 MOL1         0.1018
      55    H26     15.001232   23.159445   20.329905 H          1 MOL1         0.0783
      56    C17     16.982910   22.629965   19.554900 C.3        1 MOL1         0.1043
      57    H27     17.636087   21.757512   19.678117 H          1 MOL1         0.0783
      58    O14     17.787302   23.832405   19.637356 O.3        1 MOL1        -0.3740
      59    C18     16.425350   22.619112   18.109426 C.3        1 MOL1         0.0138
      60    H28     15.914217   21.673192   17.901922 H          1 MOL1         0.0794
      61    H29     17.270897   22.680199   17.411064 H          1 MOL1         0.0794
      62    O15     15.531865   23.714833   17.892754 O.3        1 MOL1        -0.5486
      63    H30     16.041338   24.529111   18.103213 H          1 MOL1         0.3769
      64    C19     22.680813   21.637068   23.082469 C.3        1 MOL1         0.2972
      65    H31     23.616020   21.617695   23.653063 H          1 MOL1         0.0751
      66    O16     22.482486   20.383141   22.387017 O.3        1 MOL1        -0.3740
      67    C20     21.492921   21.878610   24.052322 C.3        1 MOL1         0.1003
      68    H32     21.680618   22.835918   24.556335 H          1 MOL1         0.0783
      69    O17     21.388113   20.841274   25.042268 O.3        1 MOL1        -0.5519
      70    H33     22.256178   20.771032   25.491838 H          1 MOL1         0.3769
      71    C21     20.161381   22.007402   23.276895 C.3        1 MOL1         0.1053
      72    H34     19.930398   21.032163   22.826496 H          1 MOL1         0.0783
      73    O18     19.126976   22.383353   24.192537 O.3        1 MOL1        -0.5519
      74    H35     19.219152   21.752922   24.942231 H          1 MOL1         0.3769
      75    C22     20.273432   23.057768   22.144749 C.3        1 MOL1         0.1018
      76    H36     20.296835   24.058604   22.595859 H          1 MOL1         0.0783
      77    C23     21.545329   22.849923   21.279657 C.3        1 MOL1         0.1043
      78    H37     21.416356   21.930471   20.700290 H          1 MOL1         0.0783
      79    O19     22.707285   22.729214   22.134887 O.3        1 MOL1        -0.3740
      80    C24     21.812660   23.995866   20.279308 C.3        1 MOL1         0.0138
      81    H38     21.000617   24.022191   19.540598 H          1 MOL1         0.0794
      82    H39     22.740709   23.777798   19.733854 H          1 MOL1         0.0794
      83    O20     21.912419   25.255606   20.950026 O.3        1 MOL1        -0.5486
      84    H40     22.640587   25.162338   21.604013 H          1 MOL1         0.3769
      85    C25     24.884651   17.621152   20.337636 C.3        1 MOL1         0.2972
      86    H41     25.545786   17.119020   19.620069 H          1 MOL1         0.0751
      87    O21     24.360142   16.684466   21.302158 O.3        1 MOL1        -0.3740
      88    C26     25.669883   18.713576   21.103890 C.3        1 MOL1         0.1003
      89    H42     26.048021   19.424936   20.357833 H          1 MOL1         0.0783
      90    O22     26.779497   18.137375   21.808736 O.3        1 MOL1        -0.5519
      91    H43     26.418758   17.372670   22.307323 H          1 MOL1         0.3769
      92    C27     24.759538   19.494386   22.085932 C.3        1 MOL1         0.1053
      93    H44     24.462077   18.813663   22.895196 H          1 MOL1         0.0783
      94    O23     25.527393   20.578907   22.616763 O.3        1 MOL1        -0.5519
      95    H45     26.399086   20.188410   22.849999 H          1 MOL1         0.3769
      96    C28     23.464661   20.006742   21.389047 C.3        1 MOL1         0.1018
      97    H46     23.714898   20.853257   20.736629 H          1 MOL1         0.0783
      98    C29     22.801972   18.891373   20.534300 C.3        1 MOL1         0.1043
      99    H47     22.384051   18.138127   21.215919 H          1 MOL1         0.0783
     100    O24     23.788563   18.279794   19.667897 O.3        1 MOL1        -0.3740
     101    C30     21.650233   19.393756   19.636533 C.3        1 MOL1         0.0138
     102    H48     20.849885   19.793026   20.273075 H          1 MOL1         0.0794
     103    H49     21.236290   18.538674   19.085584 H          1 MOL1         0.0794
     104    O25     22.101904   20.395697   18.721498 O.3        1 MOL1        -0.5486
     105    H50     22.854054   19.999063   18.229459 H          1 MOL1         0.3769
     106    C31     21.414513   13.855758   20.880369 C.3        1 MOL1         0.2972
     107    H51     20.741143   13.005866   20.709736 H          1 MOL1         0.0751
     108    O26     20.679841   15.050515   21.228146 O.3        1 MOL1        -0.3740
     109    C32     22.464151   13.523168   21.969745 C.3        1 MOL1         0.1003
     110    H52     23.076597   12.695162   21.590289 H          1 MOL1         0.0783
     111    O27     21.830575   13.111681   23.191134 O.3        1 MOL1        -0.5519
     112    H53     21.432527   13.925690   23.587999 H          1 MOL1         0.3769
     113    C33     23.395448   14.738483   22.202944 C.3        1 MOL1         0.1053
     114    H54     22.793541   15.516979   22.691860 H          1 MOL1         0.0783
     115    O28     24.485009   14.373055   23.057790 O.3        1 MOL1        -0.5519
     116    H55     24.973698   15.201798   23.242800 H          1 MOL1         0.3769
     117    C34     23.972033   15.344918   20.890318 C.3        1 MOL1         0.1018
     118    H56     24.860102   14.767656   20.602575 H          1 MOL1         0.0783
     119    C35     22.958255   15.343962   19.690721 C.3        1 MOL1         0.1043
     120    H57     22.290402   16.208430   19.785308 H          1 MOL1         0.0783
     121    O29     22.161732   14.133854   19.685649 O.3        1 MOL1        -0.3740
     122    C36     23.619177   15.388183   18.289533 C.3        1 MOL1         0.0138
     123    H58     24.129263   16.344312   18.133518 H          1 MOL1         0.0794
     124    H59     22.827003   15.328027   17.531068 H          1 MOL1         0.0794
     125    O30     24.541940   14.308757   18.118605 O.3        1 MOL1        -0.5486
     126    H60     24.029652   13.483653   18.272446 H          1 MOL1         0.3769
@<TRIPOS>BOND
    1     1     2    1
    2     1     3    1
    3     1     4    1
    4     4     5    1
    5     4     6    1
    6     6     7    1
    7     4     8    1
    8     8     9    1
    9     8    10    1
   10    10    11    1
   11     8    12    1
   12    12    13    1
   13    12    14    1
   14    14    15    1
   15     1    16    1
   16    14    16    1
   17    14    17    1
   18    17    18    1
   19    17    19    1
   20    17    20    1
   21    20    21    1
   22    22    23    1
   23    22    24    1
   24    22    25    1
   25    25    26    1
   26    25    27    1
   27    27    28    1
   28    25    29    1
   29    29    30    1
   30    29    31    1
   31    31    32    1
   32     3    33    1
   33    29    33    1
   34    33    34    1
   35    33    35    1
   36    35    36    1
   37    22    37    1
   38    35    37    1
   39    35    38    1
   40    38    39    1
   41    38    40    1
   42    38    41    1
   43    41    42    1
   44    43    44    1
   45    43    45    1
   46    43    46    1
   47    46    47    1
   48    46    48    1
   49    48    49    1
   50    46    50    1
   51    50    51    1
   52    50    52    1
   53    52    53    1
   54    24    54    1
   55    50    54    1
   56    54    55    1
   57    54    56    1
   58    56    57    1
   59    43    58    1
   60    56    58    1
   61    56    59    1
   62    59    60    1
   63    59    61    1
   64    59    62    1
   65    62    63    1
   66    64    65    1
   67    64    66    1
   68    64    67    1
   69    67    68    1
   70    67    69    1
   71    69    70    1
   72    67    71    1
   73    71    72    1
   74    71    73    1
   75    73    74    1
   76    45    75    1
   77    71    75    1
   78    75    76    1
   79    75    77    1
   80    77    78    1
   81    64    79    1
   82    77    79    1
   83    77    80    1
   84    80    81    1
   85    80    82    1
   86    80    83    1
   87    83    84    1
   88    85    86    1
   89    85    87    1
   90    85    88    1
   91    88    89    1
   92    88    90    1
   93    90    91    1
   94    88    92    1
   95    92    93    1
   96    92    94    1
   97    94    95    1
   98    66    96    1
   99    92    96    1
  100    96    97    1
  101    96    98    1
  102    98    99    1
  103    85   100    1
  104    98   100    1
  105    98   101    1
  106   101   102    1
  107   101   103    1
  108   101   104    1
  109   104   105    1
  110   106   107    1
  111    12   108    1
  112   106   108    1
  113   106   109    1
  114   109   110    1
  115   109   111    1
  116   111   112    1
  117   109   113    1
  118   113   114    1
  119   113   115    1
  120   115   116    1
  121    87   117    1
  122   113   117    1
  123   117   118    1
  124   117   119    1
  125   119   120    1
  126   106   121    1
  127   119   121    1
  128   119   122    1
  129   122   123    1
  130   122   124    1
  131   122   125    1
  132   125   126    1
@<TRIPOS>SUBSTRUCTURE
       1 MOL1            1 RESIDUE      1      MOL     
@<SCITEGIC>MOL_PROPERTY
VM2 Rank
SciTegic.value.IntegerValue
8

@<SCITEGIC>MOL_PROPERTY
Conf_Id
SciTegic.value.IntegerValue
11348

@<SCITEGIC>MOL_PROPERTY
Probability
SciTegic.value.DoubleValue
0.78

@<SCITEGIC>MOL_PROPERTY
Sum Probability
SciTegic.value.DoubleValue
9.32

@<SCITEGIC>MOL_PROPERTY
Delta G
SciTegic.value.DoubleValue
0.465

@<SCITEGIC>MOL_PROPERTY
G
SciTegic.value.DoubleValue
522.747

@<SCITEGIC>MOL_PROPERTY
E
SciTegic.value.DoubleValue
363.922

@<SCITEGIC>MOL_PROPERTY
-TS
SciTegic.value.DoubleValue
158.825

@<SCITEGIC>MOL_PROPERTY
U+W
SciTegic.value.DoubleValue
253.036

@<SCITEGIC>MOL_PROPERTY
U
SciTegic.value.DoubleValue
293.082

@<SCITEGIC>MOL_PROPERTY
W
SciTegic.value.DoubleValue
-40.046

@<SCITEGIC>MOL_PROPERTY
W(PB)
SciTegic.value.DoubleValue
-45.950

@<SCITEGIC>MOL_PROPERTY
W(SA)
SciTegic.value.DoubleValue
5.904

@<SCITEGIC>MOL_PROPERTY
Valence
SciTegic.value.DoubleValue
132.518

@<SCITEGIC>MOL_PROPERTY
Coulomb
SciTegic.value.DoubleValue
169.891

@<SCITEGIC>MOL_PROPERTY
VdW
SciTegic.value.DoubleValue
-9.327

@<SCITEGIC>MOL_PROPERTY
VdW6
SciTegic.value.DoubleValue
-144.070

@<SCITEGIC>MOL_PROPERTY
VdW12
SciTegic.value.DoubleValue
134.743

@<SCITEGIC>MOL_PROPERTY
Bond
SciTegic.value.DoubleValue
5.034

@<SCITEGIC>MOL_PROPERTY
Angle
SciTegic.value.DoubleValue
14.918

@<SCITEGIC>MOL_PROPERTY
Pdih
SciTegic.value.DoubleValue
112.566

@<SCITEGIC>MOL_PROPERTY
Idih
SciTegic.value.DoubleValue
0.000

@<SCITEGIC>MOL_PROPERTY
Tether
SciTegic.value.DoubleValue
0.000

