@<TRIPOS>MOLECULE
CD_vm2.mol2 : vm2 host conformer 1
         126         132           1
SMALL
USER_CHARGES
 
@<TRIPOS>ATOM
       1    C1      17.014953   16.242859   22.819863 C.3        1 MOL1         0.2972
       2    H1      16.043592   16.258797   23.326241 H          1 MOL1         0.0751
       3    O1      17.266621   17.504299   22.155727 O.3        1 MOL1        -0.3740
       4    C2      18.132409   15.981452   23.864827 C.3        1 MOL1         0.1003
       5    H2      17.909337   15.015970   24.337892 H          1 MOL1         0.0783
       6    O2      18.170170   17.001351   24.877438 O.3        1 MOL1        -0.5519
       7    H3      17.273413   17.065587   25.267736 H          1 MOL1         0.3769
       8    C3      19.513375   15.863265   23.180245 C.3        1 MOL1         0.1053
       9    H4      19.775603   16.846158   22.764953 H          1 MOL1         0.0783
      10    O3      20.482201   15.468627   24.157670 O.3        1 MOL1        -0.5519
      11    H5      20.338273   16.084540   24.911270 H          1 MOL1         0.3769
      12    C4      19.479099   14.834366   22.023510 C.3        1 MOL1         0.1018
      13    H6      19.432955   13.824772   22.452738 H          1 MOL1         0.0783
      14    C5      18.265374   15.052373   21.080197 C.3        1 MOL1         0.1043
      15    H7      18.430969   15.978313   20.521217 H          1 MOL1         0.0783
      16    O4      17.049275   15.163814   21.857959 O.3        1 MOL1        -0.3740
      17    C6      18.065439   13.918806   20.050496 C.3        1 MOL1         0.0138
      18    H8      18.924112   13.902002   19.366270 H          1 MOL1         0.0794
      19    H9      17.174839   14.143336   19.448170 H          1 MOL1         0.0794
      20    O5      17.923549   12.650776   20.697546 O.3        1 MOL1        -0.5486
      21    H10     17.153916   12.735429   21.303452 H          1 MOL1         0.3769
      22    C7      15.018080   20.335136   20.031938 C.3        1 MOL1         0.2972
      23    H11     14.399999   20.862487   19.294301 H          1 MOL1         0.0751
      24    O6      15.521501   21.241589   21.031745 O.3        1 MOL1        -0.3740
      25    C8      14.175169   19.259320   20.757473 C.3        1 MOL1         0.1003
      26    H12     13.797037   18.568462   19.992472 H          1 MOL1         0.0783
      27    O7      13.067309   19.870187   21.435700 O.3        1 MOL1        -0.5519
      28    H13     13.442171   20.633356   21.931158 H          1 MOL1         0.3769
      29    C9      15.026271   18.442123   21.762762 C.3        1 MOL1         0.1053
      30    H14     15.303309   19.104170   22.594652 H          1 MOL1         0.0783
      31    O8      14.211488   17.368571   22.243758 O.3        1 MOL1        -0.5519
      32    H15     13.343876   17.779060   22.457018 H          1 MOL1         0.3769
      33    C10     16.339926   17.910125   21.117030 C.3        1 MOL1         0.1018
      34    H16     16.102641   17.074640   20.445760 H          1 MOL1         0.0783
      35    C11     17.062886   19.020413   20.304628 C.3        1 MOL1         0.1043
      36    H17     17.465082   19.757786   21.012533 H          1 MOL1         0.0783
      37    O9      16.128334   19.661107   19.402405 O.3        1 MOL1        -0.3740
      38    C12     18.243847   18.505501   19.453103 C.3        1 MOL1         0.0138
      39    H18     19.010559   18.091107   20.120453 H          1 MOL1         0.0794
      40    H19     18.693927   19.357227   18.925690 H          1 MOL1         0.0794
      41    O10     17.816404   17.515543   18.513626 O.3        1 MOL1        -0.5486
      42    H20     17.093710   17.927187   17.990712 H          1 MOL1         0.3769
      43    C13     18.429501   24.101158   20.876457 C.3        1 MOL1         0.2972
      44    H21     19.113462   24.953234   20.771162 H          1 MOL1         0.0751
      45    O11     19.131852   22.903301   21.271568 O.3        1 MOL1        -0.3740
      46    C14     17.292691   24.419236   21.877803 C.3        1 MOL1         0.1003
      47    H22     16.714917   25.252076   21.456066 H          1 MOL1         0.0783
      48    O12     17.801432   24.807782   23.163125 O.3        1 MOL1        -0.5519
      49    H23     18.259942   24.014243   23.538600 H          1 MOL1         0.3769
      50    C15     16.345779   23.207422   22.024924 C.3        1 MOL1         0.1053
      51    H24     16.899070   22.427746   22.566951 H          1 MOL1         0.0783
      52    O13     15.205687   23.603643   22.795020 O.3        1 MOL1        -0.5519
      53    H25     15.570045   24.080957   23.572804 H          1 MOL1         0.3769
      54    C16     15.885310   22.598447   20.668320 C.3        1 MOL1         0.1018
      55    H26     15.001404   23.149433   20.322494 H          1 MOL1         0.0783
      56    C17     16.985413   22.627942   19.548132 C.3        1 MOL1         0.1043
      57    H27     17.645126   21.761075   19.676571 H          1 MOL1         0.0783
      58    O14     17.780275   23.837407   19.622488 O.3        1 MOL1        -0.3740
      59    C18     16.427778   22.603358   18.102826 C.3        1 MOL1         0.0138
      60    H28     15.928061   21.650348   17.900019 H          1 MOL1         0.0794
      61    H29     17.272526   22.670750   17.404069 H          1 MOL1         0.0794
      62    O15     15.521591   23.687440   17.880506 O.3        1 MOL1        -0.5486
      63    H30     16.021941   24.508854   18.085003 H          1 MOL1         0.3769
      64    C19     22.676972   21.661904   23.068843 C.3        1 MOL1         0.2972
      65    H31     23.611241   21.635178   23.640366 H          1 MOL1         0.0751
      66    O16     22.472412   20.414159   22.363913 O.3        1 MOL1        -0.3740
      67    C20     21.490166   21.903165   24.039549 C.3        1 MOL1         0.1003
      68    H32     21.679553   22.858842   24.546028 H          1 MOL1         0.0783
      69    O17     21.383575   20.863259   25.026584 O.3        1 MOL1        -0.5519
      70    H33     22.251411   20.790637   25.476272 H          1 MOL1         0.3769
      71    C21     20.159436   22.035992   23.264182 C.3        1 MOL1         0.1053
      72    H34     19.927018   21.061779   22.812297 H          1 MOL1         0.0783
      73    O18     19.125476   22.411710   24.180416 O.3        1 MOL1        -0.5519
      74    H35     19.217719   21.780783   24.929683 H          1 MOL1         0.3769
      75    C22     20.272437   23.087770   22.133324 C.3        1 MOL1         0.1018
      76    H36     20.288290   24.088559   22.584783 H          1 MOL1         0.0783
      77    C23     21.548263   22.887788   21.271483 C.3        1 MOL1         0.1043
      78    H37     21.422086   21.973319   20.684053 H          1 MOL1         0.0783
      79    O19     22.708112   22.759969   22.128597 O.3        1 MOL1        -0.3740
      80    C24     21.817732   24.041564   20.280818 C.3        1 MOL1         0.0138
      81    H38     21.008041   24.072722   19.539740 H          1 MOL1         0.0794
      82    H39     22.747710   23.828430   19.736675 H          1 MOL1         0.0794
      83    O20     21.914120   25.296286   20.961324 O.3        1 MOL1        -0.5486
      84    H40     22.640399   25.198929   21.616812 H          1 MOL1         0.3769
      85    C25     24.863592   17.624755   20.343635 C.3        1 MOL1         0.2972
      86    H41     25.531289   17.111810   19.639858 H          1 MOL1         0.0751
      87    O21     24.293235   16.698869   21.288160 O.3        1 MOL1        -0.3740
      88    C26     25.653888   18.685288   21.146742 C.3        1 MOL1         0.1003
      89    H42     26.083234   19.391032   20.423498 H          1 MOL1         0.0783
      90    O22     26.712934   18.060254   21.887188 O.3        1 MOL1        -0.5519
      91    H43     26.305422   17.287648   22.340441 H          1 MOL1         0.3769
      92    C27     24.735125   19.482822   22.107263 C.3        1 MOL1         0.1053
      93    H44     24.402005   18.804479   22.904747 H          1 MOL1         0.0783
      94    O23     25.514181   20.545990   22.664480 O.3        1 MOL1        -0.5519
      95    H45     26.365385   20.130737   22.928579 H          1 MOL1         0.3769
      96    C28     23.468612   20.028520   21.383495 C.3        1 MOL1         0.1018
      97    H46     23.750921   20.877084   20.746953 H          1 MOL1         0.0783
      98    C29     22.803979   18.935186   20.501287 C.3        1 MOL1         0.1043
      99    H47     22.354556   18.184095   21.164983 H          1 MOL1         0.0783
     100    O24     23.798792   18.311992   19.652839 O.3        1 MOL1        -0.3740
     101    C30     21.684017   19.467850   19.581040 C.3        1 MOL1         0.0138
     102    H48     20.872965   19.869371   20.202249 H          1 MOL1         0.0794
     103    H49     21.271825   18.627156   19.007016 H          1 MOL1         0.0794
     104    O25     22.174379   20.476083   18.693148 O.3        1 MOL1        -0.5486
     105    H50     22.931590   20.074464   18.213033 H          1 MOL1         0.3769
     106    C31     21.404733   13.845020   20.876265 C.3        1 MOL1         0.2972
     107    H51     20.730196   12.995701   20.707210 H          1 MOL1         0.0751
     108    O26     20.676086   15.035235   21.246037 O.3        1 MOL1        -0.3740
     109    C32     22.470252   13.506185   21.946807 C.3        1 MOL1         0.1003
     110    H52     23.076205   12.681541   21.549198 H          1 MOL1         0.0783
     111    O27     21.874636   13.092370   23.186097 O.3        1 MOL1        -0.5519
     112    H53     21.390852   13.878556   23.544957 H          1 MOL1         0.3769
     113    C33     23.403997   14.714150   22.182858 C.3        1 MOL1         0.1053
     114    H54     22.814239   15.483222   22.701057 H          1 MOL1         0.0783
     115    O28     24.488743   14.301824   23.021407 O.3        1 MOL1        -0.5519
     116    H55     24.072121   13.809377   23.762658 H          1 MOL1         0.3769
     117    C34     23.956200   15.349794   20.873552 C.3        1 MOL1         0.1018
     118    H56     24.862168   14.805224   20.578363 H          1 MOL1         0.0783
     119    C35     22.935728   15.343442   19.680022 C.3        1 MOL1         0.1043
     120    H57     22.268182   16.208050   19.780071 H          1 MOL1         0.0783
     121    O29     22.138421   14.133311   19.675397 O.3        1 MOL1        -0.3740
     122    C36     23.591404   15.396443   18.277258 C.3        1 MOL1         0.0138
     123    H58     24.103316   16.352924   18.128365 H          1 MOL1         0.0794
     124    H59     22.796742   15.343664   17.520866 H          1 MOL1         0.0794
     125    O30     24.511380   14.316310   18.096171 O.3        1 MOL1        -0.5486
     126    H60     23.998638   13.491369   18.249335 H          1 MOL1         0.3769
@<TRIPOS>BOND
    1     1     2    1
    2     1     3    1
    3     1     4    1
    4     4     5    1
    5     4     6    1
    6     6     7    1
    7     4     8    1
    8     8     9    1
    9     8    10    1
   10    10    11    1
   11     8    12    1
   12    12    13    1
   13    12    14    1
   14    14    15    1
   15     1    16    1
   16    14    16    1
   17    14    17    1
   18    17    18    1
   19    17    19    1
   20    17    20    1
   21    20    21    1
   22    22    23    1
   23    22    24    1
   24    22    25    1
   25    25    26    1
   26    25    27    1
   27    27    28    1
   28    25    29    1
   29    29    30    1
   30    29    31    1
   31    31    32    1
   32     3    33    1
   33    29    33    1
   34    33    34    1
   35    33    35    1
   36    35    36    1
   37    22    37    1
   38    35    37    1
   39    35    38    1
   40    38    39    1
   41    38    40    1
   42    38    41    1
   43    41    42    1
   44    43    44    1
   45    43    45    1
   46    43    46    1
   47    46    47    1
   48    46    48    1
   49    48    49    1
   50    46    50    1
   51    50    51    1
   52    50    52    1
   53    52    53    1
   54    24    54    1
   55    50    54    1
   56    54    55    1
   57    54    56    1
   58    56    57    1
   59    43    58    1
   60    56    58    1
   61    56    59    1
   62    59    60    1
   63    59    61    1
   64    59    62    1
   65    62    63    1
   66    64    65    1
   67    64    66    1
   68    64    67    1
   69    67    68    1
   70    67    69    1
   71    69    70    1
   72    67    71    1
   73    71    72    1
   74    71    73    1
   75    73    74    1
   76    45    75    1
   77    71    75    1
   78    75    76    1
   79    75    77    1
   80    77    78    1
   81    64    79    1
   82    77    79    1
   83    77    80    1
   84    80    81    1
   85    80    82    1
   86    80    83    1
   87    83    84    1
   88    85    86    1
   89    85    87    1
   90    85    88    1
   91    88    89    1
   92    88    90    1
   93    90    91    1
   94    88    92    1
   95    92    93    1
   96    92    94    1
   97    94    95    1
   98    66    96    1
   99    92    96    1
  100    96    97    1
  101    96    98    1
  102    98    99    1
  103    85   100    1
  104    98   100    1
  105    98   101    1
  106   101   102    1
  107   101   103    1
  108   101   104    1
  109   104   105    1
  110   106   107    1
  111    12   108    1
  112   106   108    1
  113   106   109    1
  114   109   110    1
  115   109   111    1
  116   111   112    1
  117   109   113    1
  118   113   114    1
  119   113   115    1
  120   115   116    1
  121    87   117    1
  122   113   117    1
  123   117   118    1
  124   117   119    1
  125   119   120    1
  126   106   121    1
  127   119   121    1
  128   119   122    1
  129   122   123    1
  130   122   124    1
  131   122   125    1
  132   125   126    1
@<TRIPOS>SUBSTRUCTURE
       1 MOL1            1 RESIDUE      1      MOL     
@<SCITEGIC>MOL_PROPERTY
VM2 Rank
SciTegic.value.IntegerValue
1

@<SCITEGIC>MOL_PROPERTY
Conf_Id
SciTegic.value.IntegerValue
12647

@<SCITEGIC>MOL_PROPERTY
Probability
SciTegic.value.DoubleValue
1.70

@<SCITEGIC>MOL_PROPERTY
Sum Probability
SciTegic.value.DoubleValue
1.70

@<SCITEGIC>MOL_PROPERTY
Delta G
SciTegic.value.DoubleValue
0.000

@<SCITEGIC>MOL_PROPERTY
G
SciTegic.value.DoubleValue
522.282

@<SCITEGIC>MOL_PROPERTY
E
SciTegic.value.DoubleValue
363.382

@<SCITEGIC>MOL_PROPERTY
-TS
SciTegic.value.DoubleValue
158.900

@<SCITEGIC>MOL_PROPERTY
U+W
SciTegic.value.DoubleValue
252.496

@<SCITEGIC>MOL_PROPERTY
U
SciTegic.value.DoubleValue
288.668

@<SCITEGIC>MOL_PROPERTY
W
SciTegic.value.DoubleValue
-36.172

@<SCITEGIC>MOL_PROPERTY
W(PB)
SciTegic.value.DoubleValue
-42.077

@<SCITEGIC>MOL_PROPERTY
W(SA)
SciTegic.value.DoubleValue
5.905

@<SCITEGIC>MOL_PROPERTY
Valence
SciTegic.value.DoubleValue
132.706

@<SCITEGIC>MOL_PROPERTY
Coulomb
SciTegic.value.DoubleValue
165.277

@<SCITEGIC>MOL_PROPERTY
VdW
SciTegic.value.DoubleValue
-9.316

@<SCITEGIC>MOL_PROPERTY
VdW6
SciTegic.value.DoubleValue
-143.634

@<SCITEGIC>MOL_PROPERTY
VdW12
SciTegic.value.DoubleValue
134.318

@<SCITEGIC>MOL_PROPERTY
Bond
SciTegic.value.DoubleValue
4.988

@<SCITEGIC>MOL_PROPERTY
Angle
SciTegic.value.DoubleValue
14.685

@<SCITEGIC>MOL_PROPERTY
Pdih
SciTegic.value.DoubleValue
113.034

@<SCITEGIC>MOL_PROPERTY
Idih
SciTegic.value.DoubleValue
0.000

@<SCITEGIC>MOL_PROPERTY
Tether
SciTegic.value.DoubleValue
0.000

