@<TRIPOS>MOLECULE
CD_guest-2_fast_vm2_single.mol2 : feprocess host+ligand conformer 1
         149         154           2
SMALL
USER_CHARGES
 
@<TRIPOS>ATOM
       1    C1      16.147161   15.370706   21.700250 C.3        1 MOL1         0.2972
       2    H1      15.068993   15.266291   21.875280 H          1 MOL1         0.0751
       3    O1      16.448722   16.510111   20.865872 O.3        1 MOL1        -0.3740
       4    C2      16.920817   15.493833   23.041304 C.3        1 MOL1         0.1003
       5    H2      16.771411   14.554038   23.589076 H          1 MOL1         0.0783
       6    O2      16.461462   16.585841   23.852609 O.3        1 MOL1        -0.5519
       7    H3      15.552647   16.817038   23.544652 H          1 MOL1         0.3769
       8    C3      18.429659   15.659262   22.764838 C.3        1 MOL1         0.1053
       9    H4      18.556301   16.602319   22.221847 H          1 MOL1         0.0783
      10    O3      19.126543   15.720552   24.014013 O.3        1 MOL1        -0.5519
      11    H5      18.470732   16.143954   24.617582 H          1 MOL1         0.3769
      12    C4      18.966432   14.508273   21.877789 C.3        1 MOL1         0.1018
      13    H6      19.038869   13.602294   22.494288 H          1 MOL1         0.0783
      14    C5      18.055447   14.238769   20.644015 C.3        1 MOL1         0.1043
      15    H7      18.198846   15.060989   19.930620 H          1 MOL1         0.0783
      16    O4      16.658188   14.194652   21.036500 O.3        1 MOL1        -0.3740
      17    C6      18.395917   12.924444   19.901217 C.3        1 MOL1         0.0138
      18    H8      19.356283   13.054977   19.384194 H          1 MOL1         0.0794
      19    H9      17.632473   12.749481   19.131341 H          1 MOL1         0.0794
      20    O5      18.472032   11.803914   20.791656 O.3        1 MOL1        -0.5486
      21    H10     18.607210   10.998485   20.245951 H          1 MOL1         0.3769
      22    C7      14.908666   20.247256   20.037957 C.3        1 MOL1         0.2972
      23    H11     14.358971   21.129441   19.685593 H          1 MOL1         0.0751
      24    O6      16.216326   20.609685   20.537572 O.3        1 MOL1        -0.3740
      25    C8      14.101076   19.479270   21.118347 C.3        1 MOL1         0.1003
      26    H12     13.186433   19.116927   20.630824 H          1 MOL1         0.0783
      27    O7      13.727090   20.313988   22.224023 O.3        1 MOL1        -0.5519
      28    H13     14.564768   20.548808   22.697197 H          1 MOL1         0.3769
      29    C9      14.890096   18.244962   21.615655 C.3        1 MOL1         0.1053
      30    H14     15.785702   18.603408   22.141152 H          1 MOL1         0.0783
      31    O8      14.053082   17.509232   22.515762 O.3        1 MOL1        -0.5519
      32    H15     13.563336   18.195453   23.024757 H          1 MOL1         0.3769
      33    C10     15.352794   17.344967   20.434221 C.3        1 MOL1         0.1018
      34    H16     14.505008   16.740718   20.087983 H          1 MOL1         0.0783
      35    C11     15.925090   18.165702   19.243479 C.3        1 MOL1         0.1043
      36    H17     16.921189   18.512942   19.536263 H          1 MOL1         0.0783
      37    O9      15.097790   19.318948   18.949837 O.3        1 MOL1        -0.3740
      38    C12     16.109224   17.339981   17.946827 C.3        1 MOL1         0.0138
      39    H18     16.927172   16.623200   18.100575 H          1 MOL1         0.0794
      40    H19     16.421946   18.020691   17.143926 H          1 MOL1         0.0794
      41    O10     14.918262   16.642950   17.561472 O.3        1 MOL1        -0.5486
      42    H20     14.807819   15.881815   18.170368 H          1 MOL1         0.3769
      43    C13     18.433322   23.680625   22.237162 C.3        1 MOL1         0.2972
      44    H21     18.776306   24.604338   22.720875 H          1 MOL1         0.0751
      45    O11     19.537048   22.919669   21.708531 O.3        1 MOL1        -0.3740
      46    C14     17.648587   22.808257   23.251392 C.3        1 MOL1         0.1003
      47    H22     16.801698   23.409707   23.606753 H          1 MOL1         0.0783
      48    O12     18.464897   22.429975   24.372175 O.3        1 MOL1        -0.5519
      49    H23     19.268704   23.004403   24.356830 H          1 MOL1         0.3769
      50    C15     17.088297   21.536986   22.578510 C.3        1 MOL1         0.1053
      51    H24     17.940897   20.898002   22.328889 H          1 MOL1         0.0783
      52    O13     16.240288   20.860958   23.510559 O.3        1 MOL1        -0.5519
      53    H25     16.754962   20.848373   24.349059 H          1 MOL1         0.3769
      54    C16     16.322515   21.851588   21.267896 C.3        1 MOL1         0.1018
      55    H26     15.339409   22.267662   21.523788 H          1 MOL1         0.0783
      56    C17     17.090689   22.852559   20.360065 C.3        1 MOL1         0.1043
      57    H27     17.958317   22.330458   19.936911 H          1 MOL1         0.0783
      58    O14     17.550295   23.987670   21.137803 O.3        1 MOL1        -0.3740
      59    C18     16.250895   23.378549   19.171505 C.3        1 MOL1         0.0138
      60    H28     16.116538   22.560168   18.451277 H          1 MOL1         0.0794
      61    H29     16.819059   24.169771   18.664185 H          1 MOL1         0.0794
      62    O15     14.971852   23.872235   19.588368 O.3        1 MOL1        -0.5486
      63    H30     14.531942   24.263007   18.802020 H          1 MOL1         0.3769
      64    C19     23.676503   22.853254   21.747652 C.3        1 MOL1         0.2972
      65    H31     24.748999   23.084544   21.717148 H          1 MOL1         0.0751
      66    O16     23.439200   21.433865   21.807713 O.3        1 MOL1        -0.3740
      67    C20     23.042746   23.480385   23.010800 C.3        1 MOL1         0.1003
      68    H32     23.182587   24.567534   22.948616 H          1 MOL1         0.0783
      69    O17     23.692143   22.981793   24.191036 O.3        1 MOL1        -0.5519
      70    H33     23.988080   22.062473   23.983842 H          1 MOL1         0.3769
      71    C21     21.523975   23.192231   23.069328 C.3        1 MOL1         0.1053
      72    H34     21.386962   22.115056   23.236438 H          1 MOL1         0.0783
      73    O18     20.958659   23.928417   24.158925 O.3        1 MOL1        -0.5519
      74    H35     21.602115   23.819999   24.896014 H          1 MOL1         0.3769
      75    C22     20.823823   23.567796   21.736085 C.3        1 MOL1         0.1018
      76    H36     20.730049   24.659568   21.674309 H          1 MOL1         0.0783
      77    C23     21.594049   23.054277   20.488500 C.3        1 MOL1         0.1043
      78    H37     21.488165   21.963678   20.452312 H          1 MOL1         0.0783
      79    O19     23.001815   23.384093   20.588081 O.3        1 MOL1        -0.3740
      80    C24     21.043978   23.608446   19.150520 C.3        1 MOL1         0.0138
      81    H38     20.075375   23.134154   18.946270 H          1 MOL1         0.0794
      82    H39     21.726826   23.314457   18.342479 H          1 MOL1         0.0794
      83    O20     20.885896   25.031704   19.163327 O.3        1 MOL1        -0.5486
      84    H40     20.090027   25.237037   19.699400 H          1 MOL1         0.3769
      85    C25     25.016665   17.753423   20.774640 C.3        1 MOL1         0.2972
      86    H41     25.620860   16.914942   20.404783 H          1 MOL1         0.0751
      87    O21     23.698578   17.327113   21.184959 O.3        1 MOL1        -0.3740
      88    C26     25.701353   18.441229   21.983248 C.3        1 MOL1         0.1003
      89    H42     26.663516   18.837988   21.634010 H          1 MOL1         0.0783
      90    O22     25.937531   17.512142   23.052330 O.3        1 MOL1        -0.5519
      91    H43     25.081885   17.048012   23.237908 H          1 MOL1         0.3769
      92    C27     24.843163   19.631111   22.475659 C.3        1 MOL1         0.1053
      93    H44     23.903655   19.229846   22.879164 H          1 MOL1         0.0783
      94    O23     25.541433   20.340876   23.503961 O.3        1 MOL1        -0.5519
      95    H45     25.902251   19.644747   24.097052 H          1 MOL1         0.3769
      96    C28     24.498161   20.595223   21.312773 C.3        1 MOL1         0.1018
      97    H46     25.401266   21.166921   21.061886 H          1 MOL1         0.0783
      98    C29     23.983381   19.849818   20.046937 C.3        1 MOL1         0.1043
      99    H47     22.992311   19.447196   20.270581 H          1 MOL1         0.0783
     100    O24     24.871078   18.749576   19.739120 O.3        1 MOL1        -0.3740
     101    C30     23.825801   20.723054   18.774999 C.3        1 MOL1         0.0138
     102    H48     22.806126   21.125710   18.751562 H          1 MOL1         0.0794
     103    H49     23.928244   20.076182   17.893412 H          1 MOL1         0.0794
     104    O25     24.766547   21.799431   18.702780 O.3        1 MOL1        -0.5486
     105    H50     24.401154   22.533118   19.249222 H          1 MOL1         0.3769
     106    C31     21.310267   13.940638   21.445039 C.3        1 MOL1         0.2972
     107    H51     20.909492   12.918964   21.463779 H          1 MOL1         0.0751
     108    O26     20.253475   14.922536   21.373232 O.3        1 MOL1        -0.3740
     109    C32     22.183432   14.220889   22.697104 C.3        1 MOL1         0.1003
     110    H52     23.031397   13.524316   22.664340 H          1 MOL1         0.0783
     111    O27     21.457309   14.008899   23.917220 O.3        1 MOL1        -0.5519
     112    H53     20.655309   14.587614   23.887841 H          1 MOL1         0.3769
     113    C33     22.747987   15.660043   22.641242 C.3        1 MOL1         0.1053
     114    H54     21.905268   16.357172   22.692178 H          1 MOL1         0.0783
     115    O28     23.616437   15.878607   23.756562 O.3        1 MOL1        -0.5519
     116    H55     23.170723   15.441540   24.516848 H          1 MOL1         0.3769
     117    C34     23.503218   15.905216   21.311114 C.3        1 MOL1         0.1018
     118    H56     24.456674   15.361814   21.353176 H          1 MOL1         0.0783
     119    C35     22.683083   15.443960   20.073095 C.3        1 MOL1         0.1043
     120    H57     21.846332   16.141610   19.936824 H          1 MOL1         0.0783
     121    O29     22.156686   14.110894   20.288465 O.3        1 MOL1        -0.3740
     122    C36     23.499338   15.440353   18.758108 C.3        1 MOL1         0.0138
     123    H58     23.684559   16.481109   18.459702 H          1 MOL1         0.0794
     124    H59     22.890727   14.978481   17.969206 H          1 MOL1         0.0794
     125    O30     24.745731   14.746341   18.897263 O.3        1 MOL1        -0.5486
     126    H60     25.173763   14.723034   18.013682 H          1 MOL1         0.3769
     127    N1      20.593556   18.282691   24.328697 N.4        1 MOL1        -0.5940
     128    H1      20.350600   17.283433   24.245366 H          1 MOL1         0.3649
     129    H2      20.283921   18.586515   25.257676 H          1 MOL1         0.3649
     130    H3      21.615507   18.359110   24.305488 H          1 MOL1         0.3649
     131    C1      19.932249   19.090245   23.231673 C.3        1 MOL1         0.0207
     132    H4      20.114620   20.151313   23.425476 H          1 MOL1         0.0950
     133    H5      18.854829   18.910138   23.291720 H          1 MOL1         0.0950
     134    C2      20.444149   18.719769   21.829220 C.3        1 MOL1        -0.1415
     135    H6      21.503170   18.989059   21.755719 H          1 MOL1         0.0976
     136    H7      20.383280   17.636380   21.682306 H          1 MOL1         0.0976
     137    C3      19.634605   19.424996   20.722976 C.3        1 MOL1        -0.1375
     138    H8      19.788802   20.507154   20.795681 H          1 MOL1         0.0976
     139    H9      18.564566   19.246421   20.889465 H          1 MOL1         0.0976
     140    C4      20.010218   18.929663   19.309593 C.3        1 MOL1        -0.1375
     141    H10     21.099856   18.937073   19.184055 H          1 MOL1         0.0976
     142    H11     19.688348   17.884887   19.195891 H          1 MOL1         0.0976
     143    C5      19.367179   19.800968   18.207853 C.3        1 MOL1        -0.1350
     144    H12     19.745112   20.828934   18.283554 H          1 MOL1         0.0976
     145    H13     18.280159   19.858019   18.352962 H          1 MOL1         0.0976
     146    C6      19.668414   19.250116   16.798901 C.3        1 MOL1        -0.2365
     147    H14     20.749262   19.220041   16.609154 H          1 MOL1         0.0987
     148    H15     19.208685   19.883156   16.028887 H          1 MOL1         0.0987
     149    H16     19.272092   18.233447   16.679138 H          1 MOL1         0.0987
@<TRIPOS>BOND
    1     1     2    1
    2     1     3    1
    3     1     4    1
    4     4     5    1
    5     4     6    1
    6     6     7    1
    7     4     8    1
    8     8     9    1
    9     8    10    1
   10    10    11    1
   11     8    12    1
   12    12    13    1
   13    12    14    1
   14    14    15    1
   15     1    16    1
   16    14    16    1
   17    14    17    1
   18    17    18    1
   19    17    19    1
   20    17    20    1
   21    20    21    1
   22    22    23    1
   23    22    24    1
   24    22    25    1
   25    25    26    1
   26    25    27    1
   27    27    28    1
   28    25    29    1
   29    29    30    1
   30    29    31    1
   31    31    32    1
   32     3    33    1
   33    29    33    1
   34    33    34    1
   35    33    35    1
   36    35    36    1
   37    22    37    1
   38    35    37    1
   39    35    38    1
   40    38    39    1
   41    38    40    1
   42    38    41    1
   43    41    42    1
   44    43    44    1
   45    43    45    1
   46    43    46    1
   47    46    47    1
   48    46    48    1
   49    48    49    1
   50    46    50    1
   51    50    51    1
   52    50    52    1
   53    52    53    1
   54    24    54    1
   55    50    54    1
   56    54    55    1
   57    54    56    1
   58    56    57    1
   59    43    58    1
   60    56    58    1
   61    56    59    1
   62    59    60    1
   63    59    61    1
   64    59    62    1
   65    62    63    1
   66    64    65    1
   67    64    66    1
   68    64    67    1
   69    67    68    1
   70    67    69    1
   71    69    70    1
   72    67    71    1
   73    71    72    1
   74    71    73    1
   75    73    74    1
   76    45    75    1
   77    71    75    1
   78    75    76    1
   79    75    77    1
   80    77    78    1
   81    64    79    1
   82    77    79    1
   83    77    80    1
   84    80    81    1
   85    80    82    1
   86    80    83    1
   87    83    84    1
   88    85    86    1
   89    85    87    1
   90    85    88    1
   91    88    89    1
   92    88    90    1
   93    90    91    1
   94    88    92    1
   95    92    93    1
   96    92    94    1
   97    94    95    1
   98    66    96    1
   99    92    96    1
  100    96    97    1
  101    96    98    1
  102    98    99    1
  103    85   100    1
  104    98   100    1
  105    98   101    1
  106   101   102    1
  107   101   103    1
  108   101   104    1
  109   104   105    1
  110   106   107    1
  111    12   108    1
  112   106   108    1
  113   106   109    1
  114   109   110    1
  115   109   111    1
  116   111   112    1
  117   109   113    1
  118   113   114    1
  119   113   115    1
  120   115   116    1
  121    87   117    1
  122   113   117    1
  123   117   118    1
  124   117   119    1
  125   119   120    1
  126   106   121    1
  127   119   121    1
  128   119   122    1
  129   122   123    1
  130   122   124    1
  131   122   125    1
  132   125   126    1
  133   127   128    1
  134   127   129    1
  135   127   130    1
  136   127   131    1
  137   131   132    1
  138   131   133    1
  139   131   134    1
  140   134   135    1
  141   134   136    1
  142   134   137    1
  143   137   138    1
  144   137   139    1
  145   137   140    1
  146   140   141    1
  147   140   142    1
  148   140   143    1
  149   143   144    1
  150   143   145    1
  151   143   146    1
  152   146   147    1
  153   146   148    1
  154   146   149    1
@<TRIPOS>SUBSTRUCTURE
       1 MOL1            1 RESIDUE      1      MOL     
       2 MOL1          149 RESIDUE      1      MOL     
@<SCITEGIC>MOL_PROPERTY
feprocess Rank
SciTegic.value.IntegerValue
1

@<SCITEGIC>MOL_PROPERTY
Conf_Id
SciTegic.value.IntegerValue
1

@<SCITEGIC>MOL_PROPERTY
Probability
SciTegic.value.DoubleValue
100.00

@<SCITEGIC>MOL_PROPERTY
G
SciTegic.value.DoubleValue
572.771

@<SCITEGIC>MOL_PROPERTY
E
SciTegic.value.DoubleValue
375.071

@<SCITEGIC>MOL_PROPERTY
-TS
SciTegic.value.DoubleValue
197.700

@<SCITEGIC>MOL_PROPERTY
U+W
SciTegic.value.DoubleValue
243.617

@<SCITEGIC>MOL_PROPERTY
U
SciTegic.value.DoubleValue
328.878

@<SCITEGIC>MOL_PROPERTY
W
SciTegic.value.DoubleValue
-85.261

@<SCITEGIC>MOL_PROPERTY
W(PB)
SciTegic.value.DoubleValue
-91.361

@<SCITEGIC>MOL_PROPERTY
W(SA)
SciTegic.value.DoubleValue
6.100

@<SCITEGIC>MOL_PROPERTY
Valence
SciTegic.value.DoubleValue
147.004

@<SCITEGIC>MOL_PROPERTY
Coulomb
SciTegic.value.DoubleValue
206.123

@<SCITEGIC>MOL_PROPERTY
VdW
SciTegic.value.DoubleValue
-24.250

@<SCITEGIC>MOL_PROPERTY
VdW6
SciTegic.value.DoubleValue
-178.571

@<SCITEGIC>MOL_PROPERTY
VdW12
SciTegic.value.DoubleValue
154.321

@<SCITEGIC>MOL_PROPERTY
Bond
SciTegic.value.DoubleValue
4.688

@<SCITEGIC>MOL_PROPERTY
Angle
SciTegic.value.DoubleValue
12.226

@<SCITEGIC>MOL_PROPERTY
Pdih
SciTegic.value.DoubleValue
130.090

@<SCITEGIC>MOL_PROPERTY
Idih
SciTegic.value.DoubleValue
0.000

@<SCITEGIC>MOL_PROPERTY
Tether
SciTegic.value.DoubleValue
0.000

