@<TRIPOS>MOLECULE
guest-5_vm2.mol2 : vm2 ligand conformer 1
          22          22           1
SMALL
USER_CHARGES
 
@<TRIPOS>ATOM
       1    C1      19.882535   19.048999   20.902624 C.3        1 MOL1        -0.1685
       2    H1      20.893230   19.156633   20.485862 H          1 MOL1         0.0832
       3    H2      19.282408   18.576005   20.113372 H          1 MOL1         0.0832
       4    C2      19.291672   20.449262   21.183590 C.3        1 MOL1        -0.1685
       5    H3      19.360990   21.041179   20.260755 H          1 MOL1         0.0832
       6    H4      18.218524   20.355835   21.398981 H          1 MOL1         0.0832
       7    C3      19.980590   21.234442   22.324931 C.3        1 MOL1        -0.1685
       8    H5      19.622356   22.271965   22.279933 H          1 MOL1         0.0832
       9    H6      21.066945   21.280335   22.168766 H          1 MOL1         0.0832
      10    C4      19.646656   20.673246   23.728259 C.3        1 MOL1        -0.1761
      11    H7      19.718536   21.490454   24.457739 H          1 MOL1         0.0832
      12    H8      18.597373   20.350654   23.748682 H          1 MOL1         0.0832
      13    C5      20.564414   19.531300   24.223444 C.3        1 MOL1         0.1218
      14    H9      21.477121   19.984934   24.635843 H          1 MOL1         0.0789
      15    C6      21.006781   18.501832   23.157795 C.3        1 MOL1        -0.1761
      16    H10     21.888360   18.889429   22.631169 H          1 MOL1         0.0832
      17    H11     21.356377   17.599090   23.676650 H          1 MOL1         0.0832
      18    C7      19.926457   18.100052   22.123475 C.3        1 MOL1        -0.1685
      19    H12     20.166005   17.093096   21.755489 H          1 MOL1         0.0832
      20    H13     18.937096   18.024843   22.593952 H          1 MOL1         0.0832
      21    O1      19.886896   18.838866   25.262881 O.3        1 MOL1        -0.5509
      22    H14     19.142196   18.371511   24.832697 H          1 MOL1         0.3779
@<TRIPOS>BOND
    1     1     2    1
    2     1     3    1
    3     1     4    1
    4     4     5    1
    5     4     6    1
    6     4     7    1
    7     7     8    1
    8     7     9    1
    9     7    10    1
   10    10    11    1
   11    10    12    1
   12    10    13    1
   13    13    14    1
   14    13    15    1
   15    15    16    1
   16    15    17    1
   17     1    18    1
   18    15    18    1
   19    18    19    1
   20    18    20    1
   21    13    21    1
   22    21    22    1
@<TRIPOS>SUBSTRUCTURE
       1 MOL1            1 RESIDUE      1      MOL     
@<SCITEGIC>MOL_PROPERTY
VM2 Rank
SciTegic.value.IntegerValue
1

@<SCITEGIC>MOL_PROPERTY
Conf_Id
SciTegic.value.IntegerValue
1132

@<SCITEGIC>MOL_PROPERTY
Probability
SciTegic.value.DoubleValue
7.58

@<SCITEGIC>MOL_PROPERTY
Sum Probability
SciTegic.value.DoubleValue
7.58

@<SCITEGIC>MOL_PROPERTY
Delta G
SciTegic.value.DoubleValue
0.000

@<SCITEGIC>MOL_PROPERTY
G
SciTegic.value.DoubleValue
47.363

@<SCITEGIC>MOL_PROPERTY
E
SciTegic.value.DoubleValue
20.694

@<SCITEGIC>MOL_PROPERTY
-TS
SciTegic.value.DoubleValue
26.668

@<SCITEGIC>MOL_PROPERTY
U+W
SciTegic.value.DoubleValue
2.809

@<SCITEGIC>MOL_PROPERTY
U
SciTegic.value.DoubleValue
4.530

@<SCITEGIC>MOL_PROPERTY
W
SciTegic.value.DoubleValue
-1.721

@<SCITEGIC>MOL_PROPERTY
W(PB)
SciTegic.value.DoubleValue
-3.723

@<SCITEGIC>MOL_PROPERTY
W(SA)
SciTegic.value.DoubleValue
2.002

@<SCITEGIC>MOL_PROPERTY
Valence
SciTegic.value.DoubleValue
12.224

@<SCITEGIC>MOL_PROPERTY
Coulomb
SciTegic.value.DoubleValue
-9.755

@<SCITEGIC>MOL_PROPERTY
VdW
SciTegic.value.DoubleValue
2.062

@<SCITEGIC>MOL_PROPERTY
VdW6
SciTegic.value.DoubleValue
-9.196

@<SCITEGIC>MOL_PROPERTY
VdW12
SciTegic.value.DoubleValue
11.257

@<SCITEGIC>MOL_PROPERTY
Bond
SciTegic.value.DoubleValue
0.216

@<SCITEGIC>MOL_PROPERTY
Angle
SciTegic.value.DoubleValue
2.754

@<SCITEGIC>MOL_PROPERTY
Pdih
SciTegic.value.DoubleValue
9.253

@<SCITEGIC>MOL_PROPERTY
Idih
SciTegic.value.DoubleValue
0.000

@<SCITEGIC>MOL_PROPERTY
Tether
SciTegic.value.DoubleValue
0.000

@<TRIPOS>MOLECULE
guest-5_vm2.mol2 : vm2 ligand conformer 2
          22          22           1
SMALL
USER_CHARGES
 
@<TRIPOS>ATOM
       1    C1      19.668076   19.024021   20.921545 C.3        1 MOL1        -0.1685
       2    H1      19.930801   18.883815   19.864135 H          1 MOL1         0.0832
       3    H2      18.704765   18.514585   21.060376 H          1 MOL1         0.0832
       4    C2      19.489418   20.537947   21.176315 C.3        1 MOL1        -0.1685
       5    H3      20.387254   21.073056   20.838189 H          1 MOL1         0.0832
       6    H4      18.669366   20.897961   20.540156 H          1 MOL1         0.0832
       7    C3      19.180977   20.923098   22.642409 C.3        1 MOL1        -0.1685
       8    H5      18.322045   20.353932   23.022045 H          1 MOL1         0.0832
       9    H6      18.875939   21.978364   22.653520 H          1 MOL1         0.0832
      10    C4      20.408022   20.769144   23.574613 C.3        1 MOL1        -0.1761
      11    H7      21.317366   21.051688   23.028711 H          1 MOL1         0.0832
      12    H8      20.326984   21.496933   24.393227 H          1 MOL1         0.0832
      13    C5      20.608039   19.366067   24.193058 C.3        1 MOL1         0.1218
      14    H9      21.658811   19.296936   24.509267 H          1 MOL1         0.0789
      15    C6      20.309126   18.164145   23.267012 C.3        1 MOL1        -0.1761
      16    H10     20.827119   17.291586   23.685893 H          1 MOL1         0.0832
      17    H11     19.239835   17.917332   23.301327 H          1 MOL1         0.0832
      18    C7      20.746038   18.335553   21.792052 C.3        1 MOL1        -0.1685
      19    H12     21.703362   18.870153   21.725771 H          1 MOL1         0.0832
      20    H13     20.925618   17.336223   21.372645 H          1 MOL1         0.0832
      21    O1      19.776302   19.258026   25.339996 O.3        1 MOL1        -0.5509
      22    H14     18.864191   19.424766   25.026459 H          1 MOL1         0.3779
@<TRIPOS>BOND
    1     1     2    1
    2     1     3    1
    3     1     4    1
    4     4     5    1
    5     4     6    1
    6     4     7    1
    7     7     8    1
    8     7     9    1
    9     7    10    1
   10    10    11    1
   11    10    12    1
   12    10    13    1
   13    13    14    1
   14    13    15    1
   15    15    16    1
   16    15    17    1
   17     1    18    1
   18    15    18    1
   19    18    19    1
   20    18    20    1
   21    13    21    1
   22    21    22    1
@<TRIPOS>SUBSTRUCTURE
       1 MOL1            1 RESIDUE      1      MOL     
@<SCITEGIC>MOL_PROPERTY
VM2 Rank
SciTegic.value.IntegerValue
2

@<SCITEGIC>MOL_PROPERTY
Conf_Id
SciTegic.value.IntegerValue
561

@<SCITEGIC>MOL_PROPERTY
Probability
SciTegic.value.DoubleValue
7.28

@<SCITEGIC>MOL_PROPERTY
Sum Probability
SciTegic.value.DoubleValue
14.87

@<SCITEGIC>MOL_PROPERTY
Delta G
SciTegic.value.DoubleValue
0.024

@<SCITEGIC>MOL_PROPERTY
G
SciTegic.value.DoubleValue
47.387

@<SCITEGIC>MOL_PROPERTY
E
SciTegic.value.DoubleValue
20.718

@<SCITEGIC>MOL_PROPERTY
-TS
SciTegic.value.DoubleValue
26.669

@<SCITEGIC>MOL_PROPERTY
U+W
SciTegic.value.DoubleValue
2.833

@<SCITEGIC>MOL_PROPERTY
U
SciTegic.value.DoubleValue
4.530

@<SCITEGIC>MOL_PROPERTY
W
SciTegic.value.DoubleValue
-1.697

@<SCITEGIC>MOL_PROPERTY
W(PB)
SciTegic.value.DoubleValue
-3.699

@<SCITEGIC>MOL_PROPERTY
W(SA)
SciTegic.value.DoubleValue
2.002

@<SCITEGIC>MOL_PROPERTY
Valence
SciTegic.value.DoubleValue
12.224

@<SCITEGIC>MOL_PROPERTY
Coulomb
SciTegic.value.DoubleValue
-9.755

@<SCITEGIC>MOL_PROPERTY
VdW
SciTegic.value.DoubleValue
2.061

@<SCITEGIC>MOL_PROPERTY
VdW6
SciTegic.value.DoubleValue
-9.195

@<SCITEGIC>MOL_PROPERTY
VdW12
SciTegic.value.DoubleValue
11.257

@<SCITEGIC>MOL_PROPERTY
Bond
SciTegic.value.DoubleValue
0.216

@<SCITEGIC>MOL_PROPERTY
Angle
SciTegic.value.DoubleValue
2.754

@<SCITEGIC>MOL_PROPERTY
Pdih
SciTegic.value.DoubleValue
9.253

@<SCITEGIC>MOL_PROPERTY
Idih
SciTegic.value.DoubleValue
0.000

@<SCITEGIC>MOL_PROPERTY
Tether
SciTegic.value.DoubleValue
0.000

@<TRIPOS>MOLECULE
guest-5_vm2.mol2 : vm2 ligand conformer 3
          22          22           1
SMALL
USER_CHARGES
 
@<TRIPOS>ATOM
       1    C1      19.976571   19.186596   21.072943 C.3        1 MOL1        -0.1685
       2    H1      20.920003   19.695117   20.832471 H          1 MOL1         0.0832
       3    H2      19.599059   18.784960   20.122620 H          1 MOL1         0.0832
       4    C2      18.930449   20.189263   21.611250 C.3        1 MOL1        -0.1685
       5    H3      18.488031   20.724799   20.759948 H          1 MOL1         0.0832
       6    H4      18.096414   19.636863   22.063551 H          1 MOL1         0.0832
       7    C3      19.466025   21.248174   22.608015 C.3        1 MOL1        -0.1685
       8    H5      18.632812   21.582051   23.241733 H          1 MOL1         0.0832
       9    H6      19.773254   22.136504   22.039325 H          1 MOL1         0.0832
      10    C4      20.659593   20.835439   23.511479 C.3        1 MOL1        -0.1761
      11    H7      21.588123   20.895834   22.929121 H          1 MOL1         0.0832
      12    H8      20.764974   21.591756   24.300072 H          1 MOL1         0.0832
      13    C5      20.585636   19.445973   24.185193 C.3        1 MOL1         0.1218
      14    H9      21.255482   19.469124   25.056773 H          1 MOL1         0.0789
      15    C6      21.085151   18.306868   23.268027 C.3        1 MOL1        -0.1761
      16    H10     22.106030   18.541790   22.939881 H          1 MOL1         0.0832
      17    H11     21.171653   17.394263   23.872108 H          1 MOL1         0.0832
      18    C7      20.218506   17.990378   22.024021 C.3        1 MOL1        -0.1685
      19    H12     20.721730   17.195370   21.457065 H          1 MOL1         0.0832
      20    H13     19.256397   17.564228   22.339012 H          1 MOL1         0.0832
      21    O1      19.264069   19.175308   24.626072 O.3        1 MOL1        -0.5509
      22    H14     18.721620   19.254073   23.816240 H          1 MOL1         0.3779
@<TRIPOS>BOND
    1     1     2    1
    2     1     3    1
    3     1     4    1
    4     4     5    1
    5     4     6    1
    6     4     7    1
    7     7     8    1
    8     7     9    1
    9     7    10    1
   10    10    11    1
   11    10    12    1
   12    10    13    1
   13    13    14    1
   14    13    15    1
   15    15    16    1
   16    15    17    1
   17     1    18    1
   18    15    18    1
   19    18    19    1
   20    18    20    1
   21    13    21    1
   22    21    22    1
@<TRIPOS>SUBSTRUCTURE
       1 MOL1            1 RESIDUE      1      MOL     
@<SCITEGIC>MOL_PROPERTY
VM2 Rank
SciTegic.value.IntegerValue
3

@<SCITEGIC>MOL_PROPERTY
Conf_Id
SciTegic.value.IntegerValue
1237

@<SCITEGIC>MOL_PROPERTY
Probability
SciTegic.value.DoubleValue
6.34

@<SCITEGIC>MOL_PROPERTY
Sum Probability
SciTegic.value.DoubleValue
21.20

@<SCITEGIC>MOL_PROPERTY
Delta G
SciTegic.value.DoubleValue
0.107

@<SCITEGIC>MOL_PROPERTY
G
SciTegic.value.DoubleValue
47.470

@<SCITEGIC>MOL_PROPERTY
E
SciTegic.value.DoubleValue
20.456

@<SCITEGIC>MOL_PROPERTY
-TS
SciTegic.value.DoubleValue
27.013

@<SCITEGIC>MOL_PROPERTY
U+W
SciTegic.value.DoubleValue
2.572

@<SCITEGIC>MOL_PROPERTY
U
SciTegic.value.DoubleValue
3.922

@<SCITEGIC>MOL_PROPERTY
W
SciTegic.value.DoubleValue
-1.350

@<SCITEGIC>MOL_PROPERTY
W(PB)
SciTegic.value.DoubleValue
-3.345

@<SCITEGIC>MOL_PROPERTY
W(SA)
SciTegic.value.DoubleValue
1.995

@<SCITEGIC>MOL_PROPERTY
Valence
SciTegic.value.DoubleValue
12.571

@<SCITEGIC>MOL_PROPERTY
Coulomb
SciTegic.value.DoubleValue
-10.581

@<SCITEGIC>MOL_PROPERTY
VdW
SciTegic.value.DoubleValue
1.932

@<SCITEGIC>MOL_PROPERTY
VdW6
SciTegic.value.DoubleValue
-10.483

@<SCITEGIC>MOL_PROPERTY
VdW12
SciTegic.value.DoubleValue
12.414

@<SCITEGIC>MOL_PROPERTY
Bond
SciTegic.value.DoubleValue
0.268

@<SCITEGIC>MOL_PROPERTY
Angle
SciTegic.value.DoubleValue
3.728

@<SCITEGIC>MOL_PROPERTY
Pdih
SciTegic.value.DoubleValue
8.575

@<SCITEGIC>MOL_PROPERTY
Idih
SciTegic.value.DoubleValue
0.000

@<SCITEGIC>MOL_PROPERTY
Tether
SciTegic.value.DoubleValue
0.000

@<TRIPOS>MOLECULE
guest-5_vm2.mol2 : vm2 ligand conformer 4
          22          22           1
SMALL
USER_CHARGES
 
@<TRIPOS>ATOM
       1    C1      19.281113   18.897399   21.379755 C.3        1 MOL1        -0.1685
       2    H1      19.086699   18.518234   20.366993 H          1 MOL1         0.0832
       3    H2      18.321717   18.806852   21.905774 H          1 MOL1         0.0832
       4    C2      19.671880   20.389709   21.280746 C.3        1 MOL1        -0.1685
       5    H3      20.722000   20.501111   20.978552 H          1 MOL1         0.0832
       6    H4      19.076202   20.840251   20.475067 H          1 MOL1         0.0832
       7    C3      19.381298   21.182091   22.577556 C.3        1 MOL1        -0.1685
       8    H5      18.360151   20.970640   22.922555 H          1 MOL1         0.0832
       9    H6      19.395408   22.253893   22.337240 H          1 MOL1         0.0832
      10    C4      20.385859   20.941731   23.731627 C.3        1 MOL1        -0.1761
      11    H7      21.365438   21.342030   23.439657 H          1 MOL1         0.0832
      12    H8      20.069160   21.537984   24.597323 H          1 MOL1         0.0832
      13    C5      20.567217   19.478619   24.194963 C.3        1 MOL1         0.1218
      14    H9      21.230339   19.502746   25.071644 H          1 MOL1         0.0789
      15    C6      21.247914   18.590895   23.127923 C.3        1 MOL1        -0.1761
      16    H10     22.043448   19.170768   22.642299 H          1 MOL1         0.0832
      17    H11     21.763905   17.771315   23.644686 H          1 MOL1         0.0832
      18    C7      20.334295   17.969628   22.036810 C.3        1 MOL1        -0.1685
      19    H12     20.985993   17.570272   21.247676 H          1 MOL1         0.0832
      20    H13     19.815440   17.096261   22.455538 H          1 MOL1         0.0832
      21    O1      19.316423   18.927927   24.577619 O.3        1 MOL1        -0.5509
      22    H14     18.818282   18.861701   23.738718 H          1 MOL1         0.3779
@<TRIPOS>BOND
    1     1     2    1
    2     1     3    1
    3     1     4    1
    4     4     5    1
    5     4     6    1
    6     4     7    1
    7     7     8    1
    8     7     9    1
    9     7    10    1
   10    10    11    1
   11    10    12    1
   12    10    13    1
   13    13    14    1
   14    13    15    1
   15    15    16    1
   16    15    17    1
   17     1    18    1
   18    15    18    1
   19    18    19    1
   20    18    20    1
   21    13    21    1
   22    21    22    1
@<TRIPOS>SUBSTRUCTURE
       1 MOL1            1 RESIDUE      1      MOL     
@<SCITEGIC>MOL_PROPERTY
VM2 Rank
SciTegic.value.IntegerValue
4

@<SCITEGIC>MOL_PROPERTY
Conf_Id
SciTegic.value.IntegerValue
122

@<SCITEGIC>MOL_PROPERTY
Probability
SciTegic.value.DoubleValue
6.04

@<SCITEGIC>MOL_PROPERTY
Sum Probability
SciTegic.value.DoubleValue
27.25

@<SCITEGIC>MOL_PROPERTY
Delta G
SciTegic.value.DoubleValue
0.135

@<SCITEGIC>MOL_PROPERTY
G
SciTegic.value.DoubleValue
47.498

@<SCITEGIC>MOL_PROPERTY
E
SciTegic.value.DoubleValue
20.485

@<SCITEGIC>MOL_PROPERTY
-TS
SciTegic.value.DoubleValue
27.013

@<SCITEGIC>MOL_PROPERTY
U+W
SciTegic.value.DoubleValue
2.600

@<SCITEGIC>MOL_PROPERTY
U
SciTegic.value.DoubleValue
3.922

@<SCITEGIC>MOL_PROPERTY
W
SciTegic.value.DoubleValue
-1.322

@<SCITEGIC>MOL_PROPERTY
W(PB)
SciTegic.value.DoubleValue
-3.302

@<SCITEGIC>MOL_PROPERTY
W(SA)
SciTegic.value.DoubleValue
1.980

@<SCITEGIC>MOL_PROPERTY
Valence
SciTegic.value.DoubleValue
12.571

@<SCITEGIC>MOL_PROPERTY
Coulomb
SciTegic.value.DoubleValue
-10.581

@<SCITEGIC>MOL_PROPERTY
VdW
SciTegic.value.DoubleValue
1.932

@<SCITEGIC>MOL_PROPERTY
VdW6
SciTegic.value.DoubleValue
-10.483

@<SCITEGIC>MOL_PROPERTY
VdW12
SciTegic.value.DoubleValue
12.414

@<SCITEGIC>MOL_PROPERTY
Bond
SciTegic.value.DoubleValue
0.268

@<SCITEGIC>MOL_PROPERTY
Angle
SciTegic.value.DoubleValue
3.728

@<SCITEGIC>MOL_PROPERTY
Pdih
SciTegic.value.DoubleValue
8.575

@<SCITEGIC>MOL_PROPERTY
Idih
SciTegic.value.DoubleValue
0.000

@<SCITEGIC>MOL_PROPERTY
Tether
SciTegic.value.DoubleValue
0.000

@<TRIPOS>MOLECULE
guest-5_vm2.mol2 : vm2 ligand conformer 5
          22          22           1
SMALL
USER_CHARGES
 
@<TRIPOS>ATOM
       1    C1      19.870984   19.104065   20.841476 C.3        1 MOL1        -0.1685
       2    H1      20.361672   18.926147   19.874826 H          1 MOL1         0.0832
       3    H2      18.800116   18.929585   20.669233 H          1 MOL1         0.0832
       4    C2      20.092148   20.582537   21.242122 C.3        1 MOL1        -0.1685
       5    H3      21.147943   20.771510   21.479173 H          1 MOL1         0.0832
       6    H4      19.861757   21.203474   20.365612 H          1 MOL1         0.0832
       7    C3      19.175142   21.034664   22.402471 C.3        1 MOL1        -0.1685
       8    H5      18.192643   20.554024   22.300217 H          1 MOL1         0.0832
       9    H6      18.986014   22.112719   22.308084 H          1 MOL1         0.0832
      10    C4      19.736855   20.769586   23.821520 C.3        1 MOL1        -0.1761
      11    H7      20.418277   21.588617   24.085846 H          1 MOL1         0.0832
      12    H8      18.902711   20.827394   24.533791 H          1 MOL1         0.0832
      13    C5      20.496632   19.438680   24.027084 C.3        1 MOL1         0.1218
      14    H9      21.526310   19.565712   23.663146 H          1 MOL1         0.0789
      15    C6      19.877700   18.224961   23.298925 C.3        1 MOL1        -0.1761
      16    H10     20.140273   17.314357   23.853881 H          1 MOL1         0.0832
      17    H11     18.781929   18.285818   23.310862 H          1 MOL1         0.0832
      18    C7      20.402872   18.061438   21.851479 C.3        1 MOL1        -0.1685
      19    H12     21.501193   18.085648   21.856828 H          1 MOL1         0.0832
      20    H13     20.127035   17.061640   21.489464 H          1 MOL1         0.0832
      21    O1      20.533667   19.162069   25.421924 O.3        1 MOL1        -0.5509
      22    H14     20.974241   19.926111   25.849616 H          1 MOL1         0.3779
@<TRIPOS>BOND
    1     1     2    1
    2     1     3    1
    3     1     4    1
    4     4     5    1
    5     4     6    1
    6     4     7    1
    7     7     8    1
    8     7     9    1
    9     7    10    1
   10    10    11    1
   11    10    12    1
   12    10    13    1
   13    13    14    1
   14    13    15    1
   15    15    16    1
   16    15    17    1
   17     1    18    1
   18    15    18    1
   19    18    19    1
   20    18    20    1
   21    13    21    1
   22    21    22    1
@<TRIPOS>SUBSTRUCTURE
       1 MOL1            1 RESIDUE      1      MOL     
@<SCITEGIC>MOL_PROPERTY
VM2 Rank
SciTegic.value.IntegerValue
5

@<SCITEGIC>MOL_PROPERTY
Conf_Id
SciTegic.value.IntegerValue
517

@<SCITEGIC>MOL_PROPERTY
Probability
SciTegic.value.DoubleValue
4.86

@<SCITEGIC>MOL_PROPERTY
Sum Probability
SciTegic.value.DoubleValue
32.11

@<SCITEGIC>MOL_PROPERTY
Delta G
SciTegic.value.DoubleValue
0.265

@<SCITEGIC>MOL_PROPERTY
G
SciTegic.value.DoubleValue
47.628

@<SCITEGIC>MOL_PROPERTY
E
SciTegic.value.DoubleValue
20.970

@<SCITEGIC>MOL_PROPERTY
-TS
SciTegic.value.DoubleValue
26.657

@<SCITEGIC>MOL_PROPERTY
U+W
SciTegic.value.DoubleValue
3.085

@<SCITEGIC>MOL_PROPERTY
U
SciTegic.value.DoubleValue
5.433

@<SCITEGIC>MOL_PROPERTY
W
SciTegic.value.DoubleValue
-2.348

@<SCITEGIC>MOL_PROPERTY
W(PB)
SciTegic.value.DoubleValue
-4.357

@<SCITEGIC>MOL_PROPERTY
W(SA)
SciTegic.value.DoubleValue
2.010

@<SCITEGIC>MOL_PROPERTY
Valence
SciTegic.value.DoubleValue
11.903

@<SCITEGIC>MOL_PROPERTY
Coulomb
SciTegic.value.DoubleValue
-8.719

@<SCITEGIC>MOL_PROPERTY
VdW
SciTegic.value.DoubleValue
2.250

@<SCITEGIC>MOL_PROPERTY
VdW6
SciTegic.value.DoubleValue
-8.926

@<SCITEGIC>MOL_PROPERTY
VdW12
SciTegic.value.DoubleValue
11.175

@<SCITEGIC>MOL_PROPERTY
Bond
SciTegic.value.DoubleValue
0.223

@<SCITEGIC>MOL_PROPERTY
Angle
SciTegic.value.DoubleValue
2.471

@<SCITEGIC>MOL_PROPERTY
Pdih
SciTegic.value.DoubleValue
9.209

@<SCITEGIC>MOL_PROPERTY
Idih
SciTegic.value.DoubleValue
0.000

@<SCITEGIC>MOL_PROPERTY
Tether
SciTegic.value.DoubleValue
0.000

@<TRIPOS>MOLECULE
guest-5_vm2.mol2 : vm2 ligand conformer 6
          22          22           1
SMALL
USER_CHARGES
 
@<TRIPOS>ATOM
       1    C1      20.356673   19.228628   20.994602 C.3        1 MOL1        -0.1685
       2    H1      21.414328   19.431764   21.210725 H          1 MOL1         0.0832
       3    H2      20.319298   18.892713   19.949291 H          1 MOL1         0.0832
       4    C2      19.511608   20.520675   21.103168 C.3        1 MOL1        -0.1685
       5    H3      19.792024   21.192553   20.280495 H          1 MOL1         0.0832
       6    H4      18.452366   20.277761   20.942328 H          1 MOL1         0.0832
       7    C3      19.662177   21.296318   22.431996 C.3        1 MOL1        -0.1685
       8    H5      18.967545   22.147120   22.412987 H          1 MOL1         0.0832
       9    H6      20.668856   21.732655   22.487932 H          1 MOL1         0.0832
      10    C4      19.390151   20.464987   23.709703 C.3        1 MOL1        -0.1761
      11    H7      19.307424   21.165076   24.551815 H          1 MOL1         0.0832
      12    H8      18.422319   19.951943   23.641537 H          1 MOL1         0.0832
      13    C5      20.518454   19.456338   24.019488 C.3        1 MOL1         0.1218
      14    H9      21.470033   19.897614   23.689943 H          1 MOL1         0.0789
      15    C6      20.355692   18.078049   23.337832 C.3        1 MOL1        -0.1761
      16    H10     21.334782   17.581762   23.347623 H          1 MOL1         0.0832
      17    H11     19.690288   17.447813   23.943232 H          1 MOL1         0.0832
      18    C7      19.820389   18.082911   21.884245 C.3        1 MOL1        -0.1685
      19    H12     18.722357   18.113547   21.896875 H          1 MOL1         0.0832
      20    H13     20.082116   17.120900   21.422819 H          1 MOL1         0.0832
      21    O1      20.570856   19.250095   25.425965 O.3        1 MOL1        -0.5509
      22    H14     21.324372   18.646377   25.594852 H          1 MOL1         0.3779
@<TRIPOS>BOND
    1     1     2    1
    2     1     3    1
    3     1     4    1
    4     4     5    1
    5     4     6    1
    6     4     7    1
    7     7     8    1
    8     7     9    1
    9     7    10    1
   10    10    11    1
   11    10    12    1
   12    10    13    1
   13    13    14    1
   14    13    15    1
   15    15    16    1
   16    15    17    1
   17     1    18    1
   18    15    18    1
   19    18    19    1
   20    18    20    1
   21    13    21    1
   22    21    22    1
@<TRIPOS>SUBSTRUCTURE
       1 MOL1            1 RESIDUE      1      MOL     
@<SCITEGIC>MOL_PROPERTY
VM2 Rank
SciTegic.value.IntegerValue
6

@<SCITEGIC>MOL_PROPERTY
Conf_Id
SciTegic.value.IntegerValue
810

@<SCITEGIC>MOL_PROPERTY
Probability
SciTegic.value.DoubleValue
4.66

@<SCITEGIC>MOL_PROPERTY
Sum Probability
SciTegic.value.DoubleValue
36.76

@<SCITEGIC>MOL_PROPERTY
Delta G
SciTegic.value.DoubleValue
0.291

@<SCITEGIC>MOL_PROPERTY
G
SciTegic.value.DoubleValue
47.654

@<SCITEGIC>MOL_PROPERTY
E
SciTegic.value.DoubleValue
20.996

@<SCITEGIC>MOL_PROPERTY
-TS
SciTegic.value.DoubleValue
26.657

@<SCITEGIC>MOL_PROPERTY
U+W
SciTegic.value.DoubleValue
3.111

@<SCITEGIC>MOL_PROPERTY
U
SciTegic.value.DoubleValue
5.433

@<SCITEGIC>MOL_PROPERTY
W
SciTegic.value.DoubleValue
-2.322

@<SCITEGIC>MOL_PROPERTY
W(PB)
SciTegic.value.DoubleValue
-4.348

@<SCITEGIC>MOL_PROPERTY
W(SA)
SciTegic.value.DoubleValue
2.026

@<SCITEGIC>MOL_PROPERTY
Valence
SciTegic.value.DoubleValue
11.903

@<SCITEGIC>MOL_PROPERTY
Coulomb
SciTegic.value.DoubleValue
-8.719

@<SCITEGIC>MOL_PROPERTY
VdW
SciTegic.value.DoubleValue
2.250

@<SCITEGIC>MOL_PROPERTY
VdW6
SciTegic.value.DoubleValue
-8.926

@<SCITEGIC>MOL_PROPERTY
VdW12
SciTegic.value.DoubleValue
11.176

@<SCITEGIC>MOL_PROPERTY
Bond
SciTegic.value.DoubleValue
0.223

@<SCITEGIC>MOL_PROPERTY
Angle
SciTegic.value.DoubleValue
2.471

@<SCITEGIC>MOL_PROPERTY
Pdih
SciTegic.value.DoubleValue
9.209

@<SCITEGIC>MOL_PROPERTY
Idih
SciTegic.value.DoubleValue
0.000

@<SCITEGIC>MOL_PROPERTY
Tether
SciTegic.value.DoubleValue
0.000

@<TRIPOS>MOLECULE
guest-5_vm2.mol2 : vm2 ligand conformer 7
          22          22           1
SMALL
USER_CHARGES
 
@<TRIPOS>ATOM
       1    C1      19.872215   19.104462   20.842157 C.3        1 MOL1        -0.1685
       2    H1      18.801319   18.931234   20.668791 H          1 MOL1         0.0832
       3    H2      20.363543   18.926297   19.875870 H          1 MOL1         0.0832
       4    C2      20.094484   20.582811   21.243070 C.3        1 MOL1        -0.1685
       5    H3      21.150076   20.770630   21.481942 H          1 MOL1         0.0832
       6    H4      19.866451   21.203890   20.366049 H          1 MOL1         0.0832
       7    C3      19.176078   21.036789   22.401723 C.3        1 MOL1        -0.1685
       8    H5      18.192098   20.560007   22.296018 H          1 MOL1         0.0832
       9    H6      18.991386   22.115714   22.308805 H          1 MOL1         0.0832
      10    C4      19.732679   20.767054   23.822102 C.3        1 MOL1        -0.1761
      11    H7      20.412502   21.584397   24.095308 H          1 MOL1         0.0832
      12    H8      18.897819   20.819743   24.533680 H          1 MOL1         0.0832
      13    C5      20.495382   19.438139   24.025992 C.3        1 MOL1         0.1218
      14    H9      21.523359   19.570630   23.659178 H          1 MOL1         0.0789
      15    C6      19.875042   18.224081   23.298757 C.3        1 MOL1        -0.1761
      16    H10     20.130184   17.309632   23.850275 H          1 MOL1         0.0832
      17    H11     18.779317   18.289834   23.306638 H          1 MOL1         0.0832
      18    C7      20.402024   18.060623   21.852123 C.3        1 MOL1        -0.1685
      19    H12     21.500389   18.083452   21.858070 H          1 MOL1         0.0832
      20    H13     20.125159   17.061506   21.488893 H          1 MOL1         0.0832
      21    O1      20.538097   19.164042   25.421076 O.3        1 MOL1        -0.5509
      22    H14     21.088940   18.361317   25.534311 H          1 MOL1         0.3779
@<TRIPOS>BOND
    1     1     2    1
    2     1     3    1
    3     1     4    1
    4     4     5    1
    5     4     6    1
    6     4     7    1
    7     7     8    1
    8     7     9    1
    9     7    10    1
   10    10    11    1
   11    10    12    1
   12    10    13    1
   13    13    14    1
   14    13    15    1
   15    15    16    1
   16    15    17    1
   17     1    18    1
   18    15    18    1
   19    18    19    1
   20    18    20    1
   21    13    21    1
   22    21    22    1
@<TRIPOS>SUBSTRUCTURE
       1 MOL1            1 RESIDUE      1      MOL     
@<SCITEGIC>MOL_PROPERTY
VM2 Rank
SciTegic.value.IntegerValue
7

@<SCITEGIC>MOL_PROPERTY
Conf_Id
SciTegic.value.IntegerValue
1328

@<SCITEGIC>MOL_PROPERTY
Probability
SciTegic.value.DoubleValue
4.59

@<SCITEGIC>MOL_PROPERTY
Sum Probability
SciTegic.value.DoubleValue
41.35

@<SCITEGIC>MOL_PROPERTY
Delta G
SciTegic.value.DoubleValue
0.300

@<SCITEGIC>MOL_PROPERTY
G
SciTegic.value.DoubleValue
47.662

@<SCITEGIC>MOL_PROPERTY
E
SciTegic.value.DoubleValue
20.999

@<SCITEGIC>MOL_PROPERTY
-TS
SciTegic.value.DoubleValue
26.663

@<SCITEGIC>MOL_PROPERTY
U+W
SciTegic.value.DoubleValue
3.114

@<SCITEGIC>MOL_PROPERTY
U
SciTegic.value.DoubleValue
5.411

@<SCITEGIC>MOL_PROPERTY
W
SciTegic.value.DoubleValue
-2.297

@<SCITEGIC>MOL_PROPERTY
W(PB)
SciTegic.value.DoubleValue
-4.300

@<SCITEGIC>MOL_PROPERTY
W(SA)
SciTegic.value.DoubleValue
2.003

@<SCITEGIC>MOL_PROPERTY
Valence
SciTegic.value.DoubleValue
11.909

@<SCITEGIC>MOL_PROPERTY
Coulomb
SciTegic.value.DoubleValue
-8.733

@<SCITEGIC>MOL_PROPERTY
VdW
SciTegic.value.DoubleValue
2.236

@<SCITEGIC>MOL_PROPERTY
VdW6
SciTegic.value.DoubleValue
-8.936

@<SCITEGIC>MOL_PROPERTY
VdW12
SciTegic.value.DoubleValue
11.172

@<SCITEGIC>MOL_PROPERTY
Bond
SciTegic.value.DoubleValue
0.223

@<SCITEGIC>MOL_PROPERTY
Angle
SciTegic.value.DoubleValue
2.457

@<SCITEGIC>MOL_PROPERTY
Pdih
SciTegic.value.DoubleValue
9.228

@<SCITEGIC>MOL_PROPERTY
Idih
SciTegic.value.DoubleValue
0.000

@<SCITEGIC>MOL_PROPERTY
Tether
SciTegic.value.DoubleValue
0.000

@<TRIPOS>MOLECULE
guest-5_vm2.mol2 : vm2 ligand conformer 8
          22          22           1
SMALL
USER_CHARGES
 
@<TRIPOS>ATOM
       1    C1      20.358405   19.228554   20.995504 C.3        1 MOL1        -0.1685
       2    H1      20.322738   18.893537   19.949848 H          1 MOL1         0.0832
       3    H2      21.415758   19.431299   21.213470 H          1 MOL1         0.0832
       4    C2      19.513260   20.520713   21.103696 C.3        1 MOL1        -0.1685
       5    H3      19.794496   21.192642   20.281338 H          1 MOL1         0.0832
       6    H4      18.454208   20.277785   20.941603 H          1 MOL1         0.0832
       7    C3      19.662206   21.296620   22.432650 C.3        1 MOL1        -0.1685
       8    H5      18.967360   22.147265   22.412221 H          1 MOL1         0.0832
       9    H6      20.668713   21.733296   22.489360 H          1 MOL1         0.0832
      10    C4      19.388139   20.465227   23.709700 C.3        1 MOL1        -0.1761
      11    H7      19.297415   21.166782   24.549388 H          1 MOL1         0.0832
      12    H8      18.421611   19.950017   23.636357 H          1 MOL1         0.0832
      13    C5      20.517163   19.456475   24.018492 C.3        1 MOL1         0.1218
      14    H9      21.469383   19.892680   23.684059 H          1 MOL1         0.0789
      15    C6      20.350050   18.078120   23.339146 C.3        1 MOL1        -0.1761
      16    H10     21.327530   17.579079   23.357609 H          1 MOL1         0.0832
      17    H11     19.681574   17.452656   23.945813 H          1 MOL1         0.0832
      18    C7      19.820846   18.081742   21.883135 C.3        1 MOL1        -0.1685
      19    H12     20.086334   17.120113   21.423124 H          1 MOL1         0.0832
      20    H13     18.722746   18.110377   21.891376 H          1 MOL1         0.0832
      21    O1      20.575932   19.250549   25.424677 O.3        1 MOL1        -0.5509
      22    H14     20.757901   20.123931   25.830521 H          1 MOL1         0.3779
@<TRIPOS>BOND
    1     1     2    1
    2     1     3    1
    3     1     4    1
    4     4     5    1
    5     4     6    1
    6     4     7    1
    7     7     8    1
    8     7     9    1
    9     7    10    1
   10    10    11    1
   11    10    12    1
   12    10    13    1
   13    13    14    1
   14    13    15    1
   15    15    16    1
   16    15    17    1
   17     1    18    1
   18    15    18    1
   19    18    19    1
   20    18    20    1
   21    13    21    1
   22    21    22    1
@<TRIPOS>SUBSTRUCTURE
       1 MOL1            1 RESIDUE      1      MOL     
@<SCITEGIC>MOL_PROPERTY
VM2 Rank
SciTegic.value.IntegerValue
8

@<SCITEGIC>MOL_PROPERTY
Conf_Id
SciTegic.value.IntegerValue
775

@<SCITEGIC>MOL_PROPERTY
Probability
SciTegic.value.DoubleValue
4.45

@<SCITEGIC>MOL_PROPERTY
Sum Probability
SciTegic.value.DoubleValue
45.81

@<SCITEGIC>MOL_PROPERTY
Delta G
SciTegic.value.DoubleValue
0.317

@<SCITEGIC>MOL_PROPERTY
G
SciTegic.value.DoubleValue
47.680

@<SCITEGIC>MOL_PROPERTY
E
SciTegic.value.DoubleValue
21.017

@<SCITEGIC>MOL_PROPERTY
-TS
SciTegic.value.DoubleValue
26.663

@<SCITEGIC>MOL_PROPERTY
U+W
SciTegic.value.DoubleValue
3.132

@<SCITEGIC>MOL_PROPERTY
U
SciTegic.value.DoubleValue
5.411

@<SCITEGIC>MOL_PROPERTY
W
SciTegic.value.DoubleValue
-2.279

@<SCITEGIC>MOL_PROPERTY
W(PB)
SciTegic.value.DoubleValue
-4.300

@<SCITEGIC>MOL_PROPERTY
W(SA)
SciTegic.value.DoubleValue
2.021

@<SCITEGIC>MOL_PROPERTY
Valence
SciTegic.value.DoubleValue
11.909

@<SCITEGIC>MOL_PROPERTY
Coulomb
SciTegic.value.DoubleValue
-8.733

@<SCITEGIC>MOL_PROPERTY
VdW
SciTegic.value.DoubleValue
2.236

@<SCITEGIC>MOL_PROPERTY
VdW6
SciTegic.value.DoubleValue
-8.936

@<SCITEGIC>MOL_PROPERTY
VdW12
SciTegic.value.DoubleValue
11.172

@<SCITEGIC>MOL_PROPERTY
Bond
SciTegic.value.DoubleValue
0.223

@<SCITEGIC>MOL_PROPERTY
Angle
SciTegic.value.DoubleValue
2.457

@<SCITEGIC>MOL_PROPERTY
Pdih
SciTegic.value.DoubleValue
9.228

@<SCITEGIC>MOL_PROPERTY
Idih
SciTegic.value.DoubleValue
0.000

@<SCITEGIC>MOL_PROPERTY
Tether
SciTegic.value.DoubleValue
0.000

@<TRIPOS>MOLECULE
guest-5_vm2.mol2 : vm2 ligand conformer 9
          22          22           1
SMALL
USER_CHARGES
 
@<TRIPOS>ATOM
       1    C1      19.578504   19.119341   21.015860 C.3        1 MOL1        -0.1685
       2    H1      19.644867   18.866247   19.948896 H          1 MOL1         0.0832
       3    H2      18.513349   19.057460   21.277219 H          1 MOL1         0.0832
       4    C2      20.107998   20.560943   21.199626 C.3        1 MOL1        -0.1685
       5    H3      21.204949   20.543200   21.255565 H          1 MOL1         0.0832
       6    H4      19.870111   21.144310   20.299574 H          1 MOL1         0.0832
       7    C3      19.537169   21.318173   22.423054 C.3        1 MOL1        -0.1685
       8    H5      18.566650   21.755476   22.151396 H          1 MOL1         0.0832
       9    H6      20.197885   22.169127   22.638245 H          1 MOL1         0.0832
      10    C4      19.346139   20.487135   23.715673 C.3        1 MOL1        -0.1761
      11    H7      19.254608   21.187821   24.556070 H          1 MOL1         0.0832
      12    H8      18.384965   19.959111   23.667533 H          1 MOL1         0.0832
      13    C5      20.469991   19.466668   24.005692 C.3        1 MOL1         0.1218
      14    H9      21.432792   19.868369   23.658543 H          1 MOL1         0.0789
      15    C6      20.210789   18.098359   23.335719 C.3        1 MOL1        -0.1761
      16    H10     20.890140   17.357544   23.777743 H          1 MOL1         0.0832
      17    H11     19.195843   17.760723   23.582512 H          1 MOL1         0.0832
      18    C7      20.401772   18.069560   21.800343 C.3        1 MOL1        -0.1685
      19    H12     21.467689   18.191558   21.564134 H          1 MOL1         0.0832
      20    H13     20.128033   17.068764   21.439509 H          1 MOL1         0.0832
      21    O1      20.533639   19.257821   25.411033 O.3        1 MOL1        -0.5509
      22    H14     20.754552   20.123166   25.814776 H          1 MOL1         0.3779
@<TRIPOS>BOND
    1     1     2    1
    2     1     3    1
    3     1     4    1
    4     4     5    1
    5     4     6    1
    6     4     7    1
    7     7     8    1
    8     7     9    1
    9     7    10    1
   10    10    11    1
   11    10    12    1
   12    10    13    1
   13    13    14    1
   14    13    15    1
   15    15    16    1
   16    15    17    1
   17     1    18    1
   18    15    18    1
   19    18    19    1
   20    18    20    1
   21    13    21    1
   22    21    22    1
@<TRIPOS>SUBSTRUCTURE
       1 MOL1            1 RESIDUE      1      MOL     
@<SCITEGIC>MOL_PROPERTY
VM2 Rank
SciTegic.value.IntegerValue
9

@<SCITEGIC>MOL_PROPERTY
Conf_Id
SciTegic.value.IntegerValue
485

@<SCITEGIC>MOL_PROPERTY
Probability
SciTegic.value.DoubleValue
4.38

@<SCITEGIC>MOL_PROPERTY
Sum Probability
SciTegic.value.DoubleValue
50.19

@<SCITEGIC>MOL_PROPERTY
Delta G
SciTegic.value.DoubleValue
0.327

@<SCITEGIC>MOL_PROPERTY
G
SciTegic.value.DoubleValue
47.689

@<SCITEGIC>MOL_PROPERTY
E
SciTegic.value.DoubleValue
21.017

@<SCITEGIC>MOL_PROPERTY
-TS
SciTegic.value.DoubleValue
26.672

@<SCITEGIC>MOL_PROPERTY
U+W
SciTegic.value.DoubleValue
3.132

@<SCITEGIC>MOL_PROPERTY
U
SciTegic.value.DoubleValue
5.406

@<SCITEGIC>MOL_PROPERTY
W
SciTegic.value.DoubleValue
-2.274

@<SCITEGIC>MOL_PROPERTY
W(PB)
SciTegic.value.DoubleValue
-4.290

@<SCITEGIC>MOL_PROPERTY
W(SA)
SciTegic.value.DoubleValue
2.016

@<SCITEGIC>MOL_PROPERTY
Valence
SciTegic.value.DoubleValue
12.011

@<SCITEGIC>MOL_PROPERTY
Coulomb
SciTegic.value.DoubleValue
-8.863

@<SCITEGIC>MOL_PROPERTY
VdW
SciTegic.value.DoubleValue
2.258

@<SCITEGIC>MOL_PROPERTY
VdW6
SciTegic.value.DoubleValue
-8.944

@<SCITEGIC>MOL_PROPERTY
VdW12
SciTegic.value.DoubleValue
11.202

@<SCITEGIC>MOL_PROPERTY
Bond
SciTegic.value.DoubleValue
0.224

@<SCITEGIC>MOL_PROPERTY
Angle
SciTegic.value.DoubleValue
2.419

@<SCITEGIC>MOL_PROPERTY
Pdih
SciTegic.value.DoubleValue
9.368

@<SCITEGIC>MOL_PROPERTY
Idih
SciTegic.value.DoubleValue
0.000

@<SCITEGIC>MOL_PROPERTY
Tether
SciTegic.value.DoubleValue
0.000

@<TRIPOS>MOLECULE
guest-5_vm2.mol2 : vm2 ligand conformer 10
          22          22           1
SMALL
USER_CHARGES
 
@<TRIPOS>ATOM
       1    C1      20.392548   19.259859   20.970280 C.3        1 MOL1        -0.1685
       2    H1      21.393909   19.689396   21.109994 H          1 MOL1         0.0832
       3    H2      20.346333   18.962454   19.913674 H          1 MOL1         0.0832
       4    C2      19.324668   20.348005   21.230886 C.3        1 MOL1        -0.1685
       5    H3      19.214915   20.943088   20.313986 H          1 MOL1         0.0832
       6    H4      18.341810   19.894688   21.418470 H          1 MOL1         0.0832
       7    C3      19.714758   21.314500   22.374975 C.3        1 MOL1        -0.1685
       8    H5      19.044003   22.183869   22.343169 H          1 MOL1         0.0832
       9    H6      20.723775   21.708257   22.191409 H          1 MOL1         0.0832
      10    C4      19.652442   20.708167   23.797350 C.3        1 MOL1        -0.1761
      11    H7      20.010444   21.465823   24.506929 H          1 MOL1         0.0832
      12    H8      18.605433   20.515933   24.065378 H          1 MOL1         0.0832
      13    C5      20.475831   19.415951   23.998666 C.3        1 MOL1         0.1218
      14    H9      21.493823   19.565752   23.611221 H          1 MOL1         0.0789
      15    C6      19.831451   18.192937   23.307637 C.3        1 MOL1        -0.1761
      16    H10     20.080517   17.278754   23.862473 H          1 MOL1         0.0832
      17    H11     18.738864   18.282445   23.364401 H          1 MOL1         0.0832
      18    C7      20.250198   17.981771   21.831817 C.3        1 MOL1        -0.1685
      19    H12     19.516511   17.313411   21.360714 H          1 MOL1         0.0832
      20    H13     21.206460   17.441607   21.804216 H          1 MOL1         0.0832
      21    O1      20.544104   19.156810   25.395389 O.3        1 MOL1        -0.5509
      22    H14     21.115840   18.368751   25.508144 H          1 MOL1         0.3779
@<TRIPOS>BOND
    1     1     2    1
    2     1     3    1
    3     1     4    1
    4     4     5    1
    5     4     6    1
    6     4     7    1
    7     7     8    1
    8     7     9    1
    9     7    10    1
   10    10    11    1
   11    10    12    1
   12    10    13    1
   13    13    14    1
   14    13    15    1
   15    15    16    1
   16    15    17    1
   17     1    18    1
   18    15    18    1
   19    18    19    1
   20    18    20    1
   21    13    21    1
   22    21    22    1
@<TRIPOS>SUBSTRUCTURE
       1 MOL1            1 RESIDUE      1      MOL     
@<SCITEGIC>MOL_PROPERTY
VM2 Rank
SciTegic.value.IntegerValue
10

@<SCITEGIC>MOL_PROPERTY
Conf_Id
SciTegic.value.IntegerValue
1257

@<SCITEGIC>MOL_PROPERTY
Probability
SciTegic.value.DoubleValue
4.30

@<SCITEGIC>MOL_PROPERTY
Sum Probability
SciTegic.value.DoubleValue
54.49

@<SCITEGIC>MOL_PROPERTY
Delta G
SciTegic.value.DoubleValue
0.338

@<SCITEGIC>MOL_PROPERTY
G
SciTegic.value.DoubleValue
47.700

@<SCITEGIC>MOL_PROPERTY
E
SciTegic.value.DoubleValue
21.028

@<SCITEGIC>MOL_PROPERTY
-TS
SciTegic.value.DoubleValue
26.672

@<SCITEGIC>MOL_PROPERTY
U+W
SciTegic.value.DoubleValue
3.143

@<SCITEGIC>MOL_PROPERTY
U
SciTegic.value.DoubleValue
5.406

@<SCITEGIC>MOL_PROPERTY
W
SciTegic.value.DoubleValue
-2.262

@<SCITEGIC>MOL_PROPERTY
W(PB)
SciTegic.value.DoubleValue
-4.270

@<SCITEGIC>MOL_PROPERTY
W(SA)
SciTegic.value.DoubleValue
2.008

@<SCITEGIC>MOL_PROPERTY
Valence
SciTegic.value.DoubleValue
12.011

@<SCITEGIC>MOL_PROPERTY
Coulomb
SciTegic.value.DoubleValue
-8.863

@<SCITEGIC>MOL_PROPERTY
VdW
SciTegic.value.DoubleValue
2.258

@<SCITEGIC>MOL_PROPERTY
VdW6
SciTegic.value.DoubleValue
-8.944

@<SCITEGIC>MOL_PROPERTY
VdW12
SciTegic.value.DoubleValue
11.202

@<SCITEGIC>MOL_PROPERTY
Bond
SciTegic.value.DoubleValue
0.224

@<SCITEGIC>MOL_PROPERTY
Angle
SciTegic.value.DoubleValue
2.419

@<SCITEGIC>MOL_PROPERTY
Pdih
SciTegic.value.DoubleValue
9.368

@<SCITEGIC>MOL_PROPERTY
Idih
SciTegic.value.DoubleValue
0.000

@<SCITEGIC>MOL_PROPERTY
Tether
SciTegic.value.DoubleValue
0.000

@<TRIPOS>MOLECULE
guest-5_vm2.mol2 : vm2 ligand conformer 11
          22          22           1
SMALL
USER_CHARGES
 
@<TRIPOS>ATOM
       1    C1      20.391204   19.259555   20.969342 C.3        1 MOL1        -0.1685
       2    H1      20.343525   18.961757   19.912917 H          1 MOL1         0.0832
       3    H2      21.392861   19.688825   21.107694 H          1 MOL1         0.0832
       4    C2      19.323891   20.347781   21.231116 C.3        1 MOL1        -0.1685
       5    H3      18.341262   19.894559   21.420195 H          1 MOL1         0.0832
       6    H4      19.212970   20.942648   20.314214 H          1 MOL1         0.0832
       7    C3      19.715828   21.314319   22.374386 C.3        1 MOL1        -0.1685
       8    H5      19.046021   22.184434   22.341844 H          1 MOL1         0.0832
       9    H6      20.725189   21.706877   22.190033 H          1 MOL1         0.0832
      10    C4      19.652464   20.709204   23.797067 C.3        1 MOL1        -0.1761
      11    H7      20.005195   21.471572   24.503929 H          1 MOL1         0.0832
      12    H8      18.604680   20.515072   24.061491 H          1 MOL1         0.0832
      13    C5      20.476554   19.416928   23.999347 C.3        1 MOL1         0.1218
      14    H9      21.495432   19.562900   23.612778 H          1 MOL1         0.0789
      15    C6      19.834066   18.193400   23.308374 C.3        1 MOL1        -0.1761
      16    H10     20.092030   17.283136   23.866101 H          1 MOL1         0.0832
      17    H11     18.741487   18.277232   23.370169 H          1 MOL1         0.0832
      18    C7      20.249701   17.981939   21.831557 C.3        1 MOL1        -0.1685
      19    H12     21.205885   17.441704   21.803019 H          1 MOL1         0.0832
      20    H13     19.515209   17.313324   21.362160 H          1 MOL1         0.0832
      21    O1      20.542292   19.154874   25.395810 O.3        1 MOL1        -0.5509
      22    H14     20.995960   19.920625   25.806095 H          1 MOL1         0.3779
@<TRIPOS>BOND
    1     1     2    1
    2     1     3    1
    3     1     4    1
    4     4     5    1
    5     4     6    1
    6     4     7    1
    7     7     8    1
    8     7     9    1
    9     7    10    1
   10    10    11    1
   11    10    12    1
   12    10    13    1
   13    13    14    1
   14    13    15    1
   15    15    16    1
   16    15    17    1
   17     1    18    1
   18    15    18    1
   19    18    19    1
   20    18    20    1
   21    13    21    1
   22    21    22    1
@<TRIPOS>SUBSTRUCTURE
       1 MOL1            1 RESIDUE      1      MOL     
@<SCITEGIC>MOL_PROPERTY
VM2 Rank
SciTegic.value.IntegerValue
11

@<SCITEGIC>MOL_PROPERTY
Conf_Id
SciTegic.value.IntegerValue
1095

@<SCITEGIC>MOL_PROPERTY
Probability
SciTegic.value.DoubleValue
4.28

@<SCITEGIC>MOL_PROPERTY
Sum Probability
SciTegic.value.DoubleValue
58.77

@<SCITEGIC>MOL_PROPERTY
Delta G
SciTegic.value.DoubleValue
0.341

@<SCITEGIC>MOL_PROPERTY
G
SciTegic.value.DoubleValue
47.704

@<SCITEGIC>MOL_PROPERTY
E
SciTegic.value.DoubleValue
21.056

@<SCITEGIC>MOL_PROPERTY
-TS
SciTegic.value.DoubleValue
26.648

@<SCITEGIC>MOL_PROPERTY
U+W
SciTegic.value.DoubleValue
3.171

@<SCITEGIC>MOL_PROPERTY
U
SciTegic.value.DoubleValue
5.483

@<SCITEGIC>MOL_PROPERTY
W
SciTegic.value.DoubleValue
-2.312

@<SCITEGIC>MOL_PROPERTY
W(PB)
SciTegic.value.DoubleValue
-4.316

@<SCITEGIC>MOL_PROPERTY
W(SA)
SciTegic.value.DoubleValue
2.004

@<SCITEGIC>MOL_PROPERTY
Valence
SciTegic.value.DoubleValue
12.019

@<SCITEGIC>MOL_PROPERTY
Coulomb
SciTegic.value.DoubleValue
-8.788

@<SCITEGIC>MOL_PROPERTY
VdW
SciTegic.value.DoubleValue
2.252

@<SCITEGIC>MOL_PROPERTY
VdW6
SciTegic.value.DoubleValue
-8.934

@<SCITEGIC>MOL_PROPERTY
VdW12
SciTegic.value.DoubleValue
11.185

@<SCITEGIC>MOL_PROPERTY
Bond
SciTegic.value.DoubleValue
0.223

@<SCITEGIC>MOL_PROPERTY
Angle
SciTegic.value.DoubleValue
2.429

@<SCITEGIC>MOL_PROPERTY
Pdih
SciTegic.value.DoubleValue
9.367

@<SCITEGIC>MOL_PROPERTY
Idih
SciTegic.value.DoubleValue
0.000

@<SCITEGIC>MOL_PROPERTY
Tether
SciTegic.value.DoubleValue
0.000

@<TRIPOS>MOLECULE
guest-5_vm2.mol2 : vm2 ligand conformer 12
          22          22           1
SMALL
USER_CHARGES
 
@<TRIPOS>ATOM
       1    C1      20.354945   19.228209   20.993736 C.3        1 MOL1        -0.1685
       2    H1      21.413015   19.431218   21.208110 H          1 MOL1         0.0832
       3    H2      20.315706   18.892191   19.948524 H          1 MOL1         0.0832
       4    C2      19.510536   20.520440   21.103729 C.3        1 MOL1        -0.1685
       5    H3      19.789906   21.192091   20.280507 H          1 MOL1         0.0832
       6    H4      18.450865   20.278142   20.944778 H          1 MOL1         0.0832
       7    C3      19.664468   21.296000   22.432116 C.3        1 MOL1        -0.1685
       8    H5      18.972813   22.149248   22.412803 H          1 MOL1         0.0832
       9    H6      20.672704   21.728898   22.487473 H          1 MOL1         0.0832
      10    C4      19.389653   20.466132   23.709962 C.3        1 MOL1        -0.1761
      11    H7      19.307551   21.169435   24.549632 H          1 MOL1         0.0832
      12    H8      18.420271   19.956210   23.638200 H          1 MOL1         0.0832
      13    C5      20.516949   19.456224   24.020457 C.3        1 MOL1         0.1218
      14    H9      21.470054   19.896896   23.695092 H          1 MOL1         0.0789
      15    C6      20.359589   18.078308   23.336604 C.3        1 MOL1        -0.1761
      16    H10     21.343629   17.591623   23.344041 H          1 MOL1         0.0832
      17    H11     19.703661   17.437871   23.940941 H          1 MOL1         0.0832
      18    C7      19.820514   18.082646   21.884521 C.3        1 MOL1        -0.1685
      19    H12     20.082167   17.120775   21.422741 H          1 MOL1         0.0832
      20    H13     18.722499   18.112581   21.899050 H          1 MOL1         0.0832
      21    O1      20.569347   19.250041   25.425876 O.3        1 MOL1        -0.5509
      22    H14     19.696520   18.889063   25.684959 H          1 MOL1         0.3779
@<TRIPOS>BOND
    1     1     2    1
    2     1     3    1
    3     1     4    1
    4     4     5    1
    5     4     6    1
    6     4     7    1
    7     7     8    1
    8     7     9    1
    9     7    10    1
   10    10    11    1
   11    10    12    1
   12    10    13    1
   13    13    14    1
   14    13    15    1
   15    15    16    1
   16    15    17    1
   17     1    18    1
   18    15    18    1
   19    18    19    1
   20    18    20    1
   21    13    21    1
   22    21    22    1
@<TRIPOS>SUBSTRUCTURE
       1 MOL1            1 RESIDUE      1      MOL     
@<SCITEGIC>MOL_PROPERTY
VM2 Rank
SciTegic.value.IntegerValue
12

@<SCITEGIC>MOL_PROPERTY
Conf_Id
SciTegic.value.IntegerValue
988

@<SCITEGIC>MOL_PROPERTY
Probability
SciTegic.value.DoubleValue
4.06

@<SCITEGIC>MOL_PROPERTY
Sum Probability
SciTegic.value.DoubleValue
62.83

@<SCITEGIC>MOL_PROPERTY
Delta G
SciTegic.value.DoubleValue
0.372

@<SCITEGIC>MOL_PROPERTY
G
SciTegic.value.DoubleValue
47.735

@<SCITEGIC>MOL_PROPERTY
E
SciTegic.value.DoubleValue
21.108

@<SCITEGIC>MOL_PROPERTY
-TS
SciTegic.value.DoubleValue
26.627

@<SCITEGIC>MOL_PROPERTY
U+W
SciTegic.value.DoubleValue
3.223

@<SCITEGIC>MOL_PROPERTY
U
SciTegic.value.DoubleValue
5.233

@<SCITEGIC>MOL_PROPERTY
W
SciTegic.value.DoubleValue
-2.010

@<SCITEGIC>MOL_PROPERTY
W(PB)
SciTegic.value.DoubleValue
-4.024

@<SCITEGIC>MOL_PROPERTY
W(SA)
SciTegic.value.DoubleValue
2.014

@<SCITEGIC>MOL_PROPERTY
Valence
SciTegic.value.DoubleValue
12.274

@<SCITEGIC>MOL_PROPERTY
Coulomb
SciTegic.value.DoubleValue
-9.233

@<SCITEGIC>MOL_PROPERTY
VdW
SciTegic.value.DoubleValue
2.191

@<SCITEGIC>MOL_PROPERTY
VdW6
SciTegic.value.DoubleValue
-8.952

@<SCITEGIC>MOL_PROPERTY
VdW12
SciTegic.value.DoubleValue
11.143

@<SCITEGIC>MOL_PROPERTY
Bond
SciTegic.value.DoubleValue
0.217

@<SCITEGIC>MOL_PROPERTY
Angle
SciTegic.value.DoubleValue
2.514

@<SCITEGIC>MOL_PROPERTY
Pdih
SciTegic.value.DoubleValue
9.543

@<SCITEGIC>MOL_PROPERTY
Idih
SciTegic.value.DoubleValue
0.000

@<SCITEGIC>MOL_PROPERTY
Tether
SciTegic.value.DoubleValue
0.000

@<TRIPOS>MOLECULE
guest-5_vm2.mol2 : vm2 ligand conformer 13
          22          22           1
SMALL
USER_CHARGES
 
@<TRIPOS>ATOM
       1    C1      19.578681   19.118769   21.016288 C.3        1 MOL1        -0.1685
       2    H1      19.644994   18.865539   19.949345 H          1 MOL1         0.0832
       3    H2      18.513653   19.055909   21.277911 H          1 MOL1         0.0832
       4    C2      20.106959   20.560807   21.199383 C.3        1 MOL1        -0.1685
       5    H3      21.203984   20.544027   21.254414 H          1 MOL1         0.0832
       6    H4      19.867879   21.143788   20.299398 H          1 MOL1         0.0832
       7    C3      19.537091   21.318195   22.423124 C.3        1 MOL1        -0.1685
       8    H5      18.566724   21.756253   22.152186 H          1 MOL1         0.0832
       9    H6      20.198617   22.168692   22.637737 H          1 MOL1         0.0832
      10    C4      19.347081   20.488466   23.716795 C.3        1 MOL1        -0.1761
      11    H7      19.266272   21.190832   24.557404 H          1 MOL1         0.0832
      12    H8      18.382689   19.966161   23.671628 H          1 MOL1         0.0832
      13    C5      20.468862   19.465790   24.005465 C.3        1 MOL1         0.1218
      14    H9      21.431985   19.868698   23.661187 H          1 MOL1         0.0789
      15    C6      20.209899   18.097292   23.335295 C.3        1 MOL1        -0.1761
      16    H10     20.889612   17.355698   23.775930 H          1 MOL1         0.0832
      17    H11     19.193924   17.758059   23.575716 H          1 MOL1         0.0832
      18    C7      20.403695   18.070308   21.800555 C.3        1 MOL1        -0.1685
      19    H12     21.469680   18.195180   21.566016 H          1 MOL1         0.0832
      20    H13     20.132979   17.069236   21.438124 H          1 MOL1         0.0832
      21    O1      20.533732   19.258374   25.410095 O.3        1 MOL1        -0.5509
      22    H14     19.661392   18.902659   25.677764 H          1 MOL1         0.3779
@<TRIPOS>BOND
    1     1     2    1
    2     1     3    1
    3     1     4    1
    4     4     5    1
    5     4     6    1
    6     4     7    1
    7     7     8    1
    8     7     9    1
    9     7    10    1
   10    10    11    1
   11    10    12    1
   12    10    13    1
   13    13    14    1
   14    13    15    1
   15    15    16    1
   16    15    17    1
   17     1    18    1
   18    15    18    1
   19    18    19    1
   20    18    20    1
   21    13    21    1
   22    21    22    1
@<TRIPOS>SUBSTRUCTURE
       1 MOL1            1 RESIDUE      1      MOL     
@<SCITEGIC>MOL_PROPERTY
VM2 Rank
SciTegic.value.IntegerValue
13

@<SCITEGIC>MOL_PROPERTY
Conf_Id
SciTegic.value.IntegerValue
222

@<SCITEGIC>MOL_PROPERTY
Probability
SciTegic.value.DoubleValue
3.85

@<SCITEGIC>MOL_PROPERTY
Sum Probability
SciTegic.value.DoubleValue
66.68

@<SCITEGIC>MOL_PROPERTY
Delta G
SciTegic.value.DoubleValue
0.403

@<SCITEGIC>MOL_PROPERTY
G
SciTegic.value.DoubleValue
47.766

@<SCITEGIC>MOL_PROPERTY
E
SciTegic.value.DoubleValue
21.133

@<SCITEGIC>MOL_PROPERTY
-TS
SciTegic.value.DoubleValue
26.633

@<SCITEGIC>MOL_PROPERTY
U+W
SciTegic.value.DoubleValue
3.248

@<SCITEGIC>MOL_PROPERTY
U
SciTegic.value.DoubleValue
5.336

@<SCITEGIC>MOL_PROPERTY
W
SciTegic.value.DoubleValue
-2.088

@<SCITEGIC>MOL_PROPERTY
W(PB)
SciTegic.value.DoubleValue
-4.098

@<SCITEGIC>MOL_PROPERTY
W(SA)
SciTegic.value.DoubleValue
2.010

@<SCITEGIC>MOL_PROPERTY
Valence
SciTegic.value.DoubleValue
12.390

@<SCITEGIC>MOL_PROPERTY
Coulomb
SciTegic.value.DoubleValue
-9.270

@<SCITEGIC>MOL_PROPERTY
VdW
SciTegic.value.DoubleValue
2.216

@<SCITEGIC>MOL_PROPERTY
VdW6
SciTegic.value.DoubleValue
-8.967

@<SCITEGIC>MOL_PROPERTY
VdW12
SciTegic.value.DoubleValue
11.183

@<SCITEGIC>MOL_PROPERTY
Bond
SciTegic.value.DoubleValue
0.218

@<SCITEGIC>MOL_PROPERTY
Angle
SciTegic.value.DoubleValue
2.427

@<SCITEGIC>MOL_PROPERTY
Pdih
SciTegic.value.DoubleValue
9.745

@<SCITEGIC>MOL_PROPERTY
Idih
SciTegic.value.DoubleValue
0.000

@<SCITEGIC>MOL_PROPERTY
Tether
SciTegic.value.DoubleValue
0.000

@<TRIPOS>MOLECULE
guest-5_vm2.mol2 : vm2 ligand conformer 14
          22          22           1
SMALL
USER_CHARGES
 
@<TRIPOS>ATOM
       1    C1      19.691982   18.984079   20.945598 C.3        1 MOL1        -0.1685
       2    H1      20.403320   18.752605   20.141006 H          1 MOL1         0.0832
       3    H2      18.699629   18.737231   20.544032 H          1 MOL1         0.0832
       4    C2      19.758234   20.504850   21.221131 C.3        1 MOL1        -0.1685
       5    H3      20.797771   20.848515   21.132207 H          1 MOL1         0.0832
       6    H4      19.210500   21.018304   20.419082 H          1 MOL1         0.0832
       7    C3      19.183110   20.950236   22.584881 C.3        1 MOL1        -0.1685
       8    H5      18.292375   20.363780   22.846033 H          1 MOL1         0.0832
       9    H6      18.841691   21.989560   22.485013 H          1 MOL1         0.0832
      10    C4      20.237925   20.910726   23.719742 C.3        1 MOL1        -0.1761
      11    H7      21.135951   21.452251   23.395365 H          1 MOL1         0.0832
      12    H8      19.851416   21.474013   24.579534 H          1 MOL1         0.0832
      13    C5      20.657245   19.508943   24.214465 C.3        1 MOL1         0.1218
      14    H9      21.516623   19.648768   24.885856 H          1 MOL1         0.0789
      15    C6      21.095954   18.520361   23.105722 C.3        1 MOL1        -0.1761
      16    H10     21.925169   18.950695   22.529489 H          1 MOL1         0.0832
      17    H11     21.509707   17.635144   23.606197 H          1 MOL1         0.0832
      18    C7      19.970604   18.049202   22.146760 C.3        1 MOL1        -0.1685
      19    H12     20.244871   17.064180   21.745170 H          1 MOL1         0.0832
      20    H13     19.040138   17.880011   22.702456 H          1 MOL1         0.0832
      21    O1      19.590946   18.949603   24.968700 O.3        1 MOL1        -0.5509
      22    H14     18.838787   18.891472   24.346923 H          1 MOL1         0.3779
@<TRIPOS>BOND
    1     1     2    1
    2     1     3    1
    3     1     4    1
    4     4     5    1
    5     4     6    1
    6     4     7    1
    7     7     8    1
    8     7     9    1
    9     7    10    1
   10    10    11    1
   11    10    12    1
   12    10    13    1
   13    13    14    1
   14    13    15    1
   15    15    16    1
   16    15    17    1
   17     1    18    1
   18    15    18    1
   19    18    19    1
   20    18    20    1
   21    13    21    1
   22    21    22    1
@<TRIPOS>SUBSTRUCTURE
       1 MOL1            1 RESIDUE      1      MOL     
@<SCITEGIC>MOL_PROPERTY
VM2 Rank
SciTegic.value.IntegerValue
14

@<SCITEGIC>MOL_PROPERTY
Conf_Id
SciTegic.value.IntegerValue
1290

@<SCITEGIC>MOL_PROPERTY
Probability
SciTegic.value.DoubleValue
3.75

@<SCITEGIC>MOL_PROPERTY
Sum Probability
SciTegic.value.DoubleValue
70.43

@<SCITEGIC>MOL_PROPERTY
Delta G
SciTegic.value.DoubleValue
0.420

@<SCITEGIC>MOL_PROPERTY
G
SciTegic.value.DoubleValue
47.783

@<SCITEGIC>MOL_PROPERTY
E
SciTegic.value.DoubleValue
21.066

@<SCITEGIC>MOL_PROPERTY
-TS
SciTegic.value.DoubleValue
26.717

@<SCITEGIC>MOL_PROPERTY
U+W
SciTegic.value.DoubleValue
3.181

@<SCITEGIC>MOL_PROPERTY
U
SciTegic.value.DoubleValue
4.701

@<SCITEGIC>MOL_PROPERTY
W
SciTegic.value.DoubleValue
-1.520

@<SCITEGIC>MOL_PROPERTY
W(PB)
SciTegic.value.DoubleValue
-3.523

@<SCITEGIC>MOL_PROPERTY
W(SA)
SciTegic.value.DoubleValue
2.003

@<SCITEGIC>MOL_PROPERTY
Valence
SciTegic.value.DoubleValue
12.586

@<SCITEGIC>MOL_PROPERTY
Coulomb
SciTegic.value.DoubleValue
-9.999

@<SCITEGIC>MOL_PROPERTY
VdW
SciTegic.value.DoubleValue
2.114

@<SCITEGIC>MOL_PROPERTY
VdW6
SciTegic.value.DoubleValue
-9.790

@<SCITEGIC>MOL_PROPERTY
VdW12
SciTegic.value.DoubleValue
11.904

@<SCITEGIC>MOL_PROPERTY
Bond
SciTegic.value.DoubleValue
0.257

@<SCITEGIC>MOL_PROPERTY
Angle
SciTegic.value.DoubleValue
3.349

@<SCITEGIC>MOL_PROPERTY
Pdih
SciTegic.value.DoubleValue
8.980

@<SCITEGIC>MOL_PROPERTY
Idih
SciTegic.value.DoubleValue
0.000

@<SCITEGIC>MOL_PROPERTY
Tether
SciTegic.value.DoubleValue
0.000

@<TRIPOS>MOLECULE
guest-5_vm2.mol2 : vm2 ligand conformer 15
          22          22           1
SMALL
USER_CHARGES
 
@<TRIPOS>ATOM
       1    C1      19.669125   19.024042   20.919871 C.3        1 MOL1        -0.1685
       2    H1      19.933209   18.884578   19.862729 H          1 MOL1         0.0832
       3    H2      18.706351   18.513329   21.057828 H          1 MOL1         0.0832
       4    C2      19.487076   20.537575   21.175608 C.3        1 MOL1        -0.1685
       5    H3      20.382488   21.075241   20.835237 H          1 MOL1         0.0832
       6    H4      18.664207   20.895490   20.541964 H          1 MOL1         0.0832
       7    C3      19.181693   20.921572   22.642976 C.3        1 MOL1        -0.1685
       8    H5      18.328764   20.346715   23.029202 H          1 MOL1         0.0832
       9    H6      18.871188   21.975080   22.656545 H          1 MOL1         0.0832
      10    C4      20.410813   20.770270   23.572053 C.3        1 MOL1        -0.1761
      11    H7      21.318903   21.047948   23.021569 H          1 MOL1         0.0832
      12    H8      20.332184   21.503893   24.385006 H          1 MOL1         0.0832
      13    C5      20.607823   19.367327   24.194162 C.3        1 MOL1         0.1218
      14    H9      21.659656   19.296981   24.507075 H          1 MOL1         0.0789
      15    C6      20.307421   18.166757   23.267140 C.3        1 MOL1        -0.1761
      16    H10     20.818824   17.291274   23.687533 H          1 MOL1         0.0832
      17    H11     19.235898   17.929176   23.303319 H          1 MOL1         0.0832
      18    C7      20.746174   18.336033   21.792097 C.3        1 MOL1        -0.1685
      19    H12     21.703792   18.870031   21.726128 H          1 MOL1         0.0832
      20    H13     20.925444   17.336063   21.374183 H          1 MOL1         0.0832
      21    O1      19.775876   19.254423   25.343092 O.3        1 MOL1        -0.5509
      22    H14     19.999405   20.007006   25.928904 H          1 MOL1         0.3779
@<TRIPOS>BOND
    1     1     2    1
    2     1     3    1
    3     1     4    1
    4     4     5    1
    5     4     6    1
    6     4     7    1
    7     7     8    1
    8     7     9    1
    9     7    10    1
   10    10    11    1
   11    10    12    1
   12    10    13    1
   13    13    14    1
   14    13    15    1
   15    15    16    1
   16    15    17    1
   17     1    18    1
   18    15    18    1
   19    18    19    1
   20    18    20    1
   21    13    21    1
   22    21    22    1
@<TRIPOS>SUBSTRUCTURE
       1 MOL1            1 RESIDUE      1      MOL     
@<SCITEGIC>MOL_PROPERTY
VM2 Rank
SciTegic.value.IntegerValue
15

@<SCITEGIC>MOL_PROPERTY
Conf_Id
SciTegic.value.IntegerValue
943

@<SCITEGIC>MOL_PROPERTY
Probability
SciTegic.value.DoubleValue
3.71

@<SCITEGIC>MOL_PROPERTY
Sum Probability
SciTegic.value.DoubleValue
74.14

@<SCITEGIC>MOL_PROPERTY
Delta G
SciTegic.value.DoubleValue
0.427

@<SCITEGIC>MOL_PROPERTY
G
SciTegic.value.DoubleValue
47.790

@<SCITEGIC>MOL_PROPERTY
E
SciTegic.value.DoubleValue
21.138

@<SCITEGIC>MOL_PROPERTY
-TS
SciTegic.value.DoubleValue
26.651

@<SCITEGIC>MOL_PROPERTY
U+W
SciTegic.value.DoubleValue
3.254

@<SCITEGIC>MOL_PROPERTY
U
SciTegic.value.DoubleValue
5.651

@<SCITEGIC>MOL_PROPERTY
W
SciTegic.value.DoubleValue
-2.397

@<SCITEGIC>MOL_PROPERTY
W(PB)
SciTegic.value.DoubleValue
-4.407

@<SCITEGIC>MOL_PROPERTY
W(SA)
SciTegic.value.DoubleValue
2.010

@<SCITEGIC>MOL_PROPERTY
Valence
SciTegic.value.DoubleValue
11.811

@<SCITEGIC>MOL_PROPERTY
Coulomb
SciTegic.value.DoubleValue
-8.308

@<SCITEGIC>MOL_PROPERTY
VdW
SciTegic.value.DoubleValue
2.148

@<SCITEGIC>MOL_PROPERTY
VdW6
SciTegic.value.DoubleValue
-9.144

@<SCITEGIC>MOL_PROPERTY
VdW12
SciTegic.value.DoubleValue
11.291

@<SCITEGIC>MOL_PROPERTY
Bond
SciTegic.value.DoubleValue
0.225

@<SCITEGIC>MOL_PROPERTY
Angle
SciTegic.value.DoubleValue
2.646

@<SCITEGIC>MOL_PROPERTY
Pdih
SciTegic.value.DoubleValue
8.941

@<SCITEGIC>MOL_PROPERTY
Idih
SciTegic.value.DoubleValue
0.000

@<SCITEGIC>MOL_PROPERTY
Tether
SciTegic.value.DoubleValue
0.000

@<TRIPOS>MOLECULE
guest-5_vm2.mol2 : vm2 ligand conformer 16
          22          22           1
SMALL
USER_CHARGES
 
@<TRIPOS>ATOM
       1    C1      19.880452   19.048620   20.901810 C.3        1 MOL1        -0.1685
       2    H1      20.890093   19.153877   20.481994 H          1 MOL1         0.0832
       3    H2      19.277192   18.575202   20.115252 H          1 MOL1         0.0832
       4    C2      19.292536   20.450435   21.182149 C.3        1 MOL1        -0.1685
       5    H3      19.363429   21.042415   20.259503 H          1 MOL1         0.0832
       6    H4      18.219165   20.358491   21.397122 H          1 MOL1         0.0832
       7    C3      19.980907   21.234159   22.324992 C.3        1 MOL1        -0.1685
       8    H5      19.622176   22.271541   22.281655 H          1 MOL1         0.0832
       9    H6      21.067266   21.280653   22.169428 H          1 MOL1         0.0832
      10    C4      19.646328   20.670178   23.727453 C.3        1 MOL1        -0.1761
      11    H7      19.711141   21.486037   24.458826 H          1 MOL1         0.0832
      12    H8      18.599679   20.338387   23.746269 H          1 MOL1         0.0832
      13    C5      20.564812   19.529680   24.224086 C.3        1 MOL1         0.1218
      14    H9      21.477526   19.985891   24.634015 H          1 MOL1         0.0789
      15    C6      21.009548   18.503111   23.155236 C.3        1 MOL1        -0.1761
      16    H10     21.887333   18.895674   22.625943 H          1 MOL1         0.0832
      17    H11     21.363532   17.598624   23.666979 H          1 MOL1         0.0832
      18    C7      19.926526   18.101520   22.124412 C.3        1 MOL1        -0.1685
      19    H12     20.160738   17.092603   21.758752 H          1 MOL1         0.0832
      20    H13     18.940224   18.031535   22.603401 H          1 MOL1         0.0832
      21    O1      19.884890   18.840296   25.266861 O.3        1 MOL1        -0.5509
      22    H14     20.491808   18.140630   25.585671 H          1 MOL1         0.3779
@<TRIPOS>BOND
    1     1     2    1
    2     1     3    1
    3     1     4    1
    4     4     5    1
    5     4     6    1
    6     4     7    1
    7     7     8    1
    8     7     9    1
    9     7    10    1
   10    10    11    1
   11    10    12    1
   12    10    13    1
   13    13    14    1
   14    13    15    1
   15    15    16    1
   16    15    17    1
   17     1    18    1
   18    15    18    1
   19    18    19    1
   20    18    20    1
   21    13    21    1
   22    21    22    1
@<TRIPOS>SUBSTRUCTURE
       1 MOL1            1 RESIDUE      1      MOL     
@<SCITEGIC>MOL_PROPERTY
VM2 Rank
SciTegic.value.IntegerValue
16

@<SCITEGIC>MOL_PROPERTY
Conf_Id
SciTegic.value.IntegerValue
330

@<SCITEGIC>MOL_PROPERTY
Probability
SciTegic.value.DoubleValue
3.52

@<SCITEGIC>MOL_PROPERTY
Sum Probability
SciTegic.value.DoubleValue
77.66

@<SCITEGIC>MOL_PROPERTY
Delta G
SciTegic.value.DoubleValue
0.458

@<SCITEGIC>MOL_PROPERTY
G
SciTegic.value.DoubleValue
47.821

@<SCITEGIC>MOL_PROPERTY
E
SciTegic.value.DoubleValue
21.169

@<SCITEGIC>MOL_PROPERTY
-TS
SciTegic.value.DoubleValue
26.651

@<SCITEGIC>MOL_PROPERTY
U+W
SciTegic.value.DoubleValue
3.284

@<SCITEGIC>MOL_PROPERTY
U
SciTegic.value.DoubleValue
5.651

@<SCITEGIC>MOL_PROPERTY
W
SciTegic.value.DoubleValue
-2.366

@<SCITEGIC>MOL_PROPERTY
W(PB)
SciTegic.value.DoubleValue
-4.373

@<SCITEGIC>MOL_PROPERTY
W(SA)
SciTegic.value.DoubleValue
2.007

@<SCITEGIC>MOL_PROPERTY
Valence
SciTegic.value.DoubleValue
11.811

@<SCITEGIC>MOL_PROPERTY
Coulomb
SciTegic.value.DoubleValue
-8.308

@<SCITEGIC>MOL_PROPERTY
VdW
SciTegic.value.DoubleValue
2.148

@<SCITEGIC>MOL_PROPERTY
VdW6
SciTegic.value.DoubleValue
-9.144

@<SCITEGIC>MOL_PROPERTY
VdW12
SciTegic.value.DoubleValue
11.291

@<SCITEGIC>MOL_PROPERTY
Bond
SciTegic.value.DoubleValue
0.225

@<SCITEGIC>MOL_PROPERTY
Angle
SciTegic.value.DoubleValue
2.646

@<SCITEGIC>MOL_PROPERTY
Pdih
SciTegic.value.DoubleValue
8.941

@<SCITEGIC>MOL_PROPERTY
Idih
SciTegic.value.DoubleValue
0.000

@<SCITEGIC>MOL_PROPERTY
Tether
SciTegic.value.DoubleValue
0.000

@<TRIPOS>MOLECULE
guest-5_vm2.mol2 : vm2 ligand conformer 17
          22          22           1
SMALL
USER_CHARGES
 
@<TRIPOS>ATOM
       1    C1      19.886478   19.051842   20.899516 C.3        1 MOL1        -0.1685
       2    H1      20.899451   19.157219   20.487851 H          1 MOL1         0.0832
       3    H2      19.289014   18.580290   20.107436 H          1 MOL1         0.0832
       4    C2      19.297100   20.453283   21.177946 C.3        1 MOL1        -0.1685
       5    H3      19.374758   21.046903   20.256893 H          1 MOL1         0.0832
       6    H4      18.222207   20.361480   21.385239 H          1 MOL1         0.0832
       7    C3      19.978204   21.234151   22.326838 C.3        1 MOL1        -0.1685
       8    H5      19.618247   22.271197   22.284887 H          1 MOL1         0.0832
       9    H6      21.065286   21.282473   22.176589 H          1 MOL1         0.0832
      10    C4      19.638096   20.664724   23.725534 C.3        1 MOL1        -0.1761
      11    H7      19.692692   21.481962   24.456342 H          1 MOL1         0.0832
      12    H8      18.593756   20.324898   23.734718 H          1 MOL1         0.0832
      13    C5      20.564153   19.530226   24.222151 C.3        1 MOL1         0.1218
      14    H9      21.480500   19.989845   24.619979 H          1 MOL1         0.0789
      15    C6      21.002196   18.496082   23.158122 C.3        1 MOL1        -0.1761
      16    H10     21.890032   18.873642   22.635076 H          1 MOL1         0.0832
      17    H11     21.337235   17.590433   23.681101 H          1 MOL1         0.0832
      18    C7      19.922362   18.102426   22.120659 C.3        1 MOL1        -0.1685
      19    H12     20.154175   17.093171   21.754527 H          1 MOL1         0.0832
      20    H13     18.933856   18.035089   22.595294 H          1 MOL1         0.0832
      21    O1      19.897411   18.845265   25.276235 O.3        1 MOL1        -0.5509
      22    H14     19.673882   19.517953   25.952652 H          1 MOL1         0.3779
@<TRIPOS>BOND
    1     1     2    1
    2     1     3    1
    3     1     4    1
    4     4     5    1
    5     4     6    1
    6     4     7    1
    7     7     8    1
    8     7     9    1
    9     7    10    1
   10    10    11    1
   11    10    12    1
   12    10    13    1
   13    13    14    1
   14    13    15    1
   15    15    16    1
   16    15    17    1
   17     1    18    1
   18    15    18    1
   19    18    19    1
   20    18    20    1
   21    13    21    1
   22    21    22    1
@<TRIPOS>SUBSTRUCTURE
       1 MOL1            1 RESIDUE      1      MOL     
@<SCITEGIC>MOL_PROPERTY
VM2 Rank
SciTegic.value.IntegerValue
17

@<SCITEGIC>MOL_PROPERTY
Conf_Id
SciTegic.value.IntegerValue
871

@<SCITEGIC>MOL_PROPERTY
Probability
SciTegic.value.DoubleValue
3.41

@<SCITEGIC>MOL_PROPERTY
Sum Probability
SciTegic.value.DoubleValue
81.07

@<SCITEGIC>MOL_PROPERTY
Delta G
SciTegic.value.DoubleValue
0.476

@<SCITEGIC>MOL_PROPERTY
G
SciTegic.value.DoubleValue
47.838

@<SCITEGIC>MOL_PROPERTY
E
SciTegic.value.DoubleValue
21.157

@<SCITEGIC>MOL_PROPERTY
-TS
SciTegic.value.DoubleValue
26.682

@<SCITEGIC>MOL_PROPERTY
U+W
SciTegic.value.DoubleValue
3.272

@<SCITEGIC>MOL_PROPERTY
U
SciTegic.value.DoubleValue
5.679

@<SCITEGIC>MOL_PROPERTY
W
SciTegic.value.DoubleValue
-2.407

@<SCITEGIC>MOL_PROPERTY
W(PB)
SciTegic.value.DoubleValue
-4.420

@<SCITEGIC>MOL_PROPERTY
W(SA)
SciTegic.value.DoubleValue
2.013

@<SCITEGIC>MOL_PROPERTY
Valence
SciTegic.value.DoubleValue
11.807

@<SCITEGIC>MOL_PROPERTY
Coulomb
SciTegic.value.DoubleValue
-8.278

@<SCITEGIC>MOL_PROPERTY
VdW
SciTegic.value.DoubleValue
2.149

@<SCITEGIC>MOL_PROPERTY
VdW6
SciTegic.value.DoubleValue
-9.114

@<SCITEGIC>MOL_PROPERTY
VdW12
SciTegic.value.DoubleValue
11.263

@<SCITEGIC>MOL_PROPERTY
Bond
SciTegic.value.DoubleValue
0.224

@<SCITEGIC>MOL_PROPERTY
Angle
SciTegic.value.DoubleValue
2.649

@<SCITEGIC>MOL_PROPERTY
Pdih
SciTegic.value.DoubleValue
8.934

@<SCITEGIC>MOL_PROPERTY
Idih
SciTegic.value.DoubleValue
0.000

@<SCITEGIC>MOL_PROPERTY
Tether
SciTegic.value.DoubleValue
0.000

@<TRIPOS>MOLECULE
guest-5_vm2.mol2 : vm2 ligand conformer 18
          22          22           1
SMALL
USER_CHARGES
 
@<TRIPOS>ATOM
       1    C1      19.674235   19.026012   20.915225 C.3        1 MOL1        -0.1685
       2    H1      19.945268   18.887807   19.859671 H          1 MOL1         0.0832
       3    H2      18.709003   18.517929   21.045496 H          1 MOL1         0.0832
       4    C2      19.495213   20.539442   21.172929 C.3        1 MOL1        -0.1685
       5    H3      20.394937   21.075061   20.840826 H          1 MOL1         0.0832
       6    H4      18.678362   20.901357   20.533798 H          1 MOL1         0.0832
       7    C3      19.179617   20.920980   22.638771 C.3        1 MOL1        -0.1685
       8    H5      18.324951   20.345147   23.019456 H          1 MOL1         0.0832
       9    H6      18.867865   21.974083   22.651898 H          1 MOL1         0.0832
      10    C4      20.402296   20.770970   23.576796 C.3        1 MOL1        -0.1761
      11    H7      21.313012   21.062669   23.038383 H          1 MOL1         0.0832
      12    H8      20.308064   21.492711   24.399091 H          1 MOL1         0.0832
      13    C5      20.606665   19.366383   24.192314 C.3        1 MOL1         0.1218
      14    H9      21.662013   19.297974   24.493595 H          1 MOL1         0.0789
      15    C6      20.296125   18.167506   23.266273 C.3        1 MOL1        -0.1761
      16    H10     20.798383   17.285715   23.684749 H          1 MOL1         0.0832
      17    H11     19.221740   17.941605   23.295901 H          1 MOL1         0.0832
      18    C7      20.743230   18.333686   21.793602 C.3        1 MOL1        -0.1685
      19    H12     21.703314   18.863929   21.732476 H          1 MOL1         0.0832
      20    H13     20.920623   17.332876   21.376825 H          1 MOL1         0.0832
      21    O1      19.788619   19.253022   25.351090 O.3        1 MOL1        -0.5509
      22    H14     19.973802   18.373918   25.742113 H          1 MOL1         0.3779
@<TRIPOS>BOND
    1     1     2    1
    2     1     3    1
    3     1     4    1
    4     4     5    1
    5     4     6    1
    6     4     7    1
    7     7     8    1
    8     7     9    1
    9     7    10    1
   10    10    11    1
   11    10    12    1
   12    10    13    1
   13    13    14    1
   14    13    15    1
   15    15    16    1
   16    15    17    1
   17     1    18    1
   18    15    18    1
   19    18    19    1
   20    18    20    1
   21    13    21    1
   22    21    22    1
@<TRIPOS>SUBSTRUCTURE
       1 MOL1            1 RESIDUE      1      MOL     
@<SCITEGIC>MOL_PROPERTY
VM2 Rank
SciTegic.value.IntegerValue
18

@<SCITEGIC>MOL_PROPERTY
Conf_Id
SciTegic.value.IntegerValue
846

@<SCITEGIC>MOL_PROPERTY
Probability
SciTegic.value.DoubleValue
3.38

@<SCITEGIC>MOL_PROPERTY
Sum Probability
SciTegic.value.DoubleValue
84.45

@<SCITEGIC>MOL_PROPERTY
Delta G
SciTegic.value.DoubleValue
0.481

@<SCITEGIC>MOL_PROPERTY
G
SciTegic.value.DoubleValue
47.844

@<SCITEGIC>MOL_PROPERTY
E
SciTegic.value.DoubleValue
21.162

@<SCITEGIC>MOL_PROPERTY
-TS
SciTegic.value.DoubleValue
26.682

@<SCITEGIC>MOL_PROPERTY
U+W
SciTegic.value.DoubleValue
3.277

@<SCITEGIC>MOL_PROPERTY
U
SciTegic.value.DoubleValue
5.678

@<SCITEGIC>MOL_PROPERTY
W
SciTegic.value.DoubleValue
-2.401

@<SCITEGIC>MOL_PROPERTY
W(PB)
SciTegic.value.DoubleValue
-4.416

@<SCITEGIC>MOL_PROPERTY
W(SA)
SciTegic.value.DoubleValue
2.015

@<SCITEGIC>MOL_PROPERTY
Valence
SciTegic.value.DoubleValue
11.807

@<SCITEGIC>MOL_PROPERTY
Coulomb
SciTegic.value.DoubleValue
-8.278

@<SCITEGIC>MOL_PROPERTY
VdW
SciTegic.value.DoubleValue
2.150

@<SCITEGIC>MOL_PROPERTY
VdW6
SciTegic.value.DoubleValue
-9.114

@<SCITEGIC>MOL_PROPERTY
VdW12
SciTegic.value.DoubleValue
11.264

@<SCITEGIC>MOL_PROPERTY
Bond
SciTegic.value.DoubleValue
0.224

@<SCITEGIC>MOL_PROPERTY
Angle
SciTegic.value.DoubleValue
2.649

@<SCITEGIC>MOL_PROPERTY
Pdih
SciTegic.value.DoubleValue
8.934

@<SCITEGIC>MOL_PROPERTY
Idih
SciTegic.value.DoubleValue
0.000

@<SCITEGIC>MOL_PROPERTY
Tether
SciTegic.value.DoubleValue
0.000

@<TRIPOS>MOLECULE
guest-5_vm2.mol2 : vm2 ligand conformer 19
          22          22           1
SMALL
USER_CHARGES
 
@<TRIPOS>ATOM
       1    C1      19.880174   19.081794   20.794034 C.3        1 MOL1        -0.1685
       2    H1      19.125624   18.410417   20.361794 H          1 MOL1         0.0832
       3    H2      20.542007   19.359826   19.962409 H          1 MOL1         0.0832
       4    C2      19.156660   20.350166   21.307241 C.3        1 MOL1        -0.1685
       5    H3      18.194443   20.068109   21.755950 H          1 MOL1         0.0832
       6    H4      18.903738   20.971246   20.437073 H          1 MOL1         0.0832
       7    C3      19.963240   21.202669   22.313709 C.3        1 MOL1        -0.1685
       8    H5      19.607051   22.239472   22.243223 H          1 MOL1         0.0832
       9    H6      21.027122   21.226558   22.041110 H          1 MOL1         0.0832
      10    C4      19.777346   20.738868   23.779804 C.3        1 MOL1        -0.1761
      11    H7      20.169321   21.523171   24.440276 H          1 MOL1         0.0832
      12    H8      18.704970   20.661476   24.003442 H          1 MOL1         0.0832
      13    C5      20.473094   19.410097   24.146137 C.3        1 MOL1         0.1218
      14    H9      21.560792   19.557839   24.082678 H          1 MOL1         0.0789
      15    C6      20.093642   18.212194   23.247066 C.3        1 MOL1        -0.1761
      16    H10     20.468711   17.299638   23.728999 H          1 MOL1         0.0832
      17    H11     19.003076   18.102614   23.188263 H          1 MOL1         0.0832
      18    C7      20.716124   18.295748   21.832664 C.3        1 MOL1        -0.1685
      19    H12     21.721381   18.733296   21.901920 H          1 MOL1         0.0832
      20    H13     20.864712   17.277516   21.447999 H          1 MOL1         0.0832
      21    O1      20.125721   19.086464   25.486346 O.3        1 MOL1        -0.5509
      22    H14     20.418827   19.837473   26.043694 H          1 MOL1         0.3779
@<TRIPOS>BOND
    1     1     2    1
    2     1     3    1
    3     1     4    1
    4     4     5    1
    5     4     6    1
    6     4     7    1
    7     7     8    1
    8     7     9    1
    9     7    10    1
   10    10    11    1
   11    10    12    1
   12    10    13    1
   13    13    14    1
   14    13    15    1
   15    15    16    1
   16    15    17    1
   17     1    18    1
   18    15    18    1
   19    18    19    1
   20    18    20    1
   21    13    21    1
   22    21    22    1
@<TRIPOS>SUBSTRUCTURE
       1 MOL1            1 RESIDUE      1      MOL     
@<SCITEGIC>MOL_PROPERTY
VM2 Rank
SciTegic.value.IntegerValue
19

@<SCITEGIC>MOL_PROPERTY
Conf_Id
SciTegic.value.IntegerValue
272

@<SCITEGIC>MOL_PROPERTY
Probability
SciTegic.value.DoubleValue
2.79

@<SCITEGIC>MOL_PROPERTY
Sum Probability
SciTegic.value.DoubleValue
87.25

@<SCITEGIC>MOL_PROPERTY
Delta G
SciTegic.value.DoubleValue
0.595

@<SCITEGIC>MOL_PROPERTY
G
SciTegic.value.DoubleValue
47.958

@<SCITEGIC>MOL_PROPERTY
E
SciTegic.value.DoubleValue
21.387

@<SCITEGIC>MOL_PROPERTY
-TS
SciTegic.value.DoubleValue
26.571

@<SCITEGIC>MOL_PROPERTY
U+W
SciTegic.value.DoubleValue
3.502

@<SCITEGIC>MOL_PROPERTY
U
SciTegic.value.DoubleValue
5.864

@<SCITEGIC>MOL_PROPERTY
W
SciTegic.value.DoubleValue
-2.362

@<SCITEGIC>MOL_PROPERTY
W(PB)
SciTegic.value.DoubleValue
-4.366

@<SCITEGIC>MOL_PROPERTY
W(SA)
SciTegic.value.DoubleValue
2.004

@<SCITEGIC>MOL_PROPERTY
Valence
SciTegic.value.DoubleValue
12.328

@<SCITEGIC>MOL_PROPERTY
Coulomb
SciTegic.value.DoubleValue
-8.532

@<SCITEGIC>MOL_PROPERTY
VdW
SciTegic.value.DoubleValue
2.068

@<SCITEGIC>MOL_PROPERTY
VdW6
SciTegic.value.DoubleValue
-8.866

@<SCITEGIC>MOL_PROPERTY
VdW12
SciTegic.value.DoubleValue
10.934

@<SCITEGIC>MOL_PROPERTY
Bond
SciTegic.value.DoubleValue
0.215

@<SCITEGIC>MOL_PROPERTY
Angle
SciTegic.value.DoubleValue
2.565

@<SCITEGIC>MOL_PROPERTY
Pdih
SciTegic.value.DoubleValue
9.548

@<SCITEGIC>MOL_PROPERTY
Idih
SciTegic.value.DoubleValue
0.000

@<SCITEGIC>MOL_PROPERTY
Tether
SciTegic.value.DoubleValue
0.000

@<TRIPOS>MOLECULE
guest-5_vm2.mol2 : vm2 ligand conformer 20
          22          22           1
SMALL
USER_CHARGES
 
@<TRIPOS>ATOM
       1    C1      19.880604   19.081812   20.794677 C.3        1 MOL1        -0.1685
       2    H1      20.542596   19.358876   19.962844 H          1 MOL1         0.0832
       3    H2      19.125747   18.410588   20.362715 H          1 MOL1         0.0832
       4    C2      19.157875   20.351253   21.306586 C.3        1 MOL1        -0.1685
       5    H3      18.907683   20.972585   20.435794 H          1 MOL1         0.0832
       6    H4      18.194170   20.070787   21.752999 H          1 MOL1         0.0832
       7    C3      19.963577   21.203088   22.314377 C.3        1 MOL1        -0.1685
       8    H5      19.608472   22.240262   22.243895 H          1 MOL1         0.0832
       9    H6      21.027948   21.226125   22.043575 H          1 MOL1         0.0832
      10    C4      19.775046   20.738523   23.779689 C.3        1 MOL1        -0.1761
      11    H7      20.170198   21.518785   24.443459 H          1 MOL1         0.0832
      12    H8      18.702260   20.666932   24.001625 H          1 MOL1         0.0832
      13    C5      20.470425   19.409550   24.145070 C.3        1 MOL1         0.1218
      14    H9      21.557645   19.559709   24.082072 H          1 MOL1         0.0789
      15    C6      20.092575   18.210211   23.246922 C.3        1 MOL1        -0.1761
      16    H10     20.470595   17.297898   23.727440 H          1 MOL1         0.0832
      17    H11     19.002614   18.097266   23.182729 H          1 MOL1         0.0832
      18    C7      20.716474   18.295865   21.833495 C.3        1 MOL1        -0.1685
      19    H12     21.721203   18.734523   21.904043 H          1 MOL1         0.0832
      20    H13     20.866747   17.278208   21.447891 H          1 MOL1         0.0832
      21    O1      20.129423   19.087699   25.486183 O.3        1 MOL1        -0.5509
      22    H14     19.160733   18.944435   25.498402 H          1 MOL1         0.3779
@<TRIPOS>BOND
    1     1     2    1
    2     1     3    1
    3     1     4    1
    4     4     5    1
    5     4     6    1
    6     4     7    1
    7     7     8    1
    8     7     9    1
    9     7    10    1
   10    10    11    1
   11    10    12    1
   12    10    13    1
   13    13    14    1
   14    13    15    1
   15    15    16    1
   16    15    17    1
   17     1    18    1
   18    15    18    1
   19    18    19    1
   20    18    20    1
   21    13    21    1
   22    21    22    1
@<TRIPOS>SUBSTRUCTURE
       1 MOL1            1 RESIDUE      1      MOL     
@<SCITEGIC>MOL_PROPERTY
VM2 Rank
SciTegic.value.IntegerValue
20

@<SCITEGIC>MOL_PROPERTY
Conf_Id
SciTegic.value.IntegerValue
613

@<SCITEGIC>MOL_PROPERTY
Probability
SciTegic.value.DoubleValue
2.68

@<SCITEGIC>MOL_PROPERTY
Sum Probability
SciTegic.value.DoubleValue
89.93

@<SCITEGIC>MOL_PROPERTY
Delta G
SciTegic.value.DoubleValue
0.619

@<SCITEGIC>MOL_PROPERTY
G
SciTegic.value.DoubleValue
47.982

@<SCITEGIC>MOL_PROPERTY
E
SciTegic.value.DoubleValue
21.426

@<SCITEGIC>MOL_PROPERTY
-TS
SciTegic.value.DoubleValue
26.556

@<SCITEGIC>MOL_PROPERTY
U+W
SciTegic.value.DoubleValue
3.541

@<SCITEGIC>MOL_PROPERTY
U
SciTegic.value.DoubleValue
5.491

@<SCITEGIC>MOL_PROPERTY
W
SciTegic.value.DoubleValue
-1.950

@<SCITEGIC>MOL_PROPERTY
W(PB)
SciTegic.value.DoubleValue
-3.950

@<SCITEGIC>MOL_PROPERTY
W(SA)
SciTegic.value.DoubleValue
2.000

@<SCITEGIC>MOL_PROPERTY
Valence
SciTegic.value.DoubleValue
12.680

@<SCITEGIC>MOL_PROPERTY
Coulomb
SciTegic.value.DoubleValue
-9.215

@<SCITEGIC>MOL_PROPERTY
VdW
SciTegic.value.DoubleValue
2.026

@<SCITEGIC>MOL_PROPERTY
VdW6
SciTegic.value.DoubleValue
-8.898

@<SCITEGIC>MOL_PROPERTY
VdW12
SciTegic.value.DoubleValue
10.924

@<SCITEGIC>MOL_PROPERTY
Bond
SciTegic.value.DoubleValue
0.211

@<SCITEGIC>MOL_PROPERTY
Angle
SciTegic.value.DoubleValue
2.587

@<SCITEGIC>MOL_PROPERTY
Pdih
SciTegic.value.DoubleValue
9.882

@<SCITEGIC>MOL_PROPERTY
Idih
SciTegic.value.DoubleValue
0.000

@<SCITEGIC>MOL_PROPERTY
Tether
SciTegic.value.DoubleValue
0.000

@<TRIPOS>MOLECULE
guest-5_vm2.mol2 : vm2 ligand conformer 21
          22          22           1
SMALL
USER_CHARGES
 
@<TRIPOS>ATOM
       1    C1      19.474651   19.005126   21.068271 C.3        1 MOL1        -0.1685
       2    H1      19.451418   18.667392   20.023140 H          1 MOL1         0.0832
       3    H2      18.538102   18.643580   21.514275 H          1 MOL1         0.0832
       4    C2      19.484934   20.552871   21.069435 C.3        1 MOL1        -0.1685
       5    H3      20.117172   20.906584   20.243549 H          1 MOL1         0.0832
       6    H4      18.469234   20.900583   20.836249 H          1 MOL1         0.0832
       7    C3      19.964507   21.239248   22.371096 C.3        1 MOL1        -0.1685
       8    H5      19.593344   22.273198   22.366013 H          1 MOL1         0.0832
       9    H6      21.060012   21.320261   22.361395 H          1 MOL1         0.0832
      10    C4      19.511924   20.549845   23.680633 C.3        1 MOL1        -0.1761
      11    H7      19.472612   21.312912   24.469226 H          1 MOL1         0.0832
      12    H8      18.491961   20.156265   23.582802 H          1 MOL1         0.0832
      13    C5      20.481565   19.440583   24.146048 C.3        1 MOL1         0.1218
      14    H9      21.504685   19.842170   24.116103 H          1 MOL1         0.0789
      15    C6      20.438819   18.148805   23.301425 C.3        1 MOL1        -0.1761
      16    H10     21.207475   17.464860   23.684028 H          1 MOL1         0.0832
      17    H11     19.476809   17.643113   23.458921 H          1 MOL1         0.0832
      18    C7      20.674343   18.341298   21.782683 C.3        1 MOL1        -0.1685
      19    H12     20.826777   17.347818   21.339332 H          1 MOL1         0.0832
      20    H13     21.599653   18.903398   21.596750 H          1 MOL1         0.0832
      21    O1      20.155257   19.100224   25.487409 O.3        1 MOL1        -0.5509
      22    H14     20.811423   18.432440   25.777365 H          1 MOL1         0.3779
@<TRIPOS>BOND
    1     1     2    1
    2     1     3    1
    3     1     4    1
    4     4     5    1
    5     4     6    1
    6     4     7    1
    7     7     8    1
    8     7     9    1
    9     7    10    1
   10    10    11    1
   11    10    12    1
   12    10    13    1
   13    13    14    1
   14    13    15    1
   15    15    16    1
   16    15    17    1
   17     1    18    1
   18    15    18    1
   19    18    19    1
   20    18    20    1
   21    13    21    1
   22    21    22    1
@<TRIPOS>SUBSTRUCTURE
       1 MOL1            1 RESIDUE      1      MOL     
@<SCITEGIC>MOL_PROPERTY
VM2 Rank
SciTegic.value.IntegerValue
21

@<SCITEGIC>MOL_PROPERTY
Conf_Id
SciTegic.value.IntegerValue
1339

@<SCITEGIC>MOL_PROPERTY
Probability
SciTegic.value.DoubleValue
2.60

@<SCITEGIC>MOL_PROPERTY
Sum Probability
SciTegic.value.DoubleValue
92.53

@<SCITEGIC>MOL_PROPERTY
Delta G
SciTegic.value.DoubleValue
0.638

@<SCITEGIC>MOL_PROPERTY
G
SciTegic.value.DoubleValue
48.000

@<SCITEGIC>MOL_PROPERTY
E
SciTegic.value.DoubleValue
21.429

@<SCITEGIC>MOL_PROPERTY
-TS
SciTegic.value.DoubleValue
26.571

@<SCITEGIC>MOL_PROPERTY
U+W
SciTegic.value.DoubleValue
3.544

@<SCITEGIC>MOL_PROPERTY
U
SciTegic.value.DoubleValue
5.864

@<SCITEGIC>MOL_PROPERTY
W
SciTegic.value.DoubleValue
-2.320

@<SCITEGIC>MOL_PROPERTY
W(PB)
SciTegic.value.DoubleValue
-4.334

@<SCITEGIC>MOL_PROPERTY
W(SA)
SciTegic.value.DoubleValue
2.014

@<SCITEGIC>MOL_PROPERTY
Valence
SciTegic.value.DoubleValue
12.328

@<SCITEGIC>MOL_PROPERTY
Coulomb
SciTegic.value.DoubleValue
-8.532

@<SCITEGIC>MOL_PROPERTY
VdW
SciTegic.value.DoubleValue
2.068

@<SCITEGIC>MOL_PROPERTY
VdW6
SciTegic.value.DoubleValue
-8.866

@<SCITEGIC>MOL_PROPERTY
VdW12
SciTegic.value.DoubleValue
10.934

@<SCITEGIC>MOL_PROPERTY
Bond
SciTegic.value.DoubleValue
0.215

@<SCITEGIC>MOL_PROPERTY
Angle
SciTegic.value.DoubleValue
2.565

@<SCITEGIC>MOL_PROPERTY
Pdih
SciTegic.value.DoubleValue
9.548

@<SCITEGIC>MOL_PROPERTY
Idih
SciTegic.value.DoubleValue
0.000

@<SCITEGIC>MOL_PROPERTY
Tether
SciTegic.value.DoubleValue
0.000

@<TRIPOS>MOLECULE
guest-5_vm2.mol2 : vm2 ligand conformer 22
          22          22           1
SMALL
USER_CHARGES
 
@<TRIPOS>ATOM
       1    C1      19.335066   18.867575   21.405765 C.3        1 MOL1        -0.1685
       2    H1      19.081354   18.463975   20.415942 H          1 MOL1         0.0832
       3    H2      18.565595   18.487068   22.089602 H          1 MOL1         0.0832
       4    C2      19.286222   20.409923   21.304808 C.3        1 MOL1        -0.1685
       5    H3      20.089632   20.753108   20.638695 H          1 MOL1         0.0832
       6    H4      18.347921   20.699795   20.812396 H          1 MOL1         0.0832
       7    C3      19.382461   21.169566   22.647251 C.3        1 MOL1        -0.1685
       8    H5      18.449702   21.043298   23.212057 H          1 MOL1         0.0832
       9    H6      19.434334   22.243013   22.419763 H          1 MOL1         0.0832
      10    C4      20.606367   20.805695   23.532603 C.3        1 MOL1        -0.1761
      11    H7      21.533057   20.911683   22.953955 H          1 MOL1         0.0832
      12    H8      20.671806   21.552599   24.334398 H          1 MOL1         0.0832
      13    C5      20.566876   19.410988   24.205858 C.3        1 MOL1         0.1218
      14    H9      21.262353   19.436772   25.057120 H          1 MOL1         0.0789
      15    C6      21.008908   18.227997   23.310518 C.3        1 MOL1        -0.1761
      16    H10     22.088615   18.083127   23.445489 H          1 MOL1         0.0832
      17    H11     20.545051   17.307958   23.691152 H          1 MOL1         0.0832
      18    C7      20.734895   18.336762   21.789511 C.3        1 MOL1        -0.1685
      19    H12     21.505902   18.962647   21.319923 H          1 MOL1         0.0832
      20    H13     20.864081   17.336944   21.353015 H          1 MOL1         0.0832
      21    O1      19.265206   19.149495   24.710688 O.3        1 MOL1        -0.5509
      22    H14     18.683792   19.191349   23.925161 H          1 MOL1         0.3779
@<TRIPOS>BOND
    1     1     2    1
    2     1     3    1
    3     1     4    1
    4     4     5    1
    5     4     6    1
    6     4     7    1
    7     7     8    1
    8     7     9    1
    9     7    10    1
   10    10    11    1
   11    10    12    1
   12    10    13    1
   13    13    14    1
   14    13    15    1
   15    15    16    1
   16    15    17    1
   17     1    18    1
   18    15    18    1
   19    18    19    1
   20    18    20    1
   21    13    21    1
   22    21    22    1
@<TRIPOS>SUBSTRUCTURE
       1 MOL1            1 RESIDUE      1      MOL     
@<SCITEGIC>MOL_PROPERTY
VM2 Rank
SciTegic.value.IntegerValue
22

@<SCITEGIC>MOL_PROPERTY
Conf_Id
SciTegic.value.IntegerValue
199

@<SCITEGIC>MOL_PROPERTY
Probability
SciTegic.value.DoubleValue
1.93

@<SCITEGIC>MOL_PROPERTY
Sum Probability
SciTegic.value.DoubleValue
94.46

@<SCITEGIC>MOL_PROPERTY
Delta G
SciTegic.value.DoubleValue
0.816

@<SCITEGIC>MOL_PROPERTY
G
SciTegic.value.DoubleValue
48.179

@<SCITEGIC>MOL_PROPERTY
E
SciTegic.value.DoubleValue
21.156

@<SCITEGIC>MOL_PROPERTY
-TS
SciTegic.value.DoubleValue
27.023

@<SCITEGIC>MOL_PROPERTY
U+W
SciTegic.value.DoubleValue
3.271

@<SCITEGIC>MOL_PROPERTY
U
SciTegic.value.DoubleValue
4.573

@<SCITEGIC>MOL_PROPERTY
W
SciTegic.value.DoubleValue
-1.301

@<SCITEGIC>MOL_PROPERTY
W(PB)
SciTegic.value.DoubleValue
-3.281

@<SCITEGIC>MOL_PROPERTY
W(SA)
SciTegic.value.DoubleValue
1.980

@<SCITEGIC>MOL_PROPERTY
Valence
SciTegic.value.DoubleValue
12.697

@<SCITEGIC>MOL_PROPERTY
Coulomb
SciTegic.value.DoubleValue
-10.358

@<SCITEGIC>MOL_PROPERTY
VdW
SciTegic.value.DoubleValue
2.234

@<SCITEGIC>MOL_PROPERTY
VdW6
SciTegic.value.DoubleValue
-10.225

@<SCITEGIC>MOL_PROPERTY
VdW12
SciTegic.value.DoubleValue
12.459

@<SCITEGIC>MOL_PROPERTY
Bond
SciTegic.value.DoubleValue
0.281

@<SCITEGIC>MOL_PROPERTY
Angle
SciTegic.value.DoubleValue
3.786

@<SCITEGIC>MOL_PROPERTY
Pdih
SciTegic.value.DoubleValue
8.630

@<SCITEGIC>MOL_PROPERTY
Idih
SciTegic.value.DoubleValue
0.000

@<SCITEGIC>MOL_PROPERTY
Tether
SciTegic.value.DoubleValue
0.000

@<TRIPOS>MOLECULE
guest-5_vm2.mol2 : vm2 ligand conformer 23
          22          22           1
SMALL
USER_CHARGES
 
@<TRIPOS>ATOM
       1    C1      19.710584   18.995563   21.042816 C.3        1 MOL1        -0.1685
       2    H1      20.528216   19.334505   20.392009 H          1 MOL1         0.0832
       3    H2      19.012358   18.457739   20.386974 H          1 MOL1         0.0832
       4    C2      18.985748   20.228620   21.630692 C.3        1 MOL1        -0.1685
       5    H3      18.494448   20.750519   20.798072 H          1 MOL1         0.0832
       6    H4      18.179847   19.930774   22.313567 H          1 MOL1         0.0832
       7    C3      19.953188   21.224510   22.309521 C.3        1 MOL1        -0.1685
       8    H5      19.531885   22.235784   22.227793 H          1 MOL1         0.0832
       9    H6      20.898737   21.255698   21.751254 H          1 MOL1         0.0832
      10    C4      20.242371   20.952034   23.807018 C.3        1 MOL1        -0.1761
      11    H7      21.109909   21.559717   24.095243 H          1 MOL1         0.0832
      12    H8      19.407634   21.338791   24.407142 H          1 MOL1         0.0832
      13    C5      20.518460   19.488700   24.230014 C.3        1 MOL1         0.1218
      14    H9      21.191140   19.535069   25.098549 H          1 MOL1         0.0789
      15    C6      21.204903   18.604892   23.158698 C.3        1 MOL1        -0.1761
      16    H10     22.015967   19.167418   22.678531 H          1 MOL1         0.0832
      17    H11     21.692946   17.774620   23.685467 H          1 MOL1         0.0832
      18    C7      20.269874   17.994059   22.078513 C.3        1 MOL1        -0.1685
      19    H12     20.837303   17.229733   21.530278 H          1 MOL1         0.0832
      20    H13     19.442443   17.449330   22.551398 H          1 MOL1         0.0832
      21    O1      19.300871   18.889622   24.649728 O.3        1 MOL1        -0.5509
      22    H14     18.765121   18.823899   23.833948 H          1 MOL1         0.3779
@<TRIPOS>BOND
    1     1     2    1
    2     1     3    1
    3     1     4    1
    4     4     5    1
    5     4     6    1
    6     4     7    1
    7     7     8    1
    8     7     9    1
    9     7    10    1
   10    10    11    1
   11    10    12    1
   12    10    13    1
   13    13    14    1
   14    13    15    1
   15    15    16    1
   16    15    17    1
   17     1    18    1
   18    15    18    1
   19    18    19    1
   20    18    20    1
   21    13    21    1
   22    21    22    1
@<TRIPOS>SUBSTRUCTURE
       1 MOL1            1 RESIDUE      1      MOL     
@<SCITEGIC>MOL_PROPERTY
VM2 Rank
SciTegic.value.IntegerValue
23

@<SCITEGIC>MOL_PROPERTY
Conf_Id
SciTegic.value.IntegerValue
1352

@<SCITEGIC>MOL_PROPERTY
Probability
SciTegic.value.DoubleValue
1.74

@<SCITEGIC>MOL_PROPERTY
Sum Probability
SciTegic.value.DoubleValue
96.20

@<SCITEGIC>MOL_PROPERTY
Delta G
SciTegic.value.DoubleValue
0.877

@<SCITEGIC>MOL_PROPERTY
G
SciTegic.value.DoubleValue
48.240

@<SCITEGIC>MOL_PROPERTY
E
SciTegic.value.DoubleValue
21.217

@<SCITEGIC>MOL_PROPERTY
-TS
SciTegic.value.DoubleValue
27.023

@<SCITEGIC>MOL_PROPERTY
U+W
SciTegic.value.DoubleValue
3.332

@<SCITEGIC>MOL_PROPERTY
U
SciTegic.value.DoubleValue
4.573

@<SCITEGIC>MOL_PROPERTY
W
SciTegic.value.DoubleValue
-1.240

@<SCITEGIC>MOL_PROPERTY
W(PB)
SciTegic.value.DoubleValue
-3.234

@<SCITEGIC>MOL_PROPERTY
W(SA)
SciTegic.value.DoubleValue
1.993

@<SCITEGIC>MOL_PROPERTY
Valence
SciTegic.value.DoubleValue
12.697

@<SCITEGIC>MOL_PROPERTY
Coulomb
SciTegic.value.DoubleValue
-10.358

@<SCITEGIC>MOL_PROPERTY
VdW
SciTegic.value.DoubleValue
2.234

@<SCITEGIC>MOL_PROPERTY
VdW6
SciTegic.value.DoubleValue
-10.225

@<SCITEGIC>MOL_PROPERTY
VdW12
SciTegic.value.DoubleValue
12.459

@<SCITEGIC>MOL_PROPERTY
Bond
SciTegic.value.DoubleValue
0.281

@<SCITEGIC>MOL_PROPERTY
Angle
SciTegic.value.DoubleValue
3.786

@<SCITEGIC>MOL_PROPERTY
Pdih
SciTegic.value.DoubleValue
8.630

@<SCITEGIC>MOL_PROPERTY
Idih
SciTegic.value.DoubleValue
0.000

@<SCITEGIC>MOL_PROPERTY
Tether
SciTegic.value.DoubleValue
0.000

@<TRIPOS>MOLECULE
guest-5_vm2.mol2 : vm2 ligand conformer 24
          22          22           1
SMALL
USER_CHARGES
 
@<TRIPOS>ATOM
       1    C1      20.102977   19.181383   20.974818 C.3        1 MOL1        -0.1685
       2    H1      21.163202   19.443899   20.858686 H          1 MOL1         0.0832
       3    H2      19.797954   18.757486   20.008353 H          1 MOL1         0.0832
       4    C2      19.275924   20.466992   21.215370 C.3        1 MOL1        -0.1685
       5    H3      19.710842   21.273668   20.609645 H          1 MOL1         0.0832
       6    H4      18.260424   20.315271   20.824784 H          1 MOL1         0.0832
       7    C3      19.158319   20.943470   22.682804 C.3        1 MOL1        -0.1685
       8    H5      18.344845   20.397793   23.178725 H          1 MOL1         0.0832
       9    H6      18.838767   21.994268   22.671359 H          1 MOL1         0.0832
      10    C4      20.461894   20.827170   23.514900 C.3        1 MOL1        -0.1761
      11    H7      21.329031   21.080185   22.891254 H          1 MOL1         0.0832
      12    H8      20.433801   21.588277   24.305289 H          1 MOL1         0.0832
      13    C5      20.687796   19.454121   24.196218 C.3        1 MOL1         0.1218
      14    H9      21.575148   19.553555   24.837947 H          1 MOL1         0.0789
      15    C6      20.965111   18.278908   23.231300 C.3        1 MOL1        -0.1761
      16    H10     21.976270   18.390851   22.819546 H          1 MOL1         0.0832
      17    H11     20.988376   17.354063   23.822513 H          1 MOL1         0.0832
      18    C7      19.958320   18.096345   22.067204 C.3        1 MOL1        -0.1685
      19    H12     20.154563   17.119298   21.605513 H          1 MOL1         0.0832
      20    H13     18.927733   18.053275   22.445186 H          1 MOL1         0.0832
      21    O1      19.575659   19.129610   25.024387 O.3        1 MOL1        -0.5509
      22    H14     19.402947   19.916594   25.580366 H          1 MOL1         0.3779
@<TRIPOS>BOND
    1     1     2    1
    2     1     3    1
    3     1     4    1
    4     4     5    1
    5     4     6    1
    6     4     7    1
    7     7     8    1
    8     7     9    1
    9     7    10    1
   10    10    11    1
   11    10    12    1
   12    10    13    1
   13    13    14    1
   14    13    15    1
   15    15    16    1
   16    15    17    1
   17     1    18    1
   18    15    18    1
   19    18    19    1
   20    18    20    1
   21    13    21    1
   22    21    22    1
@<TRIPOS>SUBSTRUCTURE
       1 MOL1            1 RESIDUE      1      MOL     
@<SCITEGIC>MOL_PROPERTY
VM2 Rank
SciTegic.value.IntegerValue
24

@<SCITEGIC>MOL_PROPERTY
Conf_Id
SciTegic.value.IntegerValue
1050

@<SCITEGIC>MOL_PROPERTY
Probability
SciTegic.value.DoubleValue
0.81

@<SCITEGIC>MOL_PROPERTY
Sum Probability
SciTegic.value.DoubleValue
97.01

@<SCITEGIC>MOL_PROPERTY
Delta G
SciTegic.value.DoubleValue
1.336

@<SCITEGIC>MOL_PROPERTY
G
SciTegic.value.DoubleValue
48.699

@<SCITEGIC>MOL_PROPERTY
E
SciTegic.value.DoubleValue
21.997

@<SCITEGIC>MOL_PROPERTY
-TS
SciTegic.value.DoubleValue
26.702

@<SCITEGIC>MOL_PROPERTY
U+W
SciTegic.value.DoubleValue
4.112

@<SCITEGIC>MOL_PROPERTY
U
SciTegic.value.DoubleValue
6.373

@<SCITEGIC>MOL_PROPERTY
W
SciTegic.value.DoubleValue
-2.262

@<SCITEGIC>MOL_PROPERTY
W(PB)
SciTegic.value.DoubleValue
-4.261

@<SCITEGIC>MOL_PROPERTY
W(SA)
SciTegic.value.DoubleValue
1.999

@<SCITEGIC>MOL_PROPERTY
Valence
SciTegic.value.DoubleValue
12.093

@<SCITEGIC>MOL_PROPERTY
Coulomb
SciTegic.value.DoubleValue
-8.058

@<SCITEGIC>MOL_PROPERTY
VdW
SciTegic.value.DoubleValue
2.339

@<SCITEGIC>MOL_PROPERTY
VdW6
SciTegic.value.DoubleValue
-9.683

@<SCITEGIC>MOL_PROPERTY
VdW12
SciTegic.value.DoubleValue
12.022

@<SCITEGIC>MOL_PROPERTY
Bond
SciTegic.value.DoubleValue
0.268

@<SCITEGIC>MOL_PROPERTY
Angle
SciTegic.value.DoubleValue
3.005

@<SCITEGIC>MOL_PROPERTY
Pdih
SciTegic.value.DoubleValue
8.820

@<SCITEGIC>MOL_PROPERTY
Idih
SciTegic.value.DoubleValue
0.000

@<SCITEGIC>MOL_PROPERTY
Tether
SciTegic.value.DoubleValue
0.000

@<TRIPOS>MOLECULE
guest-5_vm2.mol2 : vm2 ligand conformer 25
          22          22           1
SMALL
USER_CHARGES
 
@<TRIPOS>ATOM
       1    C1      19.705481   18.985656   20.938809 C.3        1 MOL1        -0.1685
       2    H1      20.434841   18.753903   20.150706 H          1 MOL1         0.0832
       3    H2      18.722191   18.734730   20.518104 H          1 MOL1         0.0832
       4    C2      19.759017   20.507248   21.215511 C.3        1 MOL1        -0.1685
       5    H3      20.795754   20.859464   21.128327 H          1 MOL1         0.0832
       6    H4      19.207268   21.017513   20.414271 H          1 MOL1         0.0832
       7    C3      19.180200   20.944704   22.581215 C.3        1 MOL1        -0.1685
       8    H5      18.299345   20.344026   22.846008 H          1 MOL1         0.0832
       9    H6      18.825545   21.979767   22.485529 H          1 MOL1         0.0832
      10    C4      20.233044   20.909855   23.718045 C.3        1 MOL1        -0.1761
      11    H7      21.128788   21.456796   23.397090 H          1 MOL1         0.0832
      12    H8      19.839081   21.468031   24.577491 H          1 MOL1         0.0832
      13    C5      20.656652   19.508526   24.213959 C.3        1 MOL1         0.1218
      14    H9      21.523272   19.654688   24.874794 H          1 MOL1         0.0789
      15    C6      21.092076   18.520023   23.103212 C.3        1 MOL1        -0.1761
      16    H10     21.916956   18.952753   22.522526 H          1 MOL1         0.0832
      17    H11     21.510408   17.632523   23.595280 H          1 MOL1         0.0832
      18    C7      19.958601   18.057816   22.150943 C.3        1 MOL1        -0.1685
      19    H12     20.205904   17.059526   21.765352 H          1 MOL1         0.0832
      20    H13     19.023906   17.929080   22.712381 H          1 MOL1         0.0832
      21    O1      19.600930   18.944171   24.985307 O.3        1 MOL1        -0.5509
      22    H14     19.888561   18.042068   25.233824 H          1 MOL1         0.3779
@<TRIPOS>BOND
    1     1     2    1
    2     1     3    1
    3     1     4    1
    4     4     5    1
    5     4     6    1
    6     4     7    1
    7     7     8    1
    8     7     9    1
    9     7    10    1
   10    10    11    1
   11    10    12    1
   12    10    13    1
   13    13    14    1
   14    13    15    1
   15    15    16    1
   16    15    17    1
   17     1    18    1
   18    15    18    1
   19    18    19    1
   20    18    20    1
   21    13    21    1
   22    21    22    1
@<TRIPOS>SUBSTRUCTURE
       1 MOL1            1 RESIDUE      1      MOL     
@<SCITEGIC>MOL_PROPERTY
VM2 Rank
SciTegic.value.IntegerValue
25

@<SCITEGIC>MOL_PROPERTY
Conf_Id
SciTegic.value.IntegerValue
858

@<SCITEGIC>MOL_PROPERTY
Probability
SciTegic.value.DoubleValue
0.78

@<SCITEGIC>MOL_PROPERTY
Sum Probability
SciTegic.value.DoubleValue
97.78

@<SCITEGIC>MOL_PROPERTY
Delta G
SciTegic.value.DoubleValue
1.358

@<SCITEGIC>MOL_PROPERTY
G
SciTegic.value.DoubleValue
48.721

@<SCITEGIC>MOL_PROPERTY
E
SciTegic.value.DoubleValue
22.019

@<SCITEGIC>MOL_PROPERTY
-TS
SciTegic.value.DoubleValue
26.702

@<SCITEGIC>MOL_PROPERTY
U+W
SciTegic.value.DoubleValue
4.134

@<SCITEGIC>MOL_PROPERTY
U
SciTegic.value.DoubleValue
6.373

@<SCITEGIC>MOL_PROPERTY
W
SciTegic.value.DoubleValue
-2.240

@<SCITEGIC>MOL_PROPERTY
W(PB)
SciTegic.value.DoubleValue
-4.254

@<SCITEGIC>MOL_PROPERTY
W(SA)
SciTegic.value.DoubleValue
2.015

@<SCITEGIC>MOL_PROPERTY
Valence
SciTegic.value.DoubleValue
12.093

@<SCITEGIC>MOL_PROPERTY
Coulomb
SciTegic.value.DoubleValue
-8.058

@<SCITEGIC>MOL_PROPERTY
VdW
SciTegic.value.DoubleValue
2.339

@<SCITEGIC>MOL_PROPERTY
VdW6
SciTegic.value.DoubleValue
-9.683

@<SCITEGIC>MOL_PROPERTY
VdW12
SciTegic.value.DoubleValue
12.022

@<SCITEGIC>MOL_PROPERTY
Bond
SciTegic.value.DoubleValue
0.268

@<SCITEGIC>MOL_PROPERTY
Angle
SciTegic.value.DoubleValue
3.005

@<SCITEGIC>MOL_PROPERTY
Pdih
SciTegic.value.DoubleValue
8.820

@<SCITEGIC>MOL_PROPERTY
Idih
SciTegic.value.DoubleValue
0.000

@<SCITEGIC>MOL_PROPERTY
Tether
SciTegic.value.DoubleValue
0.000

@<TRIPOS>MOLECULE
guest-5_vm2.mol2 : vm2 ligand conformer 26
          22          22           1
SMALL
USER_CHARGES
 
@<TRIPOS>ATOM
       1    C1      19.973686   19.189190   21.068597 C.3        1 MOL1        -0.1685
       2    H1      20.912129   19.704443   20.823694 H          1 MOL1         0.0832
       3    H2      19.588361   18.790876   20.120205 H          1 MOL1         0.0832
       4    C2      18.926685   20.179707   21.628242 C.3        1 MOL1        -0.1685
       5    H3      18.436471   20.692629   20.789692 H          1 MOL1         0.0832
       6    H4      18.129899   19.615263   22.131575 H          1 MOL1         0.0832
       7    C3      19.478025   21.257363   22.593452 C.3        1 MOL1        -0.1685
       8    H5      18.647544   21.618729   23.214822 H          1 MOL1         0.0832
       9    H6      19.803416   22.124459   22.002805 H          1 MOL1         0.0832
      10    C4      20.657124   20.838895   23.511231 C.3        1 MOL1        -0.1761
      11    H7      21.590426   20.895388   22.936206 H          1 MOL1         0.0832
      12    H8      20.761311   21.595756   24.299368 H          1 MOL1         0.0832
      13    C5      20.577457   19.445680   24.179917 C.3        1 MOL1         0.1218
      14    H9      21.256815   19.472660   25.044086 H          1 MOL1         0.0789
      15    C6      21.084278   18.307163   23.263706 C.3        1 MOL1        -0.1761
      16    H10     22.106803   18.543455   22.942373 H          1 MOL1         0.0832
      17    H11     21.166546   17.394303   23.867600 H          1 MOL1         0.0832
      18    C7      20.227118   17.989858   22.013493 C.3        1 MOL1        -0.1685
      19    H12     19.266393   17.561385   22.330238 H          1 MOL1         0.0832
      20    H13     20.734289   17.198889   21.444822 H          1 MOL1         0.0832
      21    O1      19.261626   19.170144   24.648362 O.3        1 MOL1        -0.5509
      22    H14     18.931888   20.002501   25.042207 H          1 MOL1         0.3779
@<TRIPOS>BOND
    1     1     2    1
    2     1     3    1
    3     1     4    1
    4     4     5    1
    5     4     6    1
    6     4     7    1
    7     7     8    1
    8     7     9    1
    9     7    10    1
   10    10    11    1
   11    10    12    1
   12    10    13    1
   13    13    14    1
   14    13    15    1
   15    15    16    1
   16    15    17    1
   17     1    18    1
   18    15    18    1
   19    18    19    1
   20    18    20    1
   21    13    21    1
   22    21    22    1
@<TRIPOS>SUBSTRUCTURE
       1 MOL1            1 RESIDUE      1      MOL     
@<SCITEGIC>MOL_PROPERTY
VM2 Rank
SciTegic.value.IntegerValue
26

@<SCITEGIC>MOL_PROPERTY
Conf_Id
SciTegic.value.IntegerValue
919

@<SCITEGIC>MOL_PROPERTY
Probability
SciTegic.value.DoubleValue
0.36

@<SCITEGIC>MOL_PROPERTY
Sum Probability
SciTegic.value.DoubleValue
98.14

@<SCITEGIC>MOL_PROPERTY
Delta G
SciTegic.value.DoubleValue
1.814

@<SCITEGIC>MOL_PROPERTY
G
SciTegic.value.DoubleValue
49.177

@<SCITEGIC>MOL_PROPERTY
E
SciTegic.value.DoubleValue
22.504

@<SCITEGIC>MOL_PROPERTY
-TS
SciTegic.value.DoubleValue
26.673

@<SCITEGIC>MOL_PROPERTY
U+W
SciTegic.value.DoubleValue
4.619

@<SCITEGIC>MOL_PROPERTY
U
SciTegic.value.DoubleValue
6.656

@<SCITEGIC>MOL_PROPERTY
W
SciTegic.value.DoubleValue
-2.037

@<SCITEGIC>MOL_PROPERTY
W(PB)
SciTegic.value.DoubleValue
-4.035

@<SCITEGIC>MOL_PROPERTY
W(SA)
SciTegic.value.DoubleValue
1.998

@<SCITEGIC>MOL_PROPERTY
Valence
SciTegic.value.DoubleValue
12.236

@<SCITEGIC>MOL_PROPERTY
Coulomb
SciTegic.value.DoubleValue
-7.546

@<SCITEGIC>MOL_PROPERTY
VdW
SciTegic.value.DoubleValue
1.965

@<SCITEGIC>MOL_PROPERTY
VdW6
SciTegic.value.DoubleValue
-10.135

@<SCITEGIC>MOL_PROPERTY
VdW12
SciTegic.value.DoubleValue
12.101

@<SCITEGIC>MOL_PROPERTY
Bond
SciTegic.value.DoubleValue
0.261

@<SCITEGIC>MOL_PROPERTY
Angle
SciTegic.value.DoubleValue
3.589

@<SCITEGIC>MOL_PROPERTY
Pdih
SciTegic.value.DoubleValue
8.386

@<SCITEGIC>MOL_PROPERTY
Idih
SciTegic.value.DoubleValue
0.000

@<SCITEGIC>MOL_PROPERTY
Tether
SciTegic.value.DoubleValue
0.000

@<TRIPOS>MOLECULE
guest-5_vm2.mol2 : vm2 ligand conformer 27
          22          22           1
SMALL
USER_CHARGES
 
@<TRIPOS>ATOM
       1    C1      19.273174   18.898584   21.398900 C.3        1 MOL1        -0.1685
       2    H1      19.026246   18.511376   20.401071 H          1 MOL1         0.0832
       3    H2      18.344906   18.819427   21.981020 H          1 MOL1         0.0832
       4    C2      19.669028   20.388136   21.276136 C.3        1 MOL1        -0.1685
       5    H3      20.717442   20.492992   20.966341 H          1 MOL1         0.0832
       6    H4      19.067656   20.831958   20.471182 H          1 MOL1         0.0832
       7    C3      19.387729   21.190149   22.569619 C.3        1 MOL1        -0.1685
       8    H5      18.367092   20.980700   22.917959 H          1 MOL1         0.0832
       9    H6      19.406998   22.261154   22.327093 H          1 MOL1         0.0832
      10    C4      20.385868   20.942133   23.727479 C.3        1 MOL1        -0.1761
      11    H7      21.367867   21.339868   23.440898 H          1 MOL1         0.0832
      12    H8      20.066194   21.536422   24.593158 H          1 MOL1         0.0832
      13    C5      20.560681   19.476147   24.188845 C.3        1 MOL1         0.1218
      14    H9      21.234156   19.503685   25.057590 H          1 MOL1         0.0789
      15    C6      21.247475   18.586690   23.125028 C.3        1 MOL1        -0.1761
      16    H10     22.045560   19.169705   22.647484 H          1 MOL1         0.0832
      17    H11     21.762945   17.765991   23.640391 H          1 MOL1         0.0832
      18    C7      20.347095   17.972687   22.020477 C.3        1 MOL1        -0.1685
      19    H12     21.002024   17.606513   21.218240 H          1 MOL1         0.0832
      20    H13     19.843084   17.082014   22.419298 H          1 MOL1         0.0832
      21    O1      19.314950   18.923475   24.600515 O.3        1 MOL1        -0.5509
      22    H14     19.456890   17.959026   24.680197 H          1 MOL1         0.3779
@<TRIPOS>BOND
    1     1     2    1
    2     1     3    1
    3     1     4    1
    4     4     5    1
    5     4     6    1
    6     4     7    1
    7     7     8    1
    8     7     9    1
    9     7    10    1
   10    10    11    1
   11    10    12    1
   12    10    13    1
   13    13    14    1
   14    13    15    1
   15    15    16    1
   16    15    17    1
   17     1    18    1
   18    15    18    1
   19    18    19    1
   20    18    20    1
   21    13    21    1
   22    21    22    1
@<TRIPOS>SUBSTRUCTURE
       1 MOL1            1 RESIDUE      1      MOL     
@<SCITEGIC>MOL_PROPERTY
VM2 Rank
SciTegic.value.IntegerValue
27

@<SCITEGIC>MOL_PROPERTY
Conf_Id
SciTegic.value.IntegerValue
492

@<SCITEGIC>MOL_PROPERTY
Probability
SciTegic.value.DoubleValue
0.34

@<SCITEGIC>MOL_PROPERTY
Sum Probability
SciTegic.value.DoubleValue
98.49

@<SCITEGIC>MOL_PROPERTY
Delta G
SciTegic.value.DoubleValue
1.845

@<SCITEGIC>MOL_PROPERTY
G
SciTegic.value.DoubleValue
49.207

@<SCITEGIC>MOL_PROPERTY
E
SciTegic.value.DoubleValue
22.533

@<SCITEGIC>MOL_PROPERTY
-TS
SciTegic.value.DoubleValue
26.674

@<SCITEGIC>MOL_PROPERTY
U+W
SciTegic.value.DoubleValue
4.648

@<SCITEGIC>MOL_PROPERTY
U
SciTegic.value.DoubleValue
6.656

@<SCITEGIC>MOL_PROPERTY
W
SciTegic.value.DoubleValue
-2.008

@<SCITEGIC>MOL_PROPERTY
W(PB)
SciTegic.value.DoubleValue
-3.998

@<SCITEGIC>MOL_PROPERTY
W(SA)
SciTegic.value.DoubleValue
1.991

@<SCITEGIC>MOL_PROPERTY
Valence
SciTegic.value.DoubleValue
12.237

@<SCITEGIC>MOL_PROPERTY
Coulomb
SciTegic.value.DoubleValue
-7.547

@<SCITEGIC>MOL_PROPERTY
VdW
SciTegic.value.DoubleValue
1.965

@<SCITEGIC>MOL_PROPERTY
VdW6
SciTegic.value.DoubleValue
-10.135

@<SCITEGIC>MOL_PROPERTY
VdW12
SciTegic.value.DoubleValue
12.100

@<SCITEGIC>MOL_PROPERTY
Bond
SciTegic.value.DoubleValue
0.261

@<SCITEGIC>MOL_PROPERTY
Angle
SciTegic.value.DoubleValue
3.589

@<SCITEGIC>MOL_PROPERTY
Pdih
SciTegic.value.DoubleValue
8.387

@<SCITEGIC>MOL_PROPERTY
Idih
SciTegic.value.DoubleValue
0.000

@<SCITEGIC>MOL_PROPERTY
Tether
SciTegic.value.DoubleValue
0.000

@<TRIPOS>MOLECULE
guest-5_vm2.mol2 : vm2 ligand conformer 28
          22          22           1
SMALL
USER_CHARGES
 
@<TRIPOS>ATOM
       1    C1      19.728411   19.002332   21.022353 C.3        1 MOL1        -0.1685
       2    H1      20.565282   19.332585   20.392107 H          1 MOL1         0.0832
       3    H2      19.038524   18.471486   20.352380 H          1 MOL1         0.0832
       4    C2      19.001035   20.236018   21.602805 C.3        1 MOL1        -0.1685
       5    H3      18.511412   20.760528   20.771130 H          1 MOL1         0.0832
       6    H4      18.198734   19.928139   22.287559 H          1 MOL1         0.0832
       7    C3      19.962671   21.224848   22.298634 C.3        1 MOL1        -0.1685
       8    H5      19.551794   22.239218   22.204671 H          1 MOL1         0.0832
       9    H6      20.923535   21.245796   21.767013 H          1 MOL1         0.0832
      10    C4      20.199949   20.948464   23.804326 C.3        1 MOL1        -0.1761
      11    H7      21.027324   21.589654   24.134419 H          1 MOL1         0.0832
      12    H8      19.323452   21.292861   24.369445 H          1 MOL1         0.0832
      13    C5      20.520615   19.492615   24.229107 C.3        1 MOL1         0.1218
      14    H9      21.230661   19.567362   25.065476 H          1 MOL1         0.0789
      15    C6      21.191708   18.604401   23.150036 C.3        1 MOL1        -0.1761
      16    H10     22.000156   19.163330   22.661499 H          1 MOL1         0.0832
      17    H11     21.683705   17.771865   23.669284 H          1 MOL1         0.0832
      18    C7      20.243332   18.000422   22.078903 C.3        1 MOL1        -0.1685
      19    H12     20.782619   17.202021   21.551512 H          1 MOL1         0.0832
      20    H13     19.388386   17.508186   22.560530 H          1 MOL1         0.0832
      21    O1      19.338279   18.868898   24.720835 O.3        1 MOL1        -0.5509
      22    H14     19.572887   17.936410   24.902827 H          1 MOL1         0.3779
@<TRIPOS>BOND
    1     1     2    1
    2     1     3    1
    3     1     4    1
    4     4     5    1
    5     4     6    1
    6     4     7    1
    7     7     8    1
    8     7     9    1
    9     7    10    1
   10    10    11    1
   11    10    12    1
   12    10    13    1
   13    13    14    1
   14    13    15    1
   15    15    16    1
   16    15    17    1
   17     1    18    1
   18    15    18    1
   19    18    19    1
   20    18    20    1
   21    13    21    1
   22    21    22    1
@<TRIPOS>SUBSTRUCTURE
       1 MOL1            1 RESIDUE      1      MOL     
@<SCITEGIC>MOL_PROPERTY
VM2 Rank
SciTegic.value.IntegerValue
28

@<SCITEGIC>MOL_PROPERTY
Conf_Id
SciTegic.value.IntegerValue
1294

@<SCITEGIC>MOL_PROPERTY
Probability
SciTegic.value.DoubleValue
0.31

@<SCITEGIC>MOL_PROPERTY
Sum Probability
SciTegic.value.DoubleValue
98.80

@<SCITEGIC>MOL_PROPERTY
Delta G
SciTegic.value.DoubleValue
1.906

@<SCITEGIC>MOL_PROPERTY
G
SciTegic.value.DoubleValue
49.268

@<SCITEGIC>MOL_PROPERTY
E
SciTegic.value.DoubleValue
22.627

@<SCITEGIC>MOL_PROPERTY
-TS
SciTegic.value.DoubleValue
26.641

@<SCITEGIC>MOL_PROPERTY
U+W
SciTegic.value.DoubleValue
4.742

@<SCITEGIC>MOL_PROPERTY
U
SciTegic.value.DoubleValue
6.897

@<SCITEGIC>MOL_PROPERTY
W
SciTegic.value.DoubleValue
-2.155

@<SCITEGIC>MOL_PROPERTY
W(PB)
SciTegic.value.DoubleValue
-4.140

@<SCITEGIC>MOL_PROPERTY
W(SA)
SciTegic.value.DoubleValue
1.985

@<SCITEGIC>MOL_PROPERTY
Valence
SciTegic.value.DoubleValue
12.367

@<SCITEGIC>MOL_PROPERTY
Coulomb
SciTegic.value.DoubleValue
-7.745

@<SCITEGIC>MOL_PROPERTY
VdW
SciTegic.value.DoubleValue
2.276

@<SCITEGIC>MOL_PROPERTY
VdW6
SciTegic.value.DoubleValue
-9.828

@<SCITEGIC>MOL_PROPERTY
VdW12
SciTegic.value.DoubleValue
12.103

@<SCITEGIC>MOL_PROPERTY
Bond
SciTegic.value.DoubleValue
0.281

@<SCITEGIC>MOL_PROPERTY
Angle
SciTegic.value.DoubleValue
3.460

@<SCITEGIC>MOL_PROPERTY
Pdih
SciTegic.value.DoubleValue
8.626

@<SCITEGIC>MOL_PROPERTY
Idih
SciTegic.value.DoubleValue
0.000

@<SCITEGIC>MOL_PROPERTY
Tether
SciTegic.value.DoubleValue
0.000

@<TRIPOS>MOLECULE
guest-5_vm2.mol2 : vm2 ligand conformer 29
          22          22           1
SMALL
USER_CHARGES
 
@<TRIPOS>ATOM
       1    C1      19.349147   18.880922   21.376812 C.3        1 MOL1        -0.1685
       2    H1      19.098408   18.477668   20.386338 H          1 MOL1         0.0832
       3    H2      18.578024   18.508219   22.065164 H          1 MOL1         0.0832
       4    C2      19.302719   20.422879   21.286260 C.3        1 MOL1        -0.1685
       5    H3      20.120539   20.777599   20.644408 H          1 MOL1         0.0832
       6    H4      18.373510   20.716621   20.779416 H          1 MOL1         0.0832
       7    C3      19.362624   21.151371   22.646766 C.3        1 MOL1        -0.1685
       8    H5      18.433070   20.965162   23.200345 H          1 MOL1         0.0832
       9    H6      19.375527   22.231916   22.450115 H          1 MOL1         0.0832
      10    C4      20.593639   20.800964   23.526171 C.3        1 MOL1        -0.1761
      11    H7      21.515432   20.912414   22.940905 H          1 MOL1         0.0832
      12    H8      20.660436   21.552496   24.323374 H          1 MOL1         0.0832
      13    C5      20.570470   19.406628   24.203651 C.3        1 MOL1         0.1218
      14    H9      21.308673   19.436971   25.018146 H          1 MOL1         0.0789
      15    C6      20.970441   18.209682   23.303597 C.3        1 MOL1        -0.1761
      16    H10     22.036613   18.004273   23.463970 H          1 MOL1         0.0832
      17    H11     20.445947   17.313068   23.660257 H          1 MOL1         0.0832
      18    C7      20.742353   18.346954   21.777514 C.3        1 MOL1        -0.1685
      19    H12     21.524252   18.981375   21.338808 H          1 MOL1         0.0832
      20    H13     20.880978   17.354673   21.327230 H          1 MOL1         0.0832
      21    O1      19.294608   19.158600   24.786229 O.3        1 MOL1        -0.5509
      22    H14     19.053954   19.968613   25.279848 H          1 MOL1         0.3779
@<TRIPOS>BOND
    1     1     2    1
    2     1     3    1
    3     1     4    1
    4     4     5    1
    5     4     6    1
    6     4     7    1
    7     7     8    1
    8     7     9    1
    9     7    10    1
   10    10    11    1
   11    10    12    1
   12    10    13    1
   13    13    14    1
   14    13    15    1
   15    15    16    1
   16    15    17    1
   17     1    18    1
   18    15    18    1
   19    18    19    1
   20    18    20    1
   21    13    21    1
   22    21    22    1
@<TRIPOS>SUBSTRUCTURE
       1 MOL1            1 RESIDUE      1      MOL     
@<SCITEGIC>MOL_PROPERTY
VM2 Rank
SciTegic.value.IntegerValue
29

@<SCITEGIC>MOL_PROPERTY
Conf_Id
SciTegic.value.IntegerValue
663

@<SCITEGIC>MOL_PROPERTY
Probability
SciTegic.value.DoubleValue
0.29

@<SCITEGIC>MOL_PROPERTY
Sum Probability
SciTegic.value.DoubleValue
99.09

@<SCITEGIC>MOL_PROPERTY
Delta G
SciTegic.value.DoubleValue
1.938

@<SCITEGIC>MOL_PROPERTY
G
SciTegic.value.DoubleValue
49.300

@<SCITEGIC>MOL_PROPERTY
E
SciTegic.value.DoubleValue
22.659

@<SCITEGIC>MOL_PROPERTY
-TS
SciTegic.value.DoubleValue
26.642

@<SCITEGIC>MOL_PROPERTY
U+W
SciTegic.value.DoubleValue
4.774

@<SCITEGIC>MOL_PROPERTY
U
SciTegic.value.DoubleValue
6.897

@<SCITEGIC>MOL_PROPERTY
W
SciTegic.value.DoubleValue
-2.123

@<SCITEGIC>MOL_PROPERTY
W(PB)
SciTegic.value.DoubleValue
-4.121

@<SCITEGIC>MOL_PROPERTY
W(SA)
SciTegic.value.DoubleValue
1.998

@<SCITEGIC>MOL_PROPERTY
Valence
SciTegic.value.DoubleValue
12.367

@<SCITEGIC>MOL_PROPERTY
Coulomb
SciTegic.value.DoubleValue
-7.745

@<SCITEGIC>MOL_PROPERTY
VdW
SciTegic.value.DoubleValue
2.276

@<SCITEGIC>MOL_PROPERTY
VdW6
SciTegic.value.DoubleValue
-9.828

@<SCITEGIC>MOL_PROPERTY
VdW12
SciTegic.value.DoubleValue
12.104

@<SCITEGIC>MOL_PROPERTY
Bond
SciTegic.value.DoubleValue
0.281

@<SCITEGIC>MOL_PROPERTY
Angle
SciTegic.value.DoubleValue
3.460

@<SCITEGIC>MOL_PROPERTY
Pdih
SciTegic.value.DoubleValue
8.626

@<SCITEGIC>MOL_PROPERTY
Idih
SciTegic.value.DoubleValue
0.000

@<SCITEGIC>MOL_PROPERTY
Tether
SciTegic.value.DoubleValue
0.000

@<TRIPOS>MOLECULE
guest-5_vm2.mol2 : vm2 ligand conformer 30
          22          22           1
SMALL
USER_CHARGES
 
@<TRIPOS>ATOM
       1    C1      19.974592   19.187708   21.067164 C.3        1 MOL1        -0.1685
       2    H1      20.914204   19.701486   20.823548 H          1 MOL1         0.0832
       3    H2      19.590100   18.789213   20.118501 H          1 MOL1         0.0832
       4    C2      18.928859   20.180436   21.624323 C.3        1 MOL1        -0.1685
       5    H3      18.441828   20.694962   20.784955 H          1 MOL1         0.0832
       6    H4      18.129565   19.617941   22.125856 H          1 MOL1         0.0832
       7    C3      19.477778   21.256264   22.593182 C.3        1 MOL1        -0.1685
       8    H5      18.645881   21.606755   23.219247 H          1 MOL1         0.0832
       9    H6      19.797719   22.128897   22.008008 H          1 MOL1         0.0832
      10    C4      20.655823   20.840643   23.513807 C.3        1 MOL1        -0.1761
      11    H7      21.592107   20.904453   22.944799 H          1 MOL1         0.0832
      12    H8      20.747859   21.593764   24.306792 H          1 MOL1         0.0832
      13    C5      20.577357   19.446308   24.180522 C.3        1 MOL1         0.1218
      14    H9      21.259603   19.471179   25.042480 H          1 MOL1         0.0789
      15    C6      21.084187   18.310095   23.260907 C.3        1 MOL1        -0.1761
      16    H10     22.102689   18.554987   22.932711 H          1 MOL1         0.0832
      17    H11     21.181718   17.395861   23.860441 H          1 MOL1         0.0832
      18    C7      20.224318   17.989445   22.013924 C.3        1 MOL1        -0.1685
      19    H12     20.731147   17.197582   21.446021 H          1 MOL1         0.0832
      20    H13     19.262786   17.562105   22.329204 H          1 MOL1         0.0832
      21    O1      19.263085   19.167102   24.653172 O.3        1 MOL1        -0.5509
      22    H14     19.271960   18.241727   24.970176 H          1 MOL1         0.3779
@<TRIPOS>BOND
    1     1     2    1
    2     1     3    1
    3     1     4    1
    4     4     5    1
    5     4     6    1
    6     4     7    1
    7     7     8    1
    8     7     9    1
    9     7    10    1
   10    10    11    1
   11    10    12    1
   12    10    13    1
   13    13    14    1
   14    13    15    1
   15    15    16    1
   16    15    17    1
   17     1    18    1
   18    15    18    1
   19    18    19    1
   20    18    20    1
   21    13    21    1
   22    21    22    1
@<TRIPOS>SUBSTRUCTURE
       1 MOL1            1 RESIDUE      1      MOL     
@<SCITEGIC>MOL_PROPERTY
VM2 Rank
SciTegic.value.IntegerValue
30

@<SCITEGIC>MOL_PROPERTY
Conf_Id
SciTegic.value.IntegerValue
1038

@<SCITEGIC>MOL_PROPERTY
Probability
SciTegic.value.DoubleValue
0.17

@<SCITEGIC>MOL_PROPERTY
Sum Probability
SciTegic.value.DoubleValue
99.27

@<SCITEGIC>MOL_PROPERTY
Delta G
SciTegic.value.DoubleValue
2.250

@<SCITEGIC>MOL_PROPERTY
G
SciTegic.value.DoubleValue
49.613

@<SCITEGIC>MOL_PROPERTY
E
SciTegic.value.DoubleValue
22.877

@<SCITEGIC>MOL_PROPERTY
-TS
SciTegic.value.DoubleValue
26.736

@<SCITEGIC>MOL_PROPERTY
U+W
SciTegic.value.DoubleValue
4.992

@<SCITEGIC>MOL_PROPERTY
U
SciTegic.value.DoubleValue
7.115

@<SCITEGIC>MOL_PROPERTY
W
SciTegic.value.DoubleValue
-2.123

@<SCITEGIC>MOL_PROPERTY
W(PB)
SciTegic.value.DoubleValue
-4.113

@<SCITEGIC>MOL_PROPERTY
W(SA)
SciTegic.value.DoubleValue
1.991

@<SCITEGIC>MOL_PROPERTY
Valence
SciTegic.value.DoubleValue
12.146

@<SCITEGIC>MOL_PROPERTY
Coulomb
SciTegic.value.DoubleValue
-6.960

@<SCITEGIC>MOL_PROPERTY
VdW
SciTegic.value.DoubleValue
1.928

@<SCITEGIC>MOL_PROPERTY
VdW6
SciTegic.value.DoubleValue
-10.064

@<SCITEGIC>MOL_PROPERTY
VdW12
SciTegic.value.DoubleValue
11.993

@<SCITEGIC>MOL_PROPERTY
Bond
SciTegic.value.DoubleValue
0.260

@<SCITEGIC>MOL_PROPERTY
Angle
SciTegic.value.DoubleValue
3.626

@<SCITEGIC>MOL_PROPERTY
Pdih
SciTegic.value.DoubleValue
8.260

@<SCITEGIC>MOL_PROPERTY
Idih
SciTegic.value.DoubleValue
0.000

@<SCITEGIC>MOL_PROPERTY
Tether
SciTegic.value.DoubleValue
0.000

@<TRIPOS>MOLECULE
guest-5_vm2.mol2 : vm2 ligand conformer 31
          22          22           1
SMALL
USER_CHARGES
 
@<TRIPOS>ATOM
       1    C1      19.274872   18.900292   21.395304 C.3        1 MOL1        -0.1685
       2    H1      19.031220   18.513601   20.396517 H          1 MOL1         0.0832
       3    H2      18.345381   18.818722   21.975131 H          1 MOL1         0.0832
       4    C2      19.668494   20.390326   21.275496 C.3        1 MOL1        -0.1685
       5    H3      20.717226   20.496725   20.967232 H          1 MOL1         0.0832
       6    H4      19.067476   20.834755   20.470601 H          1 MOL1         0.0832
       7    C3      19.384817   21.188958   22.570203 C.3        1 MOL1        -0.1685
       8    H5      18.364012   20.978507   22.916950 H          1 MOL1         0.0832
       9    H6      19.403228   22.260308   22.328734 H          1 MOL1         0.0832
      10    C4      20.386976   20.940552   23.723949 C.3        1 MOL1        -0.1761
      11    H7      21.368938   21.331671   23.427625 H          1 MOL1         0.0832
      12    H8      20.079758   21.544531   24.587433 H          1 MOL1         0.0832
      13    C5      20.561247   19.475344   24.189077 C.3        1 MOL1         0.1218
      14    H9      21.236242   19.506709   25.056516 H          1 MOL1         0.0789
      15    C6      21.247593   18.583989   23.126413 C.3        1 MOL1        -0.1761
      16    H10     22.052035   19.160721   22.652367 H          1 MOL1         0.0832
      17    H11     21.751309   17.759044   23.646243 H          1 MOL1         0.0832
      18    C7      20.346391   17.973680   22.020321 C.3        1 MOL1        -0.1685
      19    H12     20.999508   17.598821   21.220821 H          1 MOL1         0.0832
      20    H13     19.836533   17.089609   22.426913 H          1 MOL1         0.0832
      21    O1      19.315610   18.924859   24.606238 O.3        1 MOL1        -0.5509
      22    H14     18.903577   19.585564   25.198339 H          1 MOL1         0.3779
@<TRIPOS>BOND
    1     1     2    1
    2     1     3    1
    3     1     4    1
    4     4     5    1
    5     4     6    1
    6     4     7    1
    7     7     8    1
    8     7     9    1
    9     7    10    1
   10    10    11    1
   11    10    12    1
   12    10    13    1
   13    13    14    1
   14    13    15    1
   15    15    16    1
   16    15    17    1
   17     1    18    1
   18    15    18    1
   19    18    19    1
   20    18    20    1
   21    13    21    1
   22    21    22    1
@<TRIPOS>SUBSTRUCTURE
       1 MOL1            1 RESIDUE      1      MOL     
@<SCITEGIC>MOL_PROPERTY
VM2 Rank
SciTegic.value.IntegerValue
31

@<SCITEGIC>MOL_PROPERTY
Conf_Id
SciTegic.value.IntegerValue
258

@<SCITEGIC>MOL_PROPERTY
Probability
SciTegic.value.DoubleValue
0.16

@<SCITEGIC>MOL_PROPERTY
Sum Probability
SciTegic.value.DoubleValue
99.43

@<SCITEGIC>MOL_PROPERTY
Delta G
SciTegic.value.DoubleValue
2.298

@<SCITEGIC>MOL_PROPERTY
G
SciTegic.value.DoubleValue
49.661

@<SCITEGIC>MOL_PROPERTY
E
SciTegic.value.DoubleValue
22.925

@<SCITEGIC>MOL_PROPERTY
-TS
SciTegic.value.DoubleValue
26.736

@<SCITEGIC>MOL_PROPERTY
U+W
SciTegic.value.DoubleValue
5.040

@<SCITEGIC>MOL_PROPERTY
U
SciTegic.value.DoubleValue
7.115

@<SCITEGIC>MOL_PROPERTY
W
SciTegic.value.DoubleValue
-2.075

@<SCITEGIC>MOL_PROPERTY
W(PB)
SciTegic.value.DoubleValue
-4.071

@<SCITEGIC>MOL_PROPERTY
W(SA)
SciTegic.value.DoubleValue
1.997

@<SCITEGIC>MOL_PROPERTY
Valence
SciTegic.value.DoubleValue
12.146

@<SCITEGIC>MOL_PROPERTY
Coulomb
SciTegic.value.DoubleValue
-6.960

@<SCITEGIC>MOL_PROPERTY
VdW
SciTegic.value.DoubleValue
1.928

@<SCITEGIC>MOL_PROPERTY
VdW6
SciTegic.value.DoubleValue
-10.064

@<SCITEGIC>MOL_PROPERTY
VdW12
SciTegic.value.DoubleValue
11.993

@<SCITEGIC>MOL_PROPERTY
Bond
SciTegic.value.DoubleValue
0.260

@<SCITEGIC>MOL_PROPERTY
Angle
SciTegic.value.DoubleValue
3.626

@<SCITEGIC>MOL_PROPERTY
Pdih
SciTegic.value.DoubleValue
8.260

@<SCITEGIC>MOL_PROPERTY
Idih
SciTegic.value.DoubleValue
0.000

@<SCITEGIC>MOL_PROPERTY
Tether
SciTegic.value.DoubleValue
0.000

@<TRIPOS>MOLECULE
guest-5_vm2.mol2 : vm2 ligand conformer 32
          22          22           1
SMALL
USER_CHARGES
 
@<TRIPOS>ATOM
       1    C1      19.728794   19.003136   21.020585 C.3        1 MOL1        -0.1685
       2    H1      20.566290   19.332466   20.390724 H          1 MOL1         0.0832
       3    H2      19.039132   18.471752   20.350842 H          1 MOL1         0.0832
       4    C2      19.001300   20.237005   21.599989 C.3        1 MOL1        -0.1685
       5    H3      18.513510   20.762112   20.767600 H          1 MOL1         0.0832
       6    H4      18.197710   19.929057   22.283062 H          1 MOL1         0.0832
       7    C3      19.963302   21.224183   22.297165 C.3        1 MOL1        -0.1685
       8    H5      19.554694   22.239358   22.201595 H          1 MOL1         0.0832
       9    H6      20.925084   21.243018   21.767037 H          1 MOL1         0.0832
      10    C4      20.198037   20.948329   23.803058 C.3        1 MOL1        -0.1761
      11    H7      21.027387   21.588576   24.130662 H          1 MOL1         0.0832
      12    H8      19.323022   21.300431   24.365057 H          1 MOL1         0.0832
      13    C5      20.520165   19.492484   24.229535 C.3        1 MOL1         0.1218
      14    H9      21.233237   19.568903   25.063182 H          1 MOL1         0.0789
      15    C6      21.191315   18.604113   23.150469 C.3        1 MOL1        -0.1761
      16    H10     22.004577   19.158310   22.664951 H          1 MOL1         0.0832
      17    H11     21.673430   17.768546   23.673898 H          1 MOL1         0.0832
      18    C7      20.242377   18.002297   22.078778 C.3        1 MOL1        -0.1685
      19    H12     20.778620   17.200415   21.553847 H          1 MOL1         0.0832
      20    H13     19.387453   17.514427   22.565583 H          1 MOL1         0.0832
      21    O1      19.340709   18.866454   24.727420 O.3        1 MOL1        -0.5509
      22    H14     18.985198   19.449939   25.428181 H          1 MOL1         0.3779
@<TRIPOS>BOND
    1     1     2    1
    2     1     3    1
    3     1     4    1
    4     4     5    1
    5     4     6    1
    6     4     7    1
    7     7     8    1
    8     7     9    1
    9     7    10    1
   10    10    11    1
   11    10    12    1
   12    10    13    1
   13    13    14    1
   14    13    15    1
   15    15    16    1
   16    15    17    1
   17     1    18    1
   18    15    18    1
   19    18    19    1
   20    18    20    1
   21    13    21    1
   22    21    22    1
@<TRIPOS>SUBSTRUCTURE
       1 MOL1            1 RESIDUE      1      MOL     
@<SCITEGIC>MOL_PROPERTY
VM2 Rank
SciTegic.value.IntegerValue
32

@<SCITEGIC>MOL_PROPERTY
Conf_Id
SciTegic.value.IntegerValue
138

@<SCITEGIC>MOL_PROPERTY
Probability
SciTegic.value.DoubleValue
0.14

@<SCITEGIC>MOL_PROPERTY
Sum Probability
SciTegic.value.DoubleValue
99.57

@<SCITEGIC>MOL_PROPERTY
Delta G
SciTegic.value.DoubleValue
2.378

@<SCITEGIC>MOL_PROPERTY
G
SciTegic.value.DoubleValue
49.740

@<SCITEGIC>MOL_PROPERTY
E
SciTegic.value.DoubleValue
23.113

@<SCITEGIC>MOL_PROPERTY
-TS
SciTegic.value.DoubleValue
26.627

@<SCITEGIC>MOL_PROPERTY
U+W
SciTegic.value.DoubleValue
5.228

@<SCITEGIC>MOL_PROPERTY
U
SciTegic.value.DoubleValue
7.482

@<SCITEGIC>MOL_PROPERTY
W
SciTegic.value.DoubleValue
-2.254

@<SCITEGIC>MOL_PROPERTY
W(PB)
SciTegic.value.DoubleValue
-4.248

@<SCITEGIC>MOL_PROPERTY
W(SA)
SciTegic.value.DoubleValue
1.995

@<SCITEGIC>MOL_PROPERTY
Valence
SciTegic.value.DoubleValue
12.309

@<SCITEGIC>MOL_PROPERTY
Coulomb
SciTegic.value.DoubleValue
-7.084

@<SCITEGIC>MOL_PROPERTY
VdW
SciTegic.value.DoubleValue
2.258

@<SCITEGIC>MOL_PROPERTY
VdW6
SciTegic.value.DoubleValue
-9.770

@<SCITEGIC>MOL_PROPERTY
VdW12
SciTegic.value.DoubleValue
12.028

@<SCITEGIC>MOL_PROPERTY
Bond
SciTegic.value.DoubleValue
0.284

@<SCITEGIC>MOL_PROPERTY
Angle
SciTegic.value.DoubleValue
3.491

@<SCITEGIC>MOL_PROPERTY
Pdih
SciTegic.value.DoubleValue
8.534

@<SCITEGIC>MOL_PROPERTY
Idih
SciTegic.value.DoubleValue
0.000

@<SCITEGIC>MOL_PROPERTY
Tether
SciTegic.value.DoubleValue
0.000

@<TRIPOS>MOLECULE
guest-5_vm2.mol2 : vm2 ligand conformer 33
          22          22           1
SMALL
USER_CHARGES
 
@<TRIPOS>ATOM
       1    C1      19.349866   18.881394   21.373571 C.3        1 MOL1        -0.1685
       2    H1      19.101131   18.479005   20.382227 H          1 MOL1         0.0832
       3    H2      18.577411   18.508307   22.060082 H          1 MOL1         0.0832
       4    C2      19.303262   20.423234   21.284470 C.3        1 MOL1        -0.1685
       5    H3      20.121223   20.779223   20.643536 H          1 MOL1         0.0832
       6    H4      18.374016   20.717398   20.777985 H          1 MOL1         0.0832
       7    C3      19.362381   21.149310   22.646285 C.3        1 MOL1        -0.1685
       8    H5      18.435549   20.957567   23.203157 H          1 MOL1         0.0832
       9    H6      19.370950   22.230402   22.453172 H          1 MOL1         0.0832
      10    C4      20.592855   20.800820   23.527010 C.3        1 MOL1        -0.1761
      11    H7      21.516813   20.917912   22.946622 H          1 MOL1         0.0832
      12    H8      20.649796   21.548311   24.328633 H          1 MOL1         0.0832
      13    C5      20.569980   19.406158   24.204084 C.3        1 MOL1         0.1218
      14    H9      21.311320   19.437491   25.015694 H          1 MOL1         0.0789
      15    C6      20.968739   18.209288   23.302068 C.3        1 MOL1        -0.1761
      16    H10     22.035875   18.006471   23.460651 H          1 MOL1         0.0832
      17    H11     20.449040   17.308073   23.653062 H          1 MOL1         0.0832
      18    C7      20.742765   18.348690   21.776158 C.3        1 MOL1        -0.1685
      19    H12     21.524505   18.985067   21.339900 H          1 MOL1         0.0832
      20    H13     20.883835   17.357555   21.324021 H          1 MOL1         0.0832
      21    O1      19.296150   19.159107   24.793354 O.3        1 MOL1        -0.5509
      22    H14     19.353782   18.288450   25.236690 H          1 MOL1         0.3779
@<TRIPOS>BOND
    1     1     2    1
    2     1     3    1
    3     1     4    1
    4     4     5    1
    5     4     6    1
    6     4     7    1
    7     7     8    1
    8     7     9    1
    9     7    10    1
   10    10    11    1
   11    10    12    1
   12    10    13    1
   13    13    14    1
   14    13    15    1
   15    15    16    1
   16    15    17    1
   17     1    18    1
   18    15    18    1
   19    18    19    1
   20    18    20    1
   21    13    21    1
   22    21    22    1
@<TRIPOS>SUBSTRUCTURE
       1 MOL1            1 RESIDUE      1      MOL     
@<SCITEGIC>MOL_PROPERTY
VM2 Rank
SciTegic.value.IntegerValue
33

@<SCITEGIC>MOL_PROPERTY
Conf_Id
SciTegic.value.IntegerValue
277

@<SCITEGIC>MOL_PROPERTY
Probability
SciTegic.value.DoubleValue
0.14

@<SCITEGIC>MOL_PROPERTY
Sum Probability
SciTegic.value.DoubleValue
99.70

@<SCITEGIC>MOL_PROPERTY
Delta G
SciTegic.value.DoubleValue
2.401

@<SCITEGIC>MOL_PROPERTY
G
SciTegic.value.DoubleValue
49.763

@<SCITEGIC>MOL_PROPERTY
E
SciTegic.value.DoubleValue
23.136

@<SCITEGIC>MOL_PROPERTY
-TS
SciTegic.value.DoubleValue
26.627

@<SCITEGIC>MOL_PROPERTY
U+W
SciTegic.value.DoubleValue
5.252

@<SCITEGIC>MOL_PROPERTY
U
SciTegic.value.DoubleValue
7.482

@<SCITEGIC>MOL_PROPERTY
W
SciTegic.value.DoubleValue
-2.230

@<SCITEGIC>MOL_PROPERTY
W(PB)
SciTegic.value.DoubleValue
-4.220

@<SCITEGIC>MOL_PROPERTY
W(SA)
SciTegic.value.DoubleValue
1.990

@<SCITEGIC>MOL_PROPERTY
Valence
SciTegic.value.DoubleValue
12.309

@<SCITEGIC>MOL_PROPERTY
Coulomb
SciTegic.value.DoubleValue
-7.084

@<SCITEGIC>MOL_PROPERTY
VdW
SciTegic.value.DoubleValue
2.257

@<SCITEGIC>MOL_PROPERTY
VdW6
SciTegic.value.DoubleValue
-9.770

@<SCITEGIC>MOL_PROPERTY
VdW12
SciTegic.value.DoubleValue
12.028

@<SCITEGIC>MOL_PROPERTY
Bond
SciTegic.value.DoubleValue
0.284

@<SCITEGIC>MOL_PROPERTY
Angle
SciTegic.value.DoubleValue
3.491

@<SCITEGIC>MOL_PROPERTY
Pdih
SciTegic.value.DoubleValue
8.535

@<SCITEGIC>MOL_PROPERTY
Idih
SciTegic.value.DoubleValue
0.000

@<SCITEGIC>MOL_PROPERTY
Tether
SciTegic.value.DoubleValue
0.000

@<TRIPOS>MOLECULE
guest-5_vm2.mol2 : vm2 ligand conformer 34
          22          22           1
SMALL
USER_CHARGES
 
@<TRIPOS>ATOM
       1    C1      19.874662   19.196093   20.918198 C.3        1 MOL1        -0.1685
       2    H1      20.451668   19.821666   20.223656 H          1 MOL1         0.0832
       3    H2      19.288164   18.514814   20.286702 H          1 MOL1         0.0832
       4    C2      18.874002   20.081487   21.703611 C.3        1 MOL1        -0.1685
       5    H3      18.202751   20.571259   20.985054 H          1 MOL1         0.0832
       6    H4      18.220483   19.446574   22.314910 H          1 MOL1         0.0832
       7    C3      19.517403   21.176018   22.588332 C.3        1 MOL1        -0.1685
       8    H5      18.735685   21.609865   23.226559 H          1 MOL1         0.0832
       9    H6      19.865735   21.995719   21.945354 H          1 MOL1         0.0832
      10    C4      20.703008   20.717926   23.477497 C.3        1 MOL1        -0.1761
      11    H7      21.621675   20.710944   22.878885 H          1 MOL1         0.0832
      12    H8      20.876652   21.482877   24.245674 H          1 MOL1         0.0832
      13    C5      20.541611   19.346842   24.180286 C.3        1 MOL1         0.1218
      14    H9      21.437779   19.197754   24.799605 H          1 MOL1         0.0789
      15    C6      20.419072   18.112732   23.242360 C.3        1 MOL1        -0.1761
      16    H10     21.043819   17.315337   23.664997 H          1 MOL1         0.0832
      17    H11     19.396797   17.713047   23.259332 H          1 MOL1         0.0832
      18    C7      20.853986   18.341758   21.770675 C.3        1 MOL1        -0.1685
      19    H12     21.856401   18.788878   21.748908 H          1 MOL1         0.0832
      20    H13     20.969257   17.364538   21.282202 H          1 MOL1         0.0832
      21    O1      19.402257   19.405144   25.026040 O.3        1 MOL1        -0.5509
      22    H14     18.669632   19.698043   24.447296 H          1 MOL1         0.3779
@<TRIPOS>BOND
    1     1     2    1
    2     1     3    1
    3     1     4    1
    4     4     5    1
    5     4     6    1
    6     4     7    1
    7     7     8    1
    8     7     9    1
    9     7    10    1
   10    10    11    1
   11    10    12    1
   12    10    13    1
   13    13    14    1
   14    13    15    1
   15    15    16    1
   16    15    17    1
   17     1    18    1
   18    15    18    1
   19    18    19    1
   20    18    20    1
   21    13    21    1
   22    21    22    1
@<TRIPOS>SUBSTRUCTURE
       1 MOL1            1 RESIDUE      1      MOL     
@<SCITEGIC>MOL_PROPERTY
VM2 Rank
SciTegic.value.IntegerValue
34

@<SCITEGIC>MOL_PROPERTY
Conf_Id
SciTegic.value.IntegerValue
951

@<SCITEGIC>MOL_PROPERTY
Probability
SciTegic.value.DoubleValue
0.06

@<SCITEGIC>MOL_PROPERTY
Sum Probability
SciTegic.value.DoubleValue
99.77

@<SCITEGIC>MOL_PROPERTY
Delta G
SciTegic.value.DoubleValue
2.851

@<SCITEGIC>MOL_PROPERTY
G
SciTegic.value.DoubleValue
50.213

@<SCITEGIC>MOL_PROPERTY
E
SciTegic.value.DoubleValue
23.586

@<SCITEGIC>MOL_PROPERTY
-TS
SciTegic.value.DoubleValue
26.627

@<SCITEGIC>MOL_PROPERTY
U+W
SciTegic.value.DoubleValue
5.701

@<SCITEGIC>MOL_PROPERTY
U
SciTegic.value.DoubleValue
7.208

@<SCITEGIC>MOL_PROPERTY
W
SciTegic.value.DoubleValue
-1.507

@<SCITEGIC>MOL_PROPERTY
W(PB)
SciTegic.value.DoubleValue
-3.498

@<SCITEGIC>MOL_PROPERTY
W(SA)
SciTegic.value.DoubleValue
1.991

@<SCITEGIC>MOL_PROPERTY
Valence
SciTegic.value.DoubleValue
13.629

@<SCITEGIC>MOL_PROPERTY
Coulomb
SciTegic.value.DoubleValue
-9.916

@<SCITEGIC>MOL_PROPERTY
VdW
SciTegic.value.DoubleValue
3.495

@<SCITEGIC>MOL_PROPERTY
VdW6
SciTegic.value.DoubleValue
-10.513

@<SCITEGIC>MOL_PROPERTY
VdW12
SciTegic.value.DoubleValue
14.008

@<SCITEGIC>MOL_PROPERTY
Bond
SciTegic.value.DoubleValue
0.431

@<SCITEGIC>MOL_PROPERTY
Angle
SciTegic.value.DoubleValue
3.722

@<SCITEGIC>MOL_PROPERTY
Pdih
SciTegic.value.DoubleValue
9.475

@<SCITEGIC>MOL_PROPERTY
Idih
SciTegic.value.DoubleValue
0.000

@<SCITEGIC>MOL_PROPERTY
Tether
SciTegic.value.DoubleValue
0.000

@<TRIPOS>MOLECULE
guest-5_vm2.mol2 : vm2 ligand conformer 35
          22          22           1
SMALL
USER_CHARGES
 
@<TRIPOS>ATOM
       1    C1      19.167541   18.941457   21.502355 C.3        1 MOL1        -0.1685
       2    H1      18.748502   18.455689   20.610607 H          1 MOL1         0.0832
       3    H2      18.347705   18.951475   22.231503 H          1 MOL1         0.0832
       4    C2      19.555576   20.396125   21.134253 C.3        1 MOL1        -0.1685
       5    H3      20.296849   20.384418   20.323669 H          1 MOL1         0.0832
       6    H4      18.663416   20.879844   20.713568 H          1 MOL1         0.0832
       7    C3      20.083140   21.282938   22.296556 C.3        1 MOL1        -0.1685
       8    H5      19.677544   22.295420   22.165311 H          1 MOL1         0.0832
       9    H6      21.171357   21.401046   22.212490 H          1 MOL1         0.0832
      10    C4      19.723123   20.784934   23.721280 C.3        1 MOL1        -0.1761
      11    H7      19.929352   21.596372   24.431073 H          1 MOL1         0.0832
      12    H8      18.639591   20.620210   23.783760 H          1 MOL1         0.0832
      13    C5      20.498422   19.529347   24.211323 C.3        1 MOL1         0.1218
      14    H9      21.267517   19.875911   24.916509 H          1 MOL1         0.0789
      15    C6      21.227763   18.713399   23.114914 C.3        1 MOL1        -0.1761
      16    H10     21.976416   19.350225   22.628796 H          1 MOL1         0.0832
      17    H11     21.810314   17.920778   23.602545 H          1 MOL1         0.0832
      18    C7      20.327779   18.064452   22.030939 C.3        1 MOL1        -0.1685
      19    H12     20.964836   17.768368   21.186452 H          1 MOL1         0.0832
      20    H13     19.904601   17.131020   22.426242 H          1 MOL1         0.0832
      21    O1      19.602656   18.665347   24.895381 O.3        1 MOL1        -0.5509
      22    H14     19.048552   18.265796   24.194811 H          1 MOL1         0.3779
@<TRIPOS>BOND
    1     1     2    1
    2     1     3    1
    3     1     4    1
    4     4     5    1
    5     4     6    1
    6     4     7    1
    7     7     8    1
    8     7     9    1
    9     7    10    1
   10    10    11    1
   11    10    12    1
   12    10    13    1
   13    13    14    1
   14    13    15    1
   15    15    16    1
   16    15    17    1
   17     1    18    1
   18    15    18    1
   19    18    19    1
   20    18    20    1
   21    13    21    1
   22    21    22    1
@<TRIPOS>SUBSTRUCTURE
       1 MOL1            1 RESIDUE      1      MOL     
@<SCITEGIC>MOL_PROPERTY
VM2 Rank
SciTegic.value.IntegerValue
35

@<SCITEGIC>MOL_PROPERTY
Conf_Id
SciTegic.value.IntegerValue
615

@<SCITEGIC>MOL_PROPERTY
Probability
SciTegic.value.DoubleValue
0.06

@<SCITEGIC>MOL_PROPERTY
Sum Probability
SciTegic.value.DoubleValue
99.83

@<SCITEGIC>MOL_PROPERTY
Delta G
SciTegic.value.DoubleValue
2.857

@<SCITEGIC>MOL_PROPERTY
G
SciTegic.value.DoubleValue
50.219

@<SCITEGIC>MOL_PROPERTY
E
SciTegic.value.DoubleValue
23.593

@<SCITEGIC>MOL_PROPERTY
-TS
SciTegic.value.DoubleValue
26.626

@<SCITEGIC>MOL_PROPERTY
U+W
SciTegic.value.DoubleValue
5.708

@<SCITEGIC>MOL_PROPERTY
U
SciTegic.value.DoubleValue
7.208

@<SCITEGIC>MOL_PROPERTY
W
SciTegic.value.DoubleValue
-1.500

@<SCITEGIC>MOL_PROPERTY
W(PB)
SciTegic.value.DoubleValue
-3.490

@<SCITEGIC>MOL_PROPERTY
W(SA)
SciTegic.value.DoubleValue
1.989

@<SCITEGIC>MOL_PROPERTY
Valence
SciTegic.value.DoubleValue
13.629

@<SCITEGIC>MOL_PROPERTY
Coulomb
SciTegic.value.DoubleValue
-9.915

@<SCITEGIC>MOL_PROPERTY
VdW
SciTegic.value.DoubleValue
3.495

@<SCITEGIC>MOL_PROPERTY
VdW6
SciTegic.value.DoubleValue
-10.513

@<SCITEGIC>MOL_PROPERTY
VdW12
SciTegic.value.DoubleValue
14.008

@<SCITEGIC>MOL_PROPERTY
Bond
SciTegic.value.DoubleValue
0.431

@<SCITEGIC>MOL_PROPERTY
Angle
SciTegic.value.DoubleValue
3.722

@<SCITEGIC>MOL_PROPERTY
Pdih
SciTegic.value.DoubleValue
9.476

@<SCITEGIC>MOL_PROPERTY
Idih
SciTegic.value.DoubleValue
0.000

@<SCITEGIC>MOL_PROPERTY
Tether
SciTegic.value.DoubleValue
0.000

@<TRIPOS>MOLECULE
guest-5_vm2.mol2 : vm2 ligand conformer 36
          22          22           1
SMALL
USER_CHARGES
 
@<TRIPOS>ATOM
       1    C1      19.175561   18.952388   21.469788 C.3        1 MOL1        -0.1685
       2    H1      18.775988   18.473904   20.565459 H          1 MOL1         0.0832
       3    H2      18.335190   18.973044   22.175502 H          1 MOL1         0.0832
       4    C2      19.601929   20.401244   21.118054 C.3        1 MOL1        -0.1685
       5    H3      20.391460   20.375460   20.354794 H          1 MOL1         0.0832
       6    H4      18.743337   20.891912   20.639655 H          1 MOL1         0.0832
       7    C3      20.065796   21.291561   22.306324 C.3        1 MOL1        -0.1685
       8    H5      19.627068   22.290411   22.177523 H          1 MOL1         0.0832
       9    H6      21.151264   21.448116   22.252618 H          1 MOL1         0.0832
      10    C4      19.689823   20.763892   23.716589 C.3        1 MOL1        -0.1761
      11    H7      19.846963   21.572229   24.442067 H          1 MOL1         0.0832
      12    H8      18.613242   20.553392   23.752750 H          1 MOL1         0.0832
      13    C5      20.499716   19.531934   24.206855 C.3        1 MOL1         0.1218
      14    H9      21.288307   19.908521   24.874276 H          1 MOL1         0.0789
      15    C6      21.213462   18.710125   23.103242 C.3        1 MOL1        -0.1761
      16    H10     21.948236   19.349197   22.598912 H          1 MOL1         0.0832
      17    H11     21.810905   17.923471   23.581725 H          1 MOL1         0.0832
      18    C7      20.299354   18.053285   22.037744 C.3        1 MOL1        -0.1685
      19    H12     20.930448   17.703445   21.209692 H          1 MOL1         0.0832
      20    H13     19.837243   17.153820   22.466694 H          1 MOL1         0.0832
      21    O1      19.640359   18.673571   24.948404 O.3        1 MOL1        -0.5509
      22    H14     20.169805   17.884516   25.184159 H          1 MOL1         0.3779
@<TRIPOS>BOND
    1     1     2    1
    2     1     3    1
    3     1     4    1
    4     4     5    1
    5     4     6    1
    6     4     7    1
    7     7     8    1
    8     7     9    1
    9     7    10    1
   10    10    11    1
   11    10    12    1
   12    10    13    1
   13    13    14    1
   14    13    15    1
   15    15    16    1
   16    15    17    1
   17     1    18    1
   18    15    18    1
   19    18    19    1
   20    18    20    1
   21    13    21    1
   22    21    22    1
@<TRIPOS>SUBSTRUCTURE
       1 MOL1            1 RESIDUE      1      MOL     
@<SCITEGIC>MOL_PROPERTY
VM2 Rank
SciTegic.value.IntegerValue
36

@<SCITEGIC>MOL_PROPERTY
Conf_Id
SciTegic.value.IntegerValue
111

@<SCITEGIC>MOL_PROPERTY
Probability
SciTegic.value.DoubleValue
0.02

@<SCITEGIC>MOL_PROPERTY
Sum Probability
SciTegic.value.DoubleValue
99.85

@<SCITEGIC>MOL_PROPERTY
Delta G
SciTegic.value.DoubleValue
3.420

@<SCITEGIC>MOL_PROPERTY
G
SciTegic.value.DoubleValue
50.782

@<SCITEGIC>MOL_PROPERTY
E
SciTegic.value.DoubleValue
24.514

@<SCITEGIC>MOL_PROPERTY
-TS
SciTegic.value.DoubleValue
26.268

@<SCITEGIC>MOL_PROPERTY
U+W
SciTegic.value.DoubleValue
6.630

@<SCITEGIC>MOL_PROPERTY
U
SciTegic.value.DoubleValue
8.892

@<SCITEGIC>MOL_PROPERTY
W
SciTegic.value.DoubleValue
-2.262

@<SCITEGIC>MOL_PROPERTY
W(PB)
SciTegic.value.DoubleValue
-4.259

@<SCITEGIC>MOL_PROPERTY
W(SA)
SciTegic.value.DoubleValue
1.996

@<SCITEGIC>MOL_PROPERTY
Valence
SciTegic.value.DoubleValue
13.213

@<SCITEGIC>MOL_PROPERTY
Coulomb
SciTegic.value.DoubleValue
-7.892

@<SCITEGIC>MOL_PROPERTY
VdW
SciTegic.value.DoubleValue
3.571

@<SCITEGIC>MOL_PROPERTY
VdW6
SciTegic.value.DoubleValue
-10.254

@<SCITEGIC>MOL_PROPERTY
VdW12
SciTegic.value.DoubleValue
13.825

@<SCITEGIC>MOL_PROPERTY
Bond
SciTegic.value.DoubleValue
0.437

@<SCITEGIC>MOL_PROPERTY
Angle
SciTegic.value.DoubleValue
3.615

@<SCITEGIC>MOL_PROPERTY
Pdih
SciTegic.value.DoubleValue
9.161

@<SCITEGIC>MOL_PROPERTY
Idih
SciTegic.value.DoubleValue
0.000

@<SCITEGIC>MOL_PROPERTY
Tether
SciTegic.value.DoubleValue
0.000

@<TRIPOS>MOLECULE
guest-5_vm2.mol2 : vm2 ligand conformer 37
          22          22           1
SMALL
USER_CHARGES
 
@<TRIPOS>ATOM
       1    C1      19.912624   19.220127   20.905377 C.3        1 MOL1        -0.1685
       2    H1      20.532209   19.861466   20.263981 H          1 MOL1         0.0832
       3    H2      19.349945   18.571298   20.220383 H          1 MOL1         0.0832
       4    C2      18.885209   20.093381   21.671240 C.3        1 MOL1        -0.1685
       5    H3      18.235515   20.594252   20.940870 H          1 MOL1         0.0832
       6    H4      18.213819   19.451217   22.255656 H          1 MOL1         0.0832
       7    C3      19.496139   21.172330   22.596720 C.3        1 MOL1        -0.1685
       8    H5      18.701952   21.552905   23.253235 H          1 MOL1         0.0832
       9    H6      19.818843   22.026342   21.986094 H          1 MOL1         0.0832
      10    C4      20.694996   20.713882   23.465563 C.3        1 MOL1        -0.1761
      11    H7      21.600199   20.699499   22.846650 H          1 MOL1         0.0832
      12    H8      20.888987   21.482897   24.224307 H          1 MOL1         0.0832
      13    C5      20.544051   19.343808   24.174701 C.3        1 MOL1         0.1218
      14    H9      21.468446   19.186574   24.749084 H          1 MOL1         0.0789
      15    C6      20.371789   18.113717   23.241316 C.3        1 MOL1        -0.1761
      16    H10     20.949007   17.287047   23.674740 H          1 MOL1         0.0832
      17    H11     19.329667   17.769407   23.250085 H          1 MOL1         0.0832
      18    C7      20.835623   18.318759   21.774533 C.3        1 MOL1        -0.1685
      19    H12     21.858741   18.717277   21.767585 H          1 MOL1         0.0832
      20    H13     20.909368   17.335759   21.289722 H          1 MOL1         0.0832
      21    O1      19.445570   19.401996   25.077550 O.3        1 MOL1        -0.5509
      22    H14     19.559052   20.220401   25.602750 H          1 MOL1         0.3779
@<TRIPOS>BOND
    1     1     2    1
    2     1     3    1
    3     1     4    1
    4     4     5    1
    5     4     6    1
    6     4     7    1
    7     7     8    1
    8     7     9    1
    9     7    10    1
   10    10    11    1
   11    10    12    1
   12    10    13    1
   13    13    14    1
   14    13    15    1
   15    15    16    1
   16    15    17    1
   17     1    18    1
   18    15    18    1
   19    18    19    1
   20    18    20    1
   21    13    21    1
   22    21    22    1
@<TRIPOS>SUBSTRUCTURE
       1 MOL1            1 RESIDUE      1      MOL     
@<SCITEGIC>MOL_PROPERTY
VM2 Rank
SciTegic.value.IntegerValue
37

@<SCITEGIC>MOL_PROPERTY
Conf_Id
SciTegic.value.IntegerValue
309

@<SCITEGIC>MOL_PROPERTY
Probability
SciTegic.value.DoubleValue
0.02

@<SCITEGIC>MOL_PROPERTY
Sum Probability
SciTegic.value.DoubleValue
99.88

@<SCITEGIC>MOL_PROPERTY
Delta G
SciTegic.value.DoubleValue
3.422

@<SCITEGIC>MOL_PROPERTY
G
SciTegic.value.DoubleValue
50.785

@<SCITEGIC>MOL_PROPERTY
E
SciTegic.value.DoubleValue
24.517

@<SCITEGIC>MOL_PROPERTY
-TS
SciTegic.value.DoubleValue
26.267

@<SCITEGIC>MOL_PROPERTY
U+W
SciTegic.value.DoubleValue
6.632

@<SCITEGIC>MOL_PROPERTY
U
SciTegic.value.DoubleValue
8.892

@<SCITEGIC>MOL_PROPERTY
W
SciTegic.value.DoubleValue
-2.260

@<SCITEGIC>MOL_PROPERTY
W(PB)
SciTegic.value.DoubleValue
-4.261

@<SCITEGIC>MOL_PROPERTY
W(SA)
SciTegic.value.DoubleValue
2.002

@<SCITEGIC>MOL_PROPERTY
Valence
SciTegic.value.DoubleValue
13.213

@<SCITEGIC>MOL_PROPERTY
Coulomb
SciTegic.value.DoubleValue
-7.892

@<SCITEGIC>MOL_PROPERTY
VdW
SciTegic.value.DoubleValue
3.571

@<SCITEGIC>MOL_PROPERTY
VdW6
SciTegic.value.DoubleValue
-10.254

@<SCITEGIC>MOL_PROPERTY
VdW12
SciTegic.value.DoubleValue
13.825

@<SCITEGIC>MOL_PROPERTY
Bond
SciTegic.value.DoubleValue
0.437

@<SCITEGIC>MOL_PROPERTY
Angle
SciTegic.value.DoubleValue
3.615

@<SCITEGIC>MOL_PROPERTY
Pdih
SciTegic.value.DoubleValue
9.161

@<SCITEGIC>MOL_PROPERTY
Idih
SciTegic.value.DoubleValue
0.000

@<SCITEGIC>MOL_PROPERTY
Tether
SciTegic.value.DoubleValue
0.000

@<TRIPOS>MOLECULE
guest-5_vm2.mol2 : vm2 ligand conformer 38
          22          22           1
SMALL
USER_CHARGES
 
@<TRIPOS>ATOM
       1    C1      20.030502   19.135062   20.849521 C.3        1 MOL1        -0.1685
       2    H1      20.933989   18.779578   20.335638 H          1 MOL1         0.0832
       3    H2      19.231785   19.124378   20.095372 H          1 MOL1         0.0832
       4    C2      20.267282   20.595452   21.304902 C.3        1 MOL1        -0.1685
       5    H3      21.295456   20.703865   21.672502 H          1 MOL1         0.0832
       6    H4      20.215329   21.242833   20.418892 H          1 MOL1         0.0832
       7    C3      19.268086   21.126863   22.365304 C.3        1 MOL1        -0.1685
       8    H5      18.247248   21.078396   21.962560 H          1 MOL1         0.0832
       9    H6      19.477382   22.195009   22.514144 H          1 MOL1         0.0832
      10    C4      19.305008   20.428129   23.756434 C.3        1 MOL1        -0.1761
      11    H7      19.264397   21.205623   24.530829 H          1 MOL1         0.0832
      12    H8      18.393707   19.833359   23.897522 H          1 MOL1         0.0832
      13    C5      20.538559   19.530964   24.019214 C.3        1 MOL1         0.1218
      14    H9      21.439872   20.099184   23.751823 H          1 MOL1         0.0789
      15    C6      20.538399   18.188569   23.236132 C.3        1 MOL1        -0.1761
      16    H10     21.572496   17.940515   22.964545 H          1 MOL1         0.0832
      17    H11     20.201238   17.384656   23.904358 H          1 MOL1         0.0832
      18    C7      19.651688   18.131247   21.964171 C.3        1 MOL1        -0.1685
      19    H12     19.702942   17.116592   21.546541 H          1 MOL1         0.0832
      20    H13     18.598707   18.273183   22.239802 H          1 MOL1         0.0832
      21    O1      20.586475   19.241714   25.411322 O.3        1 MOL1        -0.5509
      22    H14     21.402523   18.720195   25.562839 H          1 MOL1         0.3779
@<TRIPOS>BOND
    1     1     2    1
    2     1     3    1
    3     1     4    1
    4     4     5    1
    5     4     6    1
    6     4     7    1
    7     7     8    1
    8     7     9    1
    9     7    10    1
   10    10    11    1
   11    10    12    1
   12    10    13    1
   13    13    14    1
   14    13    15    1
   15    15    16    1
   16    15    17    1
   17     1    18    1
   18    15    18    1
   19    18    19    1
   20    18    20    1
   21    13    21    1
   22    21    22    1
@<TRIPOS>SUBSTRUCTURE
       1 MOL1            1 RESIDUE      1      MOL     
@<SCITEGIC>MOL_PROPERTY
VM2 Rank
SciTegic.value.IntegerValue
38

@<SCITEGIC>MOL_PROPERTY
Conf_Id
SciTegic.value.IntegerValue
1039

@<SCITEGIC>MOL_PROPERTY
Probability
SciTegic.value.DoubleValue
0.02

@<SCITEGIC>MOL_PROPERTY
Sum Probability
SciTegic.value.DoubleValue
99.89

@<SCITEGIC>MOL_PROPERTY
Delta G
SciTegic.value.DoubleValue
3.612

@<SCITEGIC>MOL_PROPERTY
G
SciTegic.value.DoubleValue
50.975

@<SCITEGIC>MOL_PROPERTY
E
SciTegic.value.DoubleValue
24.157

@<SCITEGIC>MOL_PROPERTY
-TS
SciTegic.value.DoubleValue
26.818

@<SCITEGIC>MOL_PROPERTY
U+W
SciTegic.value.DoubleValue
6.273

@<SCITEGIC>MOL_PROPERTY
U
SciTegic.value.DoubleValue
8.574

@<SCITEGIC>MOL_PROPERTY
W
SciTegic.value.DoubleValue
-2.301

@<SCITEGIC>MOL_PROPERTY
W(PB)
SciTegic.value.DoubleValue
-4.325

@<SCITEGIC>MOL_PROPERTY
W(SA)
SciTegic.value.DoubleValue
2.023

@<SCITEGIC>MOL_PROPERTY
Valence
SciTegic.value.DoubleValue
13.346

@<SCITEGIC>MOL_PROPERTY
Coulomb
SciTegic.value.DoubleValue
-8.599

@<SCITEGIC>MOL_PROPERTY
VdW
SciTegic.value.DoubleValue
3.827

@<SCITEGIC>MOL_PROPERTY
VdW6
SciTegic.value.DoubleValue
-9.679

@<SCITEGIC>MOL_PROPERTY
VdW12
SciTegic.value.DoubleValue
13.506

@<SCITEGIC>MOL_PROPERTY
Bond
SciTegic.value.DoubleValue
0.433

@<SCITEGIC>MOL_PROPERTY
Angle
SciTegic.value.DoubleValue
3.364

@<SCITEGIC>MOL_PROPERTY
Pdih
SciTegic.value.DoubleValue
9.549

@<SCITEGIC>MOL_PROPERTY
Idih
SciTegic.value.DoubleValue
0.000

@<SCITEGIC>MOL_PROPERTY
Tether
SciTegic.value.DoubleValue
0.000

@<TRIPOS>MOLECULE
guest-5_vm2.mol2 : vm2 ligand conformer 39
          22          22           1
SMALL
USER_CHARGES
 
@<TRIPOS>ATOM
       1    C1      20.561678   19.285364   21.066548 C.3        1 MOL1        -0.1685
       2    H1      21.565724   19.503608   21.451627 H          1 MOL1         0.0832
       3    H2      20.716997   19.012873   20.013724 H          1 MOL1         0.0832
       4    C2      19.698975   20.569899   21.109896 C.3        1 MOL1        -0.1685
       5    H3      20.326472   21.421122   20.812579 H          1 MOL1         0.0832
       6    H4      18.912972   20.494533   20.346141 H          1 MOL1         0.0832
       7    C3      19.022785   20.885950   22.465061 C.3        1 MOL1        -0.1685
       8    H5      18.151607   20.231710   22.598869 H          1 MOL1         0.0832
       9    H6      18.610828   21.903033   22.416044 H          1 MOL1         0.0832
      10    C4      19.948522   20.785930   23.706208 C.3        1 MOL1        -0.1761
      11    H7      20.758505   21.520345   23.610247 H          1 MOL1         0.0832
      12    H8      19.358868   21.099873   24.578118 H          1 MOL1         0.0832
      13    C5      20.572945   19.391933   23.992796 C.3        1 MOL1         0.1218
      14    H9      21.605554   19.380391   23.618192 H          1 MOL1         0.0789
      15    C6      19.813157   18.204132   23.354473 C.3        1 MOL1        -0.1761
      16    H10     20.163072   17.272619   23.818879 H          1 MOL1         0.0832
      17    H11     18.750504   18.275999   23.618535 H          1 MOL1         0.0832
      18    C7      19.964231   18.063078   21.811068 C.3        1 MOL1        -0.1685
      19    H12     18.989288   17.808963   21.373376 H          1 MOL1         0.0832
      20    H13     20.613549   17.200246   21.609072 H          1 MOL1         0.0832
      21    O1      20.603706   19.191714   25.400950 O.3        1 MOL1        -0.5509
      22    H14     21.134768   19.924200   25.778190 H          1 MOL1         0.3779
@<TRIPOS>BOND
    1     1     2    1
    2     1     3    1
    3     1     4    1
    4     4     5    1
    5     4     6    1
    6     4     7    1
    7     7     8    1
    8     7     9    1
    9     7    10    1
   10    10    11    1
   11    10    12    1
   12    10    13    1
   13    13    14    1
   14    13    15    1
   15    15    16    1
   16    15    17    1
   17     1    18    1
   18    15    18    1
   19    18    19    1
   20    18    20    1
   21    13    21    1
   22    21    22    1
@<TRIPOS>SUBSTRUCTURE
       1 MOL1            1 RESIDUE      1      MOL     
@<SCITEGIC>MOL_PROPERTY
VM2 Rank
SciTegic.value.IntegerValue
39

@<SCITEGIC>MOL_PROPERTY
Conf_Id
SciTegic.value.IntegerValue
1359

@<SCITEGIC>MOL_PROPERTY
Probability
SciTegic.value.DoubleValue
0.02

@<SCITEGIC>MOL_PROPERTY
Sum Probability
SciTegic.value.DoubleValue
99.91

@<SCITEGIC>MOL_PROPERTY
Delta G
SciTegic.value.DoubleValue
3.653

@<SCITEGIC>MOL_PROPERTY
G
SciTegic.value.DoubleValue
51.016

@<SCITEGIC>MOL_PROPERTY
E
SciTegic.value.DoubleValue
24.167

@<SCITEGIC>MOL_PROPERTY
-TS
SciTegic.value.DoubleValue
26.849

@<SCITEGIC>MOL_PROPERTY
U+W
SciTegic.value.DoubleValue
6.282

@<SCITEGIC>MOL_PROPERTY
U
SciTegic.value.DoubleValue
8.574

@<SCITEGIC>MOL_PROPERTY
W
SciTegic.value.DoubleValue
-2.292

@<SCITEGIC>MOL_PROPERTY
W(PB)
SciTegic.value.DoubleValue
-4.304

@<SCITEGIC>MOL_PROPERTY
W(SA)
SciTegic.value.DoubleValue
2.012

@<SCITEGIC>MOL_PROPERTY
Valence
SciTegic.value.DoubleValue
13.346

@<SCITEGIC>MOL_PROPERTY
Coulomb
SciTegic.value.DoubleValue
-8.599

@<SCITEGIC>MOL_PROPERTY
VdW
SciTegic.value.DoubleValue
3.827

@<SCITEGIC>MOL_PROPERTY
VdW6
SciTegic.value.DoubleValue
-9.679

@<SCITEGIC>MOL_PROPERTY
VdW12
SciTegic.value.DoubleValue
13.505

@<SCITEGIC>MOL_PROPERTY
Bond
SciTegic.value.DoubleValue
0.433

@<SCITEGIC>MOL_PROPERTY
Angle
SciTegic.value.DoubleValue
3.364

@<SCITEGIC>MOL_PROPERTY
Pdih
SciTegic.value.DoubleValue
9.549

@<SCITEGIC>MOL_PROPERTY
Idih
SciTegic.value.DoubleValue
0.000

@<SCITEGIC>MOL_PROPERTY
Tether
SciTegic.value.DoubleValue
0.000

@<TRIPOS>MOLECULE
guest-5_vm2.mol2 : vm2 ligand conformer 40
          22          22           1
SMALL
USER_CHARGES
 
@<TRIPOS>ATOM
       1    C1      20.003935   19.133439   20.847730 C.3        1 MOL1        -0.1685
       2    H1      20.887763   18.774274   20.303127 H          1 MOL1         0.0832
       3    H2      19.181257   19.132878   20.119735 H          1 MOL1         0.0832
       4    C2      20.269611   20.588448   21.303241 C.3        1 MOL1        -0.1685
       5    H3      21.301130   20.676041   21.667293 H          1 MOL1         0.0832
       6    H4      20.226499   21.237757   20.418172 H          1 MOL1         0.0832
       7    C3      19.285317   21.138008   22.368008 C.3        1 MOL1        -0.1685
       8    H5      18.263596   21.123016   21.964821 H          1 MOL1         0.0832
       9    H6      19.526040   22.198158   22.526403 H          1 MOL1         0.0832
      10    C4      19.301194   20.425763   23.751960 C.3        1 MOL1        -0.1761
      11    H7      19.235649   21.197362   24.530224 H          1 MOL1         0.0832
      12    H8      18.392084   19.822416   23.869030 H          1 MOL1         0.0832
      13    C5      20.537895   19.534856   24.024188 C.3        1 MOL1         0.1218
      14    H9      21.439634   20.110120   23.773070 H          1 MOL1         0.0789
      15    C6      20.561250   18.199405   23.228518 C.3        1 MOL1        -0.1761
      16    H10     21.597974   17.982441   22.941419 H          1 MOL1         0.0832
      17    H11     20.260276   17.382119   23.897730 H          1 MOL1         0.0832
      18    C7      19.657036   18.125578   21.969253 C.3        1 MOL1        -0.1685
      19    H12     18.605860   18.249785   22.259259 H          1 MOL1         0.0832
      20    H13     19.718976   17.111339   21.552107 H          1 MOL1         0.0832
      21    O1      20.569762   19.232503   25.414103 O.3        1 MOL1        -0.5509
      22    H14     20.616500   20.088778   25.888562 H          1 MOL1         0.3779
@<TRIPOS>BOND
    1     1     2    1
    2     1     3    1
    3     1     4    1
    4     4     5    1
    5     4     6    1
    6     4     7    1
    7     7     8    1
    8     7     9    1
    9     7    10    1
   10    10    11    1
   11    10    12    1
   12    10    13    1
   13    13    14    1
   14    13    15    1
   15    15    16    1
   16    15    17    1
   17     1    18    1
   18    15    18    1
   19    18    19    1
   20    18    20    1
   21    13    21    1
   22    21    22    1
@<TRIPOS>SUBSTRUCTURE
       1 MOL1            1 RESIDUE      1      MOL     
@<SCITEGIC>MOL_PROPERTY
VM2 Rank
SciTegic.value.IntegerValue
40

@<SCITEGIC>MOL_PROPERTY
Conf_Id
SciTegic.value.IntegerValue
245

@<SCITEGIC>MOL_PROPERTY
Probability
SciTegic.value.DoubleValue
0.02

@<SCITEGIC>MOL_PROPERTY
Sum Probability
SciTegic.value.DoubleValue
99.93

@<SCITEGIC>MOL_PROPERTY
Delta G
SciTegic.value.DoubleValue
3.677

@<SCITEGIC>MOL_PROPERTY
G
SciTegic.value.DoubleValue
51.040

@<SCITEGIC>MOL_PROPERTY
E
SciTegic.value.DoubleValue
24.230

@<SCITEGIC>MOL_PROPERTY
-TS
SciTegic.value.DoubleValue
26.810

@<SCITEGIC>MOL_PROPERTY
U+W
SciTegic.value.DoubleValue
6.345

@<SCITEGIC>MOL_PROPERTY
U
SciTegic.value.DoubleValue
8.609

@<SCITEGIC>MOL_PROPERTY
W
SciTegic.value.DoubleValue
-2.264

@<SCITEGIC>MOL_PROPERTY
W(PB)
SciTegic.value.DoubleValue
-4.270

@<SCITEGIC>MOL_PROPERTY
W(SA)
SciTegic.value.DoubleValue
2.006

@<SCITEGIC>MOL_PROPERTY
Valence
SciTegic.value.DoubleValue
13.313

@<SCITEGIC>MOL_PROPERTY
Coulomb
SciTegic.value.DoubleValue
-8.545

@<SCITEGIC>MOL_PROPERTY
VdW
SciTegic.value.DoubleValue
3.841

@<SCITEGIC>MOL_PROPERTY
VdW6
SciTegic.value.DoubleValue
-9.685

@<SCITEGIC>MOL_PROPERTY
VdW12
SciTegic.value.DoubleValue
13.527

@<SCITEGIC>MOL_PROPERTY
Bond
SciTegic.value.DoubleValue
0.435

@<SCITEGIC>MOL_PROPERTY
Angle
SciTegic.value.DoubleValue
3.375

@<SCITEGIC>MOL_PROPERTY
Pdih
SciTegic.value.DoubleValue
9.504

@<SCITEGIC>MOL_PROPERTY
Idih
SciTegic.value.DoubleValue
0.000

@<SCITEGIC>MOL_PROPERTY
Tether
SciTegic.value.DoubleValue
0.000

@<TRIPOS>MOLECULE
guest-5_vm2.mol2 : vm2 ligand conformer 41
          22          22           1
SMALL
USER_CHARGES
 
@<TRIPOS>ATOM
       1    C1      20.560675   19.291799   21.067517 C.3        1 MOL1        -0.1685
       2    H1      20.724223   19.020719   20.015578 H          1 MOL1         0.0832
       3    H2      21.559229   19.528479   21.456232 H          1 MOL1         0.0832
       4    C2      19.676254   20.561219   21.106806 C.3        1 MOL1        -0.1685
       5    H3      20.283886   21.416868   20.782161 H          1 MOL1         0.0832
       6    H4      18.875825   20.460559   20.361182 H          1 MOL1         0.0832
       7    C3      19.026113   20.891401   22.471432 C.3        1 MOL1        -0.1685
       8    H5      18.150192   20.247878   22.623605 H          1 MOL1         0.0832
       9    H6      18.623969   21.912427   22.423336 H          1 MOL1         0.0832
      10    C4      19.972140   20.788820   23.697507 C.3        1 MOL1        -0.1761
      11    H7      20.795845   21.504108   23.578479 H          1 MOL1         0.0832
      12    H8      19.408236   21.127554   24.577085 H          1 MOL1         0.0832
      13    C5      20.574204   19.386898   23.995926 C.3        1 MOL1         0.1218
      14    H9      21.611122   19.364548   23.633431 H          1 MOL1         0.0789
      15    C6      19.807931   18.206027   23.351232 C.3        1 MOL1        -0.1761
      16    H10     20.133874   17.267805   23.819055 H          1 MOL1         0.0832
      17    H11     18.742003   18.293833   23.596836 H          1 MOL1         0.0832
      18    C7      19.982613   18.060079   21.811376 C.3        1 MOL1        -0.1685
      19    H12     20.655648   17.212545   21.622529 H          1 MOL1         0.0832
      20    H13     19.019874   17.779782   21.362748 H          1 MOL1         0.0832
      21    O1      20.586071   19.191757   25.405205 O.3        1 MOL1        -0.5509
      22    H14     21.025234   18.330786   25.567578 H          1 MOL1         0.3779
@<TRIPOS>BOND
    1     1     2    1
    2     1     3    1
    3     1     4    1
    4     4     5    1
    5     4     6    1
    6     4     7    1
    7     7     8    1
    8     7     9    1
    9     7    10    1
   10    10    11    1
   11    10    12    1
   12    10    13    1
   13    13    14    1
   14    13    15    1
   15    15    16    1
   16    15    17    1
   17     1    18    1
   18    15    18    1
   19    18    19    1
   20    18    20    1
   21    13    21    1
   22    21    22    1
@<TRIPOS>SUBSTRUCTURE
       1 MOL1            1 RESIDUE      1      MOL     
@<SCITEGIC>MOL_PROPERTY
VM2 Rank
SciTegic.value.IntegerValue
41

@<SCITEGIC>MOL_PROPERTY
Conf_Id
SciTegic.value.IntegerValue
523

@<SCITEGIC>MOL_PROPERTY
Probability
SciTegic.value.DoubleValue
0.02

@<SCITEGIC>MOL_PROPERTY
Sum Probability
SciTegic.value.DoubleValue
99.94

@<SCITEGIC>MOL_PROPERTY
Delta G
SciTegic.value.DoubleValue
3.679

@<SCITEGIC>MOL_PROPERTY
G
SciTegic.value.DoubleValue
51.041

@<SCITEGIC>MOL_PROPERTY
E
SciTegic.value.DoubleValue
24.193

@<SCITEGIC>MOL_PROPERTY
-TS
SciTegic.value.DoubleValue
26.849

@<SCITEGIC>MOL_PROPERTY
U+W
SciTegic.value.DoubleValue
6.308

@<SCITEGIC>MOL_PROPERTY
U
SciTegic.value.DoubleValue
8.609

@<SCITEGIC>MOL_PROPERTY
W
SciTegic.value.DoubleValue
-2.301

@<SCITEGIC>MOL_PROPERTY
W(PB)
SciTegic.value.DoubleValue
-4.320

@<SCITEGIC>MOL_PROPERTY
W(SA)
SciTegic.value.DoubleValue
2.019

@<SCITEGIC>MOL_PROPERTY
Valence
SciTegic.value.DoubleValue
13.315

@<SCITEGIC>MOL_PROPERTY
Coulomb
SciTegic.value.DoubleValue
-8.546

@<SCITEGIC>MOL_PROPERTY
VdW
SciTegic.value.DoubleValue
3.841

@<SCITEGIC>MOL_PROPERTY
VdW6
SciTegic.value.DoubleValue
-9.685

@<SCITEGIC>MOL_PROPERTY
VdW12
SciTegic.value.DoubleValue
13.526

@<SCITEGIC>MOL_PROPERTY
Bond
SciTegic.value.DoubleValue
0.435

@<SCITEGIC>MOL_PROPERTY
Angle
SciTegic.value.DoubleValue
3.374

@<SCITEGIC>MOL_PROPERTY
Pdih
SciTegic.value.DoubleValue
9.506

@<SCITEGIC>MOL_PROPERTY
Idih
SciTegic.value.DoubleValue
0.000

@<SCITEGIC>MOL_PROPERTY
Tether
SciTegic.value.DoubleValue
0.000

@<TRIPOS>MOLECULE
guest-5_vm2.mol2 : vm2 ligand conformer 42
          22          22           1
SMALL
USER_CHARGES
 
@<TRIPOS>ATOM
       1    C1      19.430666   19.072310   21.063556 C.3        1 MOL1        -0.1685
       2    H1      19.611133   18.660194   20.061332 H          1 MOL1         0.0832
       3    H2      18.340377   19.181589   21.142154 H          1 MOL1         0.0832
       4    C2      20.087267   20.475362   21.133542 C.3        1 MOL1        -0.1685
       5    H3      21.178264   20.381375   21.067009 H          1 MOL1         0.0832
       6    H4      19.799808   21.043228   20.238164 H          1 MOL1         0.0832
       7    C3      19.701822   21.313555   22.379364 C.3        1 MOL1        -0.1685
       8    H5      18.802102   21.896559   22.139866 H          1 MOL1         0.0832
       9    H6      20.493618   22.049648   22.573855 H          1 MOL1         0.0832
      10    C4      19.410838   20.510312   23.671984 C.3        1 MOL1        -0.1761
      11    H7      19.197561   21.221591   24.480411 H          1 MOL1         0.0832
      12    H8      18.487569   19.931169   23.542811 H          1 MOL1         0.0832
      13    C5      20.543886   19.570129   24.142325 C.3        1 MOL1         0.1218
      14    H9      21.412430   20.185973   24.416799 H          1 MOL1         0.0789
      15    C6      21.012679   18.518895   23.103267 C.3        1 MOL1        -0.1761
      16    H10     21.869672   18.914690   22.546039 H          1 MOL1         0.0832
      17    H11     21.412018   17.646954   23.637679 H          1 MOL1         0.0832
      18    C7      19.921152   18.030889   22.112973 C.3        1 MOL1        -0.1685
      19    H12     19.060785   17.657753   22.685481 H          1 MOL1         0.0832
      20    H13     20.313574   17.158308   21.573301 H          1 MOL1         0.0832
      21    O1      20.077689   18.886548   25.299988 O.3        1 MOL1        -0.5509
      22    H14     20.818515   18.329424   25.617023 H          1 MOL1         0.3779
@<TRIPOS>BOND
    1     1     2    1
    2     1     3    1
    3     1     4    1
    4     4     5    1
    5     4     6    1
    6     4     7    1
    7     7     8    1
    8     7     9    1
    9     7    10    1
   10    10    11    1
   11    10    12    1
   12    10    13    1
   13    13    14    1
   14    13    15    1
   15    15    16    1
   16    15    17    1
   17     1    18    1
   18    15    18    1
   19    18    19    1
   20    18    20    1
   21    13    21    1
   22    21    22    1
@<TRIPOS>SUBSTRUCTURE
       1 MOL1            1 RESIDUE      1      MOL     
@<SCITEGIC>MOL_PROPERTY
VM2 Rank
SciTegic.value.IntegerValue
42

@<SCITEGIC>MOL_PROPERTY
Conf_Id
SciTegic.value.IntegerValue
998

@<SCITEGIC>MOL_PROPERTY
Probability
SciTegic.value.DoubleValue
0.01

@<SCITEGIC>MOL_PROPERTY
Sum Probability
SciTegic.value.DoubleValue
99.96

@<SCITEGIC>MOL_PROPERTY
Delta G
SciTegic.value.DoubleValue
3.730

@<SCITEGIC>MOL_PROPERTY
G
SciTegic.value.DoubleValue
51.092

@<SCITEGIC>MOL_PROPERTY
E
SciTegic.value.DoubleValue
24.436

@<SCITEGIC>MOL_PROPERTY
-TS
SciTegic.value.DoubleValue
26.656

@<SCITEGIC>MOL_PROPERTY
U+W
SciTegic.value.DoubleValue
6.551

@<SCITEGIC>MOL_PROPERTY
U
SciTegic.value.DoubleValue
8.927

@<SCITEGIC>MOL_PROPERTY
W
SciTegic.value.DoubleValue
-2.375

@<SCITEGIC>MOL_PROPERTY
W(PB)
SciTegic.value.DoubleValue
-4.384

@<SCITEGIC>MOL_PROPERTY
W(SA)
SciTegic.value.DoubleValue
2.008

@<SCITEGIC>MOL_PROPERTY
Valence
SciTegic.value.DoubleValue
13.512

@<SCITEGIC>MOL_PROPERTY
Coulomb
SciTegic.value.DoubleValue
-8.267

@<SCITEGIC>MOL_PROPERTY
VdW
SciTegic.value.DoubleValue
3.681

@<SCITEGIC>MOL_PROPERTY
VdW6
SciTegic.value.DoubleValue
-9.849

@<SCITEGIC>MOL_PROPERTY
VdW12
SciTegic.value.DoubleValue
13.530

@<SCITEGIC>MOL_PROPERTY
Bond
SciTegic.value.DoubleValue
0.432

@<SCITEGIC>MOL_PROPERTY
Angle
SciTegic.value.DoubleValue
3.475

@<SCITEGIC>MOL_PROPERTY
Pdih
SciTegic.value.DoubleValue
9.605

@<SCITEGIC>MOL_PROPERTY
Idih
SciTegic.value.DoubleValue
0.000

@<SCITEGIC>MOL_PROPERTY
Tether
SciTegic.value.DoubleValue
0.000

@<TRIPOS>MOLECULE
guest-5_vm2.mol2 : vm2 ligand conformer 43
          22          22           1
SMALL
USER_CHARGES
 
@<TRIPOS>ATOM
       1    C1      20.469044   19.353642   21.008681 C.3        1 MOL1        -0.1685
       2    H1      21.434875   19.796765   21.283690 H          1 MOL1         0.0832
       3    H2      20.565315   19.097535   19.944796 H          1 MOL1         0.0832
       4    C2      19.345470   20.410099   21.161958 C.3        1 MOL1        -0.1685
       5    H3      19.595417   21.255959   20.507036 H          1 MOL1         0.0832
       6    H4      18.401975   20.002419   20.774353 H          1 MOL1         0.0832
       7    C3      19.112548   20.961273   22.595949 C.3        1 MOL1        -0.1685
       8    H5      18.219484   20.499274   23.036361 H          1 MOL1         0.0832
       9    H6      18.868296   22.029313   22.516802 H          1 MOL1         0.0832
      10    C4      20.312390   20.796300   23.565950 C.3        1 MOL1        -0.1761
      11    H7      21.215211   21.203258   23.093761 H          1 MOL1         0.0832
      12    H8      20.138872   21.436982   24.441055 H          1 MOL1         0.0832
      13    C5      20.599843   19.345466   24.052328 C.3        1 MOL1         0.1218
      14    H9      21.680901   19.165847   23.962194 H          1 MOL1         0.0789
      15    C6      19.857929   18.217232   23.292749 C.3        1 MOL1        -0.1761
      16    H10     20.043713   17.263231   23.803073 H          1 MOL1         0.0832
      17    H11     18.774944   18.373326   23.365781 H          1 MOL1         0.0832
      18    C7      20.255821   18.045104   21.805475 C.3        1 MOL1        -0.1685
      19    H12     21.182536   17.457660   21.751402 H          1 MOL1         0.0832
      20    H13     19.486275   17.440470   21.306590 H          1 MOL1         0.0832
      21    O1      20.232954   19.248885   25.423910 O.3        1 MOL1        -0.5509
      22    H14     20.476787   18.346815   25.718867 H          1 MOL1         0.3779
@<TRIPOS>BOND
    1     1     2    1
    2     1     3    1
    3     1     4    1
    4     4     5    1
    5     4     6    1
    6     4     7    1
    7     7     8    1
    8     7     9    1
    9     7    10    1
   10    10    11    1
   11    10    12    1
   12    10    13    1
   13    13    14    1
   14    13    15    1
   15    15    16    1
   16    15    17    1
   17     1    18    1
   18    15    18    1
   19    18    19    1
   20    18    20    1
   21    13    21    1
   22    21    22    1
@<TRIPOS>SUBSTRUCTURE
       1 MOL1            1 RESIDUE      1      MOL     
@<SCITEGIC>MOL_PROPERTY
VM2 Rank
SciTegic.value.IntegerValue
43

@<SCITEGIC>MOL_PROPERTY
Conf_Id
SciTegic.value.IntegerValue
448

@<SCITEGIC>MOL_PROPERTY
Probability
SciTegic.value.DoubleValue
0.01

@<SCITEGIC>MOL_PROPERTY
Sum Probability
SciTegic.value.DoubleValue
99.97

@<SCITEGIC>MOL_PROPERTY
Delta G
SciTegic.value.DoubleValue
3.743

@<SCITEGIC>MOL_PROPERTY
G
SciTegic.value.DoubleValue
51.105

@<SCITEGIC>MOL_PROPERTY
E
SciTegic.value.DoubleValue
24.304

@<SCITEGIC>MOL_PROPERTY
-TS
SciTegic.value.DoubleValue
26.802

@<SCITEGIC>MOL_PROPERTY
U+W
SciTegic.value.DoubleValue
6.419

@<SCITEGIC>MOL_PROPERTY
U
SciTegic.value.DoubleValue
8.780

@<SCITEGIC>MOL_PROPERTY
W
SciTegic.value.DoubleValue
-2.361

@<SCITEGIC>MOL_PROPERTY
W(PB)
SciTegic.value.DoubleValue
-4.375

@<SCITEGIC>MOL_PROPERTY
W(SA)
SciTegic.value.DoubleValue
2.014

@<SCITEGIC>MOL_PROPERTY
Valence
SciTegic.value.DoubleValue
13.327

@<SCITEGIC>MOL_PROPERTY
Coulomb
SciTegic.value.DoubleValue
-8.388

@<SCITEGIC>MOL_PROPERTY
VdW
SciTegic.value.DoubleValue
3.841

@<SCITEGIC>MOL_PROPERTY
VdW6
SciTegic.value.DoubleValue
-9.744

@<SCITEGIC>MOL_PROPERTY
VdW12
SciTegic.value.DoubleValue
13.585

@<SCITEGIC>MOL_PROPERTY
Bond
SciTegic.value.DoubleValue
0.436

@<SCITEGIC>MOL_PROPERTY
Angle
SciTegic.value.DoubleValue
3.476

@<SCITEGIC>MOL_PROPERTY
Pdih
SciTegic.value.DoubleValue
9.415

@<SCITEGIC>MOL_PROPERTY
Idih
SciTegic.value.DoubleValue
0.000

@<SCITEGIC>MOL_PROPERTY
Tether
SciTegic.value.DoubleValue
0.000

@<TRIPOS>MOLECULE
guest-5_vm2.mol2 : vm2 ligand conformer 44
          22          22           1
SMALL
USER_CHARGES
 
@<TRIPOS>ATOM
       1    C1      19.645700   19.098432   20.927054 C.3        1 MOL1        -0.1685
       2    H1      20.174046   18.708269   20.046432 H          1 MOL1         0.0832
       3    H2      18.590273   19.172849   20.631828 H          1 MOL1         0.0832
       4    C2      20.204478   20.514815   21.216675 C.3        1 MOL1        -0.1685
       5    H3      21.285318   20.457219   21.398955 H          1 MOL1         0.0832
       6    H4      20.100632   21.124086   20.308535 H          1 MOL1         0.0832
       7    C3      19.523106   21.265447   22.384983 C.3        1 MOL1        -0.1685
       8    H5      18.536756   21.621536   22.057895 H          1 MOL1         0.0832
       9    H6      20.112239   22.166960   22.601799 H          1 MOL1         0.0832
      10    C4      19.343725   20.456856   23.694078 C.3        1 MOL1        -0.1761
      11    H7      19.143668   21.169456   24.504778 H          1 MOL1         0.0832
      12    H8      18.437395   19.843522   23.623387 H          1 MOL1         0.0832
      13    C5      20.546243   19.565971   24.094701 C.3        1 MOL1         0.1218
      14    H9      21.439167   20.204291   24.160287 H          1 MOL1         0.0789
      15    C6      20.869578   18.386289   23.131620 C.3        1 MOL1        -0.1761
      16    H10     21.819862   18.587452   22.621623 H          1 MOL1         0.0832
      17    H11     21.055449   17.482134   23.726887 H          1 MOL1         0.0832
      18    C7      19.783180   18.058314   22.073383 C.3        1 MOL1        -0.1685
      19    H12     20.012459   17.082278   21.624586 H          1 MOL1         0.0832
      20    H13     18.815823   17.919185   22.573290 H          1 MOL1         0.0832
      21    O1      20.269989   19.031874   25.384506 O.3        1 MOL1        -0.5509
      22    H14     20.126834   19.795341   25.981834 H          1 MOL1         0.3779
@<TRIPOS>BOND
    1     1     2    1
    2     1     3    1
    3     1     4    1
    4     4     5    1
    5     4     6    1
    6     4     7    1
    7     7     8    1
    8     7     9    1
    9     7    10    1
   10    10    11    1
   11    10    12    1
   12    10    13    1
   13    13    14    1
   14    13    15    1
   15    15    16    1
   16    15    17    1
   17     1    18    1
   18    15    18    1
   19    18    19    1
   20    18    20    1
   21    13    21    1
   22    21    22    1
@<TRIPOS>SUBSTRUCTURE
       1 MOL1            1 RESIDUE      1      MOL     
@<SCITEGIC>MOL_PROPERTY
VM2 Rank
SciTegic.value.IntegerValue
44

@<SCITEGIC>MOL_PROPERTY
Conf_Id
SciTegic.value.IntegerValue
214

@<SCITEGIC>MOL_PROPERTY
Probability
SciTegic.value.DoubleValue
0.01

@<SCITEGIC>MOL_PROPERTY
Sum Probability
SciTegic.value.DoubleValue
99.99

@<SCITEGIC>MOL_PROPERTY
Delta G
SciTegic.value.DoubleValue
3.757

@<SCITEGIC>MOL_PROPERTY
G
SciTegic.value.DoubleValue
51.119

@<SCITEGIC>MOL_PROPERTY
E
SciTegic.value.DoubleValue
24.304

@<SCITEGIC>MOL_PROPERTY
-TS
SciTegic.value.DoubleValue
26.816

@<SCITEGIC>MOL_PROPERTY
U+W
SciTegic.value.DoubleValue
6.419

@<SCITEGIC>MOL_PROPERTY
U
SciTegic.value.DoubleValue
8.781

@<SCITEGIC>MOL_PROPERTY
W
SciTegic.value.DoubleValue
-2.362

@<SCITEGIC>MOL_PROPERTY
W(PB)
SciTegic.value.DoubleValue
-4.380

@<SCITEGIC>MOL_PROPERTY
W(SA)
SciTegic.value.DoubleValue
2.018

@<SCITEGIC>MOL_PROPERTY
Valence
SciTegic.value.DoubleValue
13.329

@<SCITEGIC>MOL_PROPERTY
Coulomb
SciTegic.value.DoubleValue
-8.387

@<SCITEGIC>MOL_PROPERTY
VdW
SciTegic.value.DoubleValue
3.839

@<SCITEGIC>MOL_PROPERTY
VdW6
SciTegic.value.DoubleValue
-9.745

@<SCITEGIC>MOL_PROPERTY
VdW12
SciTegic.value.DoubleValue
13.585

@<SCITEGIC>MOL_PROPERTY
Bond
SciTegic.value.DoubleValue
0.436

@<SCITEGIC>MOL_PROPERTY
Angle
SciTegic.value.DoubleValue
3.478

@<SCITEGIC>MOL_PROPERTY
Pdih
SciTegic.value.DoubleValue
9.415

@<SCITEGIC>MOL_PROPERTY
Idih
SciTegic.value.DoubleValue
0.000

@<SCITEGIC>MOL_PROPERTY
Tether
SciTegic.value.DoubleValue
0.000

@<TRIPOS>MOLECULE
guest-5_vm2.mol2 : vm2 ligand conformer 45
          22          22           1
SMALL
USER_CHARGES
 
@<TRIPOS>ATOM
       1    C1      20.203550   19.354849   20.895158 C.3        1 MOL1        -0.1685
       2    H1      21.067777   20.012548   20.733520 H          1 MOL1         0.0832
       3    H2      19.948767   18.969354   19.898490 H          1 MOL1         0.0832
       4    C2      19.010774   20.192598   21.421718 C.3        1 MOL1        -0.1685
       5    H3      18.648711   20.838727   20.610427 H          1 MOL1         0.0832
       6    H4      18.169156   19.526080   21.651489 H          1 MOL1         0.0832
       7    C3      19.326716   21.089281   22.651905 C.3        1 MOL1        -0.1685
       8    H5      18.455724   21.103251   23.321301 H          1 MOL1         0.0832
       9    H6      19.448329   22.122577   22.299693 H          1 MOL1         0.0832
      10    C4      20.596982   20.718302   23.464099 C.3        1 MOL1        -0.1761
      11    H7      21.481402   20.794314   22.820242 H          1 MOL1         0.0832
      12    H8      20.751178   21.479794   24.239524 H          1 MOL1         0.0832
      13    C5      20.585844   19.325063   24.135405 C.3        1 MOL1         0.1218
      14    H9      21.619544   19.097355   24.433146 H          1 MOL1         0.0789
      15    C6      20.079894   18.164722   23.248899 C.3        1 MOL1        -0.1761
      16    H10     20.368800   17.223098   23.733129 H          1 MOL1         0.0832
      17    H11     18.982951   18.158615   23.243278 H          1 MOL1         0.0832
      18    C7      20.613243   18.151036   21.790851 C.3        1 MOL1        -0.1685
      19    H12     21.708191   18.063705   21.800931 H          1 MOL1         0.0832
      20    H13     20.247204   17.231646   21.313838 H          1 MOL1         0.0832
      21    O1      19.768996   19.382149   25.298965 O.3        1 MOL1        -0.5509
      22    H14     20.109974   20.118823   25.846957 H          1 MOL1         0.3779
@<TRIPOS>BOND
    1     1     2    1
    2     1     3    1
    3     1     4    1
    4     4     5    1
    5     4     6    1
    6     4     7    1
    7     7     8    1
    8     7     9    1
    9     7    10    1
   10    10    11    1
   11    10    12    1
   12    10    13    1
   13    13    14    1
   14    13    15    1
   15    15    16    1
   16    15    17    1
   17     1    18    1
   18    15    18    1
   19    18    19    1
   20    18    20    1
   21    13    21    1
   22    21    22    1
@<TRIPOS>SUBSTRUCTURE
       1 MOL1            1 RESIDUE      1      MOL     
@<SCITEGIC>MOL_PROPERTY
VM2 Rank
SciTegic.value.IntegerValue
45

@<SCITEGIC>MOL_PROPERTY
Conf_Id
SciTegic.value.IntegerValue
213

@<SCITEGIC>MOL_PROPERTY
Probability
SciTegic.value.DoubleValue
0.01

@<SCITEGIC>MOL_PROPERTY
Sum Probability
SciTegic.value.DoubleValue
100.00

@<SCITEGIC>MOL_PROPERTY
Delta G
SciTegic.value.DoubleValue
3.852

@<SCITEGIC>MOL_PROPERTY
G
SciTegic.value.DoubleValue
51.215

@<SCITEGIC>MOL_PROPERTY
E
SciTegic.value.DoubleValue
24.416

@<SCITEGIC>MOL_PROPERTY
-TS
SciTegic.value.DoubleValue
26.798

@<SCITEGIC>MOL_PROPERTY
U+W
SciTegic.value.DoubleValue
6.531

@<SCITEGIC>MOL_PROPERTY
U
SciTegic.value.DoubleValue
8.919

@<SCITEGIC>MOL_PROPERTY
W
SciTegic.value.DoubleValue
-2.388

@<SCITEGIC>MOL_PROPERTY
W(PB)
SciTegic.value.DoubleValue
-4.391

@<SCITEGIC>MOL_PROPERTY
W(SA)
SciTegic.value.DoubleValue
2.003

@<SCITEGIC>MOL_PROPERTY
Valence
SciTegic.value.DoubleValue
13.464

@<SCITEGIC>MOL_PROPERTY
Coulomb
SciTegic.value.DoubleValue
-8.153

@<SCITEGIC>MOL_PROPERTY
VdW
SciTegic.value.DoubleValue
3.608

@<SCITEGIC>MOL_PROPERTY
VdW6
SciTegic.value.DoubleValue
-9.940

@<SCITEGIC>MOL_PROPERTY
VdW12
SciTegic.value.DoubleValue
13.548

@<SCITEGIC>MOL_PROPERTY
Bond
SciTegic.value.DoubleValue
0.437

@<SCITEGIC>MOL_PROPERTY
Angle
SciTegic.value.DoubleValue
3.544

@<SCITEGIC>MOL_PROPERTY
Pdih
SciTegic.value.DoubleValue
9.483

@<SCITEGIC>MOL_PROPERTY
Idih
SciTegic.value.DoubleValue
0.000

@<SCITEGIC>MOL_PROPERTY
Tether
SciTegic.value.DoubleValue
0.000

@<TRIPOS>MOLECULE
guest-5_vm2.mol2 : vm2 ligand conformer 46
          22          22           1
SMALL
USER_CHARGES
 
@<TRIPOS>ATOM
       1    C1      19.334786   18.777402   21.429425 C.3        1 MOL1        -0.1685
       2    H1      19.186310   18.569546   20.360762 H          1 MOL1         0.0832
       3    H2      18.661422   18.082746   21.949124 H          1 MOL1         0.0832
       4    C2      18.897690   20.247865   21.695006 C.3        1 MOL1        -0.1685
       5    H3      18.559984   20.676458   20.741302 H          1 MOL1         0.0832
       6    H4      18.011873   20.268018   22.343832 H          1 MOL1         0.0832
       7    C3      19.987074   21.185871   22.274783 C.3        1 MOL1        -0.1685
       8    H5      19.614565   22.218344   22.230484 H          1 MOL1         0.0832
       9    H6      20.866526   21.181808   21.618950 H          1 MOL1         0.0832
      10    C4      20.423133   20.900385   23.738742 C.3        1 MOL1        -0.1761
      11    H7      21.420060   21.333852   23.890347 H          1 MOL1         0.0832
      12    H8      19.759096   21.457276   24.413222 H          1 MOL1         0.0832
      13    C5      20.450074   19.428971   24.220790 C.3        1 MOL1         0.1218
      14    H9      20.989944   19.416476   25.178474 H          1 MOL1         0.0789
      15    C6      21.161389   18.416003   23.290156 C.3        1 MOL1        -0.1761
      16    H10     22.245591   18.555659   23.388866 H          1 MOL1         0.0832
      17    H11     20.961663   17.409852   23.682287 H          1 MOL1         0.0832
      18    C7      20.805412   18.432758   21.777609 C.3        1 MOL1        -0.1685
      19    H12     21.481298   19.113736   21.245617 H          1 MOL1         0.0832
      20    H13     21.034982   17.439891   21.367443 H          1 MOL1         0.0832
      21    O1      19.126441   18.988744   24.480489 O.3        1 MOL1        -0.5509
      22    H14     18.691592   19.017639   23.604701 H          1 MOL1         0.3779
@<TRIPOS>BOND
    1     1     2    1
    2     1     3    1
    3     1     4    1
    4     4     5    1
    5     4     6    1
    6     4     7    1
    7     7     8    1
    8     7     9    1
    9     7    10    1
   10    10    11    1
   11    10    12    1
   12    10    13    1
   13    13    14    1
   14    13    15    1
   15    15    16    1
   16    15    17    1
   17     1    18    1
   18    15    18    1
   19    18    19    1
   20    18    20    1
   21    13    21    1
   22    21    22    1
@<TRIPOS>SUBSTRUCTURE
       1 MOL1            1 RESIDUE      1      MOL     
@<SCITEGIC>MOL_PROPERTY
VM2 Rank
SciTegic.value.IntegerValue
46

@<SCITEGIC>MOL_PROPERTY
Conf_Id
SciTegic.value.IntegerValue
1043

@<SCITEGIC>MOL_PROPERTY
Probability
SciTegic.value.DoubleValue
0.00

@<SCITEGIC>MOL_PROPERTY
Sum Probability
SciTegic.value.DoubleValue
100.00

@<SCITEGIC>MOL_PROPERTY
Delta G
SciTegic.value.DoubleValue
4.825

@<SCITEGIC>MOL_PROPERTY
G
SciTegic.value.DoubleValue
52.187

@<SCITEGIC>MOL_PROPERTY
E
SciTegic.value.DoubleValue
25.238

@<SCITEGIC>MOL_PROPERTY
-TS
SciTegic.value.DoubleValue
26.949

@<SCITEGIC>MOL_PROPERTY
U+W
SciTegic.value.DoubleValue
7.353

@<SCITEGIC>MOL_PROPERTY
U
SciTegic.value.DoubleValue
8.455

@<SCITEGIC>MOL_PROPERTY
W
SciTegic.value.DoubleValue
-1.102

@<SCITEGIC>MOL_PROPERTY
W(PB)
SciTegic.value.DoubleValue
-3.101

@<SCITEGIC>MOL_PROPERTY
W(SA)
SciTegic.value.DoubleValue
2.000

@<SCITEGIC>MOL_PROPERTY
Valence
SciTegic.value.DoubleValue
15.601

@<SCITEGIC>MOL_PROPERTY
Coulomb
SciTegic.value.DoubleValue
-10.573

@<SCITEGIC>MOL_PROPERTY
VdW
SciTegic.value.DoubleValue
3.427

@<SCITEGIC>MOL_PROPERTY
VdW6
SciTegic.value.DoubleValue
-11.360

@<SCITEGIC>MOL_PROPERTY
VdW12
SciTegic.value.DoubleValue
14.787

@<SCITEGIC>MOL_PROPERTY
Bond
SciTegic.value.DoubleValue
0.470

@<SCITEGIC>MOL_PROPERTY
Angle
SciTegic.value.DoubleValue
5.445

@<SCITEGIC>MOL_PROPERTY
Pdih
SciTegic.value.DoubleValue
9.685

@<SCITEGIC>MOL_PROPERTY
Idih
SciTegic.value.DoubleValue
0.000

@<SCITEGIC>MOL_PROPERTY
Tether
SciTegic.value.DoubleValue
0.000

@<TRIPOS>MOLECULE
guest-5_vm2.mol2 : vm2 ligand conformer 47
          22          22           1
SMALL
USER_CHARGES
 
@<TRIPOS>ATOM
       1    C1      19.324249   18.775710   21.443239 C.3        1 MOL1        -0.1685
       2    H1      19.138233   18.532821   20.388295 H          1 MOL1         0.0832
       3    H2      18.659201   18.114712   22.014950 H          1 MOL1         0.0832
       4    C2      18.910633   20.256572   21.681091 C.3        1 MOL1        -0.1685
       5    H3      18.577580   20.678538   20.723246 H          1 MOL1         0.0832
       6    H4      18.030133   20.285485   22.337480 H          1 MOL1         0.0832
       7    C3      20.005629   21.185278   22.262927 C.3        1 MOL1        -0.1685
       8    H5      19.650557   22.222664   22.199073 H          1 MOL1         0.0832
       9    H6      20.899212   21.156920   21.627673 H          1 MOL1         0.0832
      10    C4      20.395846   20.906241   23.739548 C.3        1 MOL1        -0.1761
      11    H7      21.374405   21.365983   23.927756 H          1 MOL1         0.0832
      12    H8      19.691413   21.439922   24.391080 H          1 MOL1         0.0832
      13    C5      20.446077   19.431910   24.214324 C.3        1 MOL1         0.1218
      14    H9      21.007741   19.432195   25.159585 H          1 MOL1         0.0789
      15    C6      21.172902   18.431996   23.277480 C.3        1 MOL1        -0.1761
      16    H10     22.253523   18.607137   23.357383 H          1 MOL1         0.0832
      17    H11     21.014885   17.422287   23.678001 H          1 MOL1         0.0832
      18    C7      20.796625   18.422720   21.769427 C.3        1 MOL1        -0.1685
      19    H12     21.468913   19.087318   21.212931 H          1 MOL1         0.0832
      20    H13     21.008939   17.419830   21.374948 H          1 MOL1         0.0832
      21    O1      19.134040   18.967573   24.518964 O.3        1 MOL1        -0.5509
      22    H14     19.217212   18.018568   24.740246 H          1 MOL1         0.3779
@<TRIPOS>BOND
    1     1     2    1
    2     1     3    1
    3     1     4    1
    4     4     5    1
    5     4     6    1
    6     4     7    1
    7     7     8    1
    8     7     9    1
    9     7    10    1
   10    10    11    1
   11    10    12    1
   12    10    13    1
   13    13    14    1
   14    13    15    1
   15    15    16    1
   16    15    17    1
   17     1    18    1
   18    15    18    1
   19    18    19    1
   20    18    20    1
   21    13    21    1
   22    21    22    1
@<TRIPOS>SUBSTRUCTURE
       1 MOL1            1 RESIDUE      1      MOL     
@<SCITEGIC>MOL_PROPERTY
VM2 Rank
SciTegic.value.IntegerValue
47

@<SCITEGIC>MOL_PROPERTY
Conf_Id
SciTegic.value.IntegerValue
567

@<SCITEGIC>MOL_PROPERTY
Probability
SciTegic.value.DoubleValue
0.00

@<SCITEGIC>MOL_PROPERTY
Sum Probability
SciTegic.value.DoubleValue
100.00

@<SCITEGIC>MOL_PROPERTY
Delta G
SciTegic.value.DoubleValue
6.647

@<SCITEGIC>MOL_PROPERTY
G
SciTegic.value.DoubleValue
54.009

@<SCITEGIC>MOL_PROPERTY
E
SciTegic.value.DoubleValue
27.803

@<SCITEGIC>MOL_PROPERTY
-TS
SciTegic.value.DoubleValue
26.206

@<SCITEGIC>MOL_PROPERTY
U+W
SciTegic.value.DoubleValue
9.919

@<SCITEGIC>MOL_PROPERTY
U
SciTegic.value.DoubleValue
11.966

@<SCITEGIC>MOL_PROPERTY
W
SciTegic.value.DoubleValue
-2.048

@<SCITEGIC>MOL_PROPERTY
W(PB)
SciTegic.value.DoubleValue
-4.020

@<SCITEGIC>MOL_PROPERTY
W(SA)
SciTegic.value.DoubleValue
1.973

@<SCITEGIC>MOL_PROPERTY
Valence
SciTegic.value.DoubleValue
15.235

@<SCITEGIC>MOL_PROPERTY
Coulomb
SciTegic.value.DoubleValue
-6.622

@<SCITEGIC>MOL_PROPERTY
VdW
SciTegic.value.DoubleValue
3.353

@<SCITEGIC>MOL_PROPERTY
VdW6
SciTegic.value.DoubleValue
-10.808

@<SCITEGIC>MOL_PROPERTY
VdW12
SciTegic.value.DoubleValue
14.161

@<SCITEGIC>MOL_PROPERTY
Bond
SciTegic.value.DoubleValue
0.452

@<SCITEGIC>MOL_PROPERTY
Angle
SciTegic.value.DoubleValue
5.180

@<SCITEGIC>MOL_PROPERTY
Pdih
SciTegic.value.DoubleValue
9.603

@<SCITEGIC>MOL_PROPERTY
Idih
SciTegic.value.DoubleValue
0.000

@<SCITEGIC>MOL_PROPERTY
Tether
SciTegic.value.DoubleValue
0.000

