VeraChem MOL file


 22 22  0  0  0  0  0  0  0  0999 V2000     
   19.8825   19.0490   20.9026 C   0  0  0  0  0  0  0  0  0  0  0  0
   20.8932   19.1566   20.4859 H   0  0  0  0  0  0  0  0  0  0  0  0
   19.2824   18.5760   20.1134 H   0  0  0  0  0  0  0  0  0  0  0  0
   19.2917   20.4493   21.1836 C   0  0  0  0  0  0  0  0  0  0  0  0
   19.3610   21.0412   20.2608 H   0  0  0  0  0  0  0  0  0  0  0  0
   18.2185   20.3558   21.3990 H   0  0  0  0  0  0  0  0  0  0  0  0
   19.9806   21.2344   22.3249 C   0  0  0  0  0  0  0  0  0  0  0  0
   19.6224   22.2720   22.2799 H   0  0  0  0  0  0  0  0  0  0  0  0
   21.0669   21.2803   22.1688 H   0  0  0  0  0  0  0  0  0  0  0  0
   19.6467   20.6732   23.7283 C   0  0  0  0  0  0  0  0  0  0  0  0
   19.7185   21.4905   24.4577 H   0  0  0  0  0  0  0  0  0  0  0  0
   18.5974   20.3507   23.7487 H   0  0  0  0  0  0  0  0  0  0  0  0
   20.5644   19.5313   24.2234 C   0  0  0  0  0  0  0  0  0  0  0  0
   21.4771   19.9849   24.6358 H   0  0  0  0  0  0  0  0  0  0  0  0
   21.0068   18.5018   23.1578 C   0  0  0  0  0  0  0  0  0  0  0  0
   21.8884   18.8894   22.6312 H   0  0  0  0  0  0  0  0  0  0  0  0
   21.3564   17.5991   23.6767 H   0  0  0  0  0  0  0  0  0  0  0  0
   19.9265   18.1001   22.1235 C   0  0  0  0  0  0  0  0  0  0  0  0
   20.1660   17.0931   21.7555 H   0  0  0  0  0  0  0  0  0  0  0  0
   18.9371   18.0248   22.5940 H   0  0  0  0  0  0  0  0  0  0  0  0
   19.8869   18.8389   25.2629 O   0  0  0  0  0  0  0  0  0  0  0  0
   19.1422   18.3715   24.8327 H   0  0  0  0  0  0  0  0  0  0  0  0
  1  2  1  0  0  0  0
  1  3  1  0  0  0  0
  1  4  1  0  0  0  0
  4  5  1  0  0  0  0
  4  6  1  0  0  0  0
  4  7  1  0  0  0  0
  7  8  1  0  0  0  0
  7  9  1  0  0  0  0
  7 10  1  0  0  0  0
 10 11  1  0  0  0  0
 10 12  1  0  0  0  0
 10 13  1  0  0  0  0
 13 14  1  0  0  0  0
 13 15  1  0  0  0  0
 15 16  1  0  0  0  0
 15 17  1  0  0  0  0
  1 18  1  0  0  0  0
 15 18  1  0  0  0  0
 18 19  1  0  0  0  0
 18 20  1  0  0  0  0
 13 21  1  0  0  0  0
 21 22  1  0  0  0  0
M  END
> <VM2 Rank>
1

> <Conf_Id>
1132

> <Probability>
7.58

> <Sum Probability>
7.58

> <Delta G>
0.000

> <G>
47.363

> <E>
20.694

> <-TS>
26.668

> <U+W>
2.809

> <U>
4.530

> <W>
-1.721

> <W(PB)>
-3.723

> <W(SA)>
2.002

> <Valence>
12.224

> <Coulomb>
-9.755

> <VdW>
2.062

> <VdW6>
-9.196

> <VdW12>
11.257

> <Bond>
0.216

> <Angle>
2.754

> <Pdih>
9.253

> <Idih>
0.000

> <Tether>
0.000

$$$$
VeraChem MOL file


 22 22  0  0  0  0  0  0  0  0999 V2000     
   19.6681   19.0240   20.9215 C   0  0  0  0  0  0  0  0  0  0  0  0
   19.9308   18.8838   19.8641 H   0  0  0  0  0  0  0  0  0  0  0  0
   18.7048   18.5146   21.0604 H   0  0  0  0  0  0  0  0  0  0  0  0
   19.4894   20.5379   21.1763 C   0  0  0  0  0  0  0  0  0  0  0  0
   20.3873   21.0731   20.8382 H   0  0  0  0  0  0  0  0  0  0  0  0
   18.6694   20.8980   20.5402 H   0  0  0  0  0  0  0  0  0  0  0  0
   19.1810   20.9231   22.6424 C   0  0  0  0  0  0  0  0  0  0  0  0
   18.3220   20.3539   23.0220 H   0  0  0  0  0  0  0  0  0  0  0  0
   18.8759   21.9784   22.6535 H   0  0  0  0  0  0  0  0  0  0  0  0
   20.4080   20.7691   23.5746 C   0  0  0  0  0  0  0  0  0  0  0  0
   21.3174   21.0517   23.0287 H   0  0  0  0  0  0  0  0  0  0  0  0
   20.3270   21.4969   24.3932 H   0  0  0  0  0  0  0  0  0  0  0  0
   20.6080   19.3661   24.1931 C   0  0  0  0  0  0  0  0  0  0  0  0
   21.6588   19.2969   24.5093 H   0  0  0  0  0  0  0  0  0  0  0  0
   20.3091   18.1641   23.2670 C   0  0  0  0  0  0  0  0  0  0  0  0
   20.8271   17.2916   23.6859 H   0  0  0  0  0  0  0  0  0  0  0  0
   19.2398   17.9173   23.3013 H   0  0  0  0  0  0  0  0  0  0  0  0
   20.7460   18.3356   21.7921 C   0  0  0  0  0  0  0  0  0  0  0  0
   21.7034   18.8702   21.7258 H   0  0  0  0  0  0  0  0  0  0  0  0
   20.9256   17.3362   21.3726 H   0  0  0  0  0  0  0  0  0  0  0  0
   19.7763   19.2580   25.3400 O   0  0  0  0  0  0  0  0  0  0  0  0
   18.8642   19.4248   25.0265 H   0  0  0  0  0  0  0  0  0  0  0  0
  1  2  1  0  0  0  0
  1  3  1  0  0  0  0
  1  4  1  0  0  0  0
  4  5  1  0  0  0  0
  4  6  1  0  0  0  0
  4  7  1  0  0  0  0
  7  8  1  0  0  0  0
  7  9  1  0  0  0  0
  7 10  1  0  0  0  0
 10 11  1  0  0  0  0
 10 12  1  0  0  0  0
 10 13  1  0  0  0  0
 13 14  1  0  0  0  0
 13 15  1  0  0  0  0
 15 16  1  0  0  0  0
 15 17  1  0  0  0  0
  1 18  1  0  0  0  0
 15 18  1  0  0  0  0
 18 19  1  0  0  0  0
 18 20  1  0  0  0  0
 13 21  1  0  0  0  0
 21 22  1  0  0  0  0
M  END
> <VM2 Rank>
2

> <Conf_Id>
561

> <Probability>
7.28

> <Sum Probability>
14.87

> <Delta G>
0.024

> <G>
47.387

> <E>
20.718

> <-TS>
26.669

> <U+W>
2.833

> <U>
4.530

> <W>
-1.697

> <W(PB)>
-3.699

> <W(SA)>
2.002

> <Valence>
12.224

> <Coulomb>
-9.755

> <VdW>
2.061

> <VdW6>
-9.195

> <VdW12>
11.257

> <Bond>
0.216

> <Angle>
2.754

> <Pdih>
9.253

> <Idih>
0.000

> <Tether>
0.000

$$$$
VeraChem MOL file


 22 22  0  0  0  0  0  0  0  0999 V2000     
   19.9766   19.1866   21.0729 C   0  0  0  0  0  0  0  0  0  0  0  0
   20.9200   19.6951   20.8325 H   0  0  0  0  0  0  0  0  0  0  0  0
   19.5991   18.7850   20.1226 H   0  0  0  0  0  0  0  0  0  0  0  0
   18.9304   20.1893   21.6112 C   0  0  0  0  0  0  0  0  0  0  0  0
   18.4880   20.7248   20.7599 H   0  0  0  0  0  0  0  0  0  0  0  0
   18.0964   19.6369   22.0636 H   0  0  0  0  0  0  0  0  0  0  0  0
   19.4660   21.2482   22.6080 C   0  0  0  0  0  0  0  0  0  0  0  0
   18.6328   21.5821   23.2417 H   0  0  0  0  0  0  0  0  0  0  0  0
   19.7733   22.1365   22.0393 H   0  0  0  0  0  0  0  0  0  0  0  0
   20.6596   20.8354   23.5115 C   0  0  0  0  0  0  0  0  0  0  0  0
   21.5881   20.8958   22.9291 H   0  0  0  0  0  0  0  0  0  0  0  0
   20.7650   21.5918   24.3001 H   0  0  0  0  0  0  0  0  0  0  0  0
   20.5856   19.4460   24.1852 C   0  0  0  0  0  0  0  0  0  0  0  0
   21.2555   19.4691   25.0568 H   0  0  0  0  0  0  0  0  0  0  0  0
   21.0852   18.3069   23.2680 C   0  0  0  0  0  0  0  0  0  0  0  0
   22.1060   18.5418   22.9399 H   0  0  0  0  0  0  0  0  0  0  0  0
   21.1717   17.3943   23.8721 H   0  0  0  0  0  0  0  0  0  0  0  0
   20.2185   17.9904   22.0240 C   0  0  0  0  0  0  0  0  0  0  0  0
   20.7217   17.1954   21.4571 H   0  0  0  0  0  0  0  0  0  0  0  0
   19.2564   17.5642   22.3390 H   0  0  0  0  0  0  0  0  0  0  0  0
   19.2641   19.1753   24.6261 O   0  0  0  0  0  0  0  0  0  0  0  0
   18.7216   19.2541   23.8162 H   0  0  0  0  0  0  0  0  0  0  0  0
  1  2  1  0  0  0  0
  1  3  1  0  0  0  0
  1  4  1  0  0  0  0
  4  5  1  0  0  0  0
  4  6  1  0  0  0  0
  4  7  1  0  0  0  0
  7  8  1  0  0  0  0
  7  9  1  0  0  0  0
  7 10  1  0  0  0  0
 10 11  1  0  0  0  0
 10 12  1  0  0  0  0
 10 13  1  0  0  0  0
 13 14  1  0  0  0  0
 13 15  1  0  0  0  0
 15 16  1  0  0  0  0
 15 17  1  0  0  0  0
  1 18  1  0  0  0  0
 15 18  1  0  0  0  0
 18 19  1  0  0  0  0
 18 20  1  0  0  0  0
 13 21  1  0  0  0  0
 21 22  1  0  0  0  0
M  END
> <VM2 Rank>
3

> <Conf_Id>
1237

> <Probability>
6.34

> <Sum Probability>
21.20

> <Delta G>
0.107

> <G>
47.470

> <E>
20.456

> <-TS>
27.013

> <U+W>
2.572

> <U>
3.922

> <W>
-1.350

> <W(PB)>
-3.345

> <W(SA)>
1.995

> <Valence>
12.571

> <Coulomb>
-10.581

> <VdW>
1.932

> <VdW6>
-10.483

> <VdW12>
12.414

> <Bond>
0.268

> <Angle>
3.728

> <Pdih>
8.575

> <Idih>
0.000

> <Tether>
0.000

$$$$
VeraChem MOL file


 22 22  0  0  0  0  0  0  0  0999 V2000     
   19.2811   18.8974   21.3798 C   0  0  0  0  0  0  0  0  0  0  0  0
   19.0867   18.5182   20.3670 H   0  0  0  0  0  0  0  0  0  0  0  0
   18.3217   18.8069   21.9058 H   0  0  0  0  0  0  0  0  0  0  0  0
   19.6719   20.3897   21.2807 C   0  0  0  0  0  0  0  0  0  0  0  0
   20.7220   20.5011   20.9786 H   0  0  0  0  0  0  0  0  0  0  0  0
   19.0762   20.8403   20.4751 H   0  0  0  0  0  0  0  0  0  0  0  0
   19.3813   21.1821   22.5776 C   0  0  0  0  0  0  0  0  0  0  0  0
   18.3602   20.9706   22.9226 H   0  0  0  0  0  0  0  0  0  0  0  0
   19.3954   22.2539   22.3372 H   0  0  0  0  0  0  0  0  0  0  0  0
   20.3859   20.9417   23.7316 C   0  0  0  0  0  0  0  0  0  0  0  0
   21.3654   21.3420   23.4397 H   0  0  0  0  0  0  0  0  0  0  0  0
   20.0692   21.5380   24.5973 H   0  0  0  0  0  0  0  0  0  0  0  0
   20.5672   19.4786   24.1950 C   0  0  0  0  0  0  0  0  0  0  0  0
   21.2303   19.5027   25.0716 H   0  0  0  0  0  0  0  0  0  0  0  0
   21.2479   18.5909   23.1279 C   0  0  0  0  0  0  0  0  0  0  0  0
   22.0434   19.1708   22.6423 H   0  0  0  0  0  0  0  0  0  0  0  0
   21.7639   17.7713   23.6447 H   0  0  0  0  0  0  0  0  0  0  0  0
   20.3343   17.9696   22.0368 C   0  0  0  0  0  0  0  0  0  0  0  0
   20.9860   17.5703   21.2477 H   0  0  0  0  0  0  0  0  0  0  0  0
   19.8154   17.0963   22.4555 H   0  0  0  0  0  0  0  0  0  0  0  0
   19.3164   18.9279   24.5776 O   0  0  0  0  0  0  0  0  0  0  0  0
   18.8183   18.8617   23.7387 H   0  0  0  0  0  0  0  0  0  0  0  0
  1  2  1  0  0  0  0
  1  3  1  0  0  0  0
  1  4  1  0  0  0  0
  4  5  1  0  0  0  0
  4  6  1  0  0  0  0
  4  7  1  0  0  0  0
  7  8  1  0  0  0  0
  7  9  1  0  0  0  0
  7 10  1  0  0  0  0
 10 11  1  0  0  0  0
 10 12  1  0  0  0  0
 10 13  1  0  0  0  0
 13 14  1  0  0  0  0
 13 15  1  0  0  0  0
 15 16  1  0  0  0  0
 15 17  1  0  0  0  0
  1 18  1  0  0  0  0
 15 18  1  0  0  0  0
 18 19  1  0  0  0  0
 18 20  1  0  0  0  0
 13 21  1  0  0  0  0
 21 22  1  0  0  0  0
M  END
> <VM2 Rank>
4

> <Conf_Id>
122

> <Probability>
6.04

> <Sum Probability>
27.25

> <Delta G>
0.135

> <G>
47.498

> <E>
20.485

> <-TS>
27.013

> <U+W>
2.600

> <U>
3.922

> <W>
-1.322

> <W(PB)>
-3.302

> <W(SA)>
1.980

> <Valence>
12.571

> <Coulomb>
-10.581

> <VdW>
1.932

> <VdW6>
-10.483

> <VdW12>
12.414

> <Bond>
0.268

> <Angle>
3.728

> <Pdih>
8.575

> <Idih>
0.000

> <Tether>
0.000

$$$$
VeraChem MOL file


 22 22  0  0  0  0  0  0  0  0999 V2000     
   19.8710   19.1041   20.8415 C   0  0  0  0  0  0  0  0  0  0  0  0
   20.3617   18.9261   19.8748 H   0  0  0  0  0  0  0  0  0  0  0  0
   18.8001   18.9296   20.6692 H   0  0  0  0  0  0  0  0  0  0  0  0
   20.0921   20.5825   21.2421 C   0  0  0  0  0  0  0  0  0  0  0  0
   21.1479   20.7715   21.4792 H   0  0  0  0  0  0  0  0  0  0  0  0
   19.8618   21.2035   20.3656 H   0  0  0  0  0  0  0  0  0  0  0  0
   19.1751   21.0347   22.4025 C   0  0  0  0  0  0  0  0  0  0  0  0
   18.1926   20.5540   22.3002 H   0  0  0  0  0  0  0  0  0  0  0  0
   18.9860   22.1127   22.3081 H   0  0  0  0  0  0  0  0  0  0  0  0
   19.7369   20.7696   23.8215 C   0  0  0  0  0  0  0  0  0  0  0  0
   20.4183   21.5886   24.0858 H   0  0  0  0  0  0  0  0  0  0  0  0
   18.9027   20.8274   24.5338 H   0  0  0  0  0  0  0  0  0  0  0  0
   20.4966   19.4387   24.0271 C   0  0  0  0  0  0  0  0  0  0  0  0
   21.5263   19.5657   23.6631 H   0  0  0  0  0  0  0  0  0  0  0  0
   19.8777   18.2250   23.2989 C   0  0  0  0  0  0  0  0  0  0  0  0
   20.1403   17.3144   23.8539 H   0  0  0  0  0  0  0  0  0  0  0  0
   18.7819   18.2858   23.3109 H   0  0  0  0  0  0  0  0  0  0  0  0
   20.4029   18.0614   21.8515 C   0  0  0  0  0  0  0  0  0  0  0  0
   21.5012   18.0856   21.8568 H   0  0  0  0  0  0  0  0  0  0  0  0
   20.1270   17.0616   21.4895 H   0  0  0  0  0  0  0  0  0  0  0  0
   20.5337   19.1621   25.4219 O   0  0  0  0  0  0  0  0  0  0  0  0
   20.9742   19.9261   25.8496 H   0  0  0  0  0  0  0  0  0  0  0  0
  1  2  1  0  0  0  0
  1  3  1  0  0  0  0
  1  4  1  0  0  0  0
  4  5  1  0  0  0  0
  4  6  1  0  0  0  0
  4  7  1  0  0  0  0
  7  8  1  0  0  0  0
  7  9  1  0  0  0  0
  7 10  1  0  0  0  0
 10 11  1  0  0  0  0
 10 12  1  0  0  0  0
 10 13  1  0  0  0  0
 13 14  1  0  0  0  0
 13 15  1  0  0  0  0
 15 16  1  0  0  0  0
 15 17  1  0  0  0  0
  1 18  1  0  0  0  0
 15 18  1  0  0  0  0
 18 19  1  0  0  0  0
 18 20  1  0  0  0  0
 13 21  1  0  0  0  0
 21 22  1  0  0  0  0
M  END
> <VM2 Rank>
5

> <Conf_Id>
517

> <Probability>
4.86

> <Sum Probability>
32.11

> <Delta G>
0.265

> <G>
47.628

> <E>
20.970

> <-TS>
26.657

> <U+W>
3.085

> <U>
5.433

> <W>
-2.348

> <W(PB)>
-4.357

> <W(SA)>
2.010

> <Valence>
11.903

> <Coulomb>
-8.719

> <VdW>
2.250

> <VdW6>
-8.926

> <VdW12>
11.175

> <Bond>
0.223

> <Angle>
2.471

> <Pdih>
9.209

> <Idih>
0.000

> <Tether>
0.000

$$$$
VeraChem MOL file


 22 22  0  0  0  0  0  0  0  0999 V2000     
   20.3567   19.2286   20.9946 C   0  0  0  0  0  0  0  0  0  0  0  0
   21.4143   19.4318   21.2107 H   0  0  0  0  0  0  0  0  0  0  0  0
   20.3193   18.8927   19.9493 H   0  0  0  0  0  0  0  0  0  0  0  0
   19.5116   20.5207   21.1032 C   0  0  0  0  0  0  0  0  0  0  0  0
   19.7920   21.1926   20.2805 H   0  0  0  0  0  0  0  0  0  0  0  0
   18.4524   20.2778   20.9423 H   0  0  0  0  0  0  0  0  0  0  0  0
   19.6622   21.2963   22.4320 C   0  0  0  0  0  0  0  0  0  0  0  0
   18.9675   22.1471   22.4130 H   0  0  0  0  0  0  0  0  0  0  0  0
   20.6689   21.7327   22.4879 H   0  0  0  0  0  0  0  0  0  0  0  0
   19.3902   20.4650   23.7097 C   0  0  0  0  0  0  0  0  0  0  0  0
   19.3074   21.1651   24.5518 H   0  0  0  0  0  0  0  0  0  0  0  0
   18.4223   19.9519   23.6415 H   0  0  0  0  0  0  0  0  0  0  0  0
   20.5185   19.4563   24.0195 C   0  0  0  0  0  0  0  0  0  0  0  0
   21.4700   19.8976   23.6899 H   0  0  0  0  0  0  0  0  0  0  0  0
   20.3557   18.0780   23.3378 C   0  0  0  0  0  0  0  0  0  0  0  0
   21.3348   17.5818   23.3476 H   0  0  0  0  0  0  0  0  0  0  0  0
   19.6903   17.4478   23.9432 H   0  0  0  0  0  0  0  0  0  0  0  0
   19.8204   18.0829   21.8842 C   0  0  0  0  0  0  0  0  0  0  0  0
   18.7224   18.1135   21.8969 H   0  0  0  0  0  0  0  0  0  0  0  0
   20.0821   17.1209   21.4228 H   0  0  0  0  0  0  0  0  0  0  0  0
   20.5709   19.2501   25.4260 O   0  0  0  0  0  0  0  0  0  0  0  0
   21.3244   18.6464   25.5949 H   0  0  0  0  0  0  0  0  0  0  0  0
  1  2  1  0  0  0  0
  1  3  1  0  0  0  0
  1  4  1  0  0  0  0
  4  5  1  0  0  0  0
  4  6  1  0  0  0  0
  4  7  1  0  0  0  0
  7  8  1  0  0  0  0
  7  9  1  0  0  0  0
  7 10  1  0  0  0  0
 10 11  1  0  0  0  0
 10 12  1  0  0  0  0
 10 13  1  0  0  0  0
 13 14  1  0  0  0  0
 13 15  1  0  0  0  0
 15 16  1  0  0  0  0
 15 17  1  0  0  0  0
  1 18  1  0  0  0  0
 15 18  1  0  0  0  0
 18 19  1  0  0  0  0
 18 20  1  0  0  0  0
 13 21  1  0  0  0  0
 21 22  1  0  0  0  0
M  END
> <VM2 Rank>
6

> <Conf_Id>
810

> <Probability>
4.66

> <Sum Probability>
36.76

> <Delta G>
0.291

> <G>
47.654

> <E>
20.996

> <-TS>
26.657

> <U+W>
3.111

> <U>
5.433

> <W>
-2.322

> <W(PB)>
-4.348

> <W(SA)>
2.026

> <Valence>
11.903

> <Coulomb>
-8.719

> <VdW>
2.250

> <VdW6>
-8.926

> <VdW12>
11.176

> <Bond>
0.223

> <Angle>
2.471

> <Pdih>
9.209

> <Idih>
0.000

> <Tether>
0.000

$$$$
VeraChem MOL file


 22 22  0  0  0  0  0  0  0  0999 V2000     
   19.8722   19.1045   20.8422 C   0  0  0  0  0  0  0  0  0  0  0  0
   18.8013   18.9312   20.6688 H   0  0  0  0  0  0  0  0  0  0  0  0
   20.3635   18.9263   19.8759 H   0  0  0  0  0  0  0  0  0  0  0  0
   20.0945   20.5828   21.2431 C   0  0  0  0  0  0  0  0  0  0  0  0
   21.1501   20.7706   21.4819 H   0  0  0  0  0  0  0  0  0  0  0  0
   19.8665   21.2039   20.3660 H   0  0  0  0  0  0  0  0  0  0  0  0
   19.1761   21.0368   22.4017 C   0  0  0  0  0  0  0  0  0  0  0  0
   18.1921   20.5600   22.2960 H   0  0  0  0  0  0  0  0  0  0  0  0
   18.9914   22.1157   22.3088 H   0  0  0  0  0  0  0  0  0  0  0  0
   19.7327   20.7671   23.8221 C   0  0  0  0  0  0  0  0  0  0  0  0
   20.4125   21.5844   24.0953 H   0  0  0  0  0  0  0  0  0  0  0  0
   18.8978   20.8197   24.5337 H   0  0  0  0  0  0  0  0  0  0  0  0
   20.4954   19.4381   24.0260 C   0  0  0  0  0  0  0  0  0  0  0  0
   21.5234   19.5706   23.6592 H   0  0  0  0  0  0  0  0  0  0  0  0
   19.8750   18.2241   23.2988 C   0  0  0  0  0  0  0  0  0  0  0  0
   20.1302   17.3096   23.8503 H   0  0  0  0  0  0  0  0  0  0  0  0
   18.7793   18.2898   23.3066 H   0  0  0  0  0  0  0  0  0  0  0  0
   20.4020   18.0606   21.8521 C   0  0  0  0  0  0  0  0  0  0  0  0
   21.5004   18.0835   21.8581 H   0  0  0  0  0  0  0  0  0  0  0  0
   20.1252   17.0615   21.4889 H   0  0  0  0  0  0  0  0  0  0  0  0
   20.5381   19.1640   25.4211 O   0  0  0  0  0  0  0  0  0  0  0  0
   21.0889   18.3613   25.5343 H   0  0  0  0  0  0  0  0  0  0  0  0
  1  2  1  0  0  0  0
  1  3  1  0  0  0  0
  1  4  1  0  0  0  0
  4  5  1  0  0  0  0
  4  6  1  0  0  0  0
  4  7  1  0  0  0  0
  7  8  1  0  0  0  0
  7  9  1  0  0  0  0
  7 10  1  0  0  0  0
 10 11  1  0  0  0  0
 10 12  1  0  0  0  0
 10 13  1  0  0  0  0
 13 14  1  0  0  0  0
 13 15  1  0  0  0  0
 15 16  1  0  0  0  0
 15 17  1  0  0  0  0
  1 18  1  0  0  0  0
 15 18  1  0  0  0  0
 18 19  1  0  0  0  0
 18 20  1  0  0  0  0
 13 21  1  0  0  0  0
 21 22  1  0  0  0  0
M  END
> <VM2 Rank>
7

> <Conf_Id>
1328

> <Probability>
4.59

> <Sum Probability>
41.35

> <Delta G>
0.300

> <G>
47.662

> <E>
20.999

> <-TS>
26.663

> <U+W>
3.114

> <U>
5.411

> <W>
-2.297

> <W(PB)>
-4.300

> <W(SA)>
2.003

> <Valence>
11.909

> <Coulomb>
-8.733

> <VdW>
2.236

> <VdW6>
-8.936

> <VdW12>
11.172

> <Bond>
0.223

> <Angle>
2.457

> <Pdih>
9.228

> <Idih>
0.000

> <Tether>
0.000

$$$$
VeraChem MOL file


 22 22  0  0  0  0  0  0  0  0999 V2000     
   20.3584   19.2286   20.9955 C   0  0  0  0  0  0  0  0  0  0  0  0
   20.3227   18.8935   19.9498 H   0  0  0  0  0  0  0  0  0  0  0  0
   21.4158   19.4313   21.2135 H   0  0  0  0  0  0  0  0  0  0  0  0
   19.5133   20.5207   21.1037 C   0  0  0  0  0  0  0  0  0  0  0  0
   19.7945   21.1926   20.2813 H   0  0  0  0  0  0  0  0  0  0  0  0
   18.4542   20.2778   20.9416 H   0  0  0  0  0  0  0  0  0  0  0  0
   19.6622   21.2966   22.4327 C   0  0  0  0  0  0  0  0  0  0  0  0
   18.9674   22.1473   22.4122 H   0  0  0  0  0  0  0  0  0  0  0  0
   20.6687   21.7333   22.4894 H   0  0  0  0  0  0  0  0  0  0  0  0
   19.3881   20.4652   23.7097 C   0  0  0  0  0  0  0  0  0  0  0  0
   19.2974   21.1668   24.5494 H   0  0  0  0  0  0  0  0  0  0  0  0
   18.4216   19.9500   23.6364 H   0  0  0  0  0  0  0  0  0  0  0  0
   20.5172   19.4565   24.0185 C   0  0  0  0  0  0  0  0  0  0  0  0
   21.4694   19.8927   23.6841 H   0  0  0  0  0  0  0  0  0  0  0  0
   20.3500   18.0781   23.3391 C   0  0  0  0  0  0  0  0  0  0  0  0
   21.3275   17.5791   23.3576 H   0  0  0  0  0  0  0  0  0  0  0  0
   19.6816   17.4527   23.9458 H   0  0  0  0  0  0  0  0  0  0  0  0
   19.8208   18.0817   21.8831 C   0  0  0  0  0  0  0  0  0  0  0  0
   20.0863   17.1201   21.4231 H   0  0  0  0  0  0  0  0  0  0  0  0
   18.7227   18.1104   21.8914 H   0  0  0  0  0  0  0  0  0  0  0  0
   20.5759   19.2505   25.4247 O   0  0  0  0  0  0  0  0  0  0  0  0
   20.7579   20.1239   25.8305 H   0  0  0  0  0  0  0  0  0  0  0  0
  1  2  1  0  0  0  0
  1  3  1  0  0  0  0
  1  4  1  0  0  0  0
  4  5  1  0  0  0  0
  4  6  1  0  0  0  0
  4  7  1  0  0  0  0
  7  8  1  0  0  0  0
  7  9  1  0  0  0  0
  7 10  1  0  0  0  0
 10 11  1  0  0  0  0
 10 12  1  0  0  0  0
 10 13  1  0  0  0  0
 13 14  1  0  0  0  0
 13 15  1  0  0  0  0
 15 16  1  0  0  0  0
 15 17  1  0  0  0  0
  1 18  1  0  0  0  0
 15 18  1  0  0  0  0
 18 19  1  0  0  0  0
 18 20  1  0  0  0  0
 13 21  1  0  0  0  0
 21 22  1  0  0  0  0
M  END
> <VM2 Rank>
8

> <Conf_Id>
775

> <Probability>
4.45

> <Sum Probability>
45.81

> <Delta G>
0.317

> <G>
47.680

> <E>
21.017

> <-TS>
26.663

> <U+W>
3.132

> <U>
5.411

> <W>
-2.279

> <W(PB)>
-4.300

> <W(SA)>
2.021

> <Valence>
11.909

> <Coulomb>
-8.733

> <VdW>
2.236

> <VdW6>
-8.936

> <VdW12>
11.172

> <Bond>
0.223

> <Angle>
2.457

> <Pdih>
9.228

> <Idih>
0.000

> <Tether>
0.000

$$$$
VeraChem MOL file


 22 22  0  0  0  0  0  0  0  0999 V2000     
   19.5785   19.1193   21.0159 C   0  0  0  0  0  0  0  0  0  0  0  0
   19.6449   18.8662   19.9489 H   0  0  0  0  0  0  0  0  0  0  0  0
   18.5133   19.0575   21.2772 H   0  0  0  0  0  0  0  0  0  0  0  0
   20.1080   20.5609   21.1996 C   0  0  0  0  0  0  0  0  0  0  0  0
   21.2049   20.5432   21.2556 H   0  0  0  0  0  0  0  0  0  0  0  0
   19.8701   21.1443   20.2996 H   0  0  0  0  0  0  0  0  0  0  0  0
   19.5372   21.3182   22.4231 C   0  0  0  0  0  0  0  0  0  0  0  0
   18.5666   21.7555   22.1514 H   0  0  0  0  0  0  0  0  0  0  0  0
   20.1979   22.1691   22.6382 H   0  0  0  0  0  0  0  0  0  0  0  0
   19.3461   20.4871   23.7157 C   0  0  0  0  0  0  0  0  0  0  0  0
   19.2546   21.1878   24.5561 H   0  0  0  0  0  0  0  0  0  0  0  0
   18.3850   19.9591   23.6675 H   0  0  0  0  0  0  0  0  0  0  0  0
   20.4700   19.4667   24.0057 C   0  0  0  0  0  0  0  0  0  0  0  0
   21.4328   19.8684   23.6585 H   0  0  0  0  0  0  0  0  0  0  0  0
   20.2108   18.0984   23.3357 C   0  0  0  0  0  0  0  0  0  0  0  0
   20.8901   17.3575   23.7777 H   0  0  0  0  0  0  0  0  0  0  0  0
   19.1958   17.7607   23.5825 H   0  0  0  0  0  0  0  0  0  0  0  0
   20.4018   18.0696   21.8003 C   0  0  0  0  0  0  0  0  0  0  0  0
   21.4677   18.1916   21.5641 H   0  0  0  0  0  0  0  0  0  0  0  0
   20.1280   17.0688   21.4395 H   0  0  0  0  0  0  0  0  0  0  0  0
   20.5336   19.2578   25.4110 O   0  0  0  0  0  0  0  0  0  0  0  0
   20.7546   20.1232   25.8148 H   0  0  0  0  0  0  0  0  0  0  0  0
  1  2  1  0  0  0  0
  1  3  1  0  0  0  0
  1  4  1  0  0  0  0
  4  5  1  0  0  0  0
  4  6  1  0  0  0  0
  4  7  1  0  0  0  0
  7  8  1  0  0  0  0
  7  9  1  0  0  0  0
  7 10  1  0  0  0  0
 10 11  1  0  0  0  0
 10 12  1  0  0  0  0
 10 13  1  0  0  0  0
 13 14  1  0  0  0  0
 13 15  1  0  0  0  0
 15 16  1  0  0  0  0
 15 17  1  0  0  0  0
  1 18  1  0  0  0  0
 15 18  1  0  0  0  0
 18 19  1  0  0  0  0
 18 20  1  0  0  0  0
 13 21  1  0  0  0  0
 21 22  1  0  0  0  0
M  END
> <VM2 Rank>
9

> <Conf_Id>
485

> <Probability>
4.38

> <Sum Probability>
50.19

> <Delta G>
0.327

> <G>
47.689

> <E>
21.017

> <-TS>
26.672

> <U+W>
3.132

> <U>
5.406

> <W>
-2.274

> <W(PB)>
-4.290

> <W(SA)>
2.016

> <Valence>
12.011

> <Coulomb>
-8.863

> <VdW>
2.258

> <VdW6>
-8.944

> <VdW12>
11.202

> <Bond>
0.224

> <Angle>
2.419

> <Pdih>
9.368

> <Idih>
0.000

> <Tether>
0.000

$$$$
VeraChem MOL file


 22 22  0  0  0  0  0  0  0  0999 V2000     
   20.3925   19.2599   20.9703 C   0  0  0  0  0  0  0  0  0  0  0  0
   21.3939   19.6894   21.1100 H   0  0  0  0  0  0  0  0  0  0  0  0
   20.3463   18.9625   19.9137 H   0  0  0  0  0  0  0  0  0  0  0  0
   19.3247   20.3480   21.2309 C   0  0  0  0  0  0  0  0  0  0  0  0
   19.2149   20.9431   20.3140 H   0  0  0  0  0  0  0  0  0  0  0  0
   18.3418   19.8947   21.4185 H   0  0  0  0  0  0  0  0  0  0  0  0
   19.7148   21.3145   22.3750 C   0  0  0  0  0  0  0  0  0  0  0  0
   19.0440   22.1839   22.3432 H   0  0  0  0  0  0  0  0  0  0  0  0
   20.7238   21.7083   22.1914 H   0  0  0  0  0  0  0  0  0  0  0  0
   19.6524   20.7082   23.7973 C   0  0  0  0  0  0  0  0  0  0  0  0
   20.0104   21.4658   24.5069 H   0  0  0  0  0  0  0  0  0  0  0  0
   18.6054   20.5159   24.0654 H   0  0  0  0  0  0  0  0  0  0  0  0
   20.4758   19.4160   23.9987 C   0  0  0  0  0  0  0  0  0  0  0  0
   21.4938   19.5658   23.6112 H   0  0  0  0  0  0  0  0  0  0  0  0
   19.8315   18.1929   23.3076 C   0  0  0  0  0  0  0  0  0  0  0  0
   20.0805   17.2788   23.8625 H   0  0  0  0  0  0  0  0  0  0  0  0
   18.7389   18.2824   23.3644 H   0  0  0  0  0  0  0  0  0  0  0  0
   20.2502   17.9818   21.8318 C   0  0  0  0  0  0  0  0  0  0  0  0
   19.5165   17.3134   21.3607 H   0  0  0  0  0  0  0  0  0  0  0  0
   21.2065   17.4416   21.8042 H   0  0  0  0  0  0  0  0  0  0  0  0
   20.5441   19.1568   25.3954 O   0  0  0  0  0  0  0  0  0  0  0  0
   21.1158   18.3688   25.5081 H   0  0  0  0  0  0  0  0  0  0  0  0
  1  2  1  0  0  0  0
  1  3  1  0  0  0  0
  1  4  1  0  0  0  0
  4  5  1  0  0  0  0
  4  6  1  0  0  0  0
  4  7  1  0  0  0  0
  7  8  1  0  0  0  0
  7  9  1  0  0  0  0
  7 10  1  0  0  0  0
 10 11  1  0  0  0  0
 10 12  1  0  0  0  0
 10 13  1  0  0  0  0
 13 14  1  0  0  0  0
 13 15  1  0  0  0  0
 15 16  1  0  0  0  0
 15 17  1  0  0  0  0
  1 18  1  0  0  0  0
 15 18  1  0  0  0  0
 18 19  1  0  0  0  0
 18 20  1  0  0  0  0
 13 21  1  0  0  0  0
 21 22  1  0  0  0  0
M  END
> <VM2 Rank>
10

> <Conf_Id>
1257

> <Probability>
4.30

> <Sum Probability>
54.49

> <Delta G>
0.338

> <G>
47.700

> <E>
21.028

> <-TS>
26.672

> <U+W>
3.143

> <U>
5.406

> <W>
-2.262

> <W(PB)>
-4.270

> <W(SA)>
2.008

> <Valence>
12.011

> <Coulomb>
-8.863

> <VdW>
2.258

> <VdW6>
-8.944

> <VdW12>
11.202

> <Bond>
0.224

> <Angle>
2.419

> <Pdih>
9.368

> <Idih>
0.000

> <Tether>
0.000

$$$$
VeraChem MOL file


 22 22  0  0  0  0  0  0  0  0999 V2000     
   20.3912   19.2596   20.9693 C   0  0  0  0  0  0  0  0  0  0  0  0
   20.3435   18.9618   19.9129 H   0  0  0  0  0  0  0  0  0  0  0  0
   21.3929   19.6888   21.1077 H   0  0  0  0  0  0  0  0  0  0  0  0
   19.3239   20.3478   21.2311 C   0  0  0  0  0  0  0  0  0  0  0  0
   18.3413   19.8946   21.4202 H   0  0  0  0  0  0  0  0  0  0  0  0
   19.2130   20.9426   20.3142 H   0  0  0  0  0  0  0  0  0  0  0  0
   19.7158   21.3143   22.3744 C   0  0  0  0  0  0  0  0  0  0  0  0
   19.0460   22.1844   22.3418 H   0  0  0  0  0  0  0  0  0  0  0  0
   20.7252   21.7069   22.1900 H   0  0  0  0  0  0  0  0  0  0  0  0
   19.6525   20.7092   23.7971 C   0  0  0  0  0  0  0  0  0  0  0  0
   20.0052   21.4716   24.5039 H   0  0  0  0  0  0  0  0  0  0  0  0
   18.6047   20.5151   24.0615 H   0  0  0  0  0  0  0  0  0  0  0  0
   20.4766   19.4169   23.9993 C   0  0  0  0  0  0  0  0  0  0  0  0
   21.4954   19.5629   23.6128 H   0  0  0  0  0  0  0  0  0  0  0  0
   19.8341   18.1934   23.3084 C   0  0  0  0  0  0  0  0  0  0  0  0
   20.0920   17.2831   23.8661 H   0  0  0  0  0  0  0  0  0  0  0  0
   18.7415   18.2772   23.3702 H   0  0  0  0  0  0  0  0  0  0  0  0
   20.2497   17.9819   21.8316 C   0  0  0  0  0  0  0  0  0  0  0  0
   21.2059   17.4417   21.8030 H   0  0  0  0  0  0  0  0  0  0  0  0
   19.5152   17.3133   21.3622 H   0  0  0  0  0  0  0  0  0  0  0  0
   20.5423   19.1549   25.3958 O   0  0  0  0  0  0  0  0  0  0  0  0
   20.9960   19.9206   25.8061 H   0  0  0  0  0  0  0  0  0  0  0  0
  1  2  1  0  0  0  0
  1  3  1  0  0  0  0
  1  4  1  0  0  0  0
  4  5  1  0  0  0  0
  4  6  1  0  0  0  0
  4  7  1  0  0  0  0
  7  8  1  0  0  0  0
  7  9  1  0  0  0  0
  7 10  1  0  0  0  0
 10 11  1  0  0  0  0
 10 12  1  0  0  0  0
 10 13  1  0  0  0  0
 13 14  1  0  0  0  0
 13 15  1  0  0  0  0
 15 16  1  0  0  0  0
 15 17  1  0  0  0  0
  1 18  1  0  0  0  0
 15 18  1  0  0  0  0
 18 19  1  0  0  0  0
 18 20  1  0  0  0  0
 13 21  1  0  0  0  0
 21 22  1  0  0  0  0
M  END
> <VM2 Rank>
11

> <Conf_Id>
1095

> <Probability>
4.28

> <Sum Probability>
58.77

> <Delta G>
0.341

> <G>
47.704

> <E>
21.056

> <-TS>
26.648

> <U+W>
3.171

> <U>
5.483

> <W>
-2.312

> <W(PB)>
-4.316

> <W(SA)>
2.004

> <Valence>
12.019

> <Coulomb>
-8.788

> <VdW>
2.252

> <VdW6>
-8.934

> <VdW12>
11.185

> <Bond>
0.223

> <Angle>
2.429

> <Pdih>
9.367

> <Idih>
0.000

> <Tether>
0.000

$$$$
VeraChem MOL file


 22 22  0  0  0  0  0  0  0  0999 V2000     
   20.3549   19.2282   20.9937 C   0  0  0  0  0  0  0  0  0  0  0  0
   21.4130   19.4312   21.2081 H   0  0  0  0  0  0  0  0  0  0  0  0
   20.3157   18.8922   19.9485 H   0  0  0  0  0  0  0  0  0  0  0  0
   19.5105   20.5204   21.1037 C   0  0  0  0  0  0  0  0  0  0  0  0
   19.7899   21.1921   20.2805 H   0  0  0  0  0  0  0  0  0  0  0  0
   18.4509   20.2781   20.9448 H   0  0  0  0  0  0  0  0  0  0  0  0
   19.6645   21.2960   22.4321 C   0  0  0  0  0  0  0  0  0  0  0  0
   18.9728   22.1492   22.4128 H   0  0  0  0  0  0  0  0  0  0  0  0
   20.6727   21.7289   22.4875 H   0  0  0  0  0  0  0  0  0  0  0  0
   19.3897   20.4661   23.7100 C   0  0  0  0  0  0  0  0  0  0  0  0
   19.3076   21.1694   24.5496 H   0  0  0  0  0  0  0  0  0  0  0  0
   18.4203   19.9562   23.6382 H   0  0  0  0  0  0  0  0  0  0  0  0
   20.5169   19.4562   24.0205 C   0  0  0  0  0  0  0  0  0  0  0  0
   21.4701   19.8969   23.6951 H   0  0  0  0  0  0  0  0  0  0  0  0
   20.3596   18.0783   23.3366 C   0  0  0  0  0  0  0  0  0  0  0  0
   21.3436   17.5916   23.3440 H   0  0  0  0  0  0  0  0  0  0  0  0
   19.7037   17.4379   23.9409 H   0  0  0  0  0  0  0  0  0  0  0  0
   19.8205   18.0826   21.8845 C   0  0  0  0  0  0  0  0  0  0  0  0
   20.0822   17.1208   21.4227 H   0  0  0  0  0  0  0  0  0  0  0  0
   18.7225   18.1126   21.8991 H   0  0  0  0  0  0  0  0  0  0  0  0
   20.5693   19.2500   25.4259 O   0  0  0  0  0  0  0  0  0  0  0  0
   19.6965   18.8891   25.6850 H   0  0  0  0  0  0  0  0  0  0  0  0
  1  2  1  0  0  0  0
  1  3  1  0  0  0  0
  1  4  1  0  0  0  0
  4  5  1  0  0  0  0
  4  6  1  0  0  0  0
  4  7  1  0  0  0  0
  7  8  1  0  0  0  0
  7  9  1  0  0  0  0
  7 10  1  0  0  0  0
 10 11  1  0  0  0  0
 10 12  1  0  0  0  0
 10 13  1  0  0  0  0
 13 14  1  0  0  0  0
 13 15  1  0  0  0  0
 15 16  1  0  0  0  0
 15 17  1  0  0  0  0
  1 18  1  0  0  0  0
 15 18  1  0  0  0  0
 18 19  1  0  0  0  0
 18 20  1  0  0  0  0
 13 21  1  0  0  0  0
 21 22  1  0  0  0  0
M  END
> <VM2 Rank>
12

> <Conf_Id>
988

> <Probability>
4.06

> <Sum Probability>
62.83

> <Delta G>
0.372

> <G>
47.735

> <E>
21.108

> <-TS>
26.627

> <U+W>
3.223

> <U>
5.233

> <W>
-2.010

> <W(PB)>
-4.024

> <W(SA)>
2.014

> <Valence>
12.274

> <Coulomb>
-9.233

> <VdW>
2.191

> <VdW6>
-8.952

> <VdW12>
11.143

> <Bond>
0.217

> <Angle>
2.514

> <Pdih>
9.543

> <Idih>
0.000

> <Tether>
0.000

$$$$
VeraChem MOL file


 22 22  0  0  0  0  0  0  0  0999 V2000     
   19.5787   19.1188   21.0163 C   0  0  0  0  0  0  0  0  0  0  0  0
   19.6450   18.8655   19.9493 H   0  0  0  0  0  0  0  0  0  0  0  0
   18.5137   19.0559   21.2779 H   0  0  0  0  0  0  0  0  0  0  0  0
   20.1070   20.5608   21.1994 C   0  0  0  0  0  0  0  0  0  0  0  0
   21.2040   20.5440   21.2544 H   0  0  0  0  0  0  0  0  0  0  0  0
   19.8679   21.1438   20.2994 H   0  0  0  0  0  0  0  0  0  0  0  0
   19.5371   21.3182   22.4231 C   0  0  0  0  0  0  0  0  0  0  0  0
   18.5667   21.7563   22.1522 H   0  0  0  0  0  0  0  0  0  0  0  0
   20.1986   22.1687   22.6377 H   0  0  0  0  0  0  0  0  0  0  0  0
   19.3471   20.4885   23.7168 C   0  0  0  0  0  0  0  0  0  0  0  0
   19.2663   21.1908   24.5574 H   0  0  0  0  0  0  0  0  0  0  0  0
   18.3827   19.9662   23.6716 H   0  0  0  0  0  0  0  0  0  0  0  0
   20.4689   19.4658   24.0055 C   0  0  0  0  0  0  0  0  0  0  0  0
   21.4320   19.8687   23.6612 H   0  0  0  0  0  0  0  0  0  0  0  0
   20.2099   18.0973   23.3353 C   0  0  0  0  0  0  0  0  0  0  0  0
   20.8896   17.3557   23.7759 H   0  0  0  0  0  0  0  0  0  0  0  0
   19.1939   17.7581   23.5757 H   0  0  0  0  0  0  0  0  0  0  0  0
   20.4037   18.0703   21.8006 C   0  0  0  0  0  0  0  0  0  0  0  0
   21.4697   18.1952   21.5660 H   0  0  0  0  0  0  0  0  0  0  0  0
   20.1330   17.0692   21.4381 H   0  0  0  0  0  0  0  0  0  0  0  0
   20.5337   19.2584   25.4101 O   0  0  0  0  0  0  0  0  0  0  0  0
   19.6614   18.9027   25.6778 H   0  0  0  0  0  0  0  0  0  0  0  0
  1  2  1  0  0  0  0
  1  3  1  0  0  0  0
  1  4  1  0  0  0  0
  4  5  1  0  0  0  0
  4  6  1  0  0  0  0
  4  7  1  0  0  0  0
  7  8  1  0  0  0  0
  7  9  1  0  0  0  0
  7 10  1  0  0  0  0
 10 11  1  0  0  0  0
 10 12  1  0  0  0  0
 10 13  1  0  0  0  0
 13 14  1  0  0  0  0
 13 15  1  0  0  0  0
 15 16  1  0  0  0  0
 15 17  1  0  0  0  0
  1 18  1  0  0  0  0
 15 18  1  0  0  0  0
 18 19  1  0  0  0  0
 18 20  1  0  0  0  0
 13 21  1  0  0  0  0
 21 22  1  0  0  0  0
M  END
> <VM2 Rank>
13

> <Conf_Id>
222

> <Probability>
3.85

> <Sum Probability>
66.68

> <Delta G>
0.403

> <G>
47.766

> <E>
21.133

> <-TS>
26.633

> <U+W>
3.248

> <U>
5.336

> <W>
-2.088

> <W(PB)>
-4.098

> <W(SA)>
2.010

> <Valence>
12.390

> <Coulomb>
-9.270

> <VdW>
2.216

> <VdW6>
-8.967

> <VdW12>
11.183

> <Bond>
0.218

> <Angle>
2.427

> <Pdih>
9.745

> <Idih>
0.000

> <Tether>
0.000

$$$$
VeraChem MOL file


 22 22  0  0  0  0  0  0  0  0999 V2000     
   19.6920   18.9841   20.9456 C   0  0  0  0  0  0  0  0  0  0  0  0
   20.4033   18.7526   20.1410 H   0  0  0  0  0  0  0  0  0  0  0  0
   18.6996   18.7372   20.5440 H   0  0  0  0  0  0  0  0  0  0  0  0
   19.7582   20.5048   21.2211 C   0  0  0  0  0  0  0  0  0  0  0  0
   20.7978   20.8485   21.1322 H   0  0  0  0  0  0  0  0  0  0  0  0
   19.2105   21.0183   20.4191 H   0  0  0  0  0  0  0  0  0  0  0  0
   19.1831   20.9502   22.5849 C   0  0  0  0  0  0  0  0  0  0  0  0
   18.2924   20.3638   22.8460 H   0  0  0  0  0  0  0  0  0  0  0  0
   18.8417   21.9896   22.4850 H   0  0  0  0  0  0  0  0  0  0  0  0
   20.2379   20.9107   23.7197 C   0  0  0  0  0  0  0  0  0  0  0  0
   21.1360   21.4523   23.3954 H   0  0  0  0  0  0  0  0  0  0  0  0
   19.8514   21.4740   24.5795 H   0  0  0  0  0  0  0  0  0  0  0  0
   20.6572   19.5089   24.2145 C   0  0  0  0  0  0  0  0  0  0  0  0
   21.5166   19.6488   24.8859 H   0  0  0  0  0  0  0  0  0  0  0  0
   21.0960   18.5204   23.1057 C   0  0  0  0  0  0  0  0  0  0  0  0
   21.9252   18.9507   22.5295 H   0  0  0  0  0  0  0  0  0  0  0  0
   21.5097   17.6351   23.6062 H   0  0  0  0  0  0  0  0  0  0  0  0
   19.9706   18.0492   22.1468 C   0  0  0  0  0  0  0  0  0  0  0  0
   20.2449   17.0642   21.7452 H   0  0  0  0  0  0  0  0  0  0  0  0
   19.0401   17.8800   22.7025 H   0  0  0  0  0  0  0  0  0  0  0  0
   19.5909   18.9496   24.9687 O   0  0  0  0  0  0  0  0  0  0  0  0
   18.8388   18.8915   24.3469 H   0  0  0  0  0  0  0  0  0  0  0  0
  1  2  1  0  0  0  0
  1  3  1  0  0  0  0
  1  4  1  0  0  0  0
  4  5  1  0  0  0  0
  4  6  1  0  0  0  0
  4  7  1  0  0  0  0
  7  8  1  0  0  0  0
  7  9  1  0  0  0  0
  7 10  1  0  0  0  0
 10 11  1  0  0  0  0
 10 12  1  0  0  0  0
 10 13  1  0  0  0  0
 13 14  1  0  0  0  0
 13 15  1  0  0  0  0
 15 16  1  0  0  0  0
 15 17  1  0  0  0  0
  1 18  1  0  0  0  0
 15 18  1  0  0  0  0
 18 19  1  0  0  0  0
 18 20  1  0  0  0  0
 13 21  1  0  0  0  0
 21 22  1  0  0  0  0
M  END
> <VM2 Rank>
14

> <Conf_Id>
1290

> <Probability>
3.75

> <Sum Probability>
70.43

> <Delta G>
0.420

> <G>
47.783

> <E>
21.066

> <-TS>
26.717

> <U+W>
3.181

> <U>
4.701

> <W>
-1.520

> <W(PB)>
-3.523

> <W(SA)>
2.003

> <Valence>
12.586

> <Coulomb>
-9.999

> <VdW>
2.114

> <VdW6>
-9.790

> <VdW12>
11.904

> <Bond>
0.257

> <Angle>
3.349

> <Pdih>
8.980

> <Idih>
0.000

> <Tether>
0.000

$$$$
VeraChem MOL file


 22 22  0  0  0  0  0  0  0  0999 V2000     
   19.6691   19.0240   20.9199 C   0  0  0  0  0  0  0  0  0  0  0  0
   19.9332   18.8846   19.8627 H   0  0  0  0  0  0  0  0  0  0  0  0
   18.7064   18.5133   21.0578 H   0  0  0  0  0  0  0  0  0  0  0  0
   19.4871   20.5376   21.1756 C   0  0  0  0  0  0  0  0  0  0  0  0
   20.3825   21.0752   20.8352 H   0  0  0  0  0  0  0  0  0  0  0  0
   18.6642   20.8955   20.5420 H   0  0  0  0  0  0  0  0  0  0  0  0
   19.1817   20.9216   22.6430 C   0  0  0  0  0  0  0  0  0  0  0  0
   18.3288   20.3467   23.0292 H   0  0  0  0  0  0  0  0  0  0  0  0
   18.8712   21.9751   22.6565 H   0  0  0  0  0  0  0  0  0  0  0  0
   20.4108   20.7703   23.5721 C   0  0  0  0  0  0  0  0  0  0  0  0
   21.3189   21.0479   23.0216 H   0  0  0  0  0  0  0  0  0  0  0  0
   20.3322   21.5039   24.3850 H   0  0  0  0  0  0  0  0  0  0  0  0
   20.6078   19.3673   24.1942 C   0  0  0  0  0  0  0  0  0  0  0  0
   21.6597   19.2970   24.5071 H   0  0  0  0  0  0  0  0  0  0  0  0
   20.3074   18.1668   23.2671 C   0  0  0  0  0  0  0  0  0  0  0  0
   20.8188   17.2913   23.6875 H   0  0  0  0  0  0  0  0  0  0  0  0
   19.2359   17.9292   23.3033 H   0  0  0  0  0  0  0  0  0  0  0  0
   20.7462   18.3360   21.7921 C   0  0  0  0  0  0  0  0  0  0  0  0
   21.7038   18.8700   21.7261 H   0  0  0  0  0  0  0  0  0  0  0  0
   20.9254   17.3361   21.3742 H   0  0  0  0  0  0  0  0  0  0  0  0
   19.7759   19.2544   25.3431 O   0  0  0  0  0  0  0  0  0  0  0  0
   19.9994   20.0070   25.9289 H   0  0  0  0  0  0  0  0  0  0  0  0
  1  2  1  0  0  0  0
  1  3  1  0  0  0  0
  1  4  1  0  0  0  0
  4  5  1  0  0  0  0
  4  6  1  0  0  0  0
  4  7  1  0  0  0  0
  7  8  1  0  0  0  0
  7  9  1  0  0  0  0
  7 10  1  0  0  0  0
 10 11  1  0  0  0  0
 10 12  1  0  0  0  0
 10 13  1  0  0  0  0
 13 14  1  0  0  0  0
 13 15  1  0  0  0  0
 15 16  1  0  0  0  0
 15 17  1  0  0  0  0
  1 18  1  0  0  0  0
 15 18  1  0  0  0  0
 18 19  1  0  0  0  0
 18 20  1  0  0  0  0
 13 21  1  0  0  0  0
 21 22  1  0  0  0  0
M  END
> <VM2 Rank>
15

> <Conf_Id>
943

> <Probability>
3.71

> <Sum Probability>
74.14

> <Delta G>
0.427

> <G>
47.790

> <E>
21.138

> <-TS>
26.651

> <U+W>
3.254

> <U>
5.651

> <W>
-2.397

> <W(PB)>
-4.407

> <W(SA)>
2.010

> <Valence>
11.811

> <Coulomb>
-8.308

> <VdW>
2.148

> <VdW6>
-9.144

> <VdW12>
11.291

> <Bond>
0.225

> <Angle>
2.646

> <Pdih>
8.941

> <Idih>
0.000

> <Tether>
0.000

$$$$
VeraChem MOL file


 22 22  0  0  0  0  0  0  0  0999 V2000     
   19.8805   19.0486   20.9018 C   0  0  0  0  0  0  0  0  0  0  0  0
   20.8901   19.1539   20.4820 H   0  0  0  0  0  0  0  0  0  0  0  0
   19.2772   18.5752   20.1153 H   0  0  0  0  0  0  0  0  0  0  0  0
   19.2925   20.4504   21.1821 C   0  0  0  0  0  0  0  0  0  0  0  0
   19.3634   21.0424   20.2595 H   0  0  0  0  0  0  0  0  0  0  0  0
   18.2192   20.3585   21.3971 H   0  0  0  0  0  0  0  0  0  0  0  0
   19.9809   21.2342   22.3250 C   0  0  0  0  0  0  0  0  0  0  0  0
   19.6222   22.2715   22.2817 H   0  0  0  0  0  0  0  0  0  0  0  0
   21.0673   21.2807   22.1694 H   0  0  0  0  0  0  0  0  0  0  0  0
   19.6463   20.6702   23.7275 C   0  0  0  0  0  0  0  0  0  0  0  0
   19.7111   21.4860   24.4588 H   0  0  0  0  0  0  0  0  0  0  0  0
   18.5997   20.3384   23.7463 H   0  0  0  0  0  0  0  0  0  0  0  0
   20.5648   19.5297   24.2241 C   0  0  0  0  0  0  0  0  0  0  0  0
   21.4775   19.9859   24.6340 H   0  0  0  0  0  0  0  0  0  0  0  0
   21.0095   18.5031   23.1552 C   0  0  0  0  0  0  0  0  0  0  0  0
   21.8873   18.8957   22.6259 H   0  0  0  0  0  0  0  0  0  0  0  0
   21.3635   17.5986   23.6670 H   0  0  0  0  0  0  0  0  0  0  0  0
   19.9265   18.1015   22.1244 C   0  0  0  0  0  0  0  0  0  0  0  0
   20.1607   17.0926   21.7588 H   0  0  0  0  0  0  0  0  0  0  0  0
   18.9402   18.0315   22.6034 H   0  0  0  0  0  0  0  0  0  0  0  0
   19.8849   18.8403   25.2669 O   0  0  0  0  0  0  0  0  0  0  0  0
   20.4918   18.1406   25.5857 H   0  0  0  0  0  0  0  0  0  0  0  0
  1  2  1  0  0  0  0
  1  3  1  0  0  0  0
  1  4  1  0  0  0  0
  4  5  1  0  0  0  0
  4  6  1  0  0  0  0
  4  7  1  0  0  0  0
  7  8  1  0  0  0  0
  7  9  1  0  0  0  0
  7 10  1  0  0  0  0
 10 11  1  0  0  0  0
 10 12  1  0  0  0  0
 10 13  1  0  0  0  0
 13 14  1  0  0  0  0
 13 15  1  0  0  0  0
 15 16  1  0  0  0  0
 15 17  1  0  0  0  0
  1 18  1  0  0  0  0
 15 18  1  0  0  0  0
 18 19  1  0  0  0  0
 18 20  1  0  0  0  0
 13 21  1  0  0  0  0
 21 22  1  0  0  0  0
M  END
> <VM2 Rank>
16

> <Conf_Id>
330

> <Probability>
3.52

> <Sum Probability>
77.66

> <Delta G>
0.458

> <G>
47.821

> <E>
21.169

> <-TS>
26.651

> <U+W>
3.284

> <U>
5.651

> <W>
-2.366

> <W(PB)>
-4.373

> <W(SA)>
2.007

> <Valence>
11.811

> <Coulomb>
-8.308

> <VdW>
2.148

> <VdW6>
-9.144

> <VdW12>
11.291

> <Bond>
0.225

> <Angle>
2.646

> <Pdih>
8.941

> <Idih>
0.000

> <Tether>
0.000

$$$$
VeraChem MOL file


 22 22  0  0  0  0  0  0  0  0999 V2000     
   19.8865   19.0518   20.8995 C   0  0  0  0  0  0  0  0  0  0  0  0
   20.8995   19.1572   20.4879 H   0  0  0  0  0  0  0  0  0  0  0  0
   19.2890   18.5803   20.1074 H   0  0  0  0  0  0  0  0  0  0  0  0
   19.2971   20.4533   21.1779 C   0  0  0  0  0  0  0  0  0  0  0  0
   19.3748   21.0469   20.2569 H   0  0  0  0  0  0  0  0  0  0  0  0
   18.2222   20.3615   21.3852 H   0  0  0  0  0  0  0  0  0  0  0  0
   19.9782   21.2342   22.3268 C   0  0  0  0  0  0  0  0  0  0  0  0
   19.6182   22.2712   22.2849 H   0  0  0  0  0  0  0  0  0  0  0  0
   21.0653   21.2825   22.1766 H   0  0  0  0  0  0  0  0  0  0  0  0
   19.6381   20.6647   23.7255 C   0  0  0  0  0  0  0  0  0  0  0  0
   19.6927   21.4820   24.4563 H   0  0  0  0  0  0  0  0  0  0  0  0
   18.5938   20.3249   23.7347 H   0  0  0  0  0  0  0  0  0  0  0  0
   20.5642   19.5302   24.2222 C   0  0  0  0  0  0  0  0  0  0  0  0
   21.4805   19.9898   24.6200 H   0  0  0  0  0  0  0  0  0  0  0  0
   21.0022   18.4961   23.1581 C   0  0  0  0  0  0  0  0  0  0  0  0
   21.8900   18.8736   22.6351 H   0  0  0  0  0  0  0  0  0  0  0  0
   21.3372   17.5904   23.6811 H   0  0  0  0  0  0  0  0  0  0  0  0
   19.9224   18.1024   22.1207 C   0  0  0  0  0  0  0  0  0  0  0  0
   20.1542   17.0932   21.7545 H   0  0  0  0  0  0  0  0  0  0  0  0
   18.9339   18.0351   22.5953 H   0  0  0  0  0  0  0  0  0  0  0  0
   19.8974   18.8453   25.2762 O   0  0  0  0  0  0  0  0  0  0  0  0
   19.6739   19.5180   25.9527 H   0  0  0  0  0  0  0  0  0  0  0  0
  1  2  1  0  0  0  0
  1  3  1  0  0  0  0
  1  4  1  0  0  0  0
  4  5  1  0  0  0  0
  4  6  1  0  0  0  0
  4  7  1  0  0  0  0
  7  8  1  0  0  0  0
  7  9  1  0  0  0  0
  7 10  1  0  0  0  0
 10 11  1  0  0  0  0
 10 12  1  0  0  0  0
 10 13  1  0  0  0  0
 13 14  1  0  0  0  0
 13 15  1  0  0  0  0
 15 16  1  0  0  0  0
 15 17  1  0  0  0  0
  1 18  1  0  0  0  0
 15 18  1  0  0  0  0
 18 19  1  0  0  0  0
 18 20  1  0  0  0  0
 13 21  1  0  0  0  0
 21 22  1  0  0  0  0
M  END
> <VM2 Rank>
17

> <Conf_Id>
871

> <Probability>
3.41

> <Sum Probability>
81.07

> <Delta G>
0.476

> <G>
47.838

> <E>
21.157

> <-TS>
26.682

> <U+W>
3.272

> <U>
5.679

> <W>
-2.407

> <W(PB)>
-4.420

> <W(SA)>
2.013

> <Valence>
11.807

> <Coulomb>
-8.278

> <VdW>
2.149

> <VdW6>
-9.114

> <VdW12>
11.263

> <Bond>
0.224

> <Angle>
2.649

> <Pdih>
8.934

> <Idih>
0.000

> <Tether>
0.000

$$$$
VeraChem MOL file


 22 22  0  0  0  0  0  0  0  0999 V2000     
   19.6742   19.0260   20.9152 C   0  0  0  0  0  0  0  0  0  0  0  0
   19.9453   18.8878   19.8597 H   0  0  0  0  0  0  0  0  0  0  0  0
   18.7090   18.5179   21.0455 H   0  0  0  0  0  0  0  0  0  0  0  0
   19.4952   20.5394   21.1729 C   0  0  0  0  0  0  0  0  0  0  0  0
   20.3949   21.0751   20.8408 H   0  0  0  0  0  0  0  0  0  0  0  0
   18.6784   20.9014   20.5338 H   0  0  0  0  0  0  0  0  0  0  0  0
   19.1796   20.9210   22.6388 C   0  0  0  0  0  0  0  0  0  0  0  0
   18.3250   20.3451   23.0195 H   0  0  0  0  0  0  0  0  0  0  0  0
   18.8679   21.9741   22.6519 H   0  0  0  0  0  0  0  0  0  0  0  0
   20.4023   20.7710   23.5768 C   0  0  0  0  0  0  0  0  0  0  0  0
   21.3130   21.0627   23.0384 H   0  0  0  0  0  0  0  0  0  0  0  0
   20.3081   21.4927   24.3991 H   0  0  0  0  0  0  0  0  0  0  0  0
   20.6067   19.3664   24.1923 C   0  0  0  0  0  0  0  0  0  0  0  0
   21.6620   19.2980   24.4936 H   0  0  0  0  0  0  0  0  0  0  0  0
   20.2961   18.1675   23.2663 C   0  0  0  0  0  0  0  0  0  0  0  0
   20.7984   17.2857   23.6847 H   0  0  0  0  0  0  0  0  0  0  0  0
   19.2217   17.9416   23.2959 H   0  0  0  0  0  0  0  0  0  0  0  0
   20.7432   18.3337   21.7936 C   0  0  0  0  0  0  0  0  0  0  0  0
   21.7033   18.8639   21.7325 H   0  0  0  0  0  0  0  0  0  0  0  0
   20.9206   17.3329   21.3768 H   0  0  0  0  0  0  0  0  0  0  0  0
   19.7886   19.2530   25.3511 O   0  0  0  0  0  0  0  0  0  0  0  0
   19.9738   18.3739   25.7421 H   0  0  0  0  0  0  0  0  0  0  0  0
  1  2  1  0  0  0  0
  1  3  1  0  0  0  0
  1  4  1  0  0  0  0
  4  5  1  0  0  0  0
  4  6  1  0  0  0  0
  4  7  1  0  0  0  0
  7  8  1  0  0  0  0
  7  9  1  0  0  0  0
  7 10  1  0  0  0  0
 10 11  1  0  0  0  0
 10 12  1  0  0  0  0
 10 13  1  0  0  0  0
 13 14  1  0  0  0  0
 13 15  1  0  0  0  0
 15 16  1  0  0  0  0
 15 17  1  0  0  0  0
  1 18  1  0  0  0  0
 15 18  1  0  0  0  0
 18 19  1  0  0  0  0
 18 20  1  0  0  0  0
 13 21  1  0  0  0  0
 21 22  1  0  0  0  0
M  END
> <VM2 Rank>
18

> <Conf_Id>
846

> <Probability>
3.38

> <Sum Probability>
84.45

> <Delta G>
0.481

> <G>
47.844

> <E>
21.162

> <-TS>
26.682

> <U+W>
3.277

> <U>
5.678

> <W>
-2.401

> <W(PB)>
-4.416

> <W(SA)>
2.015

> <Valence>
11.807

> <Coulomb>
-8.278

> <VdW>
2.150

> <VdW6>
-9.114

> <VdW12>
11.264

> <Bond>
0.224

> <Angle>
2.649

> <Pdih>
8.934

> <Idih>
0.000

> <Tether>
0.000

$$$$
VeraChem MOL file


 22 22  0  0  0  0  0  0  0  0999 V2000     
   19.8802   19.0818   20.7940 C   0  0  0  0  0  0  0  0  0  0  0  0
   19.1256   18.4104   20.3618 H   0  0  0  0  0  0  0  0  0  0  0  0
   20.5420   19.3598   19.9624 H   0  0  0  0  0  0  0  0  0  0  0  0
   19.1567   20.3502   21.3072 C   0  0  0  0  0  0  0  0  0  0  0  0
   18.1944   20.0681   21.7559 H   0  0  0  0  0  0  0  0  0  0  0  0
   18.9037   20.9712   20.4371 H   0  0  0  0  0  0  0  0  0  0  0  0
   19.9632   21.2027   22.3137 C   0  0  0  0  0  0  0  0  0  0  0  0
   19.6071   22.2395   22.2432 H   0  0  0  0  0  0  0  0  0  0  0  0
   21.0271   21.2266   22.0411 H   0  0  0  0  0  0  0  0  0  0  0  0
   19.7773   20.7389   23.7798 C   0  0  0  0  0  0  0  0  0  0  0  0
   20.1693   21.5232   24.4403 H   0  0  0  0  0  0  0  0  0  0  0  0
   18.7050   20.6615   24.0034 H   0  0  0  0  0  0  0  0  0  0  0  0
   20.4731   19.4101   24.1461 C   0  0  0  0  0  0  0  0  0  0  0  0
   21.5608   19.5578   24.0827 H   0  0  0  0  0  0  0  0  0  0  0  0
   20.0936   18.2122   23.2471 C   0  0  0  0  0  0  0  0  0  0  0  0
   20.4687   17.2996   23.7290 H   0  0  0  0  0  0  0  0  0  0  0  0
   19.0031   18.1026   23.1883 H   0  0  0  0  0  0  0  0  0  0  0  0
   20.7161   18.2957   21.8327 C   0  0  0  0  0  0  0  0  0  0  0  0
   21.7214   18.7333   21.9019 H   0  0  0  0  0  0  0  0  0  0  0  0
   20.8647   17.2775   21.4480 H   0  0  0  0  0  0  0  0  0  0  0  0
   20.1257   19.0865   25.4863 O   0  0  0  0  0  0  0  0  0  0  0  0
   20.4188   19.8375   26.0437 H   0  0  0  0  0  0  0  0  0  0  0  0
  1  2  1  0  0  0  0
  1  3  1  0  0  0  0
  1  4  1  0  0  0  0
  4  5  1  0  0  0  0
  4  6  1  0  0  0  0
  4  7  1  0  0  0  0
  7  8  1  0  0  0  0
  7  9  1  0  0  0  0
  7 10  1  0  0  0  0
 10 11  1  0  0  0  0
 10 12  1  0  0  0  0
 10 13  1  0  0  0  0
 13 14  1  0  0  0  0
 13 15  1  0  0  0  0
 15 16  1  0  0  0  0
 15 17  1  0  0  0  0
  1 18  1  0  0  0  0
 15 18  1  0  0  0  0
 18 19  1  0  0  0  0
 18 20  1  0  0  0  0
 13 21  1  0  0  0  0
 21 22  1  0  0  0  0
M  END
> <VM2 Rank>
19

> <Conf_Id>
272

> <Probability>
2.79

> <Sum Probability>
87.25

> <Delta G>
0.595

> <G>
47.958

> <E>
21.387

> <-TS>
26.571

> <U+W>
3.502

> <U>
5.864

> <W>
-2.362

> <W(PB)>
-4.366

> <W(SA)>
2.004

> <Valence>
12.328

> <Coulomb>
-8.532

> <VdW>
2.068

> <VdW6>
-8.866

> <VdW12>
10.934

> <Bond>
0.215

> <Angle>
2.565

> <Pdih>
9.548

> <Idih>
0.000

> <Tether>
0.000

$$$$
VeraChem MOL file


 22 22  0  0  0  0  0  0  0  0999 V2000     
   19.8806   19.0818   20.7947 C   0  0  0  0  0  0  0  0  0  0  0  0
   20.5426   19.3589   19.9628 H   0  0  0  0  0  0  0  0  0  0  0  0
   19.1257   18.4106   20.3627 H   0  0  0  0  0  0  0  0  0  0  0  0
   19.1579   20.3513   21.3066 C   0  0  0  0  0  0  0  0  0  0  0  0
   18.9077   20.9726   20.4358 H   0  0  0  0  0  0  0  0  0  0  0  0
   18.1942   20.0708   21.7530 H   0  0  0  0  0  0  0  0  0  0  0  0
   19.9636   21.2031   22.3144 C   0  0  0  0  0  0  0  0  0  0  0  0
   19.6085   22.2403   22.2439 H   0  0  0  0  0  0  0  0  0  0  0  0
   21.0279   21.2261   22.0436 H   0  0  0  0  0  0  0  0  0  0  0  0
   19.7750   20.7385   23.7797 C   0  0  0  0  0  0  0  0  0  0  0  0
   20.1702   21.5188   24.4435 H   0  0  0  0  0  0  0  0  0  0  0  0
   18.7023   20.6669   24.0016 H   0  0  0  0  0  0  0  0  0  0  0  0
   20.4704   19.4095   24.1451 C   0  0  0  0  0  0  0  0  0  0  0  0
   21.5576   19.5597   24.0821 H   0  0  0  0  0  0  0  0  0  0  0  0
   20.0926   18.2102   23.2469 C   0  0  0  0  0  0  0  0  0  0  0  0
   20.4706   17.2979   23.7274 H   0  0  0  0  0  0  0  0  0  0  0  0
   19.0026   18.0973   23.1827 H   0  0  0  0  0  0  0  0  0  0  0  0
   20.7165   18.2959   21.8335 C   0  0  0  0  0  0  0  0  0  0  0  0
   21.7212   18.7345   21.9040 H   0  0  0  0  0  0  0  0  0  0  0  0
   20.8667   17.2782   21.4479 H   0  0  0  0  0  0  0  0  0  0  0  0
   20.1294   19.0877   25.4862 O   0  0  0  0  0  0  0  0  0  0  0  0
   19.1607   18.9444   25.4984 H   0  0  0  0  0  0  0  0  0  0  0  0
  1  2  1  0  0  0  0
  1  3  1  0  0  0  0
  1  4  1  0  0  0  0
  4  5  1  0  0  0  0
  4  6  1  0  0  0  0
  4  7  1  0  0  0  0
  7  8  1  0  0  0  0
  7  9  1  0  0  0  0
  7 10  1  0  0  0  0
 10 11  1  0  0  0  0
 10 12  1  0  0  0  0
 10 13  1  0  0  0  0
 13 14  1  0  0  0  0
 13 15  1  0  0  0  0
 15 16  1  0  0  0  0
 15 17  1  0  0  0  0
  1 18  1  0  0  0  0
 15 18  1  0  0  0  0
 18 19  1  0  0  0  0
 18 20  1  0  0  0  0
 13 21  1  0  0  0  0
 21 22  1  0  0  0  0
M  END
> <VM2 Rank>
20

> <Conf_Id>
613

> <Probability>
2.68

> <Sum Probability>
89.93

> <Delta G>
0.619

> <G>
47.982

> <E>
21.426

> <-TS>
26.556

> <U+W>
3.541

> <U>
5.491

> <W>
-1.950

> <W(PB)>
-3.950

> <W(SA)>
2.000

> <Valence>
12.680

> <Coulomb>
-9.215

> <VdW>
2.026

> <VdW6>
-8.898

> <VdW12>
10.924

> <Bond>
0.211

> <Angle>
2.587

> <Pdih>
9.882

> <Idih>
0.000

> <Tether>
0.000

$$$$
VeraChem MOL file


 22 22  0  0  0  0  0  0  0  0999 V2000     
   19.4747   19.0051   21.0683 C   0  0  0  0  0  0  0  0  0  0  0  0
   19.4514   18.6674   20.0231 H   0  0  0  0  0  0  0  0  0  0  0  0
   18.5381   18.6436   21.5143 H   0  0  0  0  0  0  0  0  0  0  0  0
   19.4849   20.5529   21.0694 C   0  0  0  0  0  0  0  0  0  0  0  0
   20.1172   20.9066   20.2435 H   0  0  0  0  0  0  0  0  0  0  0  0
   18.4692   20.9006   20.8362 H   0  0  0  0  0  0  0  0  0  0  0  0
   19.9645   21.2392   22.3711 C   0  0  0  0  0  0  0  0  0  0  0  0
   19.5933   22.2732   22.3660 H   0  0  0  0  0  0  0  0  0  0  0  0
   21.0600   21.3203   22.3614 H   0  0  0  0  0  0  0  0  0  0  0  0
   19.5119   20.5498   23.6806 C   0  0  0  0  0  0  0  0  0  0  0  0
   19.4726   21.3129   24.4692 H   0  0  0  0  0  0  0  0  0  0  0  0
   18.4920   20.1563   23.5828 H   0  0  0  0  0  0  0  0  0  0  0  0
   20.4816   19.4406   24.1460 C   0  0  0  0  0  0  0  0  0  0  0  0
   21.5047   19.8422   24.1161 H   0  0  0  0  0  0  0  0  0  0  0  0
   20.4388   18.1488   23.3014 C   0  0  0  0  0  0  0  0  0  0  0  0
   21.2075   17.4649   23.6840 H   0  0  0  0  0  0  0  0  0  0  0  0
   19.4768   17.6431   23.4589 H   0  0  0  0  0  0  0  0  0  0  0  0
   20.6743   18.3413   21.7827 C   0  0  0  0  0  0  0  0  0  0  0  0
   20.8268   17.3478   21.3393 H   0  0  0  0  0  0  0  0  0  0  0  0
   21.5997   18.9034   21.5967 H   0  0  0  0  0  0  0  0  0  0  0  0
   20.1553   19.1002   25.4874 O   0  0  0  0  0  0  0  0  0  0  0  0
   20.8114   18.4324   25.7774 H   0  0  0  0  0  0  0  0  0  0  0  0
  1  2  1  0  0  0  0
  1  3  1  0  0  0  0
  1  4  1  0  0  0  0
  4  5  1  0  0  0  0
  4  6  1  0  0  0  0
  4  7  1  0  0  0  0
  7  8  1  0  0  0  0
  7  9  1  0  0  0  0
  7 10  1  0  0  0  0
 10 11  1  0  0  0  0
 10 12  1  0  0  0  0
 10 13  1  0  0  0  0
 13 14  1  0  0  0  0
 13 15  1  0  0  0  0
 15 16  1  0  0  0  0
 15 17  1  0  0  0  0
  1 18  1  0  0  0  0
 15 18  1  0  0  0  0
 18 19  1  0  0  0  0
 18 20  1  0  0  0  0
 13 21  1  0  0  0  0
 21 22  1  0  0  0  0
M  END
> <VM2 Rank>
21

> <Conf_Id>
1339

> <Probability>
2.60

> <Sum Probability>
92.53

> <Delta G>
0.638

> <G>
48.000

> <E>
21.429

> <-TS>
26.571

> <U+W>
3.544

> <U>
5.864

> <W>
-2.320

> <W(PB)>
-4.334

> <W(SA)>
2.014

> <Valence>
12.328

> <Coulomb>
-8.532

> <VdW>
2.068

> <VdW6>
-8.866

> <VdW12>
10.934

> <Bond>
0.215

> <Angle>
2.565

> <Pdih>
9.548

> <Idih>
0.000

> <Tether>
0.000

$$$$
VeraChem MOL file


 22 22  0  0  0  0  0  0  0  0999 V2000     
   19.3351   18.8676   21.4058 C   0  0  0  0  0  0  0  0  0  0  0  0
   19.0814   18.4640   20.4159 H   0  0  0  0  0  0  0  0  0  0  0  0
   18.5656   18.4871   22.0896 H   0  0  0  0  0  0  0  0  0  0  0  0
   19.2862   20.4099   21.3048 C   0  0  0  0  0  0  0  0  0  0  0  0
   20.0896   20.7531   20.6387 H   0  0  0  0  0  0  0  0  0  0  0  0
   18.3479   20.6998   20.8124 H   0  0  0  0  0  0  0  0  0  0  0  0
   19.3825   21.1696   22.6473 C   0  0  0  0  0  0  0  0  0  0  0  0
   18.4497   21.0433   23.2121 H   0  0  0  0  0  0  0  0  0  0  0  0
   19.4343   22.2430   22.4198 H   0  0  0  0  0  0  0  0  0  0  0  0
   20.6064   20.8057   23.5326 C   0  0  0  0  0  0  0  0  0  0  0  0
   21.5331   20.9117   22.9540 H   0  0  0  0  0  0  0  0  0  0  0  0
   20.6718   21.5526   24.3344 H   0  0  0  0  0  0  0  0  0  0  0  0
   20.5669   19.4110   24.2059 C   0  0  0  0  0  0  0  0  0  0  0  0
   21.2624   19.4368   25.0571 H   0  0  0  0  0  0  0  0  0  0  0  0
   21.0089   18.2280   23.3105 C   0  0  0  0  0  0  0  0  0  0  0  0
   22.0886   18.0831   23.4455 H   0  0  0  0  0  0  0  0  0  0  0  0
   20.5451   17.3080   23.6912 H   0  0  0  0  0  0  0  0  0  0  0  0
   20.7349   18.3368   21.7895 C   0  0  0  0  0  0  0  0  0  0  0  0
   21.5059   18.9626   21.3199 H   0  0  0  0  0  0  0  0  0  0  0  0
   20.8641   17.3369   21.3530 H   0  0  0  0  0  0  0  0  0  0  0  0
   19.2652   19.1495   24.7107 O   0  0  0  0  0  0  0  0  0  0  0  0
   18.6838   19.1913   23.9252 H   0  0  0  0  0  0  0  0  0  0  0  0
  1  2  1  0  0  0  0
  1  3  1  0  0  0  0
  1  4  1  0  0  0  0
  4  5  1  0  0  0  0
  4  6  1  0  0  0  0
  4  7  1  0  0  0  0
  7  8  1  0  0  0  0
  7  9  1  0  0  0  0
  7 10  1  0  0  0  0
 10 11  1  0  0  0  0
 10 12  1  0  0  0  0
 10 13  1  0  0  0  0
 13 14  1  0  0  0  0
 13 15  1  0  0  0  0
 15 16  1  0  0  0  0
 15 17  1  0  0  0  0
  1 18  1  0  0  0  0
 15 18  1  0  0  0  0
 18 19  1  0  0  0  0
 18 20  1  0  0  0  0
 13 21  1  0  0  0  0
 21 22  1  0  0  0  0
M  END
> <VM2 Rank>
22

> <Conf_Id>
199

> <Probability>
1.93

> <Sum Probability>
94.46

> <Delta G>
0.816

> <G>
48.179

> <E>
21.156

> <-TS>
27.023

> <U+W>
3.271

> <U>
4.573

> <W>
-1.301

> <W(PB)>
-3.281

> <W(SA)>
1.980

> <Valence>
12.697

> <Coulomb>
-10.358

> <VdW>
2.234

> <VdW6>
-10.225

> <VdW12>
12.459

> <Bond>
0.281

> <Angle>
3.786

> <Pdih>
8.630

> <Idih>
0.000

> <Tether>
0.000

$$$$
VeraChem MOL file


 22 22  0  0  0  0  0  0  0  0999 V2000     
   19.7106   18.9956   21.0428 C   0  0  0  0  0  0  0  0  0  0  0  0
   20.5282   19.3345   20.3920 H   0  0  0  0  0  0  0  0  0  0  0  0
   19.0124   18.4577   20.3870 H   0  0  0  0  0  0  0  0  0  0  0  0
   18.9857   20.2286   21.6307 C   0  0  0  0  0  0  0  0  0  0  0  0
   18.4944   20.7505   20.7981 H   0  0  0  0  0  0  0  0  0  0  0  0
   18.1798   19.9308   22.3136 H   0  0  0  0  0  0  0  0  0  0  0  0
   19.9532   21.2245   22.3095 C   0  0  0  0  0  0  0  0  0  0  0  0
   19.5319   22.2358   22.2278 H   0  0  0  0  0  0  0  0  0  0  0  0
   20.8987   21.2557   21.7513 H   0  0  0  0  0  0  0  0  0  0  0  0
   20.2424   20.9520   23.8070 C   0  0  0  0  0  0  0  0  0  0  0  0
   21.1099   21.5597   24.0952 H   0  0  0  0  0  0  0  0  0  0  0  0
   19.4076   21.3388   24.4071 H   0  0  0  0  0  0  0  0  0  0  0  0
   20.5185   19.4887   24.2300 C   0  0  0  0  0  0  0  0  0  0  0  0
   21.1911   19.5351   25.0985 H   0  0  0  0  0  0  0  0  0  0  0  0
   21.2049   18.6049   23.1587 C   0  0  0  0  0  0  0  0  0  0  0  0
   22.0160   19.1674   22.6785 H   0  0  0  0  0  0  0  0  0  0  0  0
   21.6929   17.7746   23.6855 H   0  0  0  0  0  0  0  0  0  0  0  0
   20.2699   17.9941   22.0785 C   0  0  0  0  0  0  0  0  0  0  0  0
   20.8373   17.2297   21.5303 H   0  0  0  0  0  0  0  0  0  0  0  0
   19.4424   17.4493   22.5514 H   0  0  0  0  0  0  0  0  0  0  0  0
   19.3009   18.8896   24.6497 O   0  0  0  0  0  0  0  0  0  0  0  0
   18.7651   18.8239   23.8339 H   0  0  0  0  0  0  0  0  0  0  0  0
  1  2  1  0  0  0  0
  1  3  1  0  0  0  0
  1  4  1  0  0  0  0
  4  5  1  0  0  0  0
  4  6  1  0  0  0  0
  4  7  1  0  0  0  0
  7  8  1  0  0  0  0
  7  9  1  0  0  0  0
  7 10  1  0  0  0  0
 10 11  1  0  0  0  0
 10 12  1  0  0  0  0
 10 13  1  0  0  0  0
 13 14  1  0  0  0  0
 13 15  1  0  0  0  0
 15 16  1  0  0  0  0
 15 17  1  0  0  0  0
  1 18  1  0  0  0  0
 15 18  1  0  0  0  0
 18 19  1  0  0  0  0
 18 20  1  0  0  0  0
 13 21  1  0  0  0  0
 21 22  1  0  0  0  0
M  END
> <VM2 Rank>
23

> <Conf_Id>
1352

> <Probability>
1.74

> <Sum Probability>
96.20

> <Delta G>
0.877

> <G>
48.240

> <E>
21.217

> <-TS>
27.023

> <U+W>
3.332

> <U>
4.573

> <W>
-1.240

> <W(PB)>
-3.234

> <W(SA)>
1.993

> <Valence>
12.697

> <Coulomb>
-10.358

> <VdW>
2.234

> <VdW6>
-10.225

> <VdW12>
12.459

> <Bond>
0.281

> <Angle>
3.786

> <Pdih>
8.630

> <Idih>
0.000

> <Tether>
0.000

$$$$
VeraChem MOL file


 22 22  0  0  0  0  0  0  0  0999 V2000     
   20.1030   19.1814   20.9748 C   0  0  0  0  0  0  0  0  0  0  0  0
   21.1632   19.4439   20.8587 H   0  0  0  0  0  0  0  0  0  0  0  0
   19.7980   18.7575   20.0084 H   0  0  0  0  0  0  0  0  0  0  0  0
   19.2759   20.4670   21.2154 C   0  0  0  0  0  0  0  0  0  0  0  0
   19.7108   21.2737   20.6096 H   0  0  0  0  0  0  0  0  0  0  0  0
   18.2604   20.3153   20.8248 H   0  0  0  0  0  0  0  0  0  0  0  0
   19.1583   20.9435   22.6828 C   0  0  0  0  0  0  0  0  0  0  0  0
   18.3448   20.3978   23.1787 H   0  0  0  0  0  0  0  0  0  0  0  0
   18.8388   21.9943   22.6714 H   0  0  0  0  0  0  0  0  0  0  0  0
   20.4619   20.8272   23.5149 C   0  0  0  0  0  0  0  0  0  0  0  0
   21.3290   21.0802   22.8913 H   0  0  0  0  0  0  0  0  0  0  0  0
   20.4338   21.5883   24.3053 H   0  0  0  0  0  0  0  0  0  0  0  0
   20.6878   19.4541   24.1962 C   0  0  0  0  0  0  0  0  0  0  0  0
   21.5751   19.5536   24.8379 H   0  0  0  0  0  0  0  0  0  0  0  0
   20.9651   18.2789   23.2313 C   0  0  0  0  0  0  0  0  0  0  0  0
   21.9763   18.3909   22.8195 H   0  0  0  0  0  0  0  0  0  0  0  0
   20.9884   17.3541   23.8225 H   0  0  0  0  0  0  0  0  0  0  0  0
   19.9583   18.0963   22.0672 C   0  0  0  0  0  0  0  0  0  0  0  0
   20.1546   17.1193   21.6055 H   0  0  0  0  0  0  0  0  0  0  0  0
   18.9277   18.0533   22.4452 H   0  0  0  0  0  0  0  0  0  0  0  0
   19.5757   19.1296   25.0244 O   0  0  0  0  0  0  0  0  0  0  0  0
   19.4029   19.9166   25.5804 H   0  0  0  0  0  0  0  0  0  0  0  0
  1  2  1  0  0  0  0
  1  3  1  0  0  0  0
  1  4  1  0  0  0  0
  4  5  1  0  0  0  0
  4  6  1  0  0  0  0
  4  7  1  0  0  0  0
  7  8  1  0  0  0  0
  7  9  1  0  0  0  0
  7 10  1  0  0  0  0
 10 11  1  0  0  0  0
 10 12  1  0  0  0  0
 10 13  1  0  0  0  0
 13 14  1  0  0  0  0
 13 15  1  0  0  0  0
 15 16  1  0  0  0  0
 15 17  1  0  0  0  0
  1 18  1  0  0  0  0
 15 18  1  0  0  0  0
 18 19  1  0  0  0  0
 18 20  1  0  0  0  0
 13 21  1  0  0  0  0
 21 22  1  0  0  0  0
M  END
> <VM2 Rank>
24

> <Conf_Id>
1050

> <Probability>
0.81

> <Sum Probability>
97.01

> <Delta G>
1.336

> <G>
48.699

> <E>
21.997

> <-TS>
26.702

> <U+W>
4.112

> <U>
6.373

> <W>
-2.262

> <W(PB)>
-4.261

> <W(SA)>
1.999

> <Valence>
12.093

> <Coulomb>
-8.058

> <VdW>
2.339

> <VdW6>
-9.683

> <VdW12>
12.022

> <Bond>
0.268

> <Angle>
3.005

> <Pdih>
8.820

> <Idih>
0.000

> <Tether>
0.000

$$$$
VeraChem MOL file


 22 22  0  0  0  0  0  0  0  0999 V2000     
   19.7055   18.9857   20.9388 C   0  0  0  0  0  0  0  0  0  0  0  0
   20.4348   18.7539   20.1507 H   0  0  0  0  0  0  0  0  0  0  0  0
   18.7222   18.7347   20.5181 H   0  0  0  0  0  0  0  0  0  0  0  0
   19.7590   20.5072   21.2155 C   0  0  0  0  0  0  0  0  0  0  0  0
   20.7958   20.8595   21.1283 H   0  0  0  0  0  0  0  0  0  0  0  0
   19.2073   21.0175   20.4143 H   0  0  0  0  0  0  0  0  0  0  0  0
   19.1802   20.9447   22.5812 C   0  0  0  0  0  0  0  0  0  0  0  0
   18.2993   20.3440   22.8460 H   0  0  0  0  0  0  0  0  0  0  0  0
   18.8255   21.9798   22.4855 H   0  0  0  0  0  0  0  0  0  0  0  0
   20.2330   20.9099   23.7180 C   0  0  0  0  0  0  0  0  0  0  0  0
   21.1288   21.4568   23.3971 H   0  0  0  0  0  0  0  0  0  0  0  0
   19.8391   21.4680   24.5775 H   0  0  0  0  0  0  0  0  0  0  0  0
   20.6567   19.5085   24.2140 C   0  0  0  0  0  0  0  0  0  0  0  0
   21.5233   19.6547   24.8748 H   0  0  0  0  0  0  0  0  0  0  0  0
   21.0921   18.5200   23.1032 C   0  0  0  0  0  0  0  0  0  0  0  0
   21.9170   18.9528   22.5225 H   0  0  0  0  0  0  0  0  0  0  0  0
   21.5104   17.6325   23.5953 H   0  0  0  0  0  0  0  0  0  0  0  0
   19.9586   18.0578   22.1509 C   0  0  0  0  0  0  0  0  0  0  0  0
   20.2059   17.0595   21.7654 H   0  0  0  0  0  0  0  0  0  0  0  0
   19.0239   17.9291   22.7124 H   0  0  0  0  0  0  0  0  0  0  0  0
   19.6009   18.9442   24.9853 O   0  0  0  0  0  0  0  0  0  0  0  0
   19.8886   18.0421   25.2338 H   0  0  0  0  0  0  0  0  0  0  0  0
  1  2  1  0  0  0  0
  1  3  1  0  0  0  0
  1  4  1  0  0  0  0
  4  5  1  0  0  0  0
  4  6  1  0  0  0  0
  4  7  1  0  0  0  0
  7  8  1  0  0  0  0
  7  9  1  0  0  0  0
  7 10  1  0  0  0  0
 10 11  1  0  0  0  0
 10 12  1  0  0  0  0
 10 13  1  0  0  0  0
 13 14  1  0  0  0  0
 13 15  1  0  0  0  0
 15 16  1  0  0  0  0
 15 17  1  0  0  0  0
  1 18  1  0  0  0  0
 15 18  1  0  0  0  0
 18 19  1  0  0  0  0
 18 20  1  0  0  0  0
 13 21  1  0  0  0  0
 21 22  1  0  0  0  0
M  END
> <VM2 Rank>
25

> <Conf_Id>
858

> <Probability>
0.78

> <Sum Probability>
97.78

> <Delta G>
1.358

> <G>
48.721

> <E>
22.019

> <-TS>
26.702

> <U+W>
4.134

> <U>
6.373

> <W>
-2.240

> <W(PB)>
-4.254

> <W(SA)>
2.015

> <Valence>
12.093

> <Coulomb>
-8.058

> <VdW>
2.339

> <VdW6>
-9.683

> <VdW12>
12.022

> <Bond>
0.268

> <Angle>
3.005

> <Pdih>
8.820

> <Idih>
0.000

> <Tether>
0.000

$$$$
VeraChem MOL file


 22 22  0  0  0  0  0  0  0  0999 V2000     
   19.9737   19.1892   21.0686 C   0  0  0  0  0  0  0  0  0  0  0  0
   20.9121   19.7044   20.8237 H   0  0  0  0  0  0  0  0  0  0  0  0
   19.5884   18.7909   20.1202 H   0  0  0  0  0  0  0  0  0  0  0  0
   18.9267   20.1797   21.6282 C   0  0  0  0  0  0  0  0  0  0  0  0
   18.4365   20.6926   20.7897 H   0  0  0  0  0  0  0  0  0  0  0  0
   18.1299   19.6153   22.1316 H   0  0  0  0  0  0  0  0  0  0  0  0
   19.4780   21.2574   22.5935 C   0  0  0  0  0  0  0  0  0  0  0  0
   18.6475   21.6187   23.2148 H   0  0  0  0  0  0  0  0  0  0  0  0
   19.8034   22.1245   22.0028 H   0  0  0  0  0  0  0  0  0  0  0  0
   20.6571   20.8389   23.5112 C   0  0  0  0  0  0  0  0  0  0  0  0
   21.5904   20.8954   22.9362 H   0  0  0  0  0  0  0  0  0  0  0  0
   20.7613   21.5958   24.2994 H   0  0  0  0  0  0  0  0  0  0  0  0
   20.5775   19.4457   24.1799 C   0  0  0  0  0  0  0  0  0  0  0  0
   21.2568   19.4727   25.0441 H   0  0  0  0  0  0  0  0  0  0  0  0
   21.0843   18.3072   23.2637 C   0  0  0  0  0  0  0  0  0  0  0  0
   22.1068   18.5435   22.9424 H   0  0  0  0  0  0  0  0  0  0  0  0
   21.1665   17.3943   23.8676 H   0  0  0  0  0  0  0  0  0  0  0  0
   20.2271   17.9899   22.0135 C   0  0  0  0  0  0  0  0  0  0  0  0
   19.2664   17.5614   22.3302 H   0  0  0  0  0  0  0  0  0  0  0  0
   20.7343   17.1989   21.4448 H   0  0  0  0  0  0  0  0  0  0  0  0
   19.2616   19.1701   24.6484 O   0  0  0  0  0  0  0  0  0  0  0  0
   18.9319   20.0025   25.0422 H   0  0  0  0  0  0  0  0  0  0  0  0
  1  2  1  0  0  0  0
  1  3  1  0  0  0  0
  1  4  1  0  0  0  0
  4  5  1  0  0  0  0
  4  6  1  0  0  0  0
  4  7  1  0  0  0  0
  7  8  1  0  0  0  0
  7  9  1  0  0  0  0
  7 10  1  0  0  0  0
 10 11  1  0  0  0  0
 10 12  1  0  0  0  0
 10 13  1  0  0  0  0
 13 14  1  0  0  0  0
 13 15  1  0  0  0  0
 15 16  1  0  0  0  0
 15 17  1  0  0  0  0
  1 18  1  0  0  0  0
 15 18  1  0  0  0  0
 18 19  1  0  0  0  0
 18 20  1  0  0  0  0
 13 21  1  0  0  0  0
 21 22  1  0  0  0  0
M  END
> <VM2 Rank>
26

> <Conf_Id>
919

> <Probability>
0.36

> <Sum Probability>
98.14

> <Delta G>
1.814

> <G>
49.177

> <E>
22.504

> <-TS>
26.673

> <U+W>
4.619

> <U>
6.656

> <W>
-2.037

> <W(PB)>
-4.035

> <W(SA)>
1.998

> <Valence>
12.236

> <Coulomb>
-7.546

> <VdW>
1.965

> <VdW6>
-10.135

> <VdW12>
12.101

> <Bond>
0.261

> <Angle>
3.589

> <Pdih>
8.386

> <Idih>
0.000

> <Tether>
0.000

$$$$
VeraChem MOL file


 22 22  0  0  0  0  0  0  0  0999 V2000     
   19.2732   18.8986   21.3989 C   0  0  0  0  0  0  0  0  0  0  0  0
   19.0262   18.5114   20.4011 H   0  0  0  0  0  0  0  0  0  0  0  0
   18.3449   18.8194   21.9810 H   0  0  0  0  0  0  0  0  0  0  0  0
   19.6690   20.3881   21.2761 C   0  0  0  0  0  0  0  0  0  0  0  0
   20.7174   20.4930   20.9663 H   0  0  0  0  0  0  0  0  0  0  0  0
   19.0677   20.8320   20.4712 H   0  0  0  0  0  0  0  0  0  0  0  0
   19.3877   21.1901   22.5696 C   0  0  0  0  0  0  0  0  0  0  0  0
   18.3671   20.9807   22.9180 H   0  0  0  0  0  0  0  0  0  0  0  0
   19.4070   22.2612   22.3271 H   0  0  0  0  0  0  0  0  0  0  0  0
   20.3859   20.9421   23.7275 C   0  0  0  0  0  0  0  0  0  0  0  0
   21.3679   21.3399   23.4409 H   0  0  0  0  0  0  0  0  0  0  0  0
   20.0662   21.5364   24.5932 H   0  0  0  0  0  0  0  0  0  0  0  0
   20.5607   19.4761   24.1888 C   0  0  0  0  0  0  0  0  0  0  0  0
   21.2342   19.5037   25.0576 H   0  0  0  0  0  0  0  0  0  0  0  0
   21.2475   18.5867   23.1250 C   0  0  0  0  0  0  0  0  0  0  0  0
   22.0456   19.1697   22.6475 H   0  0  0  0  0  0  0  0  0  0  0  0
   21.7629   17.7660   23.6404 H   0  0  0  0  0  0  0  0  0  0  0  0
   20.3471   17.9727   22.0205 C   0  0  0  0  0  0  0  0  0  0  0  0
   21.0020   17.6065   21.2182 H   0  0  0  0  0  0  0  0  0  0  0  0
   19.8431   17.0820   22.4193 H   0  0  0  0  0  0  0  0  0  0  0  0
   19.3150   18.9235   24.6005 O   0  0  0  0  0  0  0  0  0  0  0  0
   19.4569   17.9590   24.6802 H   0  0  0  0  0  0  0  0  0  0  0  0
  1  2  1  0  0  0  0
  1  3  1  0  0  0  0
  1  4  1  0  0  0  0
  4  5  1  0  0  0  0
  4  6  1  0  0  0  0
  4  7  1  0  0  0  0
  7  8  1  0  0  0  0
  7  9  1  0  0  0  0
  7 10  1  0  0  0  0
 10 11  1  0  0  0  0
 10 12  1  0  0  0  0
 10 13  1  0  0  0  0
 13 14  1  0  0  0  0
 13 15  1  0  0  0  0
 15 16  1  0  0  0  0
 15 17  1  0  0  0  0
  1 18  1  0  0  0  0
 15 18  1  0  0  0  0
 18 19  1  0  0  0  0
 18 20  1  0  0  0  0
 13 21  1  0  0  0  0
 21 22  1  0  0  0  0
M  END
> <VM2 Rank>
27

> <Conf_Id>
492

> <Probability>
0.34

> <Sum Probability>
98.49

> <Delta G>
1.845

> <G>
49.207

> <E>
22.533

> <-TS>
26.674

> <U+W>
4.648

> <U>
6.656

> <W>
-2.008

> <W(PB)>
-3.998

> <W(SA)>
1.991

> <Valence>
12.237

> <Coulomb>
-7.547

> <VdW>
1.965

> <VdW6>
-10.135

> <VdW12>
12.100

> <Bond>
0.261

> <Angle>
3.589

> <Pdih>
8.387

> <Idih>
0.000

> <Tether>
0.000

$$$$
VeraChem MOL file


 22 22  0  0  0  0  0  0  0  0999 V2000     
   19.7284   19.0023   21.0224 C   0  0  0  0  0  0  0  0  0  0  0  0
   20.5653   19.3326   20.3921 H   0  0  0  0  0  0  0  0  0  0  0  0
   19.0385   18.4715   20.3524 H   0  0  0  0  0  0  0  0  0  0  0  0
   19.0010   20.2360   21.6028 C   0  0  0  0  0  0  0  0  0  0  0  0
   18.5114   20.7605   20.7711 H   0  0  0  0  0  0  0  0  0  0  0  0
   18.1987   19.9281   22.2876 H   0  0  0  0  0  0  0  0  0  0  0  0
   19.9627   21.2248   22.2986 C   0  0  0  0  0  0  0  0  0  0  0  0
   19.5518   22.2392   22.2047 H   0  0  0  0  0  0  0  0  0  0  0  0
   20.9235   21.2458   21.7670 H   0  0  0  0  0  0  0  0  0  0  0  0
   20.1999   20.9485   23.8043 C   0  0  0  0  0  0  0  0  0  0  0  0
   21.0273   21.5897   24.1344 H   0  0  0  0  0  0  0  0  0  0  0  0
   19.3235   21.2929   24.3694 H   0  0  0  0  0  0  0  0  0  0  0  0
   20.5206   19.4926   24.2291 C   0  0  0  0  0  0  0  0  0  0  0  0
   21.2307   19.5674   25.0655 H   0  0  0  0  0  0  0  0  0  0  0  0
   21.1917   18.6044   23.1500 C   0  0  0  0  0  0  0  0  0  0  0  0
   22.0002   19.1633   22.6615 H   0  0  0  0  0  0  0  0  0  0  0  0
   21.6837   17.7719   23.6693 H   0  0  0  0  0  0  0  0  0  0  0  0
   20.2433   18.0004   22.0789 C   0  0  0  0  0  0  0  0  0  0  0  0
   20.7826   17.2020   21.5515 H   0  0  0  0  0  0  0  0  0  0  0  0
   19.3884   17.5082   22.5605 H   0  0  0  0  0  0  0  0  0  0  0  0
   19.3383   18.8689   24.7208 O   0  0  0  0  0  0  0  0  0  0  0  0
   19.5729   17.9364   24.9028 H   0  0  0  0  0  0  0  0  0  0  0  0
  1  2  1  0  0  0  0
  1  3  1  0  0  0  0
  1  4  1  0  0  0  0
  4  5  1  0  0  0  0
  4  6  1  0  0  0  0
  4  7  1  0  0  0  0
  7  8  1  0  0  0  0
  7  9  1  0  0  0  0
  7 10  1  0  0  0  0
 10 11  1  0  0  0  0
 10 12  1  0  0  0  0
 10 13  1  0  0  0  0
 13 14  1  0  0  0  0
 13 15  1  0  0  0  0
 15 16  1  0  0  0  0
 15 17  1  0  0  0  0
  1 18  1  0  0  0  0
 15 18  1  0  0  0  0
 18 19  1  0  0  0  0
 18 20  1  0  0  0  0
 13 21  1  0  0  0  0
 21 22  1  0  0  0  0
M  END
> <VM2 Rank>
28

> <Conf_Id>
1294

> <Probability>
0.31

> <Sum Probability>
98.80

> <Delta G>
1.906

> <G>
49.268

> <E>
22.627

> <-TS>
26.641

> <U+W>
4.742

> <U>
6.897

> <W>
-2.155

> <W(PB)>
-4.140

> <W(SA)>
1.985

> <Valence>
12.367

> <Coulomb>
-7.745

> <VdW>
2.276

> <VdW6>
-9.828

> <VdW12>
12.103

> <Bond>
0.281

> <Angle>
3.460

> <Pdih>
8.626

> <Idih>
0.000

> <Tether>
0.000

$$$$
VeraChem MOL file


 22 22  0  0  0  0  0  0  0  0999 V2000     
   19.3491   18.8809   21.3768 C   0  0  0  0  0  0  0  0  0  0  0  0
   19.0984   18.4777   20.3863 H   0  0  0  0  0  0  0  0  0  0  0  0
   18.5780   18.5082   22.0652 H   0  0  0  0  0  0  0  0  0  0  0  0
   19.3027   20.4229   21.2863 C   0  0  0  0  0  0  0  0  0  0  0  0
   20.1205   20.7776   20.6444 H   0  0  0  0  0  0  0  0  0  0  0  0
   18.3735   20.7166   20.7794 H   0  0  0  0  0  0  0  0  0  0  0  0
   19.3626   21.1514   22.6468 C   0  0  0  0  0  0  0  0  0  0  0  0
   18.4331   20.9652   23.2003 H   0  0  0  0  0  0  0  0  0  0  0  0
   19.3755   22.2319   22.4501 H   0  0  0  0  0  0  0  0  0  0  0  0
   20.5936   20.8010   23.5262 C   0  0  0  0  0  0  0  0  0  0  0  0
   21.5154   20.9124   22.9409 H   0  0  0  0  0  0  0  0  0  0  0  0
   20.6604   21.5525   24.3234 H   0  0  0  0  0  0  0  0  0  0  0  0
   20.5705   19.4066   24.2037 C   0  0  0  0  0  0  0  0  0  0  0  0
   21.3087   19.4370   25.0181 H   0  0  0  0  0  0  0  0  0  0  0  0
   20.9704   18.2097   23.3036 C   0  0  0  0  0  0  0  0  0  0  0  0
   22.0366   18.0043   23.4640 H   0  0  0  0  0  0  0  0  0  0  0  0
   20.4459   17.3131   23.6603 H   0  0  0  0  0  0  0  0  0  0  0  0
   20.7424   18.3470   21.7775 C   0  0  0  0  0  0  0  0  0  0  0  0
   21.5243   18.9814   21.3388 H   0  0  0  0  0  0  0  0  0  0  0  0
   20.8810   17.3547   21.3272 H   0  0  0  0  0  0  0  0  0  0  0  0
   19.2946   19.1586   24.7862 O   0  0  0  0  0  0  0  0  0  0  0  0
   19.0540   19.9686   25.2798 H   0  0  0  0  0  0  0  0  0  0  0  0
  1  2  1  0  0  0  0
  1  3  1  0  0  0  0
  1  4  1  0  0  0  0
  4  5  1  0  0  0  0
  4  6  1  0  0  0  0
  4  7  1  0  0  0  0
  7  8  1  0  0  0  0
  7  9  1  0  0  0  0
  7 10  1  0  0  0  0
 10 11  1  0  0  0  0
 10 12  1  0  0  0  0
 10 13  1  0  0  0  0
 13 14  1  0  0  0  0
 13 15  1  0  0  0  0
 15 16  1  0  0  0  0
 15 17  1  0  0  0  0
  1 18  1  0  0  0  0
 15 18  1  0  0  0  0
 18 19  1  0  0  0  0
 18 20  1  0  0  0  0
 13 21  1  0  0  0  0
 21 22  1  0  0  0  0
M  END
> <VM2 Rank>
29

> <Conf_Id>
663

> <Probability>
0.29

> <Sum Probability>
99.09

> <Delta G>
1.938

> <G>
49.300

> <E>
22.659

> <-TS>
26.642

> <U+W>
4.774

> <U>
6.897

> <W>
-2.123

> <W(PB)>
-4.121

> <W(SA)>
1.998

> <Valence>
12.367

> <Coulomb>
-7.745

> <VdW>
2.276

> <VdW6>
-9.828

> <VdW12>
12.104

> <Bond>
0.281

> <Angle>
3.460

> <Pdih>
8.626

> <Idih>
0.000

> <Tether>
0.000

$$$$
VeraChem MOL file


 22 22  0  0  0  0  0  0  0  0999 V2000     
   19.9746   19.1877   21.0672 C   0  0  0  0  0  0  0  0  0  0  0  0
   20.9142   19.7015   20.8235 H   0  0  0  0  0  0  0  0  0  0  0  0
   19.5901   18.7892   20.1185 H   0  0  0  0  0  0  0  0  0  0  0  0
   18.9289   20.1804   21.6243 C   0  0  0  0  0  0  0  0  0  0  0  0
   18.4418   20.6950   20.7850 H   0  0  0  0  0  0  0  0  0  0  0  0
   18.1296   19.6179   22.1259 H   0  0  0  0  0  0  0  0  0  0  0  0
   19.4778   21.2563   22.5932 C   0  0  0  0  0  0  0  0  0  0  0  0
   18.6459   21.6068   23.2192 H   0  0  0  0  0  0  0  0  0  0  0  0
   19.7977   22.1289   22.0080 H   0  0  0  0  0  0  0  0  0  0  0  0
   20.6558   20.8406   23.5138 C   0  0  0  0  0  0  0  0  0  0  0  0
   21.5921   20.9045   22.9448 H   0  0  0  0  0  0  0  0  0  0  0  0
   20.7479   21.5938   24.3068 H   0  0  0  0  0  0  0  0  0  0  0  0
   20.5774   19.4463   24.1805 C   0  0  0  0  0  0  0  0  0  0  0  0
   21.2596   19.4712   25.0425 H   0  0  0  0  0  0  0  0  0  0  0  0
   21.0842   18.3101   23.2609 C   0  0  0  0  0  0  0  0  0  0  0  0
   22.1027   18.5550   22.9327 H   0  0  0  0  0  0  0  0  0  0  0  0
   21.1817   17.3959   23.8604 H   0  0  0  0  0  0  0  0  0  0  0  0
   20.2243   17.9894   22.0139 C   0  0  0  0  0  0  0  0  0  0  0  0
   20.7311   17.1976   21.4460 H   0  0  0  0  0  0  0  0  0  0  0  0
   19.2628   17.5621   22.3292 H   0  0  0  0  0  0  0  0  0  0  0  0
   19.2631   19.1671   24.6532 O   0  0  0  0  0  0  0  0  0  0  0  0
   19.2720   18.2417   24.9702 H   0  0  0  0  0  0  0  0  0  0  0  0
  1  2  1  0  0  0  0
  1  3  1  0  0  0  0
  1  4  1  0  0  0  0
  4  5  1  0  0  0  0
  4  6  1  0  0  0  0
  4  7  1  0  0  0  0
  7  8  1  0  0  0  0
  7  9  1  0  0  0  0
  7 10  1  0  0  0  0
 10 11  1  0  0  0  0
 10 12  1  0  0  0  0
 10 13  1  0  0  0  0
 13 14  1  0  0  0  0
 13 15  1  0  0  0  0
 15 16  1  0  0  0  0
 15 17  1  0  0  0  0
  1 18  1  0  0  0  0
 15 18  1  0  0  0  0
 18 19  1  0  0  0  0
 18 20  1  0  0  0  0
 13 21  1  0  0  0  0
 21 22  1  0  0  0  0
M  END
> <VM2 Rank>
30

> <Conf_Id>
1038

> <Probability>
0.17

> <Sum Probability>
99.27

> <Delta G>
2.250

> <G>
49.613

> <E>
22.877

> <-TS>
26.736

> <U+W>
4.992

> <U>
7.115

> <W>
-2.123

> <W(PB)>
-4.113

> <W(SA)>
1.991

> <Valence>
12.146

> <Coulomb>
-6.960

> <VdW>
1.928

> <VdW6>
-10.064

> <VdW12>
11.993

> <Bond>
0.260

> <Angle>
3.626

> <Pdih>
8.260

> <Idih>
0.000

> <Tether>
0.000

$$$$
VeraChem MOL file


 22 22  0  0  0  0  0  0  0  0999 V2000     
   19.2749   18.9003   21.3953 C   0  0  0  0  0  0  0  0  0  0  0  0
   19.0312   18.5136   20.3965 H   0  0  0  0  0  0  0  0  0  0  0  0
   18.3454   18.8187   21.9751 H   0  0  0  0  0  0  0  0  0  0  0  0
   19.6685   20.3903   21.2755 C   0  0  0  0  0  0  0  0  0  0  0  0
   20.7172   20.4967   20.9672 H   0  0  0  0  0  0  0  0  0  0  0  0
   19.0675   20.8348   20.4706 H   0  0  0  0  0  0  0  0  0  0  0  0
   19.3848   21.1890   22.5702 C   0  0  0  0  0  0  0  0  0  0  0  0
   18.3640   20.9785   22.9169 H   0  0  0  0  0  0  0  0  0  0  0  0
   19.4032   22.2603   22.3287 H   0  0  0  0  0  0  0  0  0  0  0  0
   20.3870   20.9406   23.7239 C   0  0  0  0  0  0  0  0  0  0  0  0
   21.3689   21.3317   23.4276 H   0  0  0  0  0  0  0  0  0  0  0  0
   20.0798   21.5445   24.5874 H   0  0  0  0  0  0  0  0  0  0  0  0
   20.5612   19.4753   24.1891 C   0  0  0  0  0  0  0  0  0  0  0  0
   21.2362   19.5067   25.0565 H   0  0  0  0  0  0  0  0  0  0  0  0
   21.2476   18.5840   23.1264 C   0  0  0  0  0  0  0  0  0  0  0  0
   22.0520   19.1607   22.6524 H   0  0  0  0  0  0  0  0  0  0  0  0
   21.7513   17.7590   23.6462 H   0  0  0  0  0  0  0  0  0  0  0  0
   20.3464   17.9737   22.0203 C   0  0  0  0  0  0  0  0  0  0  0  0
   20.9995   17.5988   21.2208 H   0  0  0  0  0  0  0  0  0  0  0  0
   19.8365   17.0896   22.4269 H   0  0  0  0  0  0  0  0  0  0  0  0
   19.3156   18.9249   24.6062 O   0  0  0  0  0  0  0  0  0  0  0  0
   18.9036   19.5856   25.1983 H   0  0  0  0  0  0  0  0  0  0  0  0
  1  2  1  0  0  0  0
  1  3  1  0  0  0  0
  1  4  1  0  0  0  0
  4  5  1  0  0  0  0
  4  6  1  0  0  0  0
  4  7  1  0  0  0  0
  7  8  1  0  0  0  0
  7  9  1  0  0  0  0
  7 10  1  0  0  0  0
 10 11  1  0  0  0  0
 10 12  1  0  0  0  0
 10 13  1  0  0  0  0
 13 14  1  0  0  0  0
 13 15  1  0  0  0  0
 15 16  1  0  0  0  0
 15 17  1  0  0  0  0
  1 18  1  0  0  0  0
 15 18  1  0  0  0  0
 18 19  1  0  0  0  0
 18 20  1  0  0  0  0
 13 21  1  0  0  0  0
 21 22  1  0  0  0  0
M  END
> <VM2 Rank>
31

> <Conf_Id>
258

> <Probability>
0.16

> <Sum Probability>
99.43

> <Delta G>
2.298

> <G>
49.661

> <E>
22.925

> <-TS>
26.736

> <U+W>
5.040

> <U>
7.115

> <W>
-2.075

> <W(PB)>
-4.071

> <W(SA)>
1.997

> <Valence>
12.146

> <Coulomb>
-6.960

> <VdW>
1.928

> <VdW6>
-10.064

> <VdW12>
11.993

> <Bond>
0.260

> <Angle>
3.626

> <Pdih>
8.260

> <Idih>
0.000

> <Tether>
0.000

$$$$
VeraChem MOL file


 22 22  0  0  0  0  0  0  0  0999 V2000     
   19.7288   19.0031   21.0206 C   0  0  0  0  0  0  0  0  0  0  0  0
   20.5663   19.3325   20.3907 H   0  0  0  0  0  0  0  0  0  0  0  0
   19.0391   18.4718   20.3508 H   0  0  0  0  0  0  0  0  0  0  0  0
   19.0013   20.2370   21.6000 C   0  0  0  0  0  0  0  0  0  0  0  0
   18.5135   20.7621   20.7676 H   0  0  0  0  0  0  0  0  0  0  0  0
   18.1977   19.9291   22.2831 H   0  0  0  0  0  0  0  0  0  0  0  0
   19.9633   21.2242   22.2972 C   0  0  0  0  0  0  0  0  0  0  0  0
   19.5547   22.2394   22.2016 H   0  0  0  0  0  0  0  0  0  0  0  0
   20.9251   21.2430   21.7670 H   0  0  0  0  0  0  0  0  0  0  0  0
   20.1980   20.9483   23.8031 C   0  0  0  0  0  0  0  0  0  0  0  0
   21.0274   21.5886   24.1307 H   0  0  0  0  0  0  0  0  0  0  0  0
   19.3230   21.3004   24.3651 H   0  0  0  0  0  0  0  0  0  0  0  0
   20.5202   19.4925   24.2295 C   0  0  0  0  0  0  0  0  0  0  0  0
   21.2332   19.5689   25.0632 H   0  0  0  0  0  0  0  0  0  0  0  0
   21.1913   18.6041   23.1505 C   0  0  0  0  0  0  0  0  0  0  0  0
   22.0046   19.1583   22.6650 H   0  0  0  0  0  0  0  0  0  0  0  0
   21.6734   17.7685   23.6739 H   0  0  0  0  0  0  0  0  0  0  0  0
   20.2424   18.0023   22.0788 C   0  0  0  0  0  0  0  0  0  0  0  0
   20.7786   17.2004   21.5538 H   0  0  0  0  0  0  0  0  0  0  0  0
   19.3875   17.5144   22.5656 H   0  0  0  0  0  0  0  0  0  0  0  0
   19.3407   18.8665   24.7274 O   0  0  0  0  0  0  0  0  0  0  0  0
   18.9852   19.4499   25.4282 H   0  0  0  0  0  0  0  0  0  0  0  0
  1  2  1  0  0  0  0
  1  3  1  0  0  0  0
  1  4  1  0  0  0  0
  4  5  1  0  0  0  0
  4  6  1  0  0  0  0
  4  7  1  0  0  0  0
  7  8  1  0  0  0  0
  7  9  1  0  0  0  0
  7 10  1  0  0  0  0
 10 11  1  0  0  0  0
 10 12  1  0  0  0  0
 10 13  1  0  0  0  0
 13 14  1  0  0  0  0
 13 15  1  0  0  0  0
 15 16  1  0  0  0  0
 15 17  1  0  0  0  0
  1 18  1  0  0  0  0
 15 18  1  0  0  0  0
 18 19  1  0  0  0  0
 18 20  1  0  0  0  0
 13 21  1  0  0  0  0
 21 22  1  0  0  0  0
M  END
> <VM2 Rank>
32

> <Conf_Id>
138

> <Probability>
0.14

> <Sum Probability>
99.57

> <Delta G>
2.378

> <G>
49.740

> <E>
23.113

> <-TS>
26.627

> <U+W>
5.228

> <U>
7.482

> <W>
-2.254

> <W(PB)>
-4.248

> <W(SA)>
1.995

> <Valence>
12.309

> <Coulomb>
-7.084

> <VdW>
2.258

> <VdW6>
-9.770

> <VdW12>
12.028

> <Bond>
0.284

> <Angle>
3.491

> <Pdih>
8.534

> <Idih>
0.000

> <Tether>
0.000

$$$$
VeraChem MOL file


 22 22  0  0  0  0  0  0  0  0999 V2000     
   19.3499   18.8814   21.3736 C   0  0  0  0  0  0  0  0  0  0  0  0
   19.1011   18.4790   20.3822 H   0  0  0  0  0  0  0  0  0  0  0  0
   18.5774   18.5083   22.0601 H   0  0  0  0  0  0  0  0  0  0  0  0
   19.3033   20.4232   21.2845 C   0  0  0  0  0  0  0  0  0  0  0  0
   20.1212   20.7792   20.6435 H   0  0  0  0  0  0  0  0  0  0  0  0
   18.3740   20.7174   20.7780 H   0  0  0  0  0  0  0  0  0  0  0  0
   19.3624   21.1493   22.6463 C   0  0  0  0  0  0  0  0  0  0  0  0
   18.4355   20.9576   23.2032 H   0  0  0  0  0  0  0  0  0  0  0  0
   19.3709   22.2304   22.4532 H   0  0  0  0  0  0  0  0  0  0  0  0
   20.5929   20.8008   23.5270 C   0  0  0  0  0  0  0  0  0  0  0  0
   21.5168   20.9179   22.9466 H   0  0  0  0  0  0  0  0  0  0  0  0
   20.6498   21.5483   24.3286 H   0  0  0  0  0  0  0  0  0  0  0  0
   20.5700   19.4062   24.2041 C   0  0  0  0  0  0  0  0  0  0  0  0
   21.3113   19.4375   25.0157 H   0  0  0  0  0  0  0  0  0  0  0  0
   20.9687   18.2093   23.3021 C   0  0  0  0  0  0  0  0  0  0  0  0
   22.0359   18.0065   23.4607 H   0  0  0  0  0  0  0  0  0  0  0  0
   20.4490   17.3081   23.6531 H   0  0  0  0  0  0  0  0  0  0  0  0
   20.7428   18.3487   21.7762 C   0  0  0  0  0  0  0  0  0  0  0  0
   21.5245   18.9851   21.3399 H   0  0  0  0  0  0  0  0  0  0  0  0
   20.8838   17.3576   21.3240 H   0  0  0  0  0  0  0  0  0  0  0  0
   19.2962   19.1591   24.7934 O   0  0  0  0  0  0  0  0  0  0  0  0
   19.3538   18.2885   25.2367 H   0  0  0  0  0  0  0  0  0  0  0  0
  1  2  1  0  0  0  0
  1  3  1  0  0  0  0
  1  4  1  0  0  0  0
  4  5  1  0  0  0  0
  4  6  1  0  0  0  0
  4  7  1  0  0  0  0
  7  8  1  0  0  0  0
  7  9  1  0  0  0  0
  7 10  1  0  0  0  0
 10 11  1  0  0  0  0
 10 12  1  0  0  0  0
 10 13  1  0  0  0  0
 13 14  1  0  0  0  0
 13 15  1  0  0  0  0
 15 16  1  0  0  0  0
 15 17  1  0  0  0  0
  1 18  1  0  0  0  0
 15 18  1  0  0  0  0
 18 19  1  0  0  0  0
 18 20  1  0  0  0  0
 13 21  1  0  0  0  0
 21 22  1  0  0  0  0
M  END
> <VM2 Rank>
33

> <Conf_Id>
277

> <Probability>
0.14

> <Sum Probability>
99.70

> <Delta G>
2.401

> <G>
49.763

> <E>
23.136

> <-TS>
26.627

> <U+W>
5.252

> <U>
7.482

> <W>
-2.230

> <W(PB)>
-4.220

> <W(SA)>
1.990

> <Valence>
12.309

> <Coulomb>
-7.084

> <VdW>
2.257

> <VdW6>
-9.770

> <VdW12>
12.028

> <Bond>
0.284

> <Angle>
3.491

> <Pdih>
8.535

> <Idih>
0.000

> <Tether>
0.000

$$$$
VeraChem MOL file


 22 22  0  0  0  0  0  0  0  0999 V2000     
   19.8747   19.1961   20.9182 C   0  0  0  0  0  0  0  0  0  0  0  0
   20.4517   19.8217   20.2237 H   0  0  0  0  0  0  0  0  0  0  0  0
   19.2882   18.5148   20.2867 H   0  0  0  0  0  0  0  0  0  0  0  0
   18.8740   20.0815   21.7036 C   0  0  0  0  0  0  0  0  0  0  0  0
   18.2028   20.5713   20.9851 H   0  0  0  0  0  0  0  0  0  0  0  0
   18.2205   19.4466   22.3149 H   0  0  0  0  0  0  0  0  0  0  0  0
   19.5174   21.1760   22.5883 C   0  0  0  0  0  0  0  0  0  0  0  0
   18.7357   21.6099   23.2266 H   0  0  0  0  0  0  0  0  0  0  0  0
   19.8657   21.9957   21.9454 H   0  0  0  0  0  0  0  0  0  0  0  0
   20.7030   20.7179   23.4775 C   0  0  0  0  0  0  0  0  0  0  0  0
   21.6217   20.7109   22.8789 H   0  0  0  0  0  0  0  0  0  0  0  0
   20.8767   21.4829   24.2457 H   0  0  0  0  0  0  0  0  0  0  0  0
   20.5416   19.3468   24.1803 C   0  0  0  0  0  0  0  0  0  0  0  0
   21.4378   19.1978   24.7996 H   0  0  0  0  0  0  0  0  0  0  0  0
   20.4191   18.1127   23.2424 C   0  0  0  0  0  0  0  0  0  0  0  0
   21.0438   17.3153   23.6650 H   0  0  0  0  0  0  0  0  0  0  0  0
   19.3968   17.7130   23.2593 H   0  0  0  0  0  0  0  0  0  0  0  0
   20.8540   18.3418   21.7707 C   0  0  0  0  0  0  0  0  0  0  0  0
   21.8564   18.7889   21.7489 H   0  0  0  0  0  0  0  0  0  0  0  0
   20.9693   17.3645   21.2822 H   0  0  0  0  0  0  0  0  0  0  0  0
   19.4023   19.4051   25.0260 O   0  0  0  0  0  0  0  0  0  0  0  0
   18.6696   19.6980   24.4473 H   0  0  0  0  0  0  0  0  0  0  0  0
  1  2  1  0  0  0  0
  1  3  1  0  0  0  0
  1  4  1  0  0  0  0
  4  5  1  0  0  0  0
  4  6  1  0  0  0  0
  4  7  1  0  0  0  0
  7  8  1  0  0  0  0
  7  9  1  0  0  0  0
  7 10  1  0  0  0  0
 10 11  1  0  0  0  0
 10 12  1  0  0  0  0
 10 13  1  0  0  0  0
 13 14  1  0  0  0  0
 13 15  1  0  0  0  0
 15 16  1  0  0  0  0
 15 17  1  0  0  0  0
  1 18  1  0  0  0  0
 15 18  1  0  0  0  0
 18 19  1  0  0  0  0
 18 20  1  0  0  0  0
 13 21  1  0  0  0  0
 21 22  1  0  0  0  0
M  END
> <VM2 Rank>
34

> <Conf_Id>
951

> <Probability>
0.06

> <Sum Probability>
99.77

> <Delta G>
2.851

> <G>
50.213

> <E>
23.586

> <-TS>
26.627

> <U+W>
5.701

> <U>
7.208

> <W>
-1.507

> <W(PB)>
-3.498

> <W(SA)>
1.991

> <Valence>
13.629

> <Coulomb>
-9.916

> <VdW>
3.495

> <VdW6>
-10.513

> <VdW12>
14.008

> <Bond>
0.431

> <Angle>
3.722

> <Pdih>
9.475

> <Idih>
0.000

> <Tether>
0.000

$$$$
VeraChem MOL file


 22 22  0  0  0  0  0  0  0  0999 V2000     
   19.1675   18.9415   21.5024 C   0  0  0  0  0  0  0  0  0  0  0  0
   18.7485   18.4557   20.6106 H   0  0  0  0  0  0  0  0  0  0  0  0
   18.3477   18.9515   22.2315 H   0  0  0  0  0  0  0  0  0  0  0  0
   19.5556   20.3961   21.1343 C   0  0  0  0  0  0  0  0  0  0  0  0
   20.2968   20.3844   20.3237 H   0  0  0  0  0  0  0  0  0  0  0  0
   18.6634   20.8798   20.7136 H   0  0  0  0  0  0  0  0  0  0  0  0
   20.0831   21.2829   22.2966 C   0  0  0  0  0  0  0  0  0  0  0  0
   19.6775   22.2954   22.1653 H   0  0  0  0  0  0  0  0  0  0  0  0
   21.1714   21.4010   22.2125 H   0  0  0  0  0  0  0  0  0  0  0  0
   19.7231   20.7849   23.7213 C   0  0  0  0  0  0  0  0  0  0  0  0
   19.9294   21.5964   24.4311 H   0  0  0  0  0  0  0  0  0  0  0  0
   18.6396   20.6202   23.7838 H   0  0  0  0  0  0  0  0  0  0  0  0
   20.4984   19.5293   24.2113 C   0  0  0  0  0  0  0  0  0  0  0  0
   21.2675   19.8759   24.9165 H   0  0  0  0  0  0  0  0  0  0  0  0
   21.2278   18.7134   23.1149 C   0  0  0  0  0  0  0  0  0  0  0  0
   21.9764   19.3502   22.6288 H   0  0  0  0  0  0  0  0  0  0  0  0
   21.8103   17.9208   23.6025 H   0  0  0  0  0  0  0  0  0  0  0  0
   20.3278   18.0645   22.0309 C   0  0  0  0  0  0  0  0  0  0  0  0
   20.9648   17.7684   21.1865 H   0  0  0  0  0  0  0  0  0  0  0  0
   19.9046   17.1310   22.4262 H   0  0  0  0  0  0  0  0  0  0  0  0
   19.6027   18.6653   24.8954 O   0  0  0  0  0  0  0  0  0  0  0  0
   19.0486   18.2658   24.1948 H   0  0  0  0  0  0  0  0  0  0  0  0
  1  2  1  0  0  0  0
  1  3  1  0  0  0  0
  1  4  1  0  0  0  0
  4  5  1  0  0  0  0
  4  6  1  0  0  0  0
  4  7  1  0  0  0  0
  7  8  1  0  0  0  0
  7  9  1  0  0  0  0
  7 10  1  0  0  0  0
 10 11  1  0  0  0  0
 10 12  1  0  0  0  0
 10 13  1  0  0  0  0
 13 14  1  0  0  0  0
 13 15  1  0  0  0  0
 15 16  1  0  0  0  0
 15 17  1  0  0  0  0
  1 18  1  0  0  0  0
 15 18  1  0  0  0  0
 18 19  1  0  0  0  0
 18 20  1  0  0  0  0
 13 21  1  0  0  0  0
 21 22  1  0  0  0  0
M  END
> <VM2 Rank>
35

> <Conf_Id>
615

> <Probability>
0.06

> <Sum Probability>
99.83

> <Delta G>
2.857

> <G>
50.219

> <E>
23.593

> <-TS>
26.626

> <U+W>
5.708

> <U>
7.208

> <W>
-1.500

> <W(PB)>
-3.490

> <W(SA)>
1.989

> <Valence>
13.629

> <Coulomb>
-9.915

> <VdW>
3.495

> <VdW6>
-10.513

> <VdW12>
14.008

> <Bond>
0.431

> <Angle>
3.722

> <Pdih>
9.476

> <Idih>
0.000

> <Tether>
0.000

$$$$
VeraChem MOL file


 22 22  0  0  0  0  0  0  0  0999 V2000     
   19.1756   18.9524   21.4698 C   0  0  0  0  0  0  0  0  0  0  0  0
   18.7760   18.4739   20.5655 H   0  0  0  0  0  0  0  0  0  0  0  0
   18.3352   18.9730   22.1755 H   0  0  0  0  0  0  0  0  0  0  0  0
   19.6019   20.4012   21.1181 C   0  0  0  0  0  0  0  0  0  0  0  0
   20.3915   20.3755   20.3548 H   0  0  0  0  0  0  0  0  0  0  0  0
   18.7433   20.8919   20.6397 H   0  0  0  0  0  0  0  0  0  0  0  0
   20.0658   21.2916   22.3063 C   0  0  0  0  0  0  0  0  0  0  0  0
   19.6271   22.2904   22.1775 H   0  0  0  0  0  0  0  0  0  0  0  0
   21.1513   21.4481   22.2526 H   0  0  0  0  0  0  0  0  0  0  0  0
   19.6898   20.7639   23.7166 C   0  0  0  0  0  0  0  0  0  0  0  0
   19.8470   21.5722   24.4421 H   0  0  0  0  0  0  0  0  0  0  0  0
   18.6132   20.5534   23.7527 H   0  0  0  0  0  0  0  0  0  0  0  0
   20.4997   19.5319   24.2069 C   0  0  0  0  0  0  0  0  0  0  0  0
   21.2883   19.9085   24.8743 H   0  0  0  0  0  0  0  0  0  0  0  0
   21.2135   18.7101   23.1032 C   0  0  0  0  0  0  0  0  0  0  0  0
   21.9482   19.3492   22.5989 H   0  0  0  0  0  0  0  0  0  0  0  0
   21.8109   17.9235   23.5817 H   0  0  0  0  0  0  0  0  0  0  0  0
   20.2994   18.0533   22.0377 C   0  0  0  0  0  0  0  0  0  0  0  0
   20.9304   17.7034   21.2097 H   0  0  0  0  0  0  0  0  0  0  0  0
   19.8372   17.1538   22.4667 H   0  0  0  0  0  0  0  0  0  0  0  0
   19.6404   18.6736   24.9484 O   0  0  0  0  0  0  0  0  0  0  0  0
   20.1698   17.8845   25.1842 H   0  0  0  0  0  0  0  0  0  0  0  0
  1  2  1  0  0  0  0
  1  3  1  0  0  0  0
  1  4  1  0  0  0  0
  4  5  1  0  0  0  0
  4  6  1  0  0  0  0
  4  7  1  0  0  0  0
  7  8  1  0  0  0  0
  7  9  1  0  0  0  0
  7 10  1  0  0  0  0
 10 11  1  0  0  0  0
 10 12  1  0  0  0  0
 10 13  1  0  0  0  0
 13 14  1  0  0  0  0
 13 15  1  0  0  0  0
 15 16  1  0  0  0  0
 15 17  1  0  0  0  0
  1 18  1  0  0  0  0
 15 18  1  0  0  0  0
 18 19  1  0  0  0  0
 18 20  1  0  0  0  0
 13 21  1  0  0  0  0
 21 22  1  0  0  0  0
M  END
> <VM2 Rank>
36

> <Conf_Id>
111

> <Probability>
0.02

> <Sum Probability>
99.85

> <Delta G>
3.420

> <G>
50.782

> <E>
24.514

> <-TS>
26.268

> <U+W>
6.630

> <U>
8.892

> <W>
-2.262

> <W(PB)>
-4.259

> <W(SA)>
1.996

> <Valence>
13.213

> <Coulomb>
-7.892

> <VdW>
3.571

> <VdW6>
-10.254

> <VdW12>
13.825

> <Bond>
0.437

> <Angle>
3.615

> <Pdih>
9.161

> <Idih>
0.000

> <Tether>
0.000

$$$$
VeraChem MOL file


 22 22  0  0  0  0  0  0  0  0999 V2000     
   19.9126   19.2201   20.9054 C   0  0  0  0  0  0  0  0  0  0  0  0
   20.5322   19.8615   20.2640 H   0  0  0  0  0  0  0  0  0  0  0  0
   19.3499   18.5713   20.2204 H   0  0  0  0  0  0  0  0  0  0  0  0
   18.8852   20.0934   21.6712 C   0  0  0  0  0  0  0  0  0  0  0  0
   18.2355   20.5943   20.9409 H   0  0  0  0  0  0  0  0  0  0  0  0
   18.2138   19.4512   22.2557 H   0  0  0  0  0  0  0  0  0  0  0  0
   19.4961   21.1723   22.5967 C   0  0  0  0  0  0  0  0  0  0  0  0
   18.7020   21.5529   23.2532 H   0  0  0  0  0  0  0  0  0  0  0  0
   19.8188   22.0263   21.9861 H   0  0  0  0  0  0  0  0  0  0  0  0
   20.6950   20.7139   23.4656 C   0  0  0  0  0  0  0  0  0  0  0  0
   21.6002   20.6995   22.8466 H   0  0  0  0  0  0  0  0  0  0  0  0
   20.8890   21.4829   24.2243 H   0  0  0  0  0  0  0  0  0  0  0  0
   20.5441   19.3438   24.1747 C   0  0  0  0  0  0  0  0  0  0  0  0
   21.4684   19.1866   24.7491 H   0  0  0  0  0  0  0  0  0  0  0  0
   20.3718   18.1137   23.2413 C   0  0  0  0  0  0  0  0  0  0  0  0
   20.9490   17.2870   23.6747 H   0  0  0  0  0  0  0  0  0  0  0  0
   19.3297   17.7694   23.2501 H   0  0  0  0  0  0  0  0  0  0  0  0
   20.8356   18.3188   21.7745 C   0  0  0  0  0  0  0  0  0  0  0  0
   21.8587   18.7173   21.7676 H   0  0  0  0  0  0  0  0  0  0  0  0
   20.9094   17.3358   21.2897 H   0  0  0  0  0  0  0  0  0  0  0  0
   19.4456   19.4020   25.0776 O   0  0  0  0  0  0  0  0  0  0  0  0
   19.5591   20.2204   25.6028 H   0  0  0  0  0  0  0  0  0  0  0  0
  1  2  1  0  0  0  0
  1  3  1  0  0  0  0
  1  4  1  0  0  0  0
  4  5  1  0  0  0  0
  4  6  1  0  0  0  0
  4  7  1  0  0  0  0
  7  8  1  0  0  0  0
  7  9  1  0  0  0  0
  7 10  1  0  0  0  0
 10 11  1  0  0  0  0
 10 12  1  0  0  0  0
 10 13  1  0  0  0  0
 13 14  1  0  0  0  0
 13 15  1  0  0  0  0
 15 16  1  0  0  0  0
 15 17  1  0  0  0  0
  1 18  1  0  0  0  0
 15 18  1  0  0  0  0
 18 19  1  0  0  0  0
 18 20  1  0  0  0  0
 13 21  1  0  0  0  0
 21 22  1  0  0  0  0
M  END
> <VM2 Rank>
37

> <Conf_Id>
309

> <Probability>
0.02

> <Sum Probability>
99.88

> <Delta G>
3.422

> <G>
50.785

> <E>
24.517

> <-TS>
26.267

> <U+W>
6.632

> <U>
8.892

> <W>
-2.260

> <W(PB)>
-4.261

> <W(SA)>
2.002

> <Valence>
13.213

> <Coulomb>
-7.892

> <VdW>
3.571

> <VdW6>
-10.254

> <VdW12>
13.825

> <Bond>
0.437

> <Angle>
3.615

> <Pdih>
9.161

> <Idih>
0.000

> <Tether>
0.000

$$$$
VeraChem MOL file


 22 22  0  0  0  0  0  0  0  0999 V2000     
   20.0305   19.1351   20.8495 C   0  0  0  0  0  0  0  0  0  0  0  0
   20.9340   18.7796   20.3356 H   0  0  0  0  0  0  0  0  0  0  0  0
   19.2318   19.1244   20.0954 H   0  0  0  0  0  0  0  0  0  0  0  0
   20.2673   20.5955   21.3049 C   0  0  0  0  0  0  0  0  0  0  0  0
   21.2955   20.7039   21.6725 H   0  0  0  0  0  0  0  0  0  0  0  0
   20.2153   21.2428   20.4189 H   0  0  0  0  0  0  0  0  0  0  0  0
   19.2681   21.1269   22.3653 C   0  0  0  0  0  0  0  0  0  0  0  0
   18.2472   21.0784   21.9626 H   0  0  0  0  0  0  0  0  0  0  0  0
   19.4774   22.1950   22.5141 H   0  0  0  0  0  0  0  0  0  0  0  0
   19.3050   20.4281   23.7564 C   0  0  0  0  0  0  0  0  0  0  0  0
   19.2644   21.2056   24.5308 H   0  0  0  0  0  0  0  0  0  0  0  0
   18.3937   19.8334   23.8975 H   0  0  0  0  0  0  0  0  0  0  0  0
   20.5386   19.5310   24.0192 C   0  0  0  0  0  0  0  0  0  0  0  0
   21.4399   20.0992   23.7518 H   0  0  0  0  0  0  0  0  0  0  0  0
   20.5384   18.1886   23.2361 C   0  0  0  0  0  0  0  0  0  0  0  0
   21.5725   17.9405   22.9645 H   0  0  0  0  0  0  0  0  0  0  0  0
   20.2012   17.3847   23.9044 H   0  0  0  0  0  0  0  0  0  0  0  0
   19.6517   18.1312   21.9642 C   0  0  0  0  0  0  0  0  0  0  0  0
   19.7029   17.1166   21.5465 H   0  0  0  0  0  0  0  0  0  0  0  0
   18.5987   18.2732   22.2398 H   0  0  0  0  0  0  0  0  0  0  0  0
   20.5865   19.2417   25.4113 O   0  0  0  0  0  0  0  0  0  0  0  0
   21.4025   18.7202   25.5628 H   0  0  0  0  0  0  0  0  0  0  0  0
  1  2  1  0  0  0  0
  1  3  1  0  0  0  0
  1  4  1  0  0  0  0
  4  5  1  0  0  0  0
  4  6  1  0  0  0  0
  4  7  1  0  0  0  0
  7  8  1  0  0  0  0
  7  9  1  0  0  0  0
  7 10  1  0  0  0  0
 10 11  1  0  0  0  0
 10 12  1  0  0  0  0
 10 13  1  0  0  0  0
 13 14  1  0  0  0  0
 13 15  1  0  0  0  0
 15 16  1  0  0  0  0
 15 17  1  0  0  0  0
  1 18  1  0  0  0  0
 15 18  1  0  0  0  0
 18 19  1  0  0  0  0
 18 20  1  0  0  0  0
 13 21  1  0  0  0  0
 21 22  1  0  0  0  0
M  END
> <VM2 Rank>
38

> <Conf_Id>
1039

> <Probability>
0.02

> <Sum Probability>
99.89

> <Delta G>
3.612

> <G>
50.975

> <E>
24.157

> <-TS>
26.818

> <U+W>
6.273

> <U>
8.574

> <W>
-2.301

> <W(PB)>
-4.325

> <W(SA)>
2.023

> <Valence>
13.346

> <Coulomb>
-8.599

> <VdW>
3.827

> <VdW6>
-9.679

> <VdW12>
13.506

> <Bond>
0.433

> <Angle>
3.364

> <Pdih>
9.549

> <Idih>
0.000

> <Tether>
0.000

$$$$
VeraChem MOL file


 22 22  0  0  0  0  0  0  0  0999 V2000     
   20.5617   19.2854   21.0665 C   0  0  0  0  0  0  0  0  0  0  0  0
   21.5657   19.5036   21.4516 H   0  0  0  0  0  0  0  0  0  0  0  0
   20.7170   19.0129   20.0137 H   0  0  0  0  0  0  0  0  0  0  0  0
   19.6990   20.5699   21.1099 C   0  0  0  0  0  0  0  0  0  0  0  0
   20.3265   21.4211   20.8126 H   0  0  0  0  0  0  0  0  0  0  0  0
   18.9130   20.4945   20.3461 H   0  0  0  0  0  0  0  0  0  0  0  0
   19.0228   20.8859   22.4651 C   0  0  0  0  0  0  0  0  0  0  0  0
   18.1516   20.2317   22.5989 H   0  0  0  0  0  0  0  0  0  0  0  0
   18.6108   21.9030   22.4160 H   0  0  0  0  0  0  0  0  0  0  0  0
   19.9485   20.7859   23.7062 C   0  0  0  0  0  0  0  0  0  0  0  0
   20.7585   21.5203   23.6102 H   0  0  0  0  0  0  0  0  0  0  0  0
   19.3589   21.0999   24.5781 H   0  0  0  0  0  0  0  0  0  0  0  0
   20.5729   19.3919   23.9928 C   0  0  0  0  0  0  0  0  0  0  0  0
   21.6056   19.3804   23.6182 H   0  0  0  0  0  0  0  0  0  0  0  0
   19.8132   18.2041   23.3545 C   0  0  0  0  0  0  0  0  0  0  0  0
   20.1631   17.2726   23.8189 H   0  0  0  0  0  0  0  0  0  0  0  0
   18.7505   18.2760   23.6185 H   0  0  0  0  0  0  0  0  0  0  0  0
   19.9642   18.0631   21.8111 C   0  0  0  0  0  0  0  0  0  0  0  0
   18.9893   17.8090   21.3734 H   0  0  0  0  0  0  0  0  0  0  0  0
   20.6135   17.2002   21.6091 H   0  0  0  0  0  0  0  0  0  0  0  0
   20.6037   19.1917   25.4009 O   0  0  0  0  0  0  0  0  0  0  0  0
   21.1348   19.9242   25.7782 H   0  0  0  0  0  0  0  0  0  0  0  0
  1  2  1  0  0  0  0
  1  3  1  0  0  0  0
  1  4  1  0  0  0  0
  4  5  1  0  0  0  0
  4  6  1  0  0  0  0
  4  7  1  0  0  0  0
  7  8  1  0  0  0  0
  7  9  1  0  0  0  0
  7 10  1  0  0  0  0
 10 11  1  0  0  0  0
 10 12  1  0  0  0  0
 10 13  1  0  0  0  0
 13 14  1  0  0  0  0
 13 15  1  0  0  0  0
 15 16  1  0  0  0  0
 15 17  1  0  0  0  0
  1 18  1  0  0  0  0
 15 18  1  0  0  0  0
 18 19  1  0  0  0  0
 18 20  1  0  0  0  0
 13 21  1  0  0  0  0
 21 22  1  0  0  0  0
M  END
> <VM2 Rank>
39

> <Conf_Id>
1359

> <Probability>
0.02

> <Sum Probability>
99.91

> <Delta G>
3.653

> <G>
51.016

> <E>
24.167

> <-TS>
26.849

> <U+W>
6.282

> <U>
8.574

> <W>
-2.292

> <W(PB)>
-4.304

> <W(SA)>
2.012

> <Valence>
13.346

> <Coulomb>
-8.599

> <VdW>
3.827

> <VdW6>
-9.679

> <VdW12>
13.505

> <Bond>
0.433

> <Angle>
3.364

> <Pdih>
9.549

> <Idih>
0.000

> <Tether>
0.000

$$$$
VeraChem MOL file


 22 22  0  0  0  0  0  0  0  0999 V2000     
   20.0039   19.1334   20.8477 C   0  0  0  0  0  0  0  0  0  0  0  0
   20.8878   18.7743   20.3031 H   0  0  0  0  0  0  0  0  0  0  0  0
   19.1813   19.1329   20.1197 H   0  0  0  0  0  0  0  0  0  0  0  0
   20.2696   20.5884   21.3032 C   0  0  0  0  0  0  0  0  0  0  0  0
   21.3011   20.6760   21.6673 H   0  0  0  0  0  0  0  0  0  0  0  0
   20.2265   21.2378   20.4182 H   0  0  0  0  0  0  0  0  0  0  0  0
   19.2853   21.1380   22.3680 C   0  0  0  0  0  0  0  0  0  0  0  0
   18.2636   21.1230   21.9648 H   0  0  0  0  0  0  0  0  0  0  0  0
   19.5260   22.1982   22.5264 H   0  0  0  0  0  0  0  0  0  0  0  0
   19.3012   20.4258   23.7520 C   0  0  0  0  0  0  0  0  0  0  0  0
   19.2356   21.1974   24.5302 H   0  0  0  0  0  0  0  0  0  0  0  0
   18.3921   19.8224   23.8690 H   0  0  0  0  0  0  0  0  0  0  0  0
   20.5379   19.5349   24.0242 C   0  0  0  0  0  0  0  0  0  0  0  0
   21.4396   20.1101   23.7731 H   0  0  0  0  0  0  0  0  0  0  0  0
   20.5613   18.1994   23.2285 C   0  0  0  0  0  0  0  0  0  0  0  0
   21.5980   17.9824   22.9414 H   0  0  0  0  0  0  0  0  0  0  0  0
   20.2603   17.3821   23.8977 H   0  0  0  0  0  0  0  0  0  0  0  0
   19.6570   18.1256   21.9693 C   0  0  0  0  0  0  0  0  0  0  0  0
   18.6059   18.2498   22.2593 H   0  0  0  0  0  0  0  0  0  0  0  0
   19.7190   17.1113   21.5521 H   0  0  0  0  0  0  0  0  0  0  0  0
   20.5698   19.2325   25.4141 O   0  0  0  0  0  0  0  0  0  0  0  0
   20.6165   20.0888   25.8886 H   0  0  0  0  0  0  0  0  0  0  0  0
  1  2  1  0  0  0  0
  1  3  1  0  0  0  0
  1  4  1  0  0  0  0
  4  5  1  0  0  0  0
  4  6  1  0  0  0  0
  4  7  1  0  0  0  0
  7  8  1  0  0  0  0
  7  9  1  0  0  0  0
  7 10  1  0  0  0  0
 10 11  1  0  0  0  0
 10 12  1  0  0  0  0
 10 13  1  0  0  0  0
 13 14  1  0  0  0  0
 13 15  1  0  0  0  0
 15 16  1  0  0  0  0
 15 17  1  0  0  0  0
  1 18  1  0  0  0  0
 15 18  1  0  0  0  0
 18 19  1  0  0  0  0
 18 20  1  0  0  0  0
 13 21  1  0  0  0  0
 21 22  1  0  0  0  0
M  END
> <VM2 Rank>
40

> <Conf_Id>
245

> <Probability>
0.02

> <Sum Probability>
99.93

> <Delta G>
3.677

> <G>
51.040

> <E>
24.230

> <-TS>
26.810

> <U+W>
6.345

> <U>
8.609

> <W>
-2.264

> <W(PB)>
-4.270

> <W(SA)>
2.006

> <Valence>
13.313

> <Coulomb>
-8.545

> <VdW>
3.841

> <VdW6>
-9.685

> <VdW12>
13.527

> <Bond>
0.435

> <Angle>
3.375

> <Pdih>
9.504

> <Idih>
0.000

> <Tether>
0.000

$$$$
VeraChem MOL file


 22 22  0  0  0  0  0  0  0  0999 V2000     
   20.5607   19.2918   21.0675 C   0  0  0  0  0  0  0  0  0  0  0  0
   20.7242   19.0207   20.0156 H   0  0  0  0  0  0  0  0  0  0  0  0
   21.5592   19.5285   21.4562 H   0  0  0  0  0  0  0  0  0  0  0  0
   19.6763   20.5612   21.1068 C   0  0  0  0  0  0  0  0  0  0  0  0
   20.2839   21.4169   20.7822 H   0  0  0  0  0  0  0  0  0  0  0  0
   18.8758   20.4606   20.3612 H   0  0  0  0  0  0  0  0  0  0  0  0
   19.0261   20.8914   22.4714 C   0  0  0  0  0  0  0  0  0  0  0  0
   18.1502   20.2479   22.6236 H   0  0  0  0  0  0  0  0  0  0  0  0
   18.6240   21.9124   22.4233 H   0  0  0  0  0  0  0  0  0  0  0  0
   19.9721   20.7888   23.6975 C   0  0  0  0  0  0  0  0  0  0  0  0
   20.7958   21.5041   23.5785 H   0  0  0  0  0  0  0  0  0  0  0  0
   19.4082   21.1276   24.5771 H   0  0  0  0  0  0  0  0  0  0  0  0
   20.5742   19.3869   23.9959 C   0  0  0  0  0  0  0  0  0  0  0  0
   21.6111   19.3645   23.6334 H   0  0  0  0  0  0  0  0  0  0  0  0
   19.8079   18.2060   23.3512 C   0  0  0  0  0  0  0  0  0  0  0  0
   20.1339   17.2678   23.8191 H   0  0  0  0  0  0  0  0  0  0  0  0
   18.7420   18.2938   23.5968 H   0  0  0  0  0  0  0  0  0  0  0  0
   19.9826   18.0601   21.8114 C   0  0  0  0  0  0  0  0  0  0  0  0
   20.6556   17.2125   21.6225 H   0  0  0  0  0  0  0  0  0  0  0  0
   19.0199   17.7798   21.3627 H   0  0  0  0  0  0  0  0  0  0  0  0
   20.5861   19.1918   25.4052 O   0  0  0  0  0  0  0  0  0  0  0  0
   21.0252   18.3308   25.5676 H   0  0  0  0  0  0  0  0  0  0  0  0
  1  2  1  0  0  0  0
  1  3  1  0  0  0  0
  1  4  1  0  0  0  0
  4  5  1  0  0  0  0
  4  6  1  0  0  0  0
  4  7  1  0  0  0  0
  7  8  1  0  0  0  0
  7  9  1  0  0  0  0
  7 10  1  0  0  0  0
 10 11  1  0  0  0  0
 10 12  1  0  0  0  0
 10 13  1  0  0  0  0
 13 14  1  0  0  0  0
 13 15  1  0  0  0  0
 15 16  1  0  0  0  0
 15 17  1  0  0  0  0
  1 18  1  0  0  0  0
 15 18  1  0  0  0  0
 18 19  1  0  0  0  0
 18 20  1  0  0  0  0
 13 21  1  0  0  0  0
 21 22  1  0  0  0  0
M  END
> <VM2 Rank>
41

> <Conf_Id>
523

> <Probability>
0.02

> <Sum Probability>
99.94

> <Delta G>
3.679

> <G>
51.041

> <E>
24.193

> <-TS>
26.849

> <U+W>
6.308

> <U>
8.609

> <W>
-2.301

> <W(PB)>
-4.320

> <W(SA)>
2.019

> <Valence>
13.315

> <Coulomb>
-8.546

> <VdW>
3.841

> <VdW6>
-9.685

> <VdW12>
13.526

> <Bond>
0.435

> <Angle>
3.374

> <Pdih>
9.506

> <Idih>
0.000

> <Tether>
0.000

$$$$
VeraChem MOL file


 22 22  0  0  0  0  0  0  0  0999 V2000     
   19.4307   19.0723   21.0636 C   0  0  0  0  0  0  0  0  0  0  0  0
   19.6111   18.6602   20.0613 H   0  0  0  0  0  0  0  0  0  0  0  0
   18.3404   19.1816   21.1422 H   0  0  0  0  0  0  0  0  0  0  0  0
   20.0873   20.4754   21.1335 C   0  0  0  0  0  0  0  0  0  0  0  0
   21.1783   20.3814   21.0670 H   0  0  0  0  0  0  0  0  0  0  0  0
   19.7998   21.0432   20.2382 H   0  0  0  0  0  0  0  0  0  0  0  0
   19.7018   21.3136   22.3794 C   0  0  0  0  0  0  0  0  0  0  0  0
   18.8021   21.8966   22.1399 H   0  0  0  0  0  0  0  0  0  0  0  0
   20.4936   22.0496   22.5739 H   0  0  0  0  0  0  0  0  0  0  0  0
   19.4108   20.5103   23.6720 C   0  0  0  0  0  0  0  0  0  0  0  0
   19.1976   21.2216   24.4804 H   0  0  0  0  0  0  0  0  0  0  0  0
   18.4876   19.9312   23.5428 H   0  0  0  0  0  0  0  0  0  0  0  0
   20.5439   19.5701   24.1423 C   0  0  0  0  0  0  0  0  0  0  0  0
   21.4124   20.1860   24.4168 H   0  0  0  0  0  0  0  0  0  0  0  0
   21.0127   18.5189   23.1033 C   0  0  0  0  0  0  0  0  0  0  0  0
   21.8697   18.9147   22.5460 H   0  0  0  0  0  0  0  0  0  0  0  0
   21.4120   17.6470   23.6377 H   0  0  0  0  0  0  0  0  0  0  0  0
   19.9212   18.0309   22.1130 C   0  0  0  0  0  0  0  0  0  0  0  0
   19.0608   17.6578   22.6855 H   0  0  0  0  0  0  0  0  0  0  0  0
   20.3136   17.1583   21.5733 H   0  0  0  0  0  0  0  0  0  0  0  0
   20.0777   18.8865   25.3000 O   0  0  0  0  0  0  0  0  0  0  0  0
   20.8185   18.3294   25.6170 H   0  0  0  0  0  0  0  0  0  0  0  0
  1  2  1  0  0  0  0
  1  3  1  0  0  0  0
  1  4  1  0  0  0  0
  4  5  1  0  0  0  0
  4  6  1  0  0  0  0
  4  7  1  0  0  0  0
  7  8  1  0  0  0  0
  7  9  1  0  0  0  0
  7 10  1  0  0  0  0
 10 11  1  0  0  0  0
 10 12  1  0  0  0  0
 10 13  1  0  0  0  0
 13 14  1  0  0  0  0
 13 15  1  0  0  0  0
 15 16  1  0  0  0  0
 15 17  1  0  0  0  0
  1 18  1  0  0  0  0
 15 18  1  0  0  0  0
 18 19  1  0  0  0  0
 18 20  1  0  0  0  0
 13 21  1  0  0  0  0
 21 22  1  0  0  0  0
M  END
> <VM2 Rank>
42

> <Conf_Id>
998

> <Probability>
0.01

> <Sum Probability>
99.96

> <Delta G>
3.730

> <G>
51.092

> <E>
24.436

> <-TS>
26.656

> <U+W>
6.551

> <U>
8.927

> <W>
-2.375

> <W(PB)>
-4.384

> <W(SA)>
2.008

> <Valence>
13.512

> <Coulomb>
-8.267

> <VdW>
3.681

> <VdW6>
-9.849

> <VdW12>
13.530

> <Bond>
0.432

> <Angle>
3.475

> <Pdih>
9.605

> <Idih>
0.000

> <Tether>
0.000

$$$$
VeraChem MOL file


 22 22  0  0  0  0  0  0  0  0999 V2000     
   20.4690   19.3536   21.0087 C   0  0  0  0  0  0  0  0  0  0  0  0
   21.4349   19.7968   21.2837 H   0  0  0  0  0  0  0  0  0  0  0  0
   20.5653   19.0975   19.9448 H   0  0  0  0  0  0  0  0  0  0  0  0
   19.3455   20.4101   21.1620 C   0  0  0  0  0  0  0  0  0  0  0  0
   19.5954   21.2560   20.5070 H   0  0  0  0  0  0  0  0  0  0  0  0
   18.4020   20.0024   20.7744 H   0  0  0  0  0  0  0  0  0  0  0  0
   19.1125   20.9613   22.5959 C   0  0  0  0  0  0  0  0  0  0  0  0
   18.2195   20.4993   23.0364 H   0  0  0  0  0  0  0  0  0  0  0  0
   18.8683   22.0293   22.5168 H   0  0  0  0  0  0  0  0  0  0  0  0
   20.3124   20.7963   23.5660 C   0  0  0  0  0  0  0  0  0  0  0  0
   21.2152   21.2033   23.0938 H   0  0  0  0  0  0  0  0  0  0  0  0
   20.1389   21.4370   24.4411 H   0  0  0  0  0  0  0  0  0  0  0  0
   20.5998   19.3455   24.0523 C   0  0  0  0  0  0  0  0  0  0  0  0
   21.6809   19.1658   23.9622 H   0  0  0  0  0  0  0  0  0  0  0  0
   19.8579   18.2172   23.2927 C   0  0  0  0  0  0  0  0  0  0  0  0
   20.0437   17.2632   23.8031 H   0  0  0  0  0  0  0  0  0  0  0  0
   18.7749   18.3733   23.3658 H   0  0  0  0  0  0  0  0  0  0  0  0
   20.2558   18.0451   21.8055 C   0  0  0  0  0  0  0  0  0  0  0  0
   21.1825   17.4577   21.7514 H   0  0  0  0  0  0  0  0  0  0  0  0
   19.4863   17.4405   21.3066 H   0  0  0  0  0  0  0  0  0  0  0  0
   20.2330   19.2489   25.4239 O   0  0  0  0  0  0  0  0  0  0  0  0
   20.4768   18.3468   25.7189 H   0  0  0  0  0  0  0  0  0  0  0  0
  1  2  1  0  0  0  0
  1  3  1  0  0  0  0
  1  4  1  0  0  0  0
  4  5  1  0  0  0  0
  4  6  1  0  0  0  0
  4  7  1  0  0  0  0
  7  8  1  0  0  0  0
  7  9  1  0  0  0  0
  7 10  1  0  0  0  0
 10 11  1  0  0  0  0
 10 12  1  0  0  0  0
 10 13  1  0  0  0  0
 13 14  1  0  0  0  0
 13 15  1  0  0  0  0
 15 16  1  0  0  0  0
 15 17  1  0  0  0  0
  1 18  1  0  0  0  0
 15 18  1  0  0  0  0
 18 19  1  0  0  0  0
 18 20  1  0  0  0  0
 13 21  1  0  0  0  0
 21 22  1  0  0  0  0
M  END
> <VM2 Rank>
43

> <Conf_Id>
448

> <Probability>
0.01

> <Sum Probability>
99.97

> <Delta G>
3.743

> <G>
51.105

> <E>
24.304

> <-TS>
26.802

> <U+W>
6.419

> <U>
8.780

> <W>
-2.361

> <W(PB)>
-4.375

> <W(SA)>
2.014

> <Valence>
13.327

> <Coulomb>
-8.388

> <VdW>
3.841

> <VdW6>
-9.744

> <VdW12>
13.585

> <Bond>
0.436

> <Angle>
3.476

> <Pdih>
9.415

> <Idih>
0.000

> <Tether>
0.000

$$$$
VeraChem MOL file


 22 22  0  0  0  0  0  0  0  0999 V2000     
   19.6457   19.0984   20.9271 C   0  0  0  0  0  0  0  0  0  0  0  0
   20.1740   18.7083   20.0464 H   0  0  0  0  0  0  0  0  0  0  0  0
   18.5903   19.1728   20.6318 H   0  0  0  0  0  0  0  0  0  0  0  0
   20.2045   20.5148   21.2167 C   0  0  0  0  0  0  0  0  0  0  0  0
   21.2853   20.4572   21.3990 H   0  0  0  0  0  0  0  0  0  0  0  0
   20.1006   21.1241   20.3085 H   0  0  0  0  0  0  0  0  0  0  0  0
   19.5231   21.2654   22.3850 C   0  0  0  0  0  0  0  0  0  0  0  0
   18.5368   21.6215   22.0579 H   0  0  0  0  0  0  0  0  0  0  0  0
   20.1122   22.1670   22.6018 H   0  0  0  0  0  0  0  0  0  0  0  0
   19.3437   20.4569   23.6941 C   0  0  0  0  0  0  0  0  0  0  0  0
   19.1437   21.1695   24.5048 H   0  0  0  0  0  0  0  0  0  0  0  0
   18.4374   19.8435   23.6234 H   0  0  0  0  0  0  0  0  0  0  0  0
   20.5462   19.5660   24.0947 C   0  0  0  0  0  0  0  0  0  0  0  0
   21.4392   20.2043   24.1603 H   0  0  0  0  0  0  0  0  0  0  0  0
   20.8696   18.3863   23.1316 C   0  0  0  0  0  0  0  0  0  0  0  0
   21.8199   18.5875   22.6216 H   0  0  0  0  0  0  0  0  0  0  0  0
   21.0554   17.4821   23.7269 H   0  0  0  0  0  0  0  0  0  0  0  0
   19.7832   18.0583   22.0734 C   0  0  0  0  0  0  0  0  0  0  0  0
   20.0125   17.0823   21.6246 H   0  0  0  0  0  0  0  0  0  0  0  0
   18.8158   17.9192   22.5733 H   0  0  0  0  0  0  0  0  0  0  0  0
   20.2700   19.0319   25.3845 O   0  0  0  0  0  0  0  0  0  0  0  0
   20.1268   19.7953   25.9818 H   0  0  0  0  0  0  0  0  0  0  0  0
  1  2  1  0  0  0  0
  1  3  1  0  0  0  0
  1  4  1  0  0  0  0
  4  5  1  0  0  0  0
  4  6  1  0  0  0  0
  4  7  1  0  0  0  0
  7  8  1  0  0  0  0
  7  9  1  0  0  0  0
  7 10  1  0  0  0  0
 10 11  1  0  0  0  0
 10 12  1  0  0  0  0
 10 13  1  0  0  0  0
 13 14  1  0  0  0  0
 13 15  1  0  0  0  0
 15 16  1  0  0  0  0
 15 17  1  0  0  0  0
  1 18  1  0  0  0  0
 15 18  1  0  0  0  0
 18 19  1  0  0  0  0
 18 20  1  0  0  0  0
 13 21  1  0  0  0  0
 21 22  1  0  0  0  0
M  END
> <VM2 Rank>
44

> <Conf_Id>
214

> <Probability>
0.01

> <Sum Probability>
99.99

> <Delta G>
3.757

> <G>
51.119

> <E>
24.304

> <-TS>
26.816

> <U+W>
6.419

> <U>
8.781

> <W>
-2.362

> <W(PB)>
-4.380

> <W(SA)>
2.018

> <Valence>
13.329

> <Coulomb>
-8.387

> <VdW>
3.839

> <VdW6>
-9.745

> <VdW12>
13.585

> <Bond>
0.436

> <Angle>
3.478

> <Pdih>
9.415

> <Idih>
0.000

> <Tether>
0.000

$$$$
VeraChem MOL file


 22 22  0  0  0  0  0  0  0  0999 V2000     
   20.2036   19.3548   20.8952 C   0  0  0  0  0  0  0  0  0  0  0  0
   21.0678   20.0125   20.7335 H   0  0  0  0  0  0  0  0  0  0  0  0
   19.9488   18.9694   19.8985 H   0  0  0  0  0  0  0  0  0  0  0  0
   19.0108   20.1926   21.4217 C   0  0  0  0  0  0  0  0  0  0  0  0
   18.6487   20.8387   20.6104 H   0  0  0  0  0  0  0  0  0  0  0  0
   18.1692   19.5261   21.6515 H   0  0  0  0  0  0  0  0  0  0  0  0
   19.3267   21.0893   22.6519 C   0  0  0  0  0  0  0  0  0  0  0  0
   18.4557   21.1033   23.3213 H   0  0  0  0  0  0  0  0  0  0  0  0
   19.4483   22.1226   22.2997 H   0  0  0  0  0  0  0  0  0  0  0  0
   20.5970   20.7183   23.4641 C   0  0  0  0  0  0  0  0  0  0  0  0
   21.4814   20.7943   22.8202 H   0  0  0  0  0  0  0  0  0  0  0  0
   20.7512   21.4798   24.2395 H   0  0  0  0  0  0  0  0  0  0  0  0
   20.5858   19.3251   24.1354 C   0  0  0  0  0  0  0  0  0  0  0  0
   21.6195   19.0974   24.4331 H   0  0  0  0  0  0  0  0  0  0  0  0
   20.0799   18.1647   23.2489 C   0  0  0  0  0  0  0  0  0  0  0  0
   20.3688   17.2231   23.7331 H   0  0  0  0  0  0  0  0  0  0  0  0
   18.9830   18.1586   23.2433 H   0  0  0  0  0  0  0  0  0  0  0  0
   20.6132   18.1510   21.7909 C   0  0  0  0  0  0  0  0  0  0  0  0
   21.7082   18.0637   21.8009 H   0  0  0  0  0  0  0  0  0  0  0  0
   20.2472   17.2316   21.3138 H   0  0  0  0  0  0  0  0  0  0  0  0
   19.7690   19.3821   25.2990 O   0  0  0  0  0  0  0  0  0  0  0  0
   20.1100   20.1188   25.8470 H   0  0  0  0  0  0  0  0  0  0  0  0
  1  2  1  0  0  0  0
  1  3  1  0  0  0  0
  1  4  1  0  0  0  0
  4  5  1  0  0  0  0
  4  6  1  0  0  0  0
  4  7  1  0  0  0  0
  7  8  1  0  0  0  0
  7  9  1  0  0  0  0
  7 10  1  0  0  0  0
 10 11  1  0  0  0  0
 10 12  1  0  0  0  0
 10 13  1  0  0  0  0
 13 14  1  0  0  0  0
 13 15  1  0  0  0  0
 15 16  1  0  0  0  0
 15 17  1  0  0  0  0
  1 18  1  0  0  0  0
 15 18  1  0  0  0  0
 18 19  1  0  0  0  0
 18 20  1  0  0  0  0
 13 21  1  0  0  0  0
 21 22  1  0  0  0  0
M  END
> <VM2 Rank>
45

> <Conf_Id>
213

> <Probability>
0.01

> <Sum Probability>
100.00

> <Delta G>
3.852

> <G>
51.215

> <E>
24.416

> <-TS>
26.798

> <U+W>
6.531

> <U>
8.919

> <W>
-2.388

> <W(PB)>
-4.391

> <W(SA)>
2.003

> <Valence>
13.464

> <Coulomb>
-8.153

> <VdW>
3.608

> <VdW6>
-9.940

> <VdW12>
13.548

> <Bond>
0.437

> <Angle>
3.544

> <Pdih>
9.483

> <Idih>
0.000

> <Tether>
0.000

$$$$
VeraChem MOL file


 22 22  0  0  0  0  0  0  0  0999 V2000     
   19.3348   18.7774   21.4294 C   0  0  0  0  0  0  0  0  0  0  0  0
   19.1863   18.5695   20.3608 H   0  0  0  0  0  0  0  0  0  0  0  0
   18.6614   18.0827   21.9491 H   0  0  0  0  0  0  0  0  0  0  0  0
   18.8977   20.2479   21.6950 C   0  0  0  0  0  0  0  0  0  0  0  0
   18.5600   20.6765   20.7413 H   0  0  0  0  0  0  0  0  0  0  0  0
   18.0119   20.2680   22.3438 H   0  0  0  0  0  0  0  0  0  0  0  0
   19.9871   21.1859   22.2748 C   0  0  0  0  0  0  0  0  0  0  0  0
   19.6146   22.2183   22.2305 H   0  0  0  0  0  0  0  0  0  0  0  0
   20.8665   21.1818   21.6190 H   0  0  0  0  0  0  0  0  0  0  0  0
   20.4231   20.9004   23.7387 C   0  0  0  0  0  0  0  0  0  0  0  0
   21.4201   21.3339   23.8903 H   0  0  0  0  0  0  0  0  0  0  0  0
   19.7591   21.4573   24.4132 H   0  0  0  0  0  0  0  0  0  0  0  0
   20.4501   19.4290   24.2208 C   0  0  0  0  0  0  0  0  0  0  0  0
   20.9899   19.4165   25.1785 H   0  0  0  0  0  0  0  0  0  0  0  0
   21.1614   18.4160   23.2902 C   0  0  0  0  0  0  0  0  0  0  0  0
   22.2456   18.5557   23.3889 H   0  0  0  0  0  0  0  0  0  0  0  0
   20.9617   17.4099   23.6823 H   0  0  0  0  0  0  0  0  0  0  0  0
   20.8054   18.4328   21.7776 C   0  0  0  0  0  0  0  0  0  0  0  0
   21.4813   19.1137   21.2456 H   0  0  0  0  0  0  0  0  0  0  0  0
   21.0350   17.4399   21.3674 H   0  0  0  0  0  0  0  0  0  0  0  0
   19.1264   18.9887   24.4805 O   0  0  0  0  0  0  0  0  0  0  0  0
   18.6916   19.0176   23.6047 H   0  0  0  0  0  0  0  0  0  0  0  0
  1  2  1  0  0  0  0
  1  3  1  0  0  0  0
  1  4  1  0  0  0  0
  4  5  1  0  0  0  0
  4  6  1  0  0  0  0
  4  7  1  0  0  0  0
  7  8  1  0  0  0  0
  7  9  1  0  0  0  0
  7 10  1  0  0  0  0
 10 11  1  0  0  0  0
 10 12  1  0  0  0  0
 10 13  1  0  0  0  0
 13 14  1  0  0  0  0
 13 15  1  0  0  0  0
 15 16  1  0  0  0  0
 15 17  1  0  0  0  0
  1 18  1  0  0  0  0
 15 18  1  0  0  0  0
 18 19  1  0  0  0  0
 18 20  1  0  0  0  0
 13 21  1  0  0  0  0
 21 22  1  0  0  0  0
M  END
> <VM2 Rank>
46

> <Conf_Id>
1043

> <Probability>
0.00

> <Sum Probability>
100.00

> <Delta G>
4.825

> <G>
52.187

> <E>
25.238

> <-TS>
26.949

> <U+W>
7.353

> <U>
8.455

> <W>
-1.102

> <W(PB)>
-3.101

> <W(SA)>
2.000

> <Valence>
15.601

> <Coulomb>
-10.573

> <VdW>
3.427

> <VdW6>
-11.360

> <VdW12>
14.787

> <Bond>
0.470

> <Angle>
5.445

> <Pdih>
9.685

> <Idih>
0.000

> <Tether>
0.000

$$$$
VeraChem MOL file


 22 22  0  0  0  0  0  0  0  0999 V2000     
   19.3242   18.7757   21.4432 C   0  0  0  0  0  0  0  0  0  0  0  0
   19.1382   18.5328   20.3883 H   0  0  0  0  0  0  0  0  0  0  0  0
   18.6592   18.1147   22.0150 H   0  0  0  0  0  0  0  0  0  0  0  0
   18.9106   20.2566   21.6811 C   0  0  0  0  0  0  0  0  0  0  0  0
   18.5776   20.6785   20.7232 H   0  0  0  0  0  0  0  0  0  0  0  0
   18.0301   20.2855   22.3375 H   0  0  0  0  0  0  0  0  0  0  0  0
   20.0056   21.1853   22.2629 C   0  0  0  0  0  0  0  0  0  0  0  0
   19.6506   22.2227   22.1991 H   0  0  0  0  0  0  0  0  0  0  0  0
   20.8992   21.1569   21.6277 H   0  0  0  0  0  0  0  0  0  0  0  0
   20.3958   20.9062   23.7395 C   0  0  0  0  0  0  0  0  0  0  0  0
   21.3744   21.3660   23.9278 H   0  0  0  0  0  0  0  0  0  0  0  0
   19.6914   21.4399   24.3911 H   0  0  0  0  0  0  0  0  0  0  0  0
   20.4461   19.4319   24.2143 C   0  0  0  0  0  0  0  0  0  0  0  0
   21.0077   19.4322   25.1596 H   0  0  0  0  0  0  0  0  0  0  0  0
   21.1729   18.4320   23.2775 C   0  0  0  0  0  0  0  0  0  0  0  0
   22.2535   18.6071   23.3574 H   0  0  0  0  0  0  0  0  0  0  0  0
   21.0149   17.4223   23.6780 H   0  0  0  0  0  0  0  0  0  0  0  0
   20.7966   18.4227   21.7694 C   0  0  0  0  0  0  0  0  0  0  0  0
   21.4689   19.0873   21.2129 H   0  0  0  0  0  0  0  0  0  0  0  0
   21.0089   17.4198   21.3749 H   0  0  0  0  0  0  0  0  0  0  0  0
   19.1340   18.9676   24.5190 O   0  0  0  0  0  0  0  0  0  0  0  0
   19.2172   18.0186   24.7402 H   0  0  0  0  0  0  0  0  0  0  0  0
  1  2  1  0  0  0  0
  1  3  1  0  0  0  0
  1  4  1  0  0  0  0
  4  5  1  0  0  0  0
  4  6  1  0  0  0  0
  4  7  1  0  0  0  0
  7  8  1  0  0  0  0
  7  9  1  0  0  0  0
  7 10  1  0  0  0  0
 10 11  1  0  0  0  0
 10 12  1  0  0  0  0
 10 13  1  0  0  0  0
 13 14  1  0  0  0  0
 13 15  1  0  0  0  0
 15 16  1  0  0  0  0
 15 17  1  0  0  0  0
  1 18  1  0  0  0  0
 15 18  1  0  0  0  0
 18 19  1  0  0  0  0
 18 20  1  0  0  0  0
 13 21  1  0  0  0  0
 21 22  1  0  0  0  0
M  END
> <VM2 Rank>
47

> <Conf_Id>
567

> <Probability>
0.00

> <Sum Probability>
100.00

> <Delta G>
6.647

> <G>
54.009

> <E>
27.803

> <-TS>
26.206

> <U+W>
9.919

> <U>
11.966

> <W>
-2.048

> <W(PB)>
-4.020

> <W(SA)>
1.973

> <Valence>
15.235

> <Coulomb>
-6.622

> <VdW>
3.353

> <VdW6>
-10.808

> <VdW12>
14.161

> <Bond>
0.452

> <Angle>
5.180

> <Pdih>
9.603

> <Idih>
0.000

> <Tether>
0.000

$$$$
