VeraChem MOL file


 26 25  0  0  0  0  0  0  0  0999 V2000     
   19.9052   19.3107   18.8162 C   0  0  0  0  0  0  0  0  0  0  0  0
   20.2945   20.3369   18.7943 H   0  0  0  0  0  0  0  0  0  0  0  0
   20.2787   18.7895   17.9252 H   0  0  0  0  0  0  0  0  0  0  0  0
   18.8108   19.3585   18.7447 H   0  0  0  0  0  0  0  0  0  0  0  0
   20.3457   18.5776   20.1010 C   0  0  0  0  0  0  0  0  0  0  0  0
   21.4427   18.5157   20.1275 H   0  0  0  0  0  0  0  0  0  0  0  0
   19.9704   17.5449   20.0784 H   0  0  0  0  0  0  0  0  0  0  0  0
   19.8327   19.2912   21.3714 C   0  0  0  0  0  0  0  0  0  0  0  0
   20.2083   20.3237   21.3883 H   0  0  0  0  0  0  0  0  0  0  0  0
   18.7360   19.3526   21.3392 H   0  0  0  0  0  0  0  0  0  0  0  0
   20.2719   18.5602   22.6602 C   0  0  0  0  0  0  0  0  0  0  0  0
   21.3686   18.4989   22.6913 H   0  0  0  0  0  0  0  0  0  0  0  0
   19.8962   17.5277   22.6422 H   0  0  0  0  0  0  0  0  0  0  0  0
   19.7583   19.2745   23.9308 C   0  0  0  0  0  0  0  0  0  0  0  0
   20.1340   20.3071   23.9492 H   0  0  0  0  0  0  0  0  0  0  0  0
   18.6614   19.3359   23.9000 H   0  0  0  0  0  0  0  0  0  0  0  0
   20.1968   18.5443   25.2193 C   0  0  0  0  0  0  0  0  0  0  0  0
   21.2928   18.4855   25.2564 H   0  0  0  0  0  0  0  0  0  0  0  0
   19.8188   17.5133   25.2071 H   0  0  0  0  0  0  0  0  0  0  0  0
   19.6802   19.2637   26.4777 C   0  0  0  0  0  0  0  0  0  0  0  0
   20.0676   20.2859   26.5026 H   0  0  0  0  0  0  0  0  0  0  0  0
   18.5881   19.3102   26.4531 H   0  0  0  0  0  0  0  0  0  0  0  0
   20.0901   18.5768   27.7644 N   0  3  0  0  0  0  0  0  0  0  0  0
   19.7359   19.0720   28.5901 H   0  0  0  0  0  0  0  0  0  0  0  0
   21.1095   18.5250   27.8622 H   0  0  0  0  0  0  0  0  0  0  0  0
   19.7328   17.6172   27.8161 H   0  0  0  0  0  0  0  0  0  0  0  0
  1  2  1  0  0  0  0
  1  3  1  0  0  0  0
  1  4  1  0  0  0  0
  1  5  1  0  0  0  0
  5  6  1  0  0  0  0
  5  7  1  0  0  0  0
  5  8  1  0  0  0  0
  8  9  1  0  0  0  0
  8 10  1  0  0  0  0
  8 11  1  0  0  0  0
 11 12  1  0  0  0  0
 11 13  1  0  0  0  0
 11 14  1  0  0  0  0
 14 15  1  0  0  0  0
 14 16  1  0  0  0  0
 14 17  1  0  0  0  0
 17 18  1  0  0  0  0
 17 19  1  0  0  0  0
 17 20  1  0  0  0  0
 20 21  1  0  0  0  0
 20 22  1  0  0  0  0
 20 23  1  0  0  0  0
 23 24  1  0  0  0  0
 23 25  1  0  0  0  0
 23 26  1  0  0  0  0
M  END
> <VM2 Rank>
1

> <Conf_Id>
316

> <Probability>
7.45

> <Sum Probability>
7.45

> <Delta G>
0.000

> <G>
48.261

> <E>
15.909

> <-TS>
32.352

> <U+W>
-5.553

> <U>
47.192

> <W>
-52.744

> <W(PB)>
-55.135

> <W(SA)>
2.391

> <Valence>
2.156

> <Coulomb>
44.449

> <VdW>
0.587

> <VdW6>
-5.761

> <VdW12>
6.348

> <Bond>
0.129

> <Angle>
0.393

> <Pdih>
1.634

> <Idih>
0.000

> <Tether>
0.000

$$$$
VeraChem MOL file


 26 25  0  0  0  0  0  0  0  0999 V2000     
   20.1408   19.6499   19.0008 C   0  0  0  0  0  0  0  0  0  0  0  0
   19.1347   20.0853   18.9420 H   0  0  0  0  0  0  0  0  0  0  0  0
   20.8621   20.4696   19.1149 H   0  0  0  0  0  0  0  0  0  0  0  0
   20.3477   19.1494   18.0460 H   0  0  0  0  0  0  0  0  0  0  0  0
   20.2456   18.6516   20.1733 C   0  0  0  0  0  0  0  0  0  0  0  0
   21.2510   18.2079   20.1855 H   0  0  0  0  0  0  0  0  0  0  0  0
   19.5370   17.8267   20.0140 H   0  0  0  0  0  0  0  0  0  0  0  0
   19.9586   19.3310   21.5306 C   0  0  0  0  0  0  0  0  0  0  0  0
   20.6678   20.1562   21.6841 H   0  0  0  0  0  0  0  0  0  0  0  0
   18.9536   19.7749   21.5127 H   0  0  0  0  0  0  0  0  0  0  0  0
   20.0625   18.3343   22.7072 C   0  0  0  0  0  0  0  0  0  0  0  0
   21.0678   17.8909   22.7245 H   0  0  0  0  0  0  0  0  0  0  0  0
   19.3536   17.5091   22.5519 H   0  0  0  0  0  0  0  0  0  0  0  0
   19.7748   19.0142   24.0649 C   0  0  0  0  0  0  0  0  0  0  0  0
   20.4826   19.8408   24.2124 H   0  0  0  0  0  0  0  0  0  0  0  0
   18.7683   19.4551   24.0484 H   0  0  0  0  0  0  0  0  0  0  0  0
   19.8801   18.0151   25.2413 C   0  0  0  0  0  0  0  0  0  0  0  0
   20.8922   17.5914   25.2861 H   0  0  0  0  0  0  0  0  0  0  0  0
   19.1959   17.1741   25.0665 H   0  0  0  0  0  0  0  0  0  0  0  0
   19.5295   18.6544   26.5987 C   0  0  0  0  0  0  0  0  0  0  0  0
   18.5244   19.0826   26.5554 H   0  0  0  0  0  0  0  0  0  0  0  0
   19.5390   17.8848   27.3753 H   0  0  0  0  0  0  0  0  0  0  0  0
   20.4891   19.7484   27.0243 N   0  3  0  0  0  0  0  0  0  0  0  0
   20.2355   20.1437   27.9363 H   0  0  0  0  0  0  0  0  0  0  0  0
   20.5021   20.5238   26.3545 H   0  0  0  0  0  0  0  0  0  0  0  0
   21.4504   19.4014   27.1054 H   0  0  0  0  0  0  0  0  0  0  0  0
  1  2  1  0  0  0  0
  1  3  1  0  0  0  0
  1  4  1  0  0  0  0
  1  5  1  0  0  0  0
  5  6  1  0  0  0  0
  5  7  1  0  0  0  0
  5  8  1  0  0  0  0
  8  9  1  0  0  0  0
  8 10  1  0  0  0  0
  8 11  1  0  0  0  0
 11 12  1  0  0  0  0
 11 13  1  0  0  0  0
 11 14  1  0  0  0  0
 14 15  1  0  0  0  0
 14 16  1  0  0  0  0
 14 17  1  0  0  0  0
 17 18  1  0  0  0  0
 17 19  1  0  0  0  0
 17 20  1  0  0  0  0
 20 21  1  0  0  0  0
 20 22  1  0  0  0  0
 20 23  1  0  0  0  0
 23 24  1  0  0  0  0
 23 25  1  0  0  0  0
 23 26  1  0  0  0  0
M  END
> <VM2 Rank>
2

> <Conf_Id>
307

> <Probability>
4.91

> <Sum Probability>
12.36

> <Delta G>
0.248

> <G>
48.509

> <E>
16.054

> <-TS>
32.455

> <U+W>
-5.408

> <U>
47.845

> <W>
-53.253

> <W(PB)>
-55.604

> <W(SA)>
2.351

> <Valence>
2.258

> <Coulomb>
44.894

> <VdW>
0.694

> <VdW6>
-6.285

> <VdW12>
6.979

> <Bond>
0.149

> <Angle>
0.434

> <Pdih>
1.675

> <Idih>
0.000

> <Tether>
0.000

$$$$
VeraChem MOL file


 26 25  0  0  0  0  0  0  0  0999 V2000     
   19.4926   19.2224   18.9792 C   0  0  0  0  0  0  0  0  0  0  0  0
   18.4512   18.8792   19.0342 H   0  0  0  0  0  0  0  0  0  0  0  0
   19.4901   20.3199   18.9540 H   0  0  0  0  0  0  0  0  0  0  0  0
   19.9156   18.8645   18.0315 H   0  0  0  0  0  0  0  0  0  0  0  0
   20.3139   18.6968   20.1755 C   0  0  0  0  0  0  0  0  0  0  0  0
   21.3572   19.0276   20.0749 H   0  0  0  0  0  0  0  0  0  0  0  0
   20.3264   17.5980   20.1546 H   0  0  0  0  0  0  0  0  0  0  0  0
   19.7392   19.1863   21.5233 C   0  0  0  0  0  0  0  0  0  0  0  0
   19.7267   20.2849   21.5386 H   0  0  0  0  0  0  0  0  0  0  0  0
   18.6958   18.8552   21.6181 H   0  0  0  0  0  0  0  0  0  0  0  0
   20.5592   18.6620   22.7237 C   0  0  0  0  0  0  0  0  0  0  0  0
   21.6027   18.9927   22.6271 H   0  0  0  0  0  0  0  0  0  0  0  0
   20.5711   17.5633   22.7079 H   0  0  0  0  0  0  0  0  0  0  0  0
   19.9844   19.1524   24.0719 C   0  0  0  0  0  0  0  0  0  0  0  0
   19.9752   20.2512   24.0887 H   0  0  0  0  0  0  0  0  0  0  0  0
   18.9404   18.8234   24.1609 H   0  0  0  0  0  0  0  0  0  0  0  0
   20.8062   18.6259   25.2722 C   0  0  0  0  0  0  0  0  0  0  0  0
   21.8554   18.9283   25.1552 H   0  0  0  0  0  0  0  0  0  0  0  0
   20.7959   17.5278   25.2829 H   0  0  0  0  0  0  0  0  0  0  0  0
   20.2934   19.1583   26.6242 C   0  0  0  0  0  0  0  0  0  0  0  0
   20.9606   18.8225   27.4228 H   0  0  0  0  0  0  0  0  0  0  0  0
   20.2967   20.2516   26.6145 H   0  0  0  0  0  0  0  0  0  0  0  0
   18.8920   18.6950   26.9710 N   0  3  0  0  0  0  0  0  0  0  0  0
   18.8296   17.6728   27.0179 H   0  0  0  0  0  0  0  0  0  0  0  0
   18.2058   19.0092   26.2779 H   0  0  0  0  0  0  0  0  0  0  0  0
   18.5862   19.0558   27.8813 H   0  0  0  0  0  0  0  0  0  0  0  0
  1  2  1  0  0  0  0
  1  3  1  0  0  0  0
  1  4  1  0  0  0  0
  1  5  1  0  0  0  0
  5  6  1  0  0  0  0
  5  7  1  0  0  0  0
  5  8  1  0  0  0  0
  8  9  1  0  0  0  0
  8 10  1  0  0  0  0
  8 11  1  0  0  0  0
 11 12  1  0  0  0  0
 11 13  1  0  0  0  0
 11 14  1  0  0  0  0
 14 15  1  0  0  0  0
 14 16  1  0  0  0  0
 14 17  1  0  0  0  0
 17 18  1  0  0  0  0
 17 19  1  0  0  0  0
 17 20  1  0  0  0  0
 20 21  1  0  0  0  0
 20 22  1  0  0  0  0
 20 23  1  0  0  0  0
 23 24  1  0  0  0  0
 23 25  1  0  0  0  0
 23 26  1  0  0  0  0
M  END
> <VM2 Rank>
3

> <Conf_Id>
1319

> <Probability>
4.78

> <Sum Probability>
17.14

> <Delta G>
0.265

> <G>
48.526

> <E>
16.071

> <-TS>
32.455

> <U+W>
-5.391

> <U>
47.845

> <W>
-53.236

> <W(PB)>
-55.585

> <W(SA)>
2.349

> <Valence>
2.258

> <Coulomb>
44.893

> <VdW>
0.694

> <VdW6>
-6.285

> <VdW12>
6.979

> <Bond>
0.149

> <Angle>
0.434

> <Pdih>
1.675

> <Idih>
0.000

> <Tether>
0.000

$$$$
VeraChem MOL file


 26 25  0  0  0  0  0  0  0  0999 V2000     
   19.7687   18.8533   18.9897 C   0  0  0  0  0  0  0  0  0  0  0  0
   20.5475   19.5749   18.7103 H   0  0  0  0  0  0  0  0  0  0  0  0
   19.7778   18.0439   18.2482 H   0  0  0  0  0  0  0  0  0  0  0  0
   18.7959   19.3581   18.9257 H   0  0  0  0  0  0  0  0  0  0  0  0
   20.0121   18.2958   20.4081 C   0  0  0  0  0  0  0  0  0  0  0  0
   20.9759   17.7680   20.4320 H   0  0  0  0  0  0  0  0  0  0  0  0
   19.2379   17.5527   20.6455 H   0  0  0  0  0  0  0  0  0  0  0  0
   20.0042   19.4157   21.4722 C   0  0  0  0  0  0  0  0  0  0  0  0
   20.7778   20.1571   21.2287 H   0  0  0  0  0  0  0  0  0  0  0  0
   19.0398   19.9415   21.4433 H   0  0  0  0  0  0  0  0  0  0  0  0
   20.2481   18.8614   22.8940 C   0  0  0  0  0  0  0  0  0  0  0  0
   21.2141   18.3383   22.9222 H   0  0  0  0  0  0  0  0  0  0  0  0
   19.4755   18.1167   23.1278 H   0  0  0  0  0  0  0  0  0  0  0  0
   20.2381   19.9853   23.9578 C   0  0  0  0  0  0  0  0  0  0  0  0
   20.9812   20.7474   23.6851 H   0  0  0  0  0  0  0  0  0  0  0  0
   19.2615   20.4892   23.9559 H   0  0  0  0  0  0  0  0  0  0  0  0
   20.5520   19.4747   25.3837 C   0  0  0  0  0  0  0  0  0  0  0  0
   20.6144   20.3343   26.0643 H   0  0  0  0  0  0  0  0  0  0  0  0
   21.5388   18.9930   25.3943 H   0  0  0  0  0  0  0  0  0  0  0  0
   19.4901   18.4916   25.9111 C   0  0  0  0  0  0  0  0  0  0  0  0
   18.5077   18.9714   25.9018 H   0  0  0  0  0  0  0  0  0  0  0  0
   19.4490   17.6099   25.2665 H   0  0  0  0  0  0  0  0  0  0  0  0
   19.7676   18.0213   27.3243 N   0  3  0  0  0  0  0  0  0  0  0  0
   19.7914   18.8016   27.9890 H   0  0  0  0  0  0  0  0  0  0  0  0
   20.6682   17.5365   27.3958 H   0  0  0  0  0  0  0  0  0  0  0  0
   19.0496   17.3682   27.6565 H   0  0  0  0  0  0  0  0  0  0  0  0
  1  2  1  0  0  0  0
  1  3  1  0  0  0  0
  1  4  1  0  0  0  0
  1  5  1  0  0  0  0
  5  6  1  0  0  0  0
  5  7  1  0  0  0  0
  5  8  1  0  0  0  0
  8  9  1  0  0  0  0
  8 10  1  0  0  0  0
  8 11  1  0  0  0  0
 11 12  1  0  0  0  0
 11 13  1  0  0  0  0
 11 14  1  0  0  0  0
 14 15  1  0  0  0  0
 14 16  1  0  0  0  0
 14 17  1  0  0  0  0
 17 18  1  0  0  0  0
 17 19  1  0  0  0  0
 17 20  1  0  0  0  0
 20 21  1  0  0  0  0
 20 22  1  0  0  0  0
 20 23  1  0  0  0  0
 23 24  1  0  0  0  0
 23 25  1  0  0  0  0
 23 26  1  0  0  0  0
M  END
> <VM2 Rank>
4

> <Conf_Id>
1012

> <Probability>
3.39

> <Sum Probability>
20.53

> <Delta G>
0.469

> <G>
48.731

> <E>
16.280

> <-TS>
32.451

> <U+W>
-5.182

> <U>
48.002

> <W>
-53.184

> <W(PB)>
-55.534

> <W(SA)>
2.350

> <Valence>
2.459

> <Coulomb>
44.901

> <VdW>
0.643

> <VdW6>
-6.362

> <VdW12>
7.005

> <Bond>
0.151

> <Angle>
0.519

> <Pdih>
1.789

> <Idih>
0.000

> <Tether>
0.000

$$$$
VeraChem MOL file


 26 25  0  0  0  0  0  0  0  0999 V2000     
   20.3710   19.2510   19.0099 C   0  0  0  0  0  0  0  0  0  0  0  0
   20.2931   20.3455   18.9761 H   0  0  0  0  0  0  0  0  0  0  0  0
   21.1452   18.9461   18.2939 H   0  0  0  0  0  0  0  0  0  0  0  0
   19.4151   18.8296   18.6724 H   0  0  0  0  0  0  0  0  0  0  0  0
   20.7212   18.7634   20.4317 C   0  0  0  0  0  0  0  0  0  0  0  0
   21.6969   19.1736   20.7277 H   0  0  0  0  0  0  0  0  0  0  0  0
   20.8257   17.6693   20.4265 H   0  0  0  0  0  0  0  0  0  0  0  0
   19.6464   19.1797   21.4603 C   0  0  0  0  0  0  0  0  0  0  0  0
   19.5440   20.2738   21.4604 H   0  0  0  0  0  0  0  0  0  0  0  0
   18.6728   18.7695   21.1584 H   0  0  0  0  0  0  0  0  0  0  0  0
   19.9935   18.6931   22.8854 C   0  0  0  0  0  0  0  0  0  0  0  0
   20.9700   19.1017   23.1778 H   0  0  0  0  0  0  0  0  0  0  0  0
   20.0931   17.5988   22.8844 H   0  0  0  0  0  0  0  0  0  0  0  0
   18.9156   19.1127   23.9136 C   0  0  0  0  0  0  0  0  0  0  0  0
   18.8363   20.2084   23.9416 H   0  0  0  0  0  0  0  0  0  0  0  0
   17.9365   18.7388   23.5834 H   0  0  0  0  0  0  0  0  0  0  0  0
   19.1952   18.5794   25.3384 C   0  0  0  0  0  0  0  0  0  0  0  0
   19.2500   17.4828   25.3179 H   0  0  0  0  0  0  0  0  0  0  0  0
   18.3494   18.8398   25.9886 H   0  0  0  0  0  0  0  0  0  0  0  0
   20.4904   19.1515   25.9445 C   0  0  0  0  0  0  0  0  0  0  0  0
   21.3465   18.8615   25.3300 H   0  0  0  0  0  0  0  0  0  0  0  0
   20.4356   20.2433   25.9660 H   0  0  0  0  0  0  0  0  0  0  0  0
   20.7477   18.6682   27.3572 N   0  3  0  0  0  0  0  0  0  0  0  0
   20.8363   17.6477   27.4018 H   0  0  0  0  0  0  0  0  0  0  0  0
   19.9906   18.9335   27.9956 H   0  0  0  0  0  0  0  0  0  0  0  0
   21.6139   19.0603   27.7423 H   0  0  0  0  0  0  0  0  0  0  0  0
  1  2  1  0  0  0  0
  1  3  1  0  0  0  0
  1  4  1  0  0  0  0
  1  5  1  0  0  0  0
  5  6  1  0  0  0  0
  5  7  1  0  0  0  0
  5  8  1  0  0  0  0
  8  9  1  0  0  0  0
  8 10  1  0  0  0  0
  8 11  1  0  0  0  0
 11 12  1  0  0  0  0
 11 13  1  0  0  0  0
 11 14  1  0  0  0  0
 14 15  1  0  0  0  0
 14 16  1  0  0  0  0
 14 17  1  0  0  0  0
 17 18  1  0  0  0  0
 17 19  1  0  0  0  0
 17 20  1  0  0  0  0
 20 21  1  0  0  0  0
 20 22  1  0  0  0  0
 20 23  1  0  0  0  0
 23 24  1  0  0  0  0
 23 25  1  0  0  0  0
 23 26  1  0  0  0  0
M  END
> <VM2 Rank>
5

> <Conf_Id>
904

> <Probability>
3.37

> <Sum Probability>
23.90

> <Delta G>
0.473

> <G>
48.734

> <E>
16.283

> <-TS>
32.451

> <U+W>
-5.179

> <U>
48.002

> <W>
-53.180

> <W(PB)>
-55.522

> <W(SA)>
2.341

> <Valence>
2.459

> <Coulomb>
44.900

> <VdW>
0.643

> <VdW6>
-6.362

> <VdW12>
7.005

> <Bond>
0.151

> <Angle>
0.519

> <Pdih>
1.789

> <Idih>
0.000

> <Tether>
0.000

$$$$
VeraChem MOL file


 26 25  0  0  0  0  0  0  0  0999 V2000     
   19.4450   18.1620   19.5243 C   0  0  0  0  0  0  0  0  0  0  0  0
   19.4108   17.2841   20.1812 H   0  0  0  0  0  0  0  0  0  0  0  0
   18.4490   18.6234   19.5137 H   0  0  0  0  0  0  0  0  0  0  0  0
   19.6605   17.8056   18.5087 H   0  0  0  0  0  0  0  0  0  0  0  0
   20.5209   19.1727   19.9823 C   0  0  0  0  0  0  0  0  0  0  0  0
   20.6011   19.9696   19.2297 H   0  0  0  0  0  0  0  0  0  0  0  0
   21.5023   18.6792   20.0130 H   0  0  0  0  0  0  0  0  0  0  0  0
   20.2153   19.8164   21.3563 C   0  0  0  0  0  0  0  0  0  0  0  0
   20.9649   20.5961   21.5502 H   0  0  0  0  0  0  0  0  0  0  0  0
   19.2429   20.3263   21.3142 H   0  0  0  0  0  0  0  0  0  0  0  0
   20.2242   18.8045   22.5271 C   0  0  0  0  0  0  0  0  0  0  0  0
   21.1785   18.2600   22.5339 H   0  0  0  0  0  0  0  0  0  0  0  0
   19.4318   18.0585   22.3822 H   0  0  0  0  0  0  0  0  0  0  0  0
   20.0184   19.5030   23.8904 C   0  0  0  0  0  0  0  0  0  0  0  0
   20.8117   20.2476   24.0459 H   0  0  0  0  0  0  0  0  0  0  0  0
   19.0657   20.0506   23.8823 H   0  0  0  0  0  0  0  0  0  0  0  0
   20.0230   18.4950   25.0607 C   0  0  0  0  0  0  0  0  0  0  0  0
   20.9757   17.9488   25.0748 H   0  0  0  0  0  0  0  0  0  0  0  0
   19.2276   17.7523   24.9124 H   0  0  0  0  0  0  0  0  0  0  0  0
   19.8180   19.2010   26.4126 C   0  0  0  0  0  0  0  0  0  0  0  0
   20.6170   19.9300   26.5721 H   0  0  0  0  0  0  0  0  0  0  0  0
   18.8627   19.7328   26.4090 H   0  0  0  0  0  0  0  0  0  0  0  0
   19.8163   18.2444   27.5875 N   0  3  0  0  0  0  0  0  0  0  0  0
   19.0681   17.5475   27.5120 H   0  0  0  0  0  0  0  0  0  0  0  0
   19.6785   18.7349   28.4779 H   0  0  0  0  0  0  0  0  0  0  0  0
   20.7005   17.7309   27.6636 H   0  0  0  0  0  0  0  0  0  0  0  0
  1  2  1  0  0  0  0
  1  3  1  0  0  0  0
  1  4  1  0  0  0  0
  1  5  1  0  0  0  0
  5  6  1  0  0  0  0
  5  7  1  0  0  0  0
  5  8  1  0  0  0  0
  8  9  1  0  0  0  0
  8 10  1  0  0  0  0
  8 11  1  0  0  0  0
 11 12  1  0  0  0  0
 11 13  1  0  0  0  0
 11 14  1  0  0  0  0
 14 15  1  0  0  0  0
 14 16  1  0  0  0  0
 14 17  1  0  0  0  0
 17 18  1  0  0  0  0
 17 19  1  0  0  0  0
 17 20  1  0  0  0  0
 20 21  1  0  0  0  0
 20 22  1  0  0  0  0
 20 23  1  0  0  0  0
 23 24  1  0  0  0  0
 23 25  1  0  0  0  0
 23 26  1  0  0  0  0
M  END
> <VM2 Rank>
6

> <Conf_Id>
1286

> <Probability>
2.75

> <Sum Probability>
26.65

> <Delta G>
0.593

> <G>
48.855

> <E>
16.392

> <-TS>
32.463

> <U+W>
-5.070

> <U>
47.845

> <W>
-52.915

> <W(PB)>
-55.277

> <W(SA)>
2.362

> <Valence>
2.661

> <Coulomb>
44.462

> <VdW>
0.723

> <VdW6>
-6.379

> <VdW12>
7.102

> <Bond>
0.164

> <Angle>
0.634

> <Pdih>
1.863

> <Idih>
0.000

> <Tether>
0.000

$$$$
VeraChem MOL file


 26 25  0  0  0  0  0  0  0  0999 V2000     
   21.1081   19.2586   19.5799 C   0  0  0  0  0  0  0  0  0  0  0  0
   21.3980   18.9513   18.5667 H   0  0  0  0  0  0  0  0  0  0  0  0
   21.0763   20.3556   19.6017 H   0  0  0  0  0  0  0  0  0  0  0  0
   21.8973   18.9233   20.2642 H   0  0  0  0  0  0  0  0  0  0  0  0
   19.7359   18.6551   19.9560 C   0  0  0  0  0  0  0  0  0  0  0  0
   19.8020   17.5581   19.9562 H   0  0  0  0  0  0  0  0  0  0  0  0
   19.0075   18.9189   19.1765 H   0  0  0  0  0  0  0  0  0  0  0  0
   19.2008   19.1476   21.3224 C   0  0  0  0  0  0  0  0  0  0  0  0
   19.1165   20.2430   21.3100 H   0  0  0  0  0  0  0  0  0  0  0  0
   18.1813   18.7607   21.4573 H   0  0  0  0  0  0  0  0  0  0  0  0
   20.0723   18.7044   22.5220 C   0  0  0  0  0  0  0  0  0  0  0  0
   21.0754   19.1425   22.4371 H   0  0  0  0  0  0  0  0  0  0  0  0
   20.1973   17.6130   22.5011 H   0  0  0  0  0  0  0  0  0  0  0  0
   19.4480   19.1269   23.8713 C   0  0  0  0  0  0  0  0  0  0  0  0
   19.3196   20.2182   23.8908 H   0  0  0  0  0  0  0  0  0  0  0  0
   18.4454   18.6871   23.9668 H   0  0  0  0  0  0  0  0  0  0  0  0
   20.3176   18.6893   25.0705 C   0  0  0  0  0  0  0  0  0  0  0  0
   21.3190   19.1316   24.9823 H   0  0  0  0  0  0  0  0  0  0  0  0
   20.4445   17.5986   25.0570 H   0  0  0  0  0  0  0  0  0  0  0  0
   19.6868   19.1145   26.4082 C   0  0  0  0  0  0  0  0  0  0  0  0
   19.5737   20.2017   26.4329 H   0  0  0  0  0  0  0  0  0  0  0  0
   18.6960   18.6631   26.5079 H   0  0  0  0  0  0  0  0  0  0  0  0
   20.5114   18.7027   27.6107 N   0  3  0  0  0  0  0  0  0  0  0  0
   21.4489   19.1174   27.5915 H   0  0  0  0  0  0  0  0  0  0  0  0
   20.6322   17.6857   27.6612 H   0  0  0  0  0  0  0  0  0  0  0  0
   20.0736   18.9953   28.4911 H   0  0  0  0  0  0  0  0  0  0  0  0
  1  2  1  0  0  0  0
  1  3  1  0  0  0  0
  1  4  1  0  0  0  0
  1  5  1  0  0  0  0
  5  6  1  0  0  0  0
  5  7  1  0  0  0  0
  5  8  1  0  0  0  0
  8  9  1  0  0  0  0
  8 10  1  0  0  0  0
  8 11  1  0  0  0  0
 11 12  1  0  0  0  0
 11 13  1  0  0  0  0
 11 14  1  0  0  0  0
 14 15  1  0  0  0  0
 14 16  1  0  0  0  0
 14 17  1  0  0  0  0
 17 18  1  0  0  0  0
 17 19  1  0  0  0  0
 17 20  1  0  0  0  0
 20 21  1  0  0  0  0
 20 22  1  0  0  0  0
 20 23  1  0  0  0  0
 23 24  1  0  0  0  0
 23 25  1  0  0  0  0
 23 26  1  0  0  0  0
M  END
> <VM2 Rank>
7

> <Conf_Id>
1287

> <Probability>
2.58

> <Sum Probability>
29.23

> <Delta G>
0.633

> <G>
48.894

> <E>
16.431

> <-TS>
32.463

> <U+W>
-5.031

> <U>
47.845

> <W>
-52.876

> <W(PB)>
-55.227

> <W(SA)>
2.352

> <Valence>
2.661

> <Coulomb>
44.462

> <VdW>
0.723

> <VdW6>
-6.379

> <VdW12>
7.102

> <Bond>
0.164

> <Angle>
0.634

> <Pdih>
1.863

> <Idih>
0.000

> <Tether>
0.000

$$$$
VeraChem MOL file


 26 25  0  0  0  0  0  0  0  0999 V2000     
   20.1861   19.7828   19.1892 C   0  0  0  0  0  0  0  0  0  0  0  0
   20.2153   18.9015   18.5353 H   0  0  0  0  0  0  0  0  0  0  0  0
   19.1864   20.2305   19.1153 H   0  0  0  0  0  0  0  0  0  0  0  0
   20.9111   20.5117   18.8044 H   0  0  0  0  0  0  0  0  0  0  0  0
   20.5170   19.4032   20.6482 C   0  0  0  0  0  0  0  0  0  0  0  0
   20.5183   20.3141   21.2613 H   0  0  0  0  0  0  0  0  0  0  0  0
   21.5326   18.9860   20.6945 H   0  0  0  0  0  0  0  0  0  0  0  0
   19.5051   18.3791   21.2143 C   0  0  0  0  0  0  0  0  0  0  0  0
   18.4972   18.8167   21.2168 H   0  0  0  0  0  0  0  0  0  0  0  0
   19.4621   17.5112   20.5417 H   0  0  0  0  0  0  0  0  0  0  0  0
   19.8579   17.8796   22.6369 C   0  0  0  0  0  0  0  0  0  0  0  0
   20.8597   17.4282   22.6300 H   0  0  0  0  0  0  0  0  0  0  0  0
   19.1592   17.0752   22.9056 H   0  0  0  0  0  0  0  0  0  0  0  0
   19.7906   18.9868   23.7163 C   0  0  0  0  0  0  0  0  0  0  0  0
   20.5374   19.7634   23.5051 H   0  0  0  0  0  0  0  0  0  0  0  0
   18.8056   19.4729   23.6835 H   0  0  0  0  0  0  0  0  0  0  0  0
   20.0384   18.4225   25.1326 C   0  0  0  0  0  0  0  0  0  0  0  0
   21.0227   17.9367   25.1699 H   0  0  0  0  0  0  0  0  0  0  0  0
   19.2897   17.6521   25.3608 H   0  0  0  0  0  0  0  0  0  0  0  0
   19.9736   19.5298   26.1993 C   0  0  0  0  0  0  0  0  0  0  0  0
   20.7287   20.2912   25.9859 H   0  0  0  0  0  0  0  0  0  0  0  0
   18.9894   20.0055   26.1767 H   0  0  0  0  0  0  0  0  0  0  0  0
   20.2123   19.0153   27.6042 N   0  3  0  0  0  0  0  0  0  0  0  0
   20.1647   19.7686   28.2989 H   0  0  0  0  0  0  0  0  0  0  0  0
   21.1352   18.5790   27.6998 H   0  0  0  0  0  0  0  0  0  0  0  0
   19.5168   18.3132   27.8774 H   0  0  0  0  0  0  0  0  0  0  0  0
  1  2  1  0  0  0  0
  1  3  1  0  0  0  0
  1  4  1  0  0  0  0
  1  5  1  0  0  0  0
  5  6  1  0  0  0  0
  5  7  1  0  0  0  0
  5  8  1  0  0  0  0
  8  9  1  0  0  0  0
  8 10  1  0  0  0  0
  8 11  1  0  0  0  0
 11 12  1  0  0  0  0
 11 13  1  0  0  0  0
 11 14  1  0  0  0  0
 14 15  1  0  0  0  0
 14 16  1  0  0  0  0
 14 17  1  0  0  0  0
 17 18  1  0  0  0  0
 17 19  1  0  0  0  0
 17 20  1  0  0  0  0
 20 21  1  0  0  0  0
 20 22  1  0  0  0  0
 20 23  1  0  0  0  0
 23 24  1  0  0  0  0
 23 25  1  0  0  0  0
 23 26  1  0  0  0  0
M  END
> <VM2 Rank>
8

> <Conf_Id>
1256

> <Probability>
2.45

> <Sum Probability>
31.68

> <Delta G>
0.663

> <G>
48.924

> <E>
16.474

> <-TS>
32.451

> <U+W>
-4.988

> <U>
48.035

> <W>
-53.023

> <W(PB)>
-55.380

> <W(SA)>
2.357

> <Valence>
2.701

> <Coulomb>
44.622

> <VdW>
0.712

> <VdW6>
-6.418

> <VdW12>
7.129

> <Bond>
0.168

> <Angle>
0.659

> <Pdih>
1.875

> <Idih>
0.000

> <Tether>
0.000

$$$$
VeraChem MOL file


 26 25  0  0  0  0  0  0  0  0999 V2000     
   20.8451   19.8696   19.4336 C   0  0  0  0  0  0  0  0  0  0  0  0
   21.0194   19.5525   18.3972 H   0  0  0  0  0  0  0  0  0  0  0  0
   20.1891   20.7496   19.4109 H   0  0  0  0  0  0  0  0  0  0  0  0
   21.8102   20.1734   19.8598 H   0  0  0  0  0  0  0  0  0  0  0  0
   20.2113   18.7262   20.2540 C   0  0  0  0  0  0  0  0  0  0  0  0
   20.8742   17.8498   20.2307 H   0  0  0  0  0  0  0  0  0  0  0  0
   19.2660   18.4213   19.7836 H   0  0  0  0  0  0  0  0  0  0  0  0
   19.9545   19.1467   21.7181 C   0  0  0  0  0  0  0  0  0  0  0  0
   20.9042   19.4572   22.1727 H   0  0  0  0  0  0  0  0  0  0  0  0
   19.2900   20.0215   21.7361 H   0  0  0  0  0  0  0  0  0  0  0  0
   19.3226   17.9994   22.5426 C   0  0  0  0  0  0  0  0  0  0  0  0
   20.0092   17.1420   22.5719 H   0  0  0  0  0  0  0  0  0  0  0  0
   18.4149   17.6498   22.0313 H   0  0  0  0  0  0  0  0  0  0  0  0
   18.9436   18.4100   23.9868 C   0  0  0  0  0  0  0  0  0  0  0  0
   18.2433   19.2563   23.9574 H   0  0  0  0  0  0  0  0  0  0  0  0
   18.4004   17.5769   24.4545 H   0  0  0  0  0  0  0  0  0  0  0  0
   20.1622   18.7718   24.8680 C   0  0  0  0  0  0  0  0  0  0  0  0
   20.6724   19.6552   24.4638 H   0  0  0  0  0  0  0  0  0  0  0  0
   20.8854   17.9456   24.8564 H   0  0  0  0  0  0  0  0  0  0  0  0
   19.7381   19.0592   26.3190 C   0  0  0  0  0  0  0  0  0  0  0  0
   19.0301   19.8922   26.3374 H   0  0  0  0  0  0  0  0  0  0  0  0
   19.2445   18.1789   26.7396 H   0  0  0  0  0  0  0  0  0  0  0  0
   20.9036   19.4161   27.2189 N   0  3  0  0  0  0  0  0  0  0  0  0
   21.3952   20.2549   26.8933 H   0  0  0  0  0  0  0  0  0  0  0  0
   21.5949   18.6604   27.2667 H   0  0  0  0  0  0  0  0  0  0  0  0
   20.5990   19.6031   28.1805 H   0  0  0  0  0  0  0  0  0  0  0  0
  1  2  1  0  0  0  0
  1  3  1  0  0  0  0
  1  4  1  0  0  0  0
  1  5  1  0  0  0  0
  5  6  1  0  0  0  0
  5  7  1  0  0  0  0
  5  8  1  0  0  0  0
  8  9  1  0  0  0  0
  8 10  1  0  0  0  0
  8 11  1  0  0  0  0
 11 12  1  0  0  0  0
 11 13  1  0  0  0  0
 11 14  1  0  0  0  0
 14 15  1  0  0  0  0
 14 16  1  0  0  0  0
 14 17  1  0  0  0  0
 17 18  1  0  0  0  0
 17 19  1  0  0  0  0
 17 20  1  0  0  0  0
 20 21  1  0  0  0  0
 20 22  1  0  0  0  0
 20 23  1  0  0  0  0
 23 24  1  0  0  0  0
 23 25  1  0  0  0  0
 23 26  1  0  0  0  0
M  END
> <VM2 Rank>
9

> <Conf_Id>
845

> <Probability>
2.45

> <Sum Probability>
34.13

> <Delta G>
0.663

> <G>
48.925

> <E>
16.472

> <-TS>
32.453

> <U+W>
-4.990

> <U>
48.214

> <W>
-53.204

> <W(PB)>
-55.543

> <W(SA)>
2.340

> <Valence>
2.697

> <Coulomb>
44.818

> <VdW>
0.698

> <VdW6>
-6.437

> <VdW12>
7.135

> <Bond>
0.168

> <Angle>
0.657

> <Pdih>
1.872

> <Idih>
0.000

> <Tether>
0.000

$$$$
VeraChem MOL file


 26 25  0  0  0  0  0  0  0  0999 V2000     
   19.3439   19.2272   19.1611 C   0  0  0  0  0  0  0  0  0  0  0  0
   20.1724   18.8733   18.5339 H   0  0  0  0  0  0  0  0  0  0  0  0
   18.4077   18.8601   18.7208 H   0  0  0  0  0  0  0  0  0  0  0  0
   19.3283   20.3241   19.1201 H   0  0  0  0  0  0  0  0  0  0  0  0
   19.4949   18.7288   20.6141 C   0  0  0  0  0  0  0  0  0  0  0  0
   19.4776   17.6300   20.6257 H   0  0  0  0  0  0  0  0  0  0  0  0
   18.6290   19.0676   21.1982 H   0  0  0  0  0  0  0  0  0  0  0  0
   20.8064   19.2376   21.2577 C   0  0  0  0  0  0  0  0  0  0  0  0
   21.6518   18.9558   20.6149 H   0  0  0  0  0  0  0  0  0  0  0  0
   20.7997   20.3358   21.2938 H   0  0  0  0  0  0  0  0  0  0  0  0
   21.0606   18.6731   22.6771 C   0  0  0  0  0  0  0  0  0  0  0  0
   22.0612   18.9898   23.0025 H   0  0  0  0  0  0  0  0  0  0  0  0
   21.0825   17.5752   22.6375 H   0  0  0  0  0  0  0  0  0  0  0  0
   20.0198   19.1380   23.7240 C   0  0  0  0  0  0  0  0  0  0  0  0
   19.9613   20.2354   23.7221 H   0  0  0  0  0  0  0  0  0  0  0  0
   19.0231   18.7645   23.4544 H   0  0  0  0  0  0  0  0  0  0  0  0
   20.3749   18.6444   25.1439 C   0  0  0  0  0  0  0  0  0  0  0  0
   21.3658   19.0216   25.4302 H   0  0  0  0  0  0  0  0  0  0  0  0
   20.4331   17.5478   25.1502 H   0  0  0  0  0  0  0  0  0  0  0  0
   19.3335   19.1076   26.1779 C   0  0  0  0  0  0  0  0  0  0  0  0
   19.2840   20.1998   26.1867 H   0  0  0  0  0  0  0  0  0  0  0  0
   18.3477   18.7206   25.9063 H   0  0  0  0  0  0  0  0  0  0  0  0
   19.6470   18.6423   27.5852 N   0  3  0  0  0  0  0  0  0  0  0  0
   18.9414   18.9615   28.2581 H   0  0  0  0  0  0  0  0  0  0  0  0
   20.5522   18.9960   27.9120 H   0  0  0  0  0  0  0  0  0  0  0  0
   19.6809   17.6197   27.6511 H   0  0  0  0  0  0  0  0  0  0  0  0
  1  2  1  0  0  0  0
  1  3  1  0  0  0  0
  1  4  1  0  0  0  0
  1  5  1  0  0  0  0
  5  6  1  0  0  0  0
  5  7  1  0  0  0  0
  5  8  1  0  0  0  0
  8  9  1  0  0  0  0
  8 10  1  0  0  0  0
  8 11  1  0  0  0  0
 11 12  1  0  0  0  0
 11 13  1  0  0  0  0
 11 14  1  0  0  0  0
 14 15  1  0  0  0  0
 14 16  1  0  0  0  0
 14 17  1  0  0  0  0
 17 18  1  0  0  0  0
 17 19  1  0  0  0  0
 17 20  1  0  0  0  0
 20 21  1  0  0  0  0
 20 22  1  0  0  0  0
 20 23  1  0  0  0  0
 23 24  1  0  0  0  0
 23 25  1  0  0  0  0
 23 26  1  0  0  0  0
M  END
> <VM2 Rank>
10

> <Conf_Id>
613

> <Probability>
2.42

> <Sum Probability>
36.55

> <Delta G>
0.669

> <G>
48.931

> <E>
16.480

> <-TS>
32.451

> <U+W>
-4.982

> <U>
48.035

> <W>
-53.017

> <W(PB)>
-55.374

> <W(SA)>
2.357

> <Valence>
2.701

> <Coulomb>
44.622

> <VdW>
0.712

> <VdW6>
-6.418

> <VdW12>
7.129

> <Bond>
0.168

> <Angle>
0.659

> <Pdih>
1.875

> <Idih>
0.000

> <Tether>
0.000

$$$$
VeraChem MOL file


 26 25  0  0  0  0  0  0  0  0999 V2000     
   18.9940   18.6487   19.3718 C   0  0  0  0  0  0  0  0  0  0  0  0
   18.4441   19.5987   19.3529 H   0  0  0  0  0  0  0  0  0  0  0  0
   19.2650   18.3957   18.3386 H   0  0  0  0  0  0  0  0  0  0  0  0
   18.3165   17.8688   19.7431 H   0  0  0  0  0  0  0  0  0  0  0  0
   20.2550   18.7551   20.2554 C   0  0  0  0  0  0  0  0  0  0  0  0
   20.9280   19.5178   19.8392 H   0  0  0  0  0  0  0  0  0  0  0  0
   20.8010   17.8016   20.2281 H   0  0  0  0  0  0  0  0  0  0  0  0
   19.9015   19.1117   21.7164 C   0  0  0  0  0  0  0  0  0  0  0  0
   19.3579   20.0662   21.7386 H   0  0  0  0  0  0  0  0  0  0  0  0
   19.2224   18.3476   22.1166 H   0  0  0  0  0  0  0  0  0  0  0  0
   21.1651   19.2146   22.6041 C   0  0  0  0  0  0  0  0  0  0  0  0
   21.8663   19.9262   22.1466 H   0  0  0  0  0  0  0  0  0  0  0  0
   21.6817   18.2451   22.6277 H   0  0  0  0  0  0  0  0  0  0  0  0
   20.8696   19.6802   24.0512 C   0  0  0  0  0  0  0  0  0  0  0  0
   21.8263   19.8362   24.5690 H   0  0  0  0  0  0  0  0  0  0  0  0
   20.3687   20.6580   24.0284 H   0  0  0  0  0  0  0  0  0  0  0  0
   20.0176   18.6766   24.8631 C   0  0  0  0  0  0  0  0  0  0  0  0
   20.4929   17.6868   24.8431 H   0  0  0  0  0  0  0  0  0  0  0  0
   19.0247   18.5688   24.4088 H   0  0  0  0  0  0  0  0  0  0  0  0
   19.8528   19.1348   26.3229 C   0  0  0  0  0  0  0  0  0  0  0  0
   20.8357   19.2278   26.7927 H   0  0  0  0  0  0  0  0  0  0  0  0
   19.3651   20.1130   26.3488 H   0  0  0  0  0  0  0  0  0  0  0  0
   19.0253   18.1774   27.1560 N   0  3  0  0  0  0  0  0  0  0  0  0
   19.4456   17.2430   27.1947 H   0  0  0  0  0  0  0  0  0  0  0  0
   18.0770   18.0668   26.7824 H   0  0  0  0  0  0  0  0  0  0  0  0
   18.9285   18.5013   28.1246 H   0  0  0  0  0  0  0  0  0  0  0  0
  1  2  1  0  0  0  0
  1  3  1  0  0  0  0
  1  4  1  0  0  0  0
  1  5  1  0  0  0  0
  5  6  1  0  0  0  0
  5  7  1  0  0  0  0
  5  8  1  0  0  0  0
  8  9  1  0  0  0  0
  8 10  1  0  0  0  0
  8 11  1  0  0  0  0
 11 12  1  0  0  0  0
 11 13  1  0  0  0  0
 11 14  1  0  0  0  0
 14 15  1  0  0  0  0
 14 16  1  0  0  0  0
 14 17  1  0  0  0  0
 17 18  1  0  0  0  0
 17 19  1  0  0  0  0
 17 20  1  0  0  0  0
 20 21  1  0  0  0  0
 20 22  1  0  0  0  0
 20 23  1  0  0  0  0
 23 24  1  0  0  0  0
 23 25  1  0  0  0  0
 23 26  1  0  0  0  0
M  END
> <VM2 Rank>
11

> <Conf_Id>
781

> <Probability>
2.36

> <Sum Probability>
38.91

> <Delta G>
0.686

> <G>
48.947

> <E>
16.494

> <-TS>
32.453

> <U+W>
-4.968

> <U>
48.214

> <W>
-53.182

> <W(PB)>
-55.530

> <W(SA)>
2.348

> <Valence>
2.697

> <Coulomb>
44.818

> <VdW>
0.698

> <VdW6>
-6.437

> <VdW12>
7.136

> <Bond>
0.168

> <Angle>
0.657

> <Pdih>
1.872

> <Idih>
0.000

> <Tether>
0.000

$$$$
VeraChem MOL file


 26 25  0  0  0  0  0  0  0  0999 V2000     
   20.4628   19.6711   19.5222 C   0  0  0  0  0  0  0  0  0  0  0  0
   21.3152   20.0463   20.1019 H   0  0  0  0  0  0  0  0  0  0  0  0
   20.8047   19.5267   18.4892 H   0  0  0  0  0  0  0  0  0  0  0  0
   19.6848   20.4455   19.5131 H   0  0  0  0  0  0  0  0  0  0  0  0
   19.9205   18.3453   20.1027 C   0  0  0  0  0  0  0  0  0  0  0  0
   20.7248   17.5969   20.1289 H   0  0  0  0  0  0  0  0  0  0  0  0
   19.1537   17.9487   19.4226 H   0  0  0  0  0  0  0  0  0  0  0  0
   19.3018   18.4985   21.5132 C   0  0  0  0  0  0  0  0  0  0  0  0
   18.4849   19.2324   21.4775 H   0  0  0  0  0  0  0  0  0  0  0  0
   18.8448   17.5410   21.7990 H   0  0  0  0  0  0  0  0  0  0  0  0
   20.3281   18.9117   22.5952 C   0  0  0  0  0  0  0  0  0  0  0  0
   20.7423   19.9006   22.3587 H   0  0  0  0  0  0  0  0  0  0  0  0
   21.1687   18.2041   22.5928 H   0  0  0  0  0  0  0  0  0  0  0  0
   19.6921   18.9526   24.0033 C   0  0  0  0  0  0  0  0  0  0  0  0
   18.8511   19.6598   24.0050 H   0  0  0  0  0  0  0  0  0  0  0  0
   19.2781   17.9639   24.2423 H   0  0  0  0  0  0  0  0  0  0  0  0
   20.7173   19.3685   25.0847 C   0  0  0  0  0  0  0  0  0  0  0  0
   21.1525   20.3409   24.8184 H   0  0  0  0  0  0  0  0  0  0  0  0
   21.5477   18.6505   25.1122 H   0  0  0  0  0  0  0  0  0  0  0  0
   20.0897   19.4833   26.4873 C   0  0  0  0  0  0  0  0  0  0  0  0
   20.8381   19.8601   27.1897 H   0  0  0  0  0  0  0  0  0  0  0  0
   19.2584   20.1930   26.4617 H   0  0  0  0  0  0  0  0  0  0  0  0
   19.5688   18.1679   27.0325 N   0  3  0  0  0  0  0  0  0  0  0  0
   19.1697   18.2763   27.9713 H   0  0  0  0  0  0  0  0  0  0  0  0
   20.3109   17.4640   27.1021 H   0  0  0  0  0  0  0  0  0  0  0  0
   18.8330   17.7750   26.4374 H   0  0  0  0  0  0  0  0  0  0  0  0
  1  2  1  0  0  0  0
  1  3  1  0  0  0  0
  1  4  1  0  0  0  0
  1  5  1  0  0  0  0
  5  6  1  0  0  0  0
  5  7  1  0  0  0  0
  5  8  1  0  0  0  0
  8  9  1  0  0  0  0
  8 10  1  0  0  0  0
  8 11  1  0  0  0  0
 11 12  1  0  0  0  0
 11 13  1  0  0  0  0
 11 14  1  0  0  0  0
 14 15  1  0  0  0  0
 14 16  1  0  0  0  0
 14 17  1  0  0  0  0
 17 18  1  0  0  0  0
 17 19  1  0  0  0  0
 17 20  1  0  0  0  0
 20 21  1  0  0  0  0
 20 22  1  0  0  0  0
 20 23  1  0  0  0  0
 23 24  1  0  0  0  0
 23 25  1  0  0  0  0
 23 26  1  0  0  0  0
M  END
> <VM2 Rank>
12

> <Conf_Id>
1042

> <Probability>
1.88

> <Sum Probability>
40.79

> <Delta G>
0.821

> <G>
49.083

> <E>
16.517

> <-TS>
32.566

> <U+W>
-4.945

> <U>
48.461

> <W>
-53.406

> <W(PB)>
-55.711

> <W(SA)>
2.305

> <Valence>
2.762

> <Coulomb>
44.868

> <VdW>
0.832

> <VdW6>
-6.903

> <VdW12>
7.735

> <Bond>
0.184

> <Angle>
0.674

> <Pdih>
1.903

> <Idih>
0.000

> <Tether>
0.000

$$$$
VeraChem MOL file


 26 25  0  0  0  0  0  0  0  0999 V2000     
   20.5614   19.3876   19.2124 C   0  0  0  0  0  0  0  0  0  0  0  0
   20.9776   20.3969   19.3287 H   0  0  0  0  0  0  0  0  0  0  0  0
   21.1499   18.8667   18.4460 H   0  0  0  0  0  0  0  0  0  0  0  0
   19.5328   19.4826   18.8407 H   0  0  0  0  0  0  0  0  0  0  0  0
   20.5995   18.6146   20.5477 C   0  0  0  0  0  0  0  0  0  0  0  0
   21.6427   18.5062   20.8765 H   0  0  0  0  0  0  0  0  0  0  0  0
   20.2089   17.5991   20.3924 H   0  0  0  0  0  0  0  0  0  0  0  0
   19.7781   19.3271   21.6449 C   0  0  0  0  0  0  0  0  0  0  0  0
   20.1708   20.3423   21.7952 H   0  0  0  0  0  0  0  0  0  0  0  0
   18.7371   19.4355   21.3103 H   0  0  0  0  0  0  0  0  0  0  0  0
   19.8136   18.5557   22.9836 C   0  0  0  0  0  0  0  0  0  0  0  0
   20.8569   18.4448   23.3076 H   0  0  0  0  0  0  0  0  0  0  0  0
   19.4173   17.5421   22.8325 H   0  0  0  0  0  0  0  0  0  0  0  0
   18.9916   19.2729   24.0813 C   0  0  0  0  0  0  0  0  0  0  0  0
   19.3991   20.2780   24.2536 H   0  0  0  0  0  0  0  0  0  0  0  0
   17.9630   19.4183   23.7234 H   0  0  0  0  0  0  0  0  0  0  0  0
   18.9419   18.4881   25.4163 C   0  0  0  0  0  0  0  0  0  0  0  0
   18.4528   17.5193   25.2484 H   0  0  0  0  0  0  0  0  0  0  0  0
   18.3097   19.0298   26.1323 H   0  0  0  0  0  0  0  0  0  0  0  0
   20.3252   18.2401   26.0515 C   0  0  0  0  0  0  0  0  0  0  0  0
   20.2036   17.6607   26.9707 H   0  0  0  0  0  0  0  0  0  0  0  0
   20.9489   17.6610   25.3658 H   0  0  0  0  0  0  0  0  0  0  0  0
   21.0697   19.5128   26.4033 N   0  3  0  0  0  0  0  0  0  0  0  0
   21.2433   20.0898   25.5745 H   0  0  0  0  0  0  0  0  0  0  0  0
   21.9813   19.3156   26.8303 H   0  0  0  0  0  0  0  0  0  0  0  0
   20.5449   20.0885   27.0697 H   0  0  0  0  0  0  0  0  0  0  0  0
  1  2  1  0  0  0  0
  1  3  1  0  0  0  0
  1  4  1  0  0  0  0
  1  5  1  0  0  0  0
  5  6  1  0  0  0  0
  5  7  1  0  0  0  0
  5  8  1  0  0  0  0
  8  9  1  0  0  0  0
  8 10  1  0  0  0  0
  8 11  1  0  0  0  0
 11 12  1  0  0  0  0
 11 13  1  0  0  0  0
 11 14  1  0  0  0  0
 14 15  1  0  0  0  0
 14 16  1  0  0  0  0
 14 17  1  0  0  0  0
 17 18  1  0  0  0  0
 17 19  1  0  0  0  0
 17 20  1  0  0  0  0
 20 21  1  0  0  0  0
 20 22  1  0  0  0  0
 20 23  1  0  0  0  0
 23 24  1  0  0  0  0
 23 25  1  0  0  0  0
 23 26  1  0  0  0  0
M  END
> <VM2 Rank>
13

> <Conf_Id>
234

> <Probability>
1.82

> <Sum Probability>
42.60

> <Delta G>
0.841

> <G>
49.102

> <E>
16.465

> <-TS>
32.638

> <U+W>
-4.997

> <U>
48.668

> <W>
-53.665

> <W(PB)>
-55.974

> <W(SA)>
2.309

> <Valence>
2.544

> <Coulomb>
45.478

> <VdW>
0.646

> <VdW6>
-7.095

> <VdW12>
7.741

> <Bond>
0.176

> <Angle>
0.630

> <Pdih>
1.738

> <Idih>
0.000

> <Tether>
0.000

$$$$
VeraChem MOL file


 26 25  0  0  0  0  0  0  0  0999 V2000     
   19.4649   18.1896   19.6037 C   0  0  0  0  0  0  0  0  0  0  0  0
   19.7243   17.2825   20.1634 H   0  0  0  0  0  0  0  0  0  0  0  0
   18.3891   18.3725   19.7234 H   0  0  0  0  0  0  0  0  0  0  0  0
   19.6548   17.9871   18.5416 H   0  0  0  0  0  0  0  0  0  0  0  0
   20.2917   19.4060   20.0785 C   0  0  0  0  0  0  0  0  0  0  0  0
   20.0870   20.2552   19.4116 H   0  0  0  0  0  0  0  0  0  0  0  0
   21.3638   19.1867   19.9766 H   0  0  0  0  0  0  0  0  0  0  0  0
   19.9805   19.8314   21.5338 C   0  0  0  0  0  0  0  0  0  0  0  0
   20.5243   20.7616   21.7488 H   0  0  0  0  0  0  0  0  0  0  0  0
   18.9118   20.0698   21.6254 H   0  0  0  0  0  0  0  0  0  0  0  0
   20.3695   18.7641   22.5848 C   0  0  0  0  0  0  0  0  0  0  0  0
   21.4256   18.4901   22.4552 H   0  0  0  0  0  0  0  0  0  0  0  0
   19.7807   17.8511   22.4259 H   0  0  0  0  0  0  0  0  0  0  0  0
   20.1400   19.2694   24.0273 C   0  0  0  0  0  0  0  0  0  0  0  0
   20.7335   20.1786   24.1968 H   0  0  0  0  0  0  0  0  0  0  0  0
   19.0851   19.5498   24.1481 H   0  0  0  0  0  0  0  0  0  0  0  0
   20.5243   18.2009   25.0780 C   0  0  0  0  0  0  0  0  0  0  0  0
   21.5690   17.8994   24.9247 H   0  0  0  0  0  0  0  0  0  0  0  0
   19.9141   17.2986   24.9382 H   0  0  0  0  0  0  0  0  0  0  0  0
   20.3703   18.7067   26.5253 C   0  0  0  0  0  0  0  0  0  0  0  0
   20.7342   17.9423   27.2173 H   0  0  0  0  0  0  0  0  0  0  0  0
   20.9722   19.6085   26.6661 H   0  0  0  0  0  0  0  0  0  0  0  0
   18.9399   19.0310   26.9097 N   0  3  0  0  0  0  0  0  0  0  0  0
   18.3270   18.2141   26.8199 H   0  0  0  0  0  0  0  0  0  0  0  0
   18.5469   19.7713   26.3203 H   0  0  0  0  0  0  0  0  0  0  0  0
   18.8704   19.3523   27.8814 H   0  0  0  0  0  0  0  0  0  0  0  0
  1  2  1  0  0  0  0
  1  3  1  0  0  0  0
  1  4  1  0  0  0  0
  1  5  1  0  0  0  0
  5  6  1  0  0  0  0
  5  7  1  0  0  0  0
  5  8  1  0  0  0  0
  8  9  1  0  0  0  0
  8 10  1  0  0  0  0
  8 11  1  0  0  0  0
 11 12  1  0  0  0  0
 11 13  1  0  0  0  0
 11 14  1  0  0  0  0
 14 15  1  0  0  0  0
 14 16  1  0  0  0  0
 14 17  1  0  0  0  0
 17 18  1  0  0  0  0
 17 19  1  0  0  0  0
 17 20  1  0  0  0  0
 20 21  1  0  0  0  0
 20 22  1  0  0  0  0
 20 23  1  0  0  0  0
 23 24  1  0  0  0  0
 23 25  1  0  0  0  0
 23 26  1  0  0  0  0
M  END
> <VM2 Rank>
14

> <Conf_Id>
998

> <Probability>
1.76

> <Sum Probability>
44.36

> <Delta G>
0.861

> <G>
49.122

> <E>
16.556

> <-TS>
32.566

> <U+W>
-4.906

> <U>
48.485

> <W>
-53.391

> <W(PB)>
-55.716

> <W(SA)>
2.324

> <Valence>
2.763

> <Coulomb>
44.894

> <VdW>
0.828

> <VdW6>
-6.904

> <VdW12>
7.733

> <Bond>
0.184

> <Angle>
0.674

> <Pdih>
1.904

> <Idih>
0.000

> <Tether>
0.000

$$$$
VeraChem MOL file


 26 25  0  0  0  0  0  0  0  0999 V2000     
   21.0710   19.2502   19.6574 C   0  0  0  0  0  0  0  0  0  0  0  0
   21.2321   19.0287   18.5944 H   0  0  0  0  0  0  0  0  0  0  0  0
   21.3186   20.3070   19.8213 H   0  0  0  0  0  0  0  0  0  0  0  0
   21.7769   18.6380   20.2321 H   0  0  0  0  0  0  0  0  0  0  0  0
   19.6073   18.9540   20.0556 C   0  0  0  0  0  0  0  0  0  0  0  0
   19.3937   17.8858   19.9107 H   0  0  0  0  0  0  0  0  0  0  0  0
   18.9381   19.4965   19.3732 H   0  0  0  0  0  0  0  0  0  0  0  0
   19.2706   19.3626   21.5100 C   0  0  0  0  0  0  0  0  0  0  0  0
   19.4657   20.4355   21.6440 H   0  0  0  0  0  0  0  0  0  0  0  0
   18.1927   19.2220   21.6708 H   0  0  0  0  0  0  0  0  0  0  0  0
   20.0500   18.5531   22.5741 C   0  0  0  0  0  0  0  0  0  0  0  0
   21.1270   18.7400   22.4710 H   0  0  0  0  0  0  0  0  0  0  0  0
   19.8942   17.4789   22.4040 H   0  0  0  0  0  0  0  0  0  0  0  0
   19.6084   18.9183   24.0095 C   0  0  0  0  0  0  0  0  0  0  0  0
   19.7582   19.9943   24.1706 H   0  0  0  0  0  0  0  0  0  0  0  0
   18.5326   18.7252   24.1232 H   0  0  0  0  0  0  0  0  0  0  0  0
   20.3910   18.1129   25.0736 C   0  0  0  0  0  0  0  0  0  0  0  0
   21.4656   18.3231   24.9900 H   0  0  0  0  0  0  0  0  0  0  0  0
   20.2659   17.0389   24.8813 H   0  0  0  0  0  0  0  0  0  0  0  0
   19.9192   18.4089   26.5103 C   0  0  0  0  0  0  0  0  0  0  0  0
   18.8482   18.2060   26.5952 H   0  0  0  0  0  0  0  0  0  0  0  0
   20.4469   17.7526   27.2077 H   0  0  0  0  0  0  0  0  0  0  0  0
   20.1636   19.8390   26.9505 N   0  3  0  0  0  0  0  0  0  0  0  0
   19.6646   20.5093   26.3575 H   0  0  0  0  0  0  0  0  0  0  0  0
   21.1584   20.0838   26.9144 H   0  0  0  0  0  0  0  0  0  0  0  0
   19.8504   19.9994   27.9141 H   0  0  0  0  0  0  0  0  0  0  0  0
  1  2  1  0  0  0  0
  1  3  1  0  0  0  0
  1  4  1  0  0  0  0
  1  5  1  0  0  0  0
  5  6  1  0  0  0  0
  5  7  1  0  0  0  0
  5  8  1  0  0  0  0
  8  9  1  0  0  0  0
  8 10  1  0  0  0  0
  8 11  1  0  0  0  0
 11 12  1  0  0  0  0
 11 13  1  0  0  0  0
 11 14  1  0  0  0  0
 14 15  1  0  0  0  0
 14 16  1  0  0  0  0
 14 17  1  0  0  0  0
 17 18  1  0  0  0  0
 17 19  1  0  0  0  0
 17 20  1  0  0  0  0
 20 21  1  0  0  0  0
 20 22  1  0  0  0  0
 20 23  1  0  0  0  0
 23 24  1  0  0  0  0
 23 25  1  0  0  0  0
 23 26  1  0  0  0  0
M  END
> <VM2 Rank>
15

> <Conf_Id>
1329

> <Probability>
1.74

> <Sum Probability>
46.10

> <Delta G>
0.867

> <G>
49.129

> <E>
16.563

> <-TS>
32.566

> <U+W>
-4.899

> <U>
48.486

> <W>
-53.385

> <W(PB)>
-55.716

> <W(SA)>
2.331

> <Valence>
2.763

> <Coulomb>
44.895

> <VdW>
0.829

> <VdW6>
-6.905

> <VdW12>
7.733

> <Bond>
0.184

> <Angle>
0.674

> <Pdih>
1.904

> <Idih>
0.000

> <Tether>
0.000

$$$$
VeraChem MOL file


 26 25  0  0  0  0  0  0  0  0999 V2000     
   19.5580   18.7265   19.1790 C   0  0  0  0  0  0  0  0  0  0  0  0
   19.8407   18.0040   18.4023 H   0  0  0  0  0  0  0  0  0  0  0  0
   18.4622   18.7390   19.2448 H   0  0  0  0  0  0  0  0  0  0  0  0
   19.8924   19.7200   18.8528 H   0  0  0  0  0  0  0  0  0  0  0  0
   20.1910   18.3454   20.5341 C   0  0  0  0  0  0  0  0  0  0  0  0
   21.2842   18.3080   20.4281 H   0  0  0  0  0  0  0  0  0  0  0  0
   19.8652   17.3346   20.8171 H   0  0  0  0  0  0  0  0  0  0  0  0
   19.8087   19.3473   21.6460 C   0  0  0  0  0  0  0  0  0  0  0  0
   20.1341   20.3563   21.3570 H   0  0  0  0  0  0  0  0  0  0  0  0
   18.7151   19.3828   21.7467 H   0  0  0  0  0  0  0  0  0  0  0  0
   20.4409   18.9691   23.0044 C   0  0  0  0  0  0  0  0  0  0  0  0
   21.5346   18.9375   22.9031 H   0  0  0  0  0  0  0  0  0  0  0  0
   20.1175   17.9573   23.2829 H   0  0  0  0  0  0  0  0  0  0  0  0
   20.0546   19.9733   24.1168 C   0  0  0  0  0  0  0  0  0  0  0  0
   20.3424   20.9862   23.8030 H   0  0  0  0  0  0  0  0  0  0  0  0
   18.9634   19.9908   24.2390 H   0  0  0  0  0  0  0  0  0  0  0  0
   20.7327   19.6680   25.4760 C   0  0  0  0  0  0  0  0  0  0  0  0
   20.4507   20.4404   26.2038 H   0  0  0  0  0  0  0  0  0  0  0  0
   21.8224   19.7395   25.3609 H   0  0  0  0  0  0  0  0  0  0  0  0
   20.3865   18.2805   26.0535 C   0  0  0  0  0  0  0  0  0  0  0  0
   20.7047   17.5001   25.3577 H   0  0  0  0  0  0  0  0  0  0  0  0
   20.9235   18.1350   26.9948 H   0  0  0  0  0  0  0  0  0  0  0  0
   18.9086   18.0889   26.3312 N   0  3  0  0  0  0  0  0  0  0  0  0
   18.3491   18.1827   25.4779 H   0  0  0  0  0  0  0  0  0  0  0  0
   18.5555   18.7778   27.0032 H   0  0  0  0  0  0  0  0  0  0  0  0
   18.7112   17.1609   26.7212 H   0  0  0  0  0  0  0  0  0  0  0  0
  1  2  1  0  0  0  0
  1  3  1  0  0  0  0
  1  4  1  0  0  0  0
  1  5  1  0  0  0  0
  5  6  1  0  0  0  0
  5  7  1  0  0  0  0
  5  8  1  0  0  0  0
  8  9  1  0  0  0  0
  8 10  1  0  0  0  0
  8 11  1  0  0  0  0
 11 12  1  0  0  0  0
 11 13  1  0  0  0  0
 11 14  1  0  0  0  0
 14 15  1  0  0  0  0
 14 16  1  0  0  0  0
 14 17  1  0  0  0  0
 17 18  1  0  0  0  0
 17 19  1  0  0  0  0
 17 20  1  0  0  0  0
 20 21  1  0  0  0  0
 20 22  1  0  0  0  0
 20 23  1  0  0  0  0
 23 24  1  0  0  0  0
 23 25  1  0  0  0  0
 23 26  1  0  0  0  0
M  END
> <VM2 Rank>
16

> <Conf_Id>
473

> <Probability>
1.72

> <Sum Probability>
47.82

> <Delta G>
0.873

> <G>
49.134

> <E>
16.497

> <-TS>
32.638

> <U+W>
-4.965

> <U>
48.667

> <W>
-53.633

> <W(PB)>
-55.950

> <W(SA)>
2.318

> <Valence>
2.544

> <Coulomb>
45.478

> <VdW>
0.646

> <VdW6>
-7.095

> <VdW12>
7.741

> <Bond>
0.176

> <Angle>
0.630

> <Pdih>
1.738

> <Idih>
0.000

> <Tether>
0.000

$$$$
VeraChem MOL file


 26 25  0  0  0  0  0  0  0  0999 V2000     
   19.3224   18.9188   19.4842 C   0  0  0  0  0  0  0  0  0  0  0  0
   19.3690   18.5794   18.4413 H   0  0  0  0  0  0  0  0  0  0  0  0
   18.6163   18.2658   20.0118 H   0  0  0  0  0  0  0  0  0  0  0  0
   18.9169   19.9389   19.4874 H   0  0  0  0  0  0  0  0  0  0  0  0
   20.7262   18.8766   20.1296 C   0  0  0  0  0  0  0  0  0  0  0  0
   21.4231   19.4455   19.4984 H   0  0  0  0  0  0  0  0  0  0  0  0
   21.0967   17.8421   20.1413 H   0  0  0  0  0  0  0  0  0  0  0  0
   20.7627   19.4620   21.5620 C   0  0  0  0  0  0  0  0  0  0  0  0
   21.8083   19.4955   21.8980 H   0  0  0  0  0  0  0  0  0  0  0  0
   20.4112   20.5028   21.5418 H   0  0  0  0  0  0  0  0  0  0  0  0
   19.9297   18.6492   22.5819 C   0  0  0  0  0  0  0  0  0  0  0  0
   20.2494   17.5982   22.5620 H   0  0  0  0  0  0  0  0  0  0  0  0
   18.8697   18.6661   22.2961 H   0  0  0  0  0  0  0  0  0  0  0  0
   20.0765   19.2061   24.0161 C   0  0  0  0  0  0  0  0  0  0  0  0
   21.1361   19.1890   24.3043 H   0  0  0  0  0  0  0  0  0  0  0  0
   19.7574   20.2575   24.0353 H   0  0  0  0  0  0  0  0  0  0  0  0
   19.2414   18.3955   25.0354 C   0  0  0  0  0  0  0  0  0  0  0  0
   19.5731   17.3487   25.0462 H   0  0  0  0  0  0  0  0  0  0  0  0
   18.1897   18.3877   24.7194 H   0  0  0  0  0  0  0  0  0  0  0  0
   19.3174   18.9741   26.4615 C   0  0  0  0  0  0  0  0  0  0  0  0
   18.9935   20.0183   26.4529 H   0  0  0  0  0  0  0  0  0  0  0  0
   18.6446   18.4138   27.1164 H   0  0  0  0  0  0  0  0  0  0  0  0
   20.7047   18.9166   27.0704 N   0  3  0  0  0  0  0  0  0  0  0  0
   21.0563   17.9552   27.1269 H   0  0  0  0  0  0  0  0  0  0  0  0
   20.7184   19.2970   28.0230 H   0  0  0  0  0  0  0  0  0  0  0  0
   21.3824   19.4556   26.5226 H   0  0  0  0  0  0  0  0  0  0  0  0
  1  2  1  0  0  0  0
  1  3  1  0  0  0  0
  1  4  1  0  0  0  0
  1  5  1  0  0  0  0
  5  6  1  0  0  0  0
  5  7  1  0  0  0  0
  5  8  1  0  0  0  0
  8  9  1  0  0  0  0
  8 10  1  0  0  0  0
  8 11  1  0  0  0  0
 11 12  1  0  0  0  0
 11 13  1  0  0  0  0
 11 14  1  0  0  0  0
 14 15  1  0  0  0  0
 14 16  1  0  0  0  0
 14 17  1  0  0  0  0
 17 18  1  0  0  0  0
 17 19  1  0  0  0  0
 17 20  1  0  0  0  0
 20 21  1  0  0  0  0
 20 22  1  0  0  0  0
 20 23  1  0  0  0  0
 23 24  1  0  0  0  0
 23 25  1  0  0  0  0
 23 26  1  0  0  0  0
M  END
> <VM2 Rank>
17

> <Conf_Id>
853

> <Probability>
1.66

> <Sum Probability>
49.49

> <Delta G>
0.894

> <G>
49.155

> <E>
16.589

> <-TS>
32.566

> <U+W>
-4.873

> <U>
48.461

> <W>
-53.334

> <W(PB)>
-55.646

> <W(SA)>
2.313

> <Valence>
2.762

> <Coulomb>
44.868

> <VdW>
0.832

> <VdW6>
-6.903

> <VdW12>
7.735

> <Bond>
0.184

> <Angle>
0.674

> <Pdih>
1.903

> <Idih>
0.000

> <Tether>
0.000

$$$$
VeraChem MOL file


 26 25  0  0  0  0  0  0  0  0999 V2000     
   19.4773   19.8806   19.4237 C   0  0  0  0  0  0  0  0  0  0  0  0
   19.7560   20.9011   19.7173 H   0  0  0  0  0  0  0  0  0  0  0  0
   19.7380   19.7514   18.3652 H   0  0  0  0  0  0  0  0  0  0  0  0
   18.3877   19.7835   19.5167 H   0  0  0  0  0  0  0  0  0  0  0  0
   20.2038   18.8344   20.2954 C   0  0  0  0  0  0  0  0  0  0  0  0
   21.2895   18.9344   20.1563 H   0  0  0  0  0  0  0  0  0  0  0  0
   19.9322   17.8252   19.9554 H   0  0  0  0  0  0  0  0  0  0  0  0
   19.8534   18.9935   21.7916 C   0  0  0  0  0  0  0  0  0  0  0  0
   20.1210   20.0076   22.1158 H   0  0  0  0  0  0  0  0  0  0  0  0
   18.7677   18.8908   21.9258 H   0  0  0  0  0  0  0  0  0  0  0  0
   20.5847   17.9475   22.6670 C   0  0  0  0  0  0  0  0  0  0  0  0
   21.6713   18.0818   22.5753 H   0  0  0  0  0  0  0  0  0  0  0  0
   20.3649   16.9421   22.2818 H   0  0  0  0  0  0  0  0  0  0  0  0
   20.1795   17.9995   24.1606 C   0  0  0  0  0  0  0  0  0  0  0  0
   19.0963   17.8410   24.2478 H   0  0  0  0  0  0  0  0  0  0  0  0
   20.6588   17.1586   24.6809 H   0  0  0  0  0  0  0  0  0  0  0  0
   20.5817   19.3203   24.8632 C   0  0  0  0  0  0  0  0  0  0  0  0
   20.0340   20.1675   24.4316 H   0  0  0  0  0  0  0  0  0  0  0  0
   21.6488   19.5139   24.6914 H   0  0  0  0  0  0  0  0  0  0  0  0
   20.3317   19.2812   26.3831 C   0  0  0  0  0  0  0  0  0  0  0  0
   20.8756   18.4415   26.8241 H   0  0  0  0  0  0  0  0  0  0  0  0
   20.7037   20.2041   26.8362 H   0  0  0  0  0  0  0  0  0  0  0  0
   18.8689   19.1420   26.7564 N   0  3  0  0  0  0  0  0  0  0  0  0
   18.3069   19.9170   26.3896 H   0  0  0  0  0  0  0  0  0  0  0  0
   18.7350   19.1299   27.7734 H   0  0  0  0  0  0  0  0  0  0  0  0
   18.4648   18.2745   26.3902 H   0  0  0  0  0  0  0  0  0  0  0  0
  1  2  1  0  0  0  0
  1  3  1  0  0  0  0
  1  4  1  0  0  0  0
  1  5  1  0  0  0  0
  5  6  1  0  0  0  0
  5  7  1  0  0  0  0
  5  8  1  0  0  0  0
  8  9  1  0  0  0  0
  8 10  1  0  0  0  0
  8 11  1  0  0  0  0
 11 12  1  0  0  0  0
 11 13  1  0  0  0  0
 11 14  1  0  0  0  0
 14 15  1  0  0  0  0
 14 16  1  0  0  0  0
 14 17  1  0  0  0  0
 17 18  1  0  0  0  0
 17 19  1  0  0  0  0
 17 20  1  0  0  0  0
 20 21  1  0  0  0  0
 20 22  1  0  0  0  0
 20 23  1  0  0  0  0
 23 24  1  0  0  0  0
 23 25  1  0  0  0  0
 23 26  1  0  0  0  0
M  END
> <VM2 Rank>
18

> <Conf_Id>
780

> <Probability>
1.63

> <Sum Probability>
51.12

> <Delta G>
0.907

> <G>
49.168

> <E>
16.601

> <-TS>
32.567

> <U+W>
-4.861

> <U>
48.698

> <W>
-53.559

> <W(PB)>
-55.859

> <W(SA)>
2.300

> <Valence>
2.792

> <Coulomb>
45.121

> <VdW>
0.785

> <VdW6>
-6.974

> <VdW12>
7.758

> <Bond>
0.189

> <Angle>
0.672

> <Pdih>
1.931

> <Idih>
0.000

> <Tether>
0.000

$$$$
VeraChem MOL file


 26 25  0  0  0  0  0  0  0  0999 V2000     
   19.5207   19.9091   19.4250 C   0  0  0  0  0  0  0  0  0  0  0  0
   18.4602   20.0456   19.6739 H   0  0  0  0  0  0  0  0  0  0  0  0
   20.0327   20.8691   19.5713 H   0  0  0  0  0  0  0  0  0  0  0  0
   19.5864   19.6511   18.3601 H   0  0  0  0  0  0  0  0  0  0  0  0
   20.1567   18.8032   20.2938 C   0  0  0  0  0  0  0  0  0  0  0  0
   21.2062   18.6661   19.9979 H   0  0  0  0  0  0  0  0  0  0  0  0
   19.6459   17.8493   20.1015 H   0  0  0  0  0  0  0  0  0  0  0  0
   20.0784   19.1421   21.7990 C   0  0  0  0  0  0  0  0  0  0  0  0
   20.5920   20.0951   21.9865 H   0  0  0  0  0  0  0  0  0  0  0  0
   19.0267   19.2853   22.0792 H   0  0  0  0  0  0  0  0  0  0  0  0
   20.7122   18.0318   22.6713 C   0  0  0  0  0  0  0  0  0  0  0  0
   21.7400   17.8501   22.3278 H   0  0  0  0  0  0  0  0  0  0  0  0
   20.1673   17.0890   22.5251 H   0  0  0  0  0  0  0  0  0  0  0  0
   20.7536   18.3788   24.1798 C   0  0  0  0  0  0  0  0  0  0  0  0
   21.3143   17.5916   24.7028 H   0  0  0  0  0  0  0  0  0  0  0  0
   21.3197   19.3090   24.3222 H   0  0  0  0  0  0  0  0  0  0  0  0
   19.3497   18.5072   24.8220 C   0  0  0  0  0  0  0  0  0  0  0  0
   18.7615   17.6083   24.5946 H   0  0  0  0  0  0  0  0  0  0  0  0
   18.8061   19.3572   24.3906 H   0  0  0  0  0  0  0  0  0  0  0  0
   19.4128   18.6746   26.3523 C   0  0  0  0  0  0  0  0  0  0  0  0
   18.3978   18.6822   26.7589 H   0  0  0  0  0  0  0  0  0  0  0  0
   19.9504   17.8307   26.7931 H   0  0  0  0  0  0  0  0  0  0  0  0
   20.0968   19.9522   26.7977 N   0  3  0  0  0  0  0  0  0  0  0  0
   21.0694   19.9932   26.4777 H   0  0  0  0  0  0  0  0  0  0  0  0
   20.1130   20.0390   27.8198 H   0  0  0  0  0  0  0  0  0  0  0  0
   19.6223   20.7850   26.4340 H   0  0  0  0  0  0  0  0  0  0  0  0
  1  2  1  0  0  0  0
  1  3  1  0  0  0  0
  1  4  1  0  0  0  0
  1  5  1  0  0  0  0
  5  6  1  0  0  0  0
  5  7  1  0  0  0  0
  5  8  1  0  0  0  0
  8  9  1  0  0  0  0
  8 10  1  0  0  0  0
  8 11  1  0  0  0  0
 11 12  1  0  0  0  0
 11 13  1  0  0  0  0
 11 14  1  0  0  0  0
 14 15  1  0  0  0  0
 14 16  1  0  0  0  0
 14 17  1  0  0  0  0
 17 18  1  0  0  0  0
 17 19  1  0  0  0  0
 17 20  1  0  0  0  0
 20 21  1  0  0  0  0
 20 22  1  0  0  0  0
 20 23  1  0  0  0  0
 23 24  1  0  0  0  0
 23 25  1  0  0  0  0
 23 26  1  0  0  0  0
M  END
> <VM2 Rank>
19

> <Conf_Id>
831

> <Probability>
1.59

> <Sum Probability>
52.70

> <Delta G>
0.921

> <G>
49.183

> <E>
16.616

> <-TS>
32.567

> <U+W>
-4.846

> <U>
48.698

> <W>
-53.544

> <W(PB)>
-55.868

> <W(SA)>
2.324

> <Valence>
2.792

> <Coulomb>
45.121

> <VdW>
0.785

> <VdW6>
-6.973

> <VdW12>
7.758

> <Bond>
0.189

> <Angle>
0.672

> <Pdih>
1.931

> <Idih>
0.000

> <Tether>
0.000

$$$$
VeraChem MOL file


 26 25  0  0  0  0  0  0  0  0999 V2000     
   19.5018   19.7818   19.3853 C   0  0  0  0  0  0  0  0  0  0  0  0
   20.1442   19.2403   18.6787 H   0  0  0  0  0  0  0  0  0  0  0  0
   18.4991   19.8507   18.9439 H   0  0  0  0  0  0  0  0  0  0  0  0
   19.8941   20.8016   19.4917 H   0  0  0  0  0  0  0  0  0  0  0  0
   19.4482   19.0633   20.7502 C   0  0  0  0  0  0  0  0  0  0  0  0
   19.0250   18.0580   20.6161 H   0  0  0  0  0  0  0  0  0  0  0  0
   18.7658   19.6106   21.4139 H   0  0  0  0  0  0  0  0  0  0  0  0
   20.8507   18.9580   21.3945 C   0  0  0  0  0  0  0  0  0  0  0  0
   21.5357   18.4790   20.6812 H   0  0  0  0  0  0  0  0  0  0  0  0
   21.2511   19.9648   21.5770 H   0  0  0  0  0  0  0  0  0  0  0  0
   20.8686   18.1453   22.7124 C   0  0  0  0  0  0  0  0  0  0  0  0
   21.9130   18.0243   23.0317 H   0  0  0  0  0  0  0  0  0  0  0  0
   20.4844   17.1331   22.5249 H   0  0  0  0  0  0  0  0  0  0  0  0
   20.0652   18.8060   23.8584 C   0  0  0  0  0  0  0  0  0  0  0  0
   20.4156   19.8373   23.9978 H   0  0  0  0  0  0  0  0  0  0  0  0
   19.0026   18.8618   23.5876 H   0  0  0  0  0  0  0  0  0  0  0  0
   20.2065   18.0192   25.1829 C   0  0  0  0  0  0  0  0  0  0  0  0
   21.2601   17.9848   25.4905 H   0  0  0  0  0  0  0  0  0  0  0  0
   19.8926   16.9790   25.0229 H   0  0  0  0  0  0  0  0  0  0  0  0
   19.3576   18.6148   26.3227 C   0  0  0  0  0  0  0  0  0  0  0  0
   18.3084   18.6554   26.0178 H   0  0  0  0  0  0  0  0  0  0  0  0
   19.4319   17.9721   27.2041 H   0  0  0  0  0  0  0  0  0  0  0  0
   19.7824   20.0107   26.7346 N   0  3  0  0  0  0  0  0  0  0  0  0
   19.2066   20.3727   27.5025 H   0  0  0  0  0  0  0  0  0  0  0  0
   19.7019   20.6763   25.9597 H   0  0  0  0  0  0  0  0  0  0  0  0
   20.7562   20.0335   27.0542 H   0  0  0  0  0  0  0  0  0  0  0  0
  1  2  1  0  0  0  0
  1  3  1  0  0  0  0
  1  4  1  0  0  0  0
  1  5  1  0  0  0  0
  5  6  1  0  0  0  0
  5  7  1  0  0  0  0
  5  8  1  0  0  0  0
  8  9  1  0  0  0  0
  8 10  1  0  0  0  0
  8 11  1  0  0  0  0
 11 12  1  0  0  0  0
 11 13  1  0  0  0  0
 11 14  1  0  0  0  0
 14 15  1  0  0  0  0
 14 16  1  0  0  0  0
 14 17  1  0  0  0  0
 17 18  1  0  0  0  0
 17 19  1  0  0  0  0
 17 20  1  0  0  0  0
 20 21  1  0  0  0  0
 20 22  1  0  0  0  0
 20 23  1  0  0  0  0
 23 24  1  0  0  0  0
 23 25  1  0  0  0  0
 23 26  1  0  0  0  0
M  END
> <VM2 Rank>
20

> <Conf_Id>
706

> <Probability>
1.54

> <Sum Probability>
54.25

> <Delta G>
0.939

> <G>
49.200

> <E>
16.644

> <-TS>
32.556

> <U+W>
-4.818

> <U>
48.735

> <W>
-53.553

> <W(PB)>
-55.889

> <W(SA)>
2.336

> <Valence>
2.803

> <Coulomb>
45.123

> <VdW>
0.809

> <VdW6>
-6.953

> <VdW12>
7.761

> <Bond>
0.188

> <Angle>
0.699

> <Pdih>
1.917

> <Idih>
0.000

> <Tether>
0.000

$$$$
VeraChem MOL file


 26 25  0  0  0  0  0  0  0  0999 V2000     
   19.6033   19.8490   19.3888 C   0  0  0  0  0  0  0  0  0  0  0  0
   18.5076   19.8862   19.4456 H   0  0  0  0  0  0  0  0  0  0  0  0
   19.9532   20.8112   18.9926 H   0  0  0  0  0  0  0  0  0  0  0  0
   19.8823   19.0676   18.6700 H   0  0  0  0  0  0  0  0  0  0  0  0
   20.2213   19.5739   20.7761 C   0  0  0  0  0  0  0  0  0  0  0  0
   19.9546   20.3957   21.4537 H   0  0  0  0  0  0  0  0  0  0  0  0
   21.3171   19.5718   20.6927 H   0  0  0  0  0  0  0  0  0  0  0  0
   19.7389   18.2237   21.3573 C   0  0  0  0  0  0  0  0  0  0  0  0
   18.6485   18.2459   21.4899 H   0  0  0  0  0  0  0  0  0  0  0  0
   19.9442   17.4279   20.6280 H   0  0  0  0  0  0  0  0  0  0  0  0
   20.4175   17.8473   22.6973 C   0  0  0  0  0  0  0  0  0  0  0  0
   21.5069   17.8082   22.5591 H   0  0  0  0  0  0  0  0  0  0  0  0
   20.1049   16.8301   22.9712 H   0  0  0  0  0  0  0  0  0  0  0  0
   20.0717   18.8101   23.8586 C   0  0  0  0  0  0  0  0  0  0  0  0
   20.4493   19.8168   23.6360 H   0  0  0  0  0  0  0  0  0  0  0  0
   18.9802   18.8895   23.9496 H   0  0  0  0  0  0  0  0  0  0  0  0
   20.6774   18.3301   25.1987 C   0  0  0  0  0  0  0  0  0  0  0  0
   21.7636   18.2142   25.0856 H   0  0  0  0  0  0  0  0  0  0  0  0
   20.2818   17.3389   25.4578 H   0  0  0  0  0  0  0  0  0  0  0  0
   20.4096   19.3093   26.3579 C   0  0  0  0  0  0  0  0  0  0  0  0
   20.9297   18.9610   27.2544 H   0  0  0  0  0  0  0  0  0  0  0  0
   20.7977   20.2986   26.1013 H   0  0  0  0  0  0  0  0  0  0  0  0
   18.9412   19.4556   26.7062 N   0  3  0  0  0  0  0  0  0  0  0  0
   18.3975   19.8154   25.9157 H   0  0  0  0  0  0  0  0  0  0  0  0
   18.7984   20.1035   27.4886 H   0  0  0  0  0  0  0  0  0  0  0  0
   18.5236   18.5600   26.9791 H   0  0  0  0  0  0  0  0  0  0  0  0
  1  2  1  0  0  0  0
  1  3  1  0  0  0  0
  1  4  1  0  0  0  0
  1  5  1  0  0  0  0
  5  6  1  0  0  0  0
  5  7  1  0  0  0  0
  5  8  1  0  0  0  0
  8  9  1  0  0  0  0
  8 10  1  0  0  0  0
  8 11  1  0  0  0  0
 11 12  1  0  0  0  0
 11 13  1  0  0  0  0
 11 14  1  0  0  0  0
 14 15  1  0  0  0  0
 14 16  1  0  0  0  0
 14 17  1  0  0  0  0
 17 18  1  0  0  0  0
 17 19  1  0  0  0  0
 17 20  1  0  0  0  0
 20 21  1  0  0  0  0
 20 22  1  0  0  0  0
 20 23  1  0  0  0  0
 23 24  1  0  0  0  0
 23 25  1  0  0  0  0
 23 26  1  0  0  0  0
M  END
> <VM2 Rank>
21

> <Conf_Id>
1034

> <Probability>
1.51

> <Sum Probability>
55.76

> <Delta G>
0.951

> <G>
49.213

> <E>
16.656

> <-TS>
32.557

> <U+W>
-4.806

> <U>
48.735

> <W>
-53.541

> <W(PB)>
-55.861

> <W(SA)>
2.320

> <Valence>
2.803

> <Coulomb>
45.123

> <VdW>
0.809

> <VdW6>
-6.953

> <VdW12>
7.762

> <Bond>
0.188

> <Angle>
0.699

> <Pdih>
1.917

> <Idih>
0.000

> <Tether>
0.000

$$$$
VeraChem MOL file


 26 25  0  0  0  0  0  0  0  0999 V2000     
   20.7702   19.7658   19.4727 C   0  0  0  0  0  0  0  0  0  0  0  0
   20.1266   20.6529   19.4089 H   0  0  0  0  0  0  0  0  0  0  0  0
   21.7899   20.0689   19.2017 H   0  0  0  0  0  0  0  0  0  0  0  0
   20.4255   19.0387   18.7260 H   0  0  0  0  0  0  0  0  0  0  0  0
   20.7407   19.1606   20.8923 C   0  0  0  0  0  0  0  0  0  0  0  0
   21.1302   19.9015   21.6028 H   0  0  0  0  0  0  0  0  0  0  0  0
   21.4154   18.2941   20.9327 H   0  0  0  0  0  0  0  0  0  0  0  0
   19.3115   18.7296   21.2985 C   0  0  0  0  0  0  0  0  0  0  0  0
   18.6494   19.6063   21.3104 H   0  0  0  0  0  0  0  0  0  0  0  0
   18.9118   18.0525   20.5309 H   0  0  0  0  0  0  0  0  0  0  0  0
   19.2457   18.0104   22.6683 C   0  0  0  0  0  0  0  0  0  0  0  0
   19.8970   17.1257   22.6508 H   0  0  0  0  0  0  0  0  0  0  0  0
   18.2227   17.6371   22.8150 H   0  0  0  0  0  0  0  0  0  0  0  0
   19.6277   18.9171   23.8631 C   0  0  0  0  0  0  0  0  0  0  0  0
   20.6719   19.2384   23.7640 H   0  0  0  0  0  0  0  0  0  0  0  0
   19.0093   19.8253   23.8468 H   0  0  0  0  0  0  0  0  0  0  0  0
   19.4388   18.1902   25.2157 C   0  0  0  0  0  0  0  0  0  0  0  0
   20.0737   17.2950   25.2537 H   0  0  0  0  0  0  0  0  0  0  0  0
   18.4008   17.8419   25.3001 H   0  0  0  0  0  0  0  0  0  0  0  0
   19.7488   19.0927   26.4256 C   0  0  0  0  0  0  0  0  0  0  0  0
   19.1237   19.9889   26.3862 H   0  0  0  0  0  0  0  0  0  0  0  0
   19.5152   18.5546   27.3484 H   0  0  0  0  0  0  0  0  0  0  0  0
   21.1976   19.5325   26.5047 N   0  3  0  0  0  0  0  0  0  0  0  0
   21.4743   20.0785   25.6830 H   0  0  0  0  0  0  0  0  0  0  0  0
   21.8355   18.7323   26.5665 H   0  0  0  0  0  0  0  0  0  0  0  0
   21.3727   20.1192   27.3278 H   0  0  0  0  0  0  0  0  0  0  0  0
  1  2  1  0  0  0  0
  1  3  1  0  0  0  0
  1  4  1  0  0  0  0
  1  5  1  0  0  0  0
  5  6  1  0  0  0  0
  5  7  1  0  0  0  0
  5  8  1  0  0  0  0
  8  9  1  0  0  0  0
  8 10  1  0  0  0  0
  8 11  1  0  0  0  0
 11 12  1  0  0  0  0
 11 13  1  0  0  0  0
 11 14  1  0  0  0  0
 14 15  1  0  0  0  0
 14 16  1  0  0  0  0
 14 17  1  0  0  0  0
 17 18  1  0  0  0  0
 17 19  1  0  0  0  0
 17 20  1  0  0  0  0
 20 21  1  0  0  0  0
 20 22  1  0  0  0  0
 20 23  1  0  0  0  0
 23 24  1  0  0  0  0
 23 25  1  0  0  0  0
 23 26  1  0  0  0  0
M  END
> <VM2 Rank>
22

> <Conf_Id>
982

> <Probability>
1.50

> <Sum Probability>
57.26

> <Delta G>
0.955

> <G>
49.216

> <E>
16.667

> <-TS>
32.549

> <U+W>
-4.795

> <U>
48.944

> <W>
-53.739

> <W(PB)>
-56.050

> <W(SA)>
2.311

> <Valence>
2.802

> <Coulomb>
45.335

> <VdW>
0.807

> <VdW6>
-6.962

> <VdW12>
7.769

> <Bond>
0.189

> <Angle>
0.696

> <Pdih>
1.917

> <Idih>
0.000

> <Tether>
0.000

$$$$
VeraChem MOL file


 26 25  0  0  0  0  0  0  0  0999 V2000     
   19.3557   19.3204   19.2239 C   0  0  0  0  0  0  0  0  0  0  0  0
   19.4850   20.4106   19.2155 H   0  0  0  0  0  0  0  0  0  0  0  0
   19.5758   18.9472   18.2153 H   0  0  0  0  0  0  0  0  0  0  0  0
   18.3018   19.1028   19.4412 H   0  0  0  0  0  0  0  0  0  0  0  0
   20.2847   18.6596   20.2643 C   0  0  0  0  0  0  0  0  0  0  0  0
   21.3315   18.8658   20.0005 H   0  0  0  0  0  0  0  0  0  0  0  0
   20.1572   17.5686   20.2262 H   0  0  0  0  0  0  0  0  0  0  0  0
   19.9963   19.1685   21.6941 C   0  0  0  0  0  0  0  0  0  0  0  0
   20.1274   20.2589   21.7274 H   0  0  0  0  0  0  0  0  0  0  0  0
   18.9461   18.9651   21.9403 H   0  0  0  0  0  0  0  0  0  0  0  0
   20.9247   18.5030   22.7385 C   0  0  0  0  0  0  0  0  0  0  0  0
   21.9694   18.6485   22.4306 H   0  0  0  0  0  0  0  0  0  0  0  0
   20.7548   17.4175   22.7477 H   0  0  0  0  0  0  0  0  0  0  0  0
   20.7543   19.0670   24.1707 C   0  0  0  0  0  0  0  0  0  0  0  0
   21.5386   18.6320   24.8042 H   0  0  0  0  0  0  0  0  0  0  0  0
   20.9306   20.1515   24.1623 H   0  0  0  0  0  0  0  0  0  0  0  0
   19.3668   18.7687   24.7926 C   0  0  0  0  0  0  0  0  0  0  0  0
   19.1724   17.6880   24.7795 H   0  0  0  0  0  0  0  0  0  0  0  0
   18.5799   19.2373   24.1888 H   0  0  0  0  0  0  0  0  0  0  0  0
   19.2362   19.2968   26.2344 C   0  0  0  0  0  0  0  0  0  0  0  0
   19.4482   20.3693   26.2542 H   0  0  0  0  0  0  0  0  0  0  0  0
   18.2112   19.1456   26.5837 H   0  0  0  0  0  0  0  0  0  0  0  0
   20.1622   18.6150   27.2226 N   0  3  0  0  0  0  0  0  0  0  0  0
   20.0390   18.9796   28.1735 H   0  0  0  0  0  0  0  0  0  0  0  0
   21.1474   18.7495   26.9754 H   0  0  0  0  0  0  0  0  0  0  0  0
   19.9956   17.6044   27.2656 H   0  0  0  0  0  0  0  0  0  0  0  0
  1  2  1  0  0  0  0
  1  3  1  0  0  0  0
  1  4  1  0  0  0  0
  1  5  1  0  0  0  0
  5  6  1  0  0  0  0
  5  7  1  0  0  0  0
  5  8  1  0  0  0  0
  8  9  1  0  0  0  0
  8 10  1  0  0  0  0
  8 11  1  0  0  0  0
 11 12  1  0  0  0  0
 11 13  1  0  0  0  0
 11 14  1  0  0  0  0
 14 15  1  0  0  0  0
 14 16  1  0  0  0  0
 14 17  1  0  0  0  0
 17 18  1  0  0  0  0
 17 19  1  0  0  0  0
 17 20  1  0  0  0  0
 20 21  1  0  0  0  0
 20 22  1  0  0  0  0
 20 23  1  0  0  0  0
 23 24  1  0  0  0  0
 23 25  1  0  0  0  0
 23 26  1  0  0  0  0
M  END
> <VM2 Rank>
23

> <Conf_Id>
1367

> <Probability>
1.42

> <Sum Probability>
58.67

> <Delta G>
0.989

> <G>
49.251

> <E>
16.717

> <-TS>
32.534

> <U+W>
-4.745

> <U>
48.583

> <W>
-53.328

> <W(PB)>
-55.653

> <W(SA)>
2.326

> <Valence>
2.825

> <Coulomb>
44.916

> <VdW>
0.842

> <VdW6>
-6.929

> <VdW12>
7.771

> <Bond>
0.195

> <Angle>
0.721

> <Pdih>
1.909

> <Idih>
0.000

> <Tether>
0.000

$$$$
VeraChem MOL file


 26 25  0  0  0  0  0  0  0  0999 V2000     
   19.1170   18.6755   19.4175 C   0  0  0  0  0  0  0  0  0  0  0  0
   19.9551   18.7279   18.7103 H   0  0  0  0  0  0  0  0  0  0  0  0
   18.4505   17.8670   19.0903 H   0  0  0  0  0  0  0  0  0  0  0  0
   18.5583   19.6186   19.3562 H   0  0  0  0  0  0  0  0  0  0  0  0
   19.6182   18.4205   20.8549 C   0  0  0  0  0  0  0  0  0  0  0  0
   20.1470   17.4578   20.8907 H   0  0  0  0  0  0  0  0  0  0  0  0
   18.7516   18.3335   21.5234 H   0  0  0  0  0  0  0  0  0  0  0  0
   20.5568   19.5506   21.3400 C   0  0  0  0  0  0  0  0  0  0  0  0
   21.3715   19.6739   20.6131 H   0  0  0  0  0  0  0  0  0  0  0  0
   20.0113   20.5042   21.3557 H   0  0  0  0  0  0  0  0  0  0  0  0
   21.1794   19.2856   22.7330 C   0  0  0  0  0  0  0  0  0  0  0  0
   21.9172   20.0734   22.9384 H   0  0  0  0  0  0  0  0  0  0  0  0
   21.7370   18.3390   22.7124 H   0  0  0  0  0  0  0  0  0  0  0  0
   20.1409   19.2556   23.8802 C   0  0  0  0  0  0  0  0  0  0  0  0
   19.5502   20.1820   23.8646 H   0  0  0  0  0  0  0  0  0  0  0  0
   19.4404   18.4260   23.7229 H   0  0  0  0  0  0  0  0  0  0  0  0
   20.8196   19.1013   25.2619 C   0  0  0  0  0  0  0  0  0  0  0  0
   21.5430   19.9151   25.4051 H   0  0  0  0  0  0  0  0  0  0  0  0
   21.3911   18.1643   25.2979 H   0  0  0  0  0  0  0  0  0  0  0  0
   19.8125   19.1351   26.4277 C   0  0  0  0  0  0  0  0  0  0  0  0
   20.3555   19.1097   27.3764 H   0  0  0  0  0  0  0  0  0  0  0  0
   19.2363   20.0635   26.3896 H   0  0  0  0  0  0  0  0  0  0  0  0
   18.8365   17.9748   26.4259 N   0  3  0  0  0  0  0  0  0  0  0  0
   19.3186   17.0718   26.4827 H   0  0  0  0  0  0  0  0  0  0  0  0
   18.2648   17.9607   25.5757 H   0  0  0  0  0  0  0  0  0  0  0  0
   18.1905   18.0199   27.2214 H   0  0  0  0  0  0  0  0  0  0  0  0
  1  2  1  0  0  0  0
  1  3  1  0  0  0  0
  1  4  1  0  0  0  0
  1  5  1  0  0  0  0
  5  6  1  0  0  0  0
  5  7  1  0  0  0  0
  5  8  1  0  0  0  0
  8  9  1  0  0  0  0
  8 10  1  0  0  0  0
  8 11  1  0  0  0  0
 11 12  1  0  0  0  0
 11 13  1  0  0  0  0
 11 14  1  0  0  0  0
 14 15  1  0  0  0  0
 14 16  1  0  0  0  0
 14 17  1  0  0  0  0
 17 18  1  0  0  0  0
 17 19  1  0  0  0  0
 17 20  1  0  0  0  0
 20 21  1  0  0  0  0
 20 22  1  0  0  0  0
 20 23  1  0  0  0  0
 23 24  1  0  0  0  0
 23 25  1  0  0  0  0
 23 26  1  0  0  0  0
M  END
> <VM2 Rank>
24

> <Conf_Id>
981

> <Probability>
1.31

> <Sum Probability>
59.98

> <Delta G>
1.036

> <G>
49.297

> <E>
16.748

> <-TS>
32.549

> <U+W>
-4.714

> <U>
48.945

> <W>
-53.658

> <W(PB)>
-55.996

> <W(SA)>
2.338

> <Valence>
2.802

> <Coulomb>
45.335

> <VdW>
0.807

> <VdW6>
-6.962

> <VdW12>
7.769

> <Bond>
0.189

> <Angle>
0.697

> <Pdih>
1.917

> <Idih>
0.000

> <Tether>
0.000

$$$$
VeraChem MOL file


 26 25  0  0  0  0  0  0  0  0999 V2000     
   21.0499   20.0675   20.1773 C   0  0  0  0  0  0  0  0  0  0  0  0
   21.7160   20.1312   21.0466 H   0  0  0  0  0  0  0  0  0  0  0  0
   21.6741   20.1449   19.2776 H   0  0  0  0  0  0  0  0  0  0  0  0
   20.3770   20.9346   20.1945 H   0  0  0  0  0  0  0  0  0  0  0  0
   20.2514   18.7442   20.1690 C   0  0  0  0  0  0  0  0  0  0  0  0
   20.9463   17.8930   20.1836 H   0  0  0  0  0  0  0  0  0  0  0  0
   19.6967   18.6717   19.2230 H   0  0  0  0  0  0  0  0  0  0  0  0
   19.2493   18.6222   21.3423 C   0  0  0  0  0  0  0  0  0  0  0  0
   18.5441   19.4642   21.3115 H   0  0  0  0  0  0  0  0  0  0  0  0
   18.6508   17.7124   21.1958 H   0  0  0  0  0  0  0  0  0  0  0  0
   19.9297   18.5619   22.7310 C   0  0  0  0  0  0  0  0  0  0  0  0
   20.4769   19.4954   22.9125 H   0  0  0  0  0  0  0  0  0  0  0  0
   20.6693   17.7495   22.7411 H   0  0  0  0  0  0  0  0  0  0  0  0
   18.8993   18.3365   23.8636 C   0  0  0  0  0  0  0  0  0  0  0  0
   18.1748   19.1628   23.8753 H   0  0  0  0  0  0  0  0  0  0  0  0
   18.3255   17.4232   23.6540 H   0  0  0  0  0  0  0  0  0  0  0  0
   19.5511   18.2021   25.2600 C   0  0  0  0  0  0  0  0  0  0  0  0
   20.2584   17.3621   25.2578 H   0  0  0  0  0  0  0  0  0  0  0  0
   18.7725   17.9556   25.9942 H   0  0  0  0  0  0  0  0  0  0  0  0
   20.2741   19.4870   25.7060 C   0  0  0  0  0  0  0  0  0  0  0  0
   21.0818   19.7191   25.0071 H   0  0  0  0  0  0  0  0  0  0  0  0
   19.5698   20.3232   25.7089 H   0  0  0  0  0  0  0  0  0  0  0  0
   20.8763   19.3776   27.0919 N   0  3  0  0  0  0  0  0  0  0  0  0
   20.1637   19.1873   27.8041 H   0  0  0  0  0  0  0  0  0  0  0  0
   21.3524   20.2426   27.3699 H   0  0  0  0  0  0  0  0  0  0  0  0
   21.5690   18.6238   27.1492 H   0  0  0  0  0  0  0  0  0  0  0  0
  1  2  1  0  0  0  0
  1  3  1  0  0  0  0
  1  4  1  0  0  0  0
  1  5  1  0  0  0  0
  5  6  1  0  0  0  0
  5  7  1  0  0  0  0
  5  8  1  0  0  0  0
  8  9  1  0  0  0  0
  8 10  1  0  0  0  0
  8 11  1  0  0  0  0
 11 12  1  0  0  0  0
 11 13  1  0  0  0  0
 11 14  1  0  0  0  0
 14 15  1  0  0  0  0
 14 16  1  0  0  0  0
 14 17  1  0  0  0  0
 17 18  1  0  0  0  0
 17 19  1  0  0  0  0
 17 20  1  0  0  0  0
 20 21  1  0  0  0  0
 20 22  1  0  0  0  0
 20 23  1  0  0  0  0
 23 24  1  0  0  0  0
 23 25  1  0  0  0  0
 23 26  1  0  0  0  0
M  END
> <VM2 Rank>
25

> <Conf_Id>
762

> <Probability>
1.28

> <Sum Probability>
61.26

> <Delta G>
1.052

> <G>
49.313

> <E>
16.753

> <-TS>
32.560

> <U+W>
-4.709

> <U>
48.723

> <W>
-53.432

> <W(PB)>
-55.777

> <W(SA)>
2.344

> <Valence>
2.962

> <Coulomb>
44.993

> <VdW>
0.768

> <VdW6>
-7.007

> <VdW12>
7.776

> <Bond>
0.188

> <Angle>
0.757

> <Pdih>
2.018

> <Idih>
0.000

> <Tether>
0.000

$$$$
VeraChem MOL file


 26 25  0  0  0  0  0  0  0  0999 V2000     
   20.1285   17.8133   19.8417 C   0  0  0  0  0  0  0  0  0  0  0  0
   19.0725   17.9073   19.5568 H   0  0  0  0  0  0  0  0  0  0  0  0
   20.6774   17.4273   18.9730 H   0  0  0  0  0  0  0  0  0  0  0  0
   20.2046   17.0638   20.6391 H   0  0  0  0  0  0  0  0  0  0  0  0
   20.7078   19.1757   20.2855 C   0  0  0  0  0  0  0  0  0  0  0  0
   20.7216   19.8533   19.4203 H   0  0  0  0  0  0  0  0  0  0  0  0
   21.7551   19.0493   20.5935 H   0  0  0  0  0  0  0  0  0  0  0  0
   19.9034   19.8441   21.4266 C   0  0  0  0  0  0  0  0  0  0  0  0
   20.3155   20.8474   21.6023 H   0  0  0  0  0  0  0  0  0  0  0  0
   18.8628   19.9893   21.1051 H   0  0  0  0  0  0  0  0  0  0  0  0
   19.9342   19.0461   22.7522 C   0  0  0  0  0  0  0  0  0  0  0  0
   20.9783   18.8555   23.0338 H   0  0  0  0  0  0  0  0  0  0  0  0
   19.4571   18.0677   22.6096 H   0  0  0  0  0  0  0  0  0  0  0  0
   19.2089   19.8020   23.8914 C   0  0  0  0  0  0  0  0  0  0  0  0
   19.7033   20.7670   24.0702 H   0  0  0  0  0  0  0  0  0  0  0  0
   18.1823   20.0327   23.5749 H   0  0  0  0  0  0  0  0  0  0  0  0
   19.1522   18.9996   25.2126 C   0  0  0  0  0  0  0  0  0  0  0  0
   18.6345   18.0460   25.0434 H   0  0  0  0  0  0  0  0  0  0  0  0
   18.5519   19.5580   25.9431 H   0  0  0  0  0  0  0  0  0  0  0  0
   20.5478   18.7327   25.8070 C   0  0  0  0  0  0  0  0  0  0  0  0
   21.1411   18.1388   25.1070 H   0  0  0  0  0  0  0  0  0  0  0  0
   21.0631   19.6820   25.9766 H   0  0  0  0  0  0  0  0  0  0  0  0
   20.4981   17.9856   27.1241 N   0  3  0  0  0  0  0  0  0  0  0  0
   21.4367   17.8181   27.5029 H   0  0  0  0  0  0  0  0  0  0  0  0
   20.0476   17.0697   27.0272 H   0  0  0  0  0  0  0  0  0  0  0  0
   19.9765   18.5044   27.8382 H   0  0  0  0  0  0  0  0  0  0  0  0
  1  2  1  0  0  0  0
  1  3  1  0  0  0  0
  1  4  1  0  0  0  0
  1  5  1  0  0  0  0
  5  6  1  0  0  0  0
  5  7  1  0  0  0  0
  5  8  1  0  0  0  0
  8  9  1  0  0  0  0
  8 10  1  0  0  0  0
  8 11  1  0  0  0  0
 11 12  1  0  0  0  0
 11 13  1  0  0  0  0
 11 14  1  0  0  0  0
 14 15  1  0  0  0  0
 14 16  1  0  0  0  0
 14 17  1  0  0  0  0
 17 18  1  0  0  0  0
 17 19  1  0  0  0  0
 17 20  1  0  0  0  0
 20 21  1  0  0  0  0
 20 22  1  0  0  0  0
 20 23  1  0  0  0  0
 23 24  1  0  0  0  0
 23 25  1  0  0  0  0
 23 26  1  0  0  0  0
M  END
> <VM2 Rank>
26

> <Conf_Id>
1219

> <Probability>
1.22

> <Sum Probability>
62.48

> <Delta G>
1.080

> <G>
49.341

> <E>
16.778

> <-TS>
32.563

> <U+W>
-4.684

> <U>
48.658

> <W>
-53.341

> <W(PB)>
-55.670

> <W(SA)>
2.328

> <Valence>
2.963

> <Coulomb>
44.927

> <VdW>
0.768

> <VdW6>
-6.995

> <VdW12>
7.762

> <Bond>
0.186

> <Angle>
0.758

> <Pdih>
2.019

> <Idih>
0.000

> <Tether>
0.000

$$$$
VeraChem MOL file


 26 25  0  0  0  0  0  0  0  0999 V2000     
   20.9386   19.9644   19.8069 C   0  0  0  0  0  0  0  0  0  0  0  0
   21.4822   19.6623   18.9023 H   0  0  0  0  0  0  0  0  0  0  0  0
   20.0479   20.5245   19.4935 H   0  0  0  0  0  0  0  0  0  0  0  0
   21.5858   20.6428   20.3780 H   0  0  0  0  0  0  0  0  0  0  0  0
   20.5502   18.7295   20.6472 C   0  0  0  0  0  0  0  0  0  0  0  0
   21.4581   18.1721   20.9174 H   0  0  0  0  0  0  0  0  0  0  0  0
   19.9329   18.0541   20.0382 H   0  0  0  0  0  0  0  0  0  0  0  0
   19.7823   19.1271   21.9272 C   0  0  0  0  0  0  0  0  0  0  0  0
   20.4057   19.8084   22.5210 H   0  0  0  0  0  0  0  0  0  0  0  0
   18.8744   19.6815   21.6523 H   0  0  0  0  0  0  0  0  0  0  0  0
   19.3971   17.8902   22.7736 C   0  0  0  0  0  0  0  0  0  0  0  0
   20.3054   17.3589   23.0880 H   0  0  0  0  0  0  0  0  0  0  0  0
   18.8379   17.1855   22.1426 H   0  0  0  0  0  0  0  0  0  0  0  0
   18.5274   18.2318   24.0111 C   0  0  0  0  0  0  0  0  0  0  0  0
   17.5760   18.6658   23.6739 H   0  0  0  0  0  0  0  0  0  0  0  0
   18.2667   17.2972   24.5269 H   0  0  0  0  0  0  0  0  0  0  0  0
   19.1879   19.1968   25.0270 C   0  0  0  0  0  0  0  0  0  0  0  0
   18.5011   19.3464   25.8707 H   0  0  0  0  0  0  0  0  0  0  0  0
   19.3315   20.1840   24.5697 H   0  0  0  0  0  0  0  0  0  0  0  0
   20.5334   18.6707   25.5605 C   0  0  0  0  0  0  0  0  0  0  0  0
   20.3874   17.6922   26.0258 H   0  0  0  0  0  0  0  0  0  0  0  0
   21.2391   18.5573   24.7333 H   0  0  0  0  0  0  0  0  0  0  0  0
   21.1642   19.5885   26.5876 N   0  3  0  0  0  0  0  0  0  0  0  0
   22.0585   19.2200   26.9295 H   0  0  0  0  0  0  0  0  0  0  0  0
   20.5614   19.7158   27.4071 H   0  0  0  0  0  0  0  0  0  0  0  0
   21.3523   20.5202   26.2035 H   0  0  0  0  0  0  0  0  0  0  0  0
  1  2  1  0  0  0  0
  1  3  1  0  0  0  0
  1  4  1  0  0  0  0
  1  5  1  0  0  0  0
  5  6  1  0  0  0  0
  5  7  1  0  0  0  0
  5  8  1  0  0  0  0
  8  9  1  0  0  0  0
  8 10  1  0  0  0  0
  8 11  1  0  0  0  0
 11 12  1  0  0  0  0
 11 13  1  0  0  0  0
 11 14  1  0  0  0  0
 14 15  1  0  0  0  0
 14 16  1  0  0  0  0
 14 17  1  0  0  0  0
 17 18  1  0  0  0  0
 17 19  1  0  0  0  0
 17 20  1  0  0  0  0
 20 21  1  0  0  0  0
 20 22  1  0  0  0  0
 20 23  1  0  0  0  0
 23 24  1  0  0  0  0
 23 25  1  0  0  0  0
 23 26  1  0  0  0  0
M  END
> <VM2 Rank>
27

> <Conf_Id>
1376

> <Probability>
1.21

> <Sum Probability>
63.69

> <Delta G>
1.083

> <G>
49.345

> <E>
16.654

> <-TS>
32.691

> <U+W>
-4.808

> <U>
48.957

> <W>
-53.765

> <W(PB)>
-56.083

> <W(SA)>
2.317

> <Valence>
2.916

> <Coulomb>
45.446

> <VdW>
0.595

> <VdW6>
-7.363

> <VdW12>
7.958

> <Bond>
0.196

> <Angle>
0.889

> <Pdih>
1.830

> <Idih>
0.000

> <Tether>
0.000

$$$$
VeraChem MOL file


 26 25  0  0  0  0  0  0  0  0999 V2000     
   18.8533   18.5884   19.7368 C   0  0  0  0  0  0  0  0  0  0  0  0
   17.9495   18.2439   20.2561 H   0  0  0  0  0  0  0  0  0  0  0  0
   18.7032   19.6369   19.4481 H   0  0  0  0  0  0  0  0  0  0  0  0
   18.9597   17.9977   18.8177 H   0  0  0  0  0  0  0  0  0  0  0  0
   20.1009   18.4329   20.6321 C   0  0  0  0  0  0  0  0  0  0  0  0
   20.9920   18.7524   20.0737 H   0  0  0  0  0  0  0  0  0  0  0  0
   20.2439   17.3710   20.8769 H   0  0  0  0  0  0  0  0  0  0  0  0
   19.9772   19.2558   21.9335 C   0  0  0  0  0  0  0  0  0  0  0  0
   19.8370   20.3166   21.6842 H   0  0  0  0  0  0  0  0  0  0  0  0
   19.0791   18.9334   22.4764 H   0  0  0  0  0  0  0  0  0  0  0  0
   21.2252   19.0965   22.8347 C   0  0  0  0  0  0  0  0  0  0  0  0
   22.1213   19.3519   22.2525 H   0  0  0  0  0  0  0  0  0  0  0  0
   21.3422   18.0431   23.1227 H   0  0  0  0  0  0  0  0  0  0  0  0
   21.1948   19.9921   24.1002 C   0  0  0  0  0  0  0  0  0  0  0  0
   22.1317   19.8478   24.6561 H   0  0  0  0  0  0  0  0  0  0  0  0
   21.1848   21.0474   23.7944 H   0  0  0  0  0  0  0  0  0  0  0  0
   20.0019   19.7340   25.0542 C   0  0  0  0  0  0  0  0  0  0  0  0
   19.0599   20.0046   24.5605 H   0  0  0  0  0  0  0  0  0  0  0  0
   20.0945   20.3981   25.9238 H   0  0  0  0  0  0  0  0  0  0  0  0
   19.9330   18.2745   25.5407 C   0  0  0  0  0  0  0  0  0  0  0  0
   19.7990   17.6067   24.6857 H   0  0  0  0  0  0  0  0  0  0  0  0
   20.8676   18.0093   26.0422 H   0  0  0  0  0  0  0  0  0  0  0  0
   18.7947   18.0248   26.5088 N   0  3  0  0  0  0  0  0  0  0  0  0
   17.8828   18.2304   26.0879 H   0  0  0  0  0  0  0  0  0  0  0  0
   18.8759   18.6038   27.3511 H   0  0  0  0  0  0  0  0  0  0  0  0
   18.7667   17.0477   26.8200 H   0  0  0  0  0  0  0  0  0  0  0  0
  1  2  1  0  0  0  0
  1  3  1  0  0  0  0
  1  4  1  0  0  0  0
  1  5  1  0  0  0  0
  5  6  1  0  0  0  0
  5  7  1  0  0  0  0
  5  8  1  0  0  0  0
  8  9  1  0  0  0  0
  8 10  1  0  0  0  0
  8 11  1  0  0  0  0
 11 12  1  0  0  0  0
 11 13  1  0  0  0  0
 11 14  1  0  0  0  0
 14 15  1  0  0  0  0
 14 16  1  0  0  0  0
 14 17  1  0  0  0  0
 17 18  1  0  0  0  0
 17 19  1  0  0  0  0
 17 20  1  0  0  0  0
 20 21  1  0  0  0  0
 20 22  1  0  0  0  0
 20 23  1  0  0  0  0
 23 24  1  0  0  0  0
 23 25  1  0  0  0  0
 23 26  1  0  0  0  0
M  END
> <VM2 Rank>
28

> <Conf_Id>
1063

> <Probability>
1.20

> <Sum Probability>
64.89

> <Delta G>
1.087

> <G>
49.349

> <E>
16.658

> <-TS>
32.691

> <U+W>
-4.804

> <U>
48.957

> <W>
-53.760

> <W(PB)>
-56.084

> <W(SA)>
2.323

> <Valence>
2.916

> <Coulomb>
45.446

> <VdW>
0.595

> <VdW6>
-7.362

> <VdW12>
7.957

> <Bond>
0.196

> <Angle>
0.889

> <Pdih>
1.830

> <Idih>
0.000

> <Tether>
0.000

$$$$
VeraChem MOL file


 26 25  0  0  0  0  0  0  0  0999 V2000     
   21.1445   18.4824   19.8757 C   0  0  0  0  0  0  0  0  0  0  0  0
   21.7653   18.0915   20.6913 H   0  0  0  0  0  0  0  0  0  0  0  0
   21.3232   17.8525   18.9946 H   0  0  0  0  0  0  0  0  0  0  0  0
   21.4876   19.4976   19.6377 H   0  0  0  0  0  0  0  0  0  0  0  0
   19.6450   18.4759   20.2500 C   0  0  0  0  0  0  0  0  0  0  0  0
   19.3341   17.4550   20.5126 H   0  0  0  0  0  0  0  0  0  0  0  0
   19.0579   18.7577   19.3647 H   0  0  0  0  0  0  0  0  0  0  0  0
   19.2952   19.4435   21.4062 C   0  0  0  0  0  0  0  0  0  0  0  0
   19.5867   20.4660   21.1293 H   0  0  0  0  0  0  0  0  0  0  0  0
   18.2037   19.4566   21.5318 H   0  0  0  0  0  0  0  0  0  0  0  0
   19.9539   19.0591   22.7528 C   0  0  0  0  0  0  0  0  0  0  0  0
   21.0466   19.1146   22.6626 H   0  0  0  0  0  0  0  0  0  0  0  0
   19.7045   18.0166   22.9912 H   0  0  0  0  0  0  0  0  0  0  0  0
   19.4926   19.9888   23.9009 C   0  0  0  0  0  0  0  0  0  0  0  0
   19.6998   21.0322   23.6256 H   0  0  0  0  0  0  0  0  0  0  0  0
   18.4037   19.9110   24.0268 H   0  0  0  0  0  0  0  0  0  0  0  0
   20.1901   19.6831   25.2472 C   0  0  0  0  0  0  0  0  0  0  0  0
   19.8799   20.4326   25.9874 H   0  0  0  0  0  0  0  0  0  0  0  0
   21.2772   19.7866   25.1316 H   0  0  0  0  0  0  0  0  0  0  0  0
   19.8578   18.2782   25.7840 C   0  0  0  0  0  0  0  0  0  0  0  0
   18.7756   18.1753   25.9002 H   0  0  0  0  0  0  0  0  0  0  0  0
   20.2020   17.5202   25.0757 H   0  0  0  0  0  0  0  0  0  0  0  0
   20.5019   17.9881   27.1242 N   0  3  0  0  0  0  0  0  0  0  0  0
   20.2684   17.0487   27.4639 H   0  0  0  0  0  0  0  0  0  0  0  0
   20.1978   18.6502   27.8456 H   0  0  0  0  0  0  0  0  0  0  0  0
   21.5247   18.0426   27.0765 H   0  0  0  0  0  0  0  0  0  0  0  0
  1  2  1  0  0  0  0
  1  3  1  0  0  0  0
  1  4  1  0  0  0  0
  1  5  1  0  0  0  0
  5  6  1  0  0  0  0
  5  7  1  0  0  0  0
  5  8  1  0  0  0  0
  8  9  1  0  0  0  0
  8 10  1  0  0  0  0
  8 11  1  0  0  0  0
 11 12  1  0  0  0  0
 11 13  1  0  0  0  0
 11 14  1  0  0  0  0
 14 15  1  0  0  0  0
 14 16  1  0  0  0  0
 14 17  1  0  0  0  0
 17 18  1  0  0  0  0
 17 19  1  0  0  0  0
 17 20  1  0  0  0  0
 20 21  1  0  0  0  0
 20 22  1  0  0  0  0
 20 23  1  0  0  0  0
 23 24  1  0  0  0  0
 23 25  1  0  0  0  0
 23 26  1  0  0  0  0
M  END
> <VM2 Rank>
29

> <Conf_Id>
1221

> <Probability>
1.15

> <Sum Probability>
66.04

> <Delta G>
1.113

> <G>
49.374

> <E>
16.811

> <-TS>
32.563

> <U+W>
-4.651

> <U>
48.658

> <W>
-53.309

> <W(PB)>
-55.635

> <W(SA)>
2.326

> <Valence>
2.963

> <Coulomb>
44.927

> <VdW>
0.768

> <VdW6>
-6.995

> <VdW12>
7.762

> <Bond>
0.186

> <Angle>
0.758

> <Pdih>
2.019

> <Idih>
0.000

> <Tether>
0.000

$$$$
VeraChem MOL file


 26 25  0  0  0  0  0  0  0  0999 V2000     
   18.6973   18.5158   20.0988 C   0  0  0  0  0  0  0  0  0  0  0  0
   18.4229   18.0007   19.1691 H   0  0  0  0  0  0  0  0  0  0  0  0
   18.3370   17.9023   20.9337 H   0  0  0  0  0  0  0  0  0  0  0  0
   18.1642   19.4751   20.1209 H   0  0  0  0  0  0  0  0  0  0  0  0
   20.2267   18.7280   20.1681 C   0  0  0  0  0  0  0  0  0  0  0  0
   20.5549   19.2381   19.2517 H   0  0  0  0  0  0  0  0  0  0  0  0
   20.7351   17.7538   20.1764 H   0  0  0  0  0  0  0  0  0  0  0  0
   20.6776   19.5643   21.3901 C   0  0  0  0  0  0  0  0  0  0  0  0
   21.7550   19.7599   21.2995 H   0  0  0  0  0  0  0  0  0  0  0  0
   20.1825   20.5449   21.3663 H   0  0  0  0  0  0  0  0  0  0  0  0
   20.4013   18.8729   22.7467 C   0  0  0  0  0  0  0  0  0  0  0  0
   20.8566   17.8730   22.7473 H   0  0  0  0  0  0  0  0  0  0  0  0
   19.3206   18.7326   22.8738 H   0  0  0  0  0  0  0  0  0  0  0  0
   20.9602   19.6956   23.9325 C   0  0  0  0  0  0  0  0  0  0  0  0
   22.0342   19.8691   23.7780 H   0  0  0  0  0  0  0  0  0  0  0  0
   20.4853   20.6864   23.9526 H   0  0  0  0  0  0  0  0  0  0  0  0
   20.7627   19.0011   25.3004 C   0  0  0  0  0  0  0  0  0  0  0  0
   21.2607   19.5964   26.0773 H   0  0  0  0  0  0  0  0  0  0  0  0
   21.2565   18.0203   25.2911 H   0  0  0  0  0  0  0  0  0  0  0  0
   19.2779   18.8299   25.6726 C   0  0  0  0  0  0  0  0  0  0  0  0
   18.7862   19.8064   25.6826 H   0  0  0  0  0  0  0  0  0  0  0  0
   18.7800   18.2009   24.9302 H   0  0  0  0  0  0  0  0  0  0  0  0
   19.0774   18.1913   27.0318 N   0  3  0  0  0  0  0  0  0  0  0  0
   18.0829   18.0865   27.2606 H   0  0  0  0  0  0  0  0  0  0  0  0
   19.4988   18.7490   27.7819 H   0  0  0  0  0  0  0  0  0  0  0  0
   19.4949   17.2562   27.0800 H   0  0  0  0  0  0  0  0  0  0  0  0
  1  2  1  0  0  0  0
  1  3  1  0  0  0  0
  1  4  1  0  0  0  0
  1  5  1  0  0  0  0
  5  6  1  0  0  0  0
  5  7  1  0  0  0  0
  5  8  1  0  0  0  0
  8  9  1  0  0  0  0
  8 10  1  0  0  0  0
  8 11  1  0  0  0  0
 11 12  1  0  0  0  0
 11 13  1  0  0  0  0
 11 14  1  0  0  0  0
 14 15  1  0  0  0  0
 14 16  1  0  0  0  0
 14 17  1  0  0  0  0
 17 18  1  0  0  0  0
 17 19  1  0  0  0  0
 17 20  1  0  0  0  0
 20 21  1  0  0  0  0
 20 22  1  0  0  0  0
 20 23  1  0  0  0  0
 23 24  1  0  0  0  0
 23 25  1  0  0  0  0
 23 26  1  0  0  0  0
M  END
> <VM2 Rank>
30

> <Conf_Id>
835

> <Probability>
1.14

> <Sum Probability>
67.19

> <Delta G>
1.117

> <G>
49.378

> <E>
16.818

> <-TS>
32.560

> <U+W>
-4.644

> <U>
48.723

> <W>
-53.367

> <W(PB)>
-55.687

> <W(SA)>
2.320

> <Valence>
2.962

> <Coulomb>
44.993

> <VdW>
0.768

> <VdW6>
-7.008

> <VdW12>
7.776

> <Bond>
0.188

> <Angle>
0.756

> <Pdih>
2.018

> <Idih>
0.000

> <Tether>
0.000

$$$$
VeraChem MOL file


 26 25  0  0  0  0  0  0  0  0999 V2000     
   19.4879   19.0295   19.2184 C   0  0  0  0  0  0  0  0  0  0  0  0
   18.4884   19.1480   18.7803 H   0  0  0  0  0  0  0  0  0  0  0  0
   20.0940   19.8927   18.9138 H   0  0  0  0  0  0  0  0  0  0  0  0
   19.9391   18.1259   18.7881 H   0  0  0  0  0  0  0  0  0  0  0  0
   19.4004   18.9285   20.7561 C   0  0  0  0  0  0  0  0  0  0  0  0
   18.7647   18.0747   21.0293 H   0  0  0  0  0  0  0  0  0  0  0  0
   18.9082   19.8298   21.1447 H   0  0  0  0  0  0  0  0  0  0  0  0
   20.7988   18.7649   21.3971 C   0  0  0  0  0  0  0  0  0  0  0  0
   21.3033   17.9032   20.9383 H   0  0  0  0  0  0  0  0  0  0  0  0
   21.4175   19.6428   21.1656 H   0  0  0  0  0  0  0  0  0  0  0  0
   20.7556   18.5492   22.9298 C   0  0  0  0  0  0  0  0  0  0  0  0
   21.7745   18.3313   23.2787 H   0  0  0  0  0  0  0  0  0  0  0  0
   20.1550   17.6571   23.1522 H   0  0  0  0  0  0  0  0  0  0  0  0
   20.2058   19.7708   23.7090 C   0  0  0  0  0  0  0  0  0  0  0  0
   20.7510   20.6729   23.3992 H   0  0  0  0  0  0  0  0  0  0  0  0
   19.1514   19.9393   23.4531 H   0  0  0  0  0  0  0  0  0  0  0  0
   20.3337   19.6154   25.2426 C   0  0  0  0  0  0  0  0  0  0  0  0
   20.0000   20.5442   25.7243 H   0  0  0  0  0  0  0  0  0  0  0  0
   21.3895   19.4825   25.5137 H   0  0  0  0  0  0  0  0  0  0  0  0
   19.5061   18.4379   25.7908 C   0  0  0  0  0  0  0  0  0  0  0  0
   18.4543   18.5715   25.5237 H   0  0  0  0  0  0  0  0  0  0  0  0
   19.8573   17.5016   25.3495 H   0  0  0  0  0  0  0  0  0  0  0  0
   19.5927   18.3029   27.2973 N   0  3  0  0  0  0  0  0  0  0  0  0
   19.2499   19.1420   27.7765 H   0  0  0  0  0  0  0  0  0  0  0  0
   20.5560   18.1479   27.6123 H   0  0  0  0  0  0  0  0  0  0  0  0
   19.0352   17.5137   27.6419 H   0  0  0  0  0  0  0  0  0  0  0  0
  1  2  1  0  0  0  0
  1  3  1  0  0  0  0
  1  4  1  0  0  0  0
  1  5  1  0  0  0  0
  5  6  1  0  0  0  0
  5  7  1  0  0  0  0
  5  8  1  0  0  0  0
  8  9  1  0  0  0  0
  8 10  1  0  0  0  0
  8 11  1  0  0  0  0
 11 12  1  0  0  0  0
 11 13  1  0  0  0  0
 11 14  1  0  0  0  0
 14 15  1  0  0  0  0
 14 16  1  0  0  0  0
 14 17  1  0  0  0  0
 17 18  1  0  0  0  0
 17 19  1  0  0  0  0
 17 20  1  0  0  0  0
 20 21  1  0  0  0  0
 20 22  1  0  0  0  0
 20 23  1  0  0  0  0
 23 24  1  0  0  0  0
 23 25  1  0  0  0  0
 23 26  1  0  0  0  0
M  END
> <VM2 Rank>
31

> <Conf_Id>
530

> <Probability>
1.12

> <Sum Probability>
68.30

> <Delta G>
1.131

> <G>
49.393

> <E>
16.831

> <-TS>
32.561

> <U+W>
-4.631

> <U>
48.732

> <W>
-53.363

> <W(PB)>
-55.692

> <W(SA)>
2.329

> <Valence>
2.987

> <Coulomb>
45.004

> <VdW>
0.742

> <VdW6>
-7.035

> <VdW12>
7.777

> <Bond>
0.190

> <Angle>
0.753

> <Pdih>
2.043

> <Idih>
0.000

> <Tether>
0.000

$$$$
VeraChem MOL file


 26 25  0  0  0  0  0  0  0  0999 V2000     
   19.8611   19.0879   19.0804 C   0  0  0  0  0  0  0  0  0  0  0  0
   18.9960   19.7606   19.0148 H   0  0  0  0  0  0  0  0  0  0  0  0
   20.7484   19.6376   18.7401 H   0  0  0  0  0  0  0  0  0  0  0  0
   19.6940   18.2551   18.3851 H   0  0  0  0  0  0  0  0  0  0  0  0
   20.0495   18.5660   20.5207 C   0  0  0  0  0  0  0  0  0  0  0  0
   20.9029   17.8742   20.5485 H   0  0  0  0  0  0  0  0  0  0  0  0
   19.1612   17.9884   20.8082 H   0  0  0  0  0  0  0  0  0  0  0  0
   20.2824   19.7237   21.5203 C   0  0  0  0  0  0  0  0  0  0  0  0
   21.1235   20.3354   21.1659 H   0  0  0  0  0  0  0  0  0  0  0  0
   19.4050   20.3850   21.5329 H   0  0  0  0  0  0  0  0  0  0  0  0
   20.5959   19.2490   22.9607 C   0  0  0  0  0  0  0  0  0  0  0  0
   20.8792   20.1284   23.5539 H   0  0  0  0  0  0  0  0  0  0  0  0
   21.4750   18.5902   22.9468 H   0  0  0  0  0  0  0  0  0  0  0  0
   19.4093   18.5240   23.6455 C   0  0  0  0  0  0  0  0  0  0  0  0
   18.5232   19.1738   23.6387 H   0  0  0  0  0  0  0  0  0  0  0  0
   19.1429   17.6275   23.0710 H   0  0  0  0  0  0  0  0  0  0  0  0
   19.7199   18.0914   25.0980 C   0  0  0  0  0  0  0  0  0  0  0  0
   20.6004   17.4351   25.1075 H   0  0  0  0  0  0  0  0  0  0  0  0
   18.8797   17.4955   25.4787 H   0  0  0  0  0  0  0  0  0  0  0  0
   19.9539   19.2870   26.0406 C   0  0  0  0  0  0  0  0  0  0  0  0
   20.8180   19.8636   25.7011 H   0  0  0  0  0  0  0  0  0  0  0  0
   19.0775   19.9406   26.0301 H   0  0  0  0  0  0  0  0  0  0  0  0
   20.2090   18.8699   27.4746 N   0  3  0  0  0  0  0  0  0  0  0  0
   21.0384   18.2728   27.5571 H   0  0  0  0  0  0  0  0  0  0  0  0
   19.4197   18.3457   27.8663 H   0  0  0  0  0  0  0  0  0  0  0  0
   20.3620   19.6796   28.0855 H   0  0  0  0  0  0  0  0  0  0  0  0
  1  2  1  0  0  0  0
  1  3  1  0  0  0  0
  1  4  1  0  0  0  0
  1  5  1  0  0  0  0
  5  6  1  0  0  0  0
  5  7  1  0  0  0  0
  5  8  1  0  0  0  0
  8  9  1  0  0  0  0
  8 10  1  0  0  0  0
  8 11  1  0  0  0  0
 11 12  1  0  0  0  0
 11 13  1  0  0  0  0
 11 14  1  0  0  0  0
 14 15  1  0  0  0  0
 14 16  1  0  0  0  0
 14 17  1  0  0  0  0
 17 18  1  0  0  0  0
 17 19  1  0  0  0  0
 17 20  1  0  0  0  0
 20 21  1  0  0  0  0
 20 22  1  0  0  0  0
 20 23  1  0  0  0  0
 23 24  1  0  0  0  0
 23 25  1  0  0  0  0
 23 26  1  0  0  0  0
M  END
> <VM2 Rank>
32

> <Conf_Id>
810

> <Probability>
1.09

> <Sum Probability>
69.40

> <Delta G>
1.144

> <G>
49.405

> <E>
16.884

> <-TS>
32.521

> <U+W>
-4.578

> <U>
48.768

> <W>
-53.346

> <W(PB)>
-55.671

> <W(SA)>
2.325

> <Valence>
3.051

> <Coulomb>
44.907

> <VdW>
0.810

> <VdW6>
-6.972

> <VdW12>
7.782

> <Bond>
0.197

> <Angle>
0.815

> <Pdih>
2.039

> <Idih>
0.000

> <Tether>
0.000

$$$$
VeraChem MOL file


 26 25  0  0  0  0  0  0  0  0999 V2000     
   20.3083   19.5704   19.2456 C   0  0  0  0  0  0  0  0  0  0  0  0
   19.2917   19.3628   18.8869 H   0  0  0  0  0  0  0  0  0  0  0  0
   20.6119   20.5487   18.8508 H   0  0  0  0  0  0  0  0  0  0  0  0
   20.9815   18.8132   18.8229 H   0  0  0  0  0  0  0  0  0  0  0  0
   20.3640   19.5641   20.7880 C   0  0  0  0  0  0  0  0  0  0  0  0
   19.7111   20.3595   21.1712 H   0  0  0  0  0  0  0  0  0  0  0  0
   21.3850   19.8036   21.1165 H   0  0  0  0  0  0  0  0  0  0  0  0
   19.9359   18.1955   21.3683 C   0  0  0  0  0  0  0  0  0  0  0  0
   18.8974   17.9800   21.0815 H   0  0  0  0  0  0  0  0  0  0  0  0
   20.5509   17.4067   20.9134 H   0  0  0  0  0  0  0  0  0  0  0  0
   20.0797   18.1035   22.9073 C   0  0  0  0  0  0  0  0  0  0  0  0
   21.1246   18.2969   23.1846 H   0  0  0  0  0  0  0  0  0  0  0  0
   19.8637   17.0711   23.2152 H   0  0  0  0  0  0  0  0  0  0  0  0
   19.1373   19.0662   23.6732 C   0  0  0  0  0  0  0  0  0  0  0  0
   19.4085   20.1090   23.4617 H   0  0  0  0  0  0  0  0  0  0  0  0
   18.1090   18.9307   23.3106 H   0  0  0  0  0  0  0  0  0  0  0  0
   19.1580   18.8404   25.2032 C   0  0  0  0  0  0  0  0  0  0  0  0
   18.8525   17.8100   25.4287 H   0  0  0  0  0  0  0  0  0  0  0  0
   18.4137   19.4985   25.6711 H   0  0  0  0  0  0  0  0  0  0  0  0
   20.5391   19.1190   25.8255 C   0  0  0  0  0  0  0  0  0  0  0  0
   21.2815   18.4406   25.3973 H   0  0  0  0  0  0  0  0  0  0  0  0
   20.8421   20.1458   25.6038 H   0  0  0  0  0  0  0  0  0  0  0  0
   20.5586   18.9398   27.3298 N   0  3  0  0  0  0  0  0  0  0  0  0
   20.3076   17.9843   27.6040 H   0  0  0  0  0  0  0  0  0  0  0  0
   19.9003   19.5709   27.7983 H   0  0  0  0  0  0  0  0  0  0  0  0
   21.4863   19.1297   27.7242 H   0  0  0  0  0  0  0  0  0  0  0  0
  1  2  1  0  0  0  0
  1  3  1  0  0  0  0
  1  4  1  0  0  0  0
  1  5  1  0  0  0  0
  5  6  1  0  0  0  0
  5  7  1  0  0  0  0
  5  8  1  0  0  0  0
  8  9  1  0  0  0  0
  8 10  1  0  0  0  0
  8 11  1  0  0  0  0
 11 12  1  0  0  0  0
 11 13  1  0  0  0  0
 11 14  1  0  0  0  0
 14 15  1  0  0  0  0
 14 16  1  0  0  0  0
 14 17  1  0  0  0  0
 17 18  1  0  0  0  0
 17 19  1  0  0  0  0
 17 20  1  0  0  0  0
 20 21  1  0  0  0  0
 20 22  1  0  0  0  0
 20 23  1  0  0  0  0
 23 24  1  0  0  0  0
 23 25  1  0  0  0  0
 23 26  1  0  0  0  0
M  END
> <VM2 Rank>
33

> <Conf_Id>
972

> <Probability>
1.05

> <Sum Probability>
70.44

> <Delta G>
1.170

> <G>
49.431

> <E>
16.869

> <-TS>
32.562

> <U+W>
-4.593

> <U>
48.732

> <W>
-53.325

> <W(PB)>
-55.661

> <W(SA)>
2.336

> <Valence>
2.987

> <Coulomb>
45.003

> <VdW>
0.742

> <VdW6>
-7.035

> <VdW12>
7.777

> <Bond>
0.191

> <Angle>
0.753

> <Pdih>
2.043

> <Idih>
0.000

> <Tether>
0.000

$$$$
VeraChem MOL file


 26 25  0  0  0  0  0  0  0  0999 V2000     
   18.7882   18.6802   20.1776 C   0  0  0  0  0  0  0  0  0  0  0  0
   17.9746   19.1715   19.6284 H   0  0  0  0  0  0  0  0  0  0  0  0
   19.1696   17.8622   19.5528 H   0  0  0  0  0  0  0  0  0  0  0  0
   18.3569   18.2458   21.0880 H   0  0  0  0  0  0  0  0  0  0  0  0
   19.9068   19.6937   20.5091 C   0  0  0  0  0  0  0  0  0  0  0  0
   19.5070   20.4906   21.1503 H   0  0  0  0  0  0  0  0  0  0  0  0
   20.2235   20.1872   19.5797 H   0  0  0  0  0  0  0  0  0  0  0  0
   21.1496   19.0456   21.1711 C   0  0  0  0  0  0  0  0  0  0  0  0
   21.6031   18.3412   20.4603 H   0  0  0  0  0  0  0  0  0  0  0  0
   21.9045   19.8247   21.3447 H   0  0  0  0  0  0  0  0  0  0  0  0
   20.8784   18.3008   22.5038 C   0  0  0  0  0  0  0  0  0  0  0  0
   21.8263   17.8734   22.8590 H   0  0  0  0  0  0  0  0  0  0  0  0
   20.2106   17.4474   22.3266 H   0  0  0  0  0  0  0  0  0  0  0  0
   20.2884   19.2074   23.6106 C   0  0  0  0  0  0  0  0  0  0  0  0
   20.9368   20.0830   23.7529 H   0  0  0  0  0  0  0  0  0  0  0  0
   19.3050   19.5846   23.3002 H   0  0  0  0  0  0  0  0  0  0  0  0
   20.1388   18.4537   24.9504 C   0  0  0  0  0  0  0  0  0  0  0  0
   21.1187   18.0808   25.2771 H   0  0  0  0  0  0  0  0  0  0  0  0
   19.4904   17.5783   24.8115 H   0  0  0  0  0  0  0  0  0  0  0  0
   19.5468   19.3608   26.0434 C   0  0  0  0  0  0  0  0  0  0  0  0
   20.1978   20.2259   26.1963 H   0  0  0  0  0  0  0  0  0  0  0  0
   18.5634   19.7214   25.7298 H   0  0  0  0  0  0  0  0  0  0  0  0
   19.3840   18.6568   27.3751 N   0  3  0  0  0  0  0  0  0  0  0  0
   18.9884   19.2786   28.0888 H   0  0  0  0  0  0  0  0  0  0  0  0
   20.2799   18.3164   27.7394 H   0  0  0  0  0  0  0  0  0  0  0  0
   18.7591   17.8470   27.3054 H   0  0  0  0  0  0  0  0  0  0  0  0
  1  2  1  0  0  0  0
  1  3  1  0  0  0  0
  1  4  1  0  0  0  0
  1  5  1  0  0  0  0
  5  6  1  0  0  0  0
  5  7  1  0  0  0  0
  5  8  1  0  0  0  0
  8  9  1  0  0  0  0
  8 10  1  0  0  0  0
  8 11  1  0  0  0  0
 11 12  1  0  0  0  0
 11 13  1  0  0  0  0
 11 14  1  0  0  0  0
 14 15  1  0  0  0  0
 14 16  1  0  0  0  0
 14 17  1  0  0  0  0
 17 18  1  0  0  0  0
 17 19  1  0  0  0  0
 17 20  1  0  0  0  0
 20 21  1  0  0  0  0
 20 22  1  0  0  0  0
 20 23  1  0  0  0  0
 23 24  1  0  0  0  0
 23 25  1  0  0  0  0
 23 26  1  0  0  0  0
M  END
> <VM2 Rank>
34

> <Conf_Id>
1328

> <Probability>
1.00

> <Sum Probability>
71.44

> <Delta G>
1.197

> <G>
49.459

> <E>
16.677

> <-TS>
32.782

> <U+W>
-4.785

> <U>
48.494

> <W>
-53.279

> <W(PB)>
-55.569

> <W(SA)>
2.290

> <Valence>
3.117

> <Coulomb>
44.693

> <VdW>
0.684

> <VdW6>
-7.347

> <VdW12>
8.030

> <Bond>
0.208

> <Angle>
1.039

> <Pdih>
1.870

> <Idih>
0.000

> <Tether>
0.000

$$$$
VeraChem MOL file


 26 25  0  0  0  0  0  0  0  0999 V2000     
   20.8590   20.0471   20.2472 C   0  0  0  0  0  0  0  0  0  0  0  0
   21.4904   19.3939   19.6310 H   0  0  0  0  0  0  0  0  0  0  0  0
   20.7523   21.0048   19.7216 H   0  0  0  0  0  0  0  0  0  0  0  0
   21.3845   20.2444   21.1899 H   0  0  0  0  0  0  0  0  0  0  0  0
   19.4739   19.4079   20.4946 C   0  0  0  0  0  0  0  0  0  0  0  0
   18.9398   19.3397   19.5366 H   0  0  0  0  0  0  0  0  0  0  0  0
   18.8684   20.0691   21.1288 H   0  0  0  0  0  0  0  0  0  0  0  0
   19.5512   17.9906   21.1176 C   0  0  0  0  0  0  0  0  0  0  0  0
   18.5313   17.5983   21.2317 H   0  0  0  0  0  0  0  0  0  0  0  0
   20.0537   17.3186   20.4084 H   0  0  0  0  0  0  0  0  0  0  0  0
   20.2797   17.9056   22.4838 C   0  0  0  0  0  0  0  0  0  0  0  0
   21.3339   18.1886   22.3642 H   0  0  0  0  0  0  0  0  0  0  0  0
   20.2841   16.8556   22.8074 H   0  0  0  0  0  0  0  0  0  0  0  0
   19.6266   18.7705   23.5884 C   0  0  0  0  0  0  0  0  0  0  0  0
   19.6799   19.8321   23.3127 H   0  0  0  0  0  0  0  0  0  0  0  0
   18.5612   18.5151   23.6735 H   0  0  0  0  0  0  0  0  0  0  0  0
   20.3153   18.5702   24.9563 C   0  0  0  0  0  0  0  0  0  0  0  0
   21.3803   18.8256   24.8746 H   0  0  0  0  0  0  0  0  0  0  0  0
   20.2585   17.5131   25.2483 H   0  0  0  0  0  0  0  0  0  0  0  0
   19.6633   19.4377   26.0472 C   0  0  0  0  0  0  0  0  0  0  0  0
   19.7322   20.4928   25.7687 H   0  0  0  0  0  0  0  0  0  0  0  0
   18.6061   19.1755   26.1431 H   0  0  0  0  0  0  0  0  0  0  0  0
   20.3120   19.2694   27.4060 N   0  3  0  0  0  0  0  0  0  0  0  0
   21.3043   19.5268   27.3903 H   0  0  0  0  0  0  0  0  0  0  0  0
   20.2565   18.3011   27.7386 H   0  0  0  0  0  0  0  0  0  0  0  0
   19.8628   19.8557   28.1179 H   0  0  0  0  0  0  0  0  0  0  0  0
  1  2  1  0  0  0  0
  1  3  1  0  0  0  0
  1  4  1  0  0  0  0
  1  5  1  0  0  0  0
  5  6  1  0  0  0  0
  5  7  1  0  0  0  0
  5  8  1  0  0  0  0
  8  9  1  0  0  0  0
  8 10  1  0  0  0  0
  8 11  1  0  0  0  0
 11 12  1  0  0  0  0
 11 13  1  0  0  0  0
 11 14  1  0  0  0  0
 14 15  1  0  0  0  0
 14 16  1  0  0  0  0
 14 17  1  0  0  0  0
 17 18  1  0  0  0  0
 17 19  1  0  0  0  0
 17 20  1  0  0  0  0
 20 21  1  0  0  0  0
 20 22  1  0  0  0  0
 20 23  1  0  0  0  0
 23 24  1  0  0  0  0
 23 25  1  0  0  0  0
 23 26  1  0  0  0  0
M  END
> <VM2 Rank>
35

> <Conf_Id>
187

> <Probability>
0.94

> <Sum Probability>
72.39

> <Delta G>
1.231

> <G>
49.493

> <E>
16.710

> <-TS>
32.782

> <U+W>
-4.752

> <U>
48.494

> <W>
-53.245

> <W(PB)>
-55.524

> <W(SA)>
2.279

> <Valence>
3.117

> <Coulomb>
44.693

> <VdW>
0.684

> <VdW6>
-7.347

> <VdW12>
8.031

> <Bond>
0.208

> <Angle>
1.039

> <Pdih>
1.870

> <Idih>
0.000

> <Tether>
0.000

$$$$
VeraChem MOL file


 26 25  0  0  0  0  0  0  0  0999 V2000     
   20.1149   19.2551   19.0889 C   0  0  0  0  0  0  0  0  0  0  0  0
   19.2774   18.6673   18.6910 H   0  0  0  0  0  0  0  0  0  0  0  0
   19.8398   20.3169   19.0428 H   0  0  0  0  0  0  0  0  0  0  0  0
   20.9778   19.1015   18.4280 H   0  0  0  0  0  0  0  0  0  0  0  0
   20.4532   18.8323   20.5342 C   0  0  0  0  0  0  0  0  0  0  0  0
   21.3193   19.4117   20.8803 H   0  0  0  0  0  0  0  0  0  0  0  0
   20.7522   17.7749   20.5436 H   0  0  0  0  0  0  0  0  0  0  0  0
   19.2520   19.0443   21.4859 C   0  0  0  0  0  0  0  0  0  0  0  0
   18.9887   20.1105   21.5190 H   0  0  0  0  0  0  0  0  0  0  0  0
   18.3762   18.5238   21.0741 H   0  0  0  0  0  0  0  0  0  0  0  0
   19.4978   18.5250   22.9240 C   0  0  0  0  0  0  0  0  0  0  0  0
   19.7583   17.4581   22.8894 H   0  0  0  0  0  0  0  0  0  0  0  0
   18.5512   18.5933   23.4761 H   0  0  0  0  0  0  0  0  0  0  0  0
   20.5978   19.3079   23.6853 C   0  0  0  0  0  0  0  0  0  0  0  0
   21.5526   19.2168   23.1515 H   0  0  0  0  0  0  0  0  0  0  0  0
   20.3493   20.3782   23.6998 H   0  0  0  0  0  0  0  0  0  0  0  0
   20.8056   18.8075   25.1343 C   0  0  0  0  0  0  0  0  0  0  0  0
   21.6651   19.3326   25.5718 H   0  0  0  0  0  0  0  0  0  0  0  0
   21.0623   17.7397   25.1229 H   0  0  0  0  0  0  0  0  0  0  0  0
   19.5717   19.0349   26.0279 C   0  0  0  0  0  0  0  0  0  0  0  0
   19.3159   20.0978   26.0381 H   0  0  0  0  0  0  0  0  0  0  0  0
   18.7186   18.4789   25.6309 H   0  0  0  0  0  0  0  0  0  0  0  0
   19.7880   18.5921   27.4605 N   0  3  0  0  0  0  0  0  0  0  0  0
   20.0069   17.5924   27.5226 H   0  0  0  0  0  0  0  0  0  0  0  0
   18.9557   18.7520   28.0386 H   0  0  0  0  0  0  0  0  0  0  0  0
   20.5611   19.0985   27.9044 H   0  0  0  0  0  0  0  0  0  0  0  0
  1  2  1  0  0  0  0
  1  3  1  0  0  0  0
  1  4  1  0  0  0  0
  1  5  1  0  0  0  0
  5  6  1  0  0  0  0
  5  7  1  0  0  0  0
  5  8  1  0  0  0  0
  8  9  1  0  0  0  0
  8 10  1  0  0  0  0
  8 11  1  0  0  0  0
 11 12  1  0  0  0  0
 11 13  1  0  0  0  0
 11 14  1  0  0  0  0
 14 15  1  0  0  0  0
 14 16  1  0  0  0  0
 14 17  1  0  0  0  0
 17 18  1  0  0  0  0
 17 19  1  0  0  0  0
 17 20  1  0  0  0  0
 20 21  1  0  0  0  0
 20 22  1  0  0  0  0
 20 23  1  0  0  0  0
 23 24  1  0  0  0  0
 23 25  1  0  0  0  0
 23 26  1  0  0  0  0
M  END
> <VM2 Rank>
36

> <Conf_Id>
275

> <Probability>
0.94

> <Sum Probability>
73.32

> <Delta G>
1.236

> <G>
49.498

> <E>
16.977

> <-TS>
32.521

> <U+W>
-4.485

> <U>
48.768

> <W>
-53.253

> <W(PB)>
-55.597

> <W(SA)>
2.344

> <Valence>
3.051

> <Coulomb>
44.907

> <VdW>
0.810

> <VdW6>
-6.972

> <VdW12>
7.782

> <Bond>
0.197

> <Angle>
0.815

> <Pdih>
2.039

> <Idih>
0.000

> <Tether>
0.000

$$$$
VeraChem MOL file


 26 25  0  0  0  0  0  0  0  0999 V2000     
   19.7325   17.9495   19.7443 C   0  0  0  0  0  0  0  0  0  0  0  0
   18.6838   18.1278   20.0125 H   0  0  0  0  0  0  0  0  0  0  0  0
   19.7819   17.8521   18.6520 H   0  0  0  0  0  0  0  0  0  0  0  0
   20.0415   16.9910   20.1812 H   0  0  0  0  0  0  0  0  0  0  0  0
   20.6449   19.1000   20.2266 C   0  0  0  0  0  0  0  0  0  0  0  0
   20.2996   20.0505   19.7965 H   0  0  0  0  0  0  0  0  0  0  0  0
   21.6589   18.9362   19.8357 H   0  0  0  0  0  0  0  0  0  0  0  0
   20.7193   19.2188   21.7679 C   0  0  0  0  0  0  0  0  0  0  0  0
   21.0948   18.2740   22.1823 H   0  0  0  0  0  0  0  0  0  0  0  0
   21.4610   19.9879   22.0235 H   0  0  0  0  0  0  0  0  0  0  0  0
   19.3626   19.5856   22.4210 C   0  0  0  0  0  0  0  0  0  0  0  0
   18.6431   18.7685   22.2788 H   0  0  0  0  0  0  0  0  0  0  0  0
   18.9431   20.4613   21.9069 H   0  0  0  0  0  0  0  0  0  0  0  0
   19.4733   19.9089   23.9313 C   0  0  0  0  0  0  0  0  0  0  0  0
   20.1713   20.7446   24.0793 H   0  0  0  0  0  0  0  0  0  0  0  0
   18.4938   20.2593   24.2856 H   0  0  0  0  0  0  0  0  0  0  0  0
   19.9160   18.7013   24.7904 C   0  0  0  0  0  0  0  0  0  0  0  0
   20.9273   18.3851   24.5051 H   0  0  0  0  0  0  0  0  0  0  0  0
   19.2461   17.8510   24.6061 H   0  0  0  0  0  0  0  0  0  0  0  0
   19.9033   19.0464   26.2900 C   0  0  0  0  0  0  0  0  0  0  0  0
   20.5814   19.8825   26.4810 H   0  0  0  0  0  0  0  0  0  0  0  0
   18.8954   19.3453   26.5905 H   0  0  0  0  0  0  0  0  0  0  0  0
   20.3291   17.8885   27.1695 N   0  3  0  0  0  0  0  0  0  0  0  0
   20.3131   18.1397   28.1640 H   0  0  0  0  0  0  0  0  0  0  0  0
   21.2821   17.5765   26.9560 H   0  0  0  0  0  0  0  0  0  0  0  0
   19.7132   17.0766   27.0570 H   0  0  0  0  0  0  0  0  0  0  0  0
  1  2  1  0  0  0  0
  1  3  1  0  0  0  0
  1  4  1  0  0  0  0
  1  5  1  0  0  0  0
  5  6  1  0  0  0  0
  5  7  1  0  0  0  0
  5  8  1  0  0  0  0
  8  9  1  0  0  0  0
  8 10  1  0  0  0  0
  8 11  1  0  0  0  0
 11 12  1  0  0  0  0
 11 13  1  0  0  0  0
 11 14  1  0  0  0  0
 14 15  1  0  0  0  0
 14 16  1  0  0  0  0
 14 17  1  0  0  0  0
 17 18  1  0  0  0  0
 17 19  1  0  0  0  0
 17 20  1  0  0  0  0
 20 21  1  0  0  0  0
 20 22  1  0  0  0  0
 20 23  1  0  0  0  0
 23 24  1  0  0  0  0
 23 25  1  0  0  0  0
 23 26  1  0  0  0  0
M  END
> <VM2 Rank>
37

> <Conf_Id>
1021

> <Probability>
0.91

> <Sum Probability>
74.24

> <Delta G>
1.252

> <G>
49.513

> <E>
16.924

> <-TS>
32.589

> <U+W>
-4.538

> <U>
48.768

> <W>
-53.306

> <W(PB)>
-55.644

> <W(SA)>
2.338

> <Valence>
3.172

> <Coulomb>
44.791

> <VdW>
0.806

> <VdW6>
-7.081

> <VdW12>
7.886

> <Bond>
0.203

> <Angle>
0.850

> <Pdih>
2.119

> <Idih>
0.000

> <Tether>
0.000

$$$$
VeraChem MOL file


 26 25  0  0  0  0  0  0  0  0999 V2000     
   20.6684   20.2618   19.9909 C   0  0  0  0  0  0  0  0  0  0  0  0
   21.6250   20.5543   20.4430 H   0  0  0  0  0  0  0  0  0  0  0  0
   20.8809   19.6209   19.1252 H   0  0  0  0  0  0  0  0  0  0  0  0
   20.1770   21.1720   19.6233 H   0  0  0  0  0  0  0  0  0  0  0  0
   19.7713   19.5335   21.0141 C   0  0  0  0  0  0  0  0  0  0  0  0
   18.8115   19.2802   20.5427 H   0  0  0  0  0  0  0  0  0  0  0  0
   19.5486   20.2182   21.8433 H   0  0  0  0  0  0  0  0  0  0  0  0
   20.4450   18.2484   21.5502 C   0  0  0  0  0  0  0  0  0  0  0  0
   20.7268   17.6125   20.6996 H   0  0  0  0  0  0  0  0  0  0  0  0
   21.3844   18.5050   22.0572 H   0  0  0  0  0  0  0  0  0  0  0  0
   19.5385   17.4203   22.4975 C   0  0  0  0  0  0  0  0  0  0  0  0
   20.0811   16.5146   22.8016 H   0  0  0  0  0  0  0  0  0  0  0  0
   18.6623   17.0699   21.9347 H   0  0  0  0  0  0  0  0  0  0  0  0
   19.0493   18.1630   23.7680 C   0  0  0  0  0  0  0  0  0  0  0  0
   18.3998   19.0024   23.4863 H   0  0  0  0  0  0  0  0  0  0  0  0
   18.4178   17.4758   24.3482 H   0  0  0  0  0  0  0  0  0  0  0  0
   20.1985   18.6705   24.6700 C   0  0  0  0  0  0  0  0  0  0  0  0
   20.7955   19.4195   24.1344 H   0  0  0  0  0  0  0  0  0  0  0  0
   20.8693   17.8372   24.9179 H   0  0  0  0  0  0  0  0  0  0  0  0
   19.6576   19.2958   25.9678 C   0  0  0  0  0  0  0  0  0  0  0  0
   19.0013   20.1362   25.7257 H   0  0  0  0  0  0  0  0  0  0  0  0
   19.0757   18.5527   26.5198 H   0  0  0  0  0  0  0  0  0  0  0  0
   20.7525   19.8057   26.8825 N   0  3  0  0  0  0  0  0  0  0  0  0
   21.3903   19.0561   27.1696 H   0  0  0  0  0  0  0  0  0  0  0  0
   20.3704   20.2175   27.7409 H   0  0  0  0  0  0  0  0  0  0  0  0
   21.3210   20.5299   26.4315 H   0  0  0  0  0  0  0  0  0  0  0  0
  1  2  1  0  0  0  0
  1  3  1  0  0  0  0
  1  4  1  0  0  0  0
  1  5  1  0  0  0  0
  5  6  1  0  0  0  0
  5  7  1  0  0  0  0
  5  8  1  0  0  0  0
  8  9  1  0  0  0  0
  8 10  1  0  0  0  0
  8 11  1  0  0  0  0
 11 12  1  0  0  0  0
 11 13  1  0  0  0  0
 11 14  1  0  0  0  0
 14 15  1  0  0  0  0
 14 16  1  0  0  0  0
 14 17  1  0  0  0  0
 17 18  1  0  0  0  0
 17 19  1  0  0  0  0
 17 20  1  0  0  0  0
 20 21  1  0  0  0  0
 20 22  1  0  0  0  0
 20 23  1  0  0  0  0
 23 24  1  0  0  0  0
 23 25  1  0  0  0  0
 23 26  1  0  0  0  0
M  END
> <VM2 Rank>
38

> <Conf_Id>
1324

> <Probability>
0.90

> <Sum Probability>
75.14

> <Delta G>
1.261

> <G>
49.522

> <E>
16.727

> <-TS>
32.795

> <U+W>
-4.735

> <U>
48.910

> <W>
-53.646

> <W(PB)>
-55.959

> <W(SA)>
2.314

> <Valence>
3.149

> <Coulomb>
45.131

> <VdW>
0.630

> <VdW6>
-7.453

> <VdW12>
8.084

> <Bond>
0.212

> <Angle>
1.075

> <Pdih>
1.862

> <Idih>
0.000

> <Tether>
0.000

$$$$
VeraChem MOL file


 26 25  0  0  0  0  0  0  0  0999 V2000     
   21.1800   18.9016   19.7927 C   0  0  0  0  0  0  0  0  0  0  0  0
   21.9171   18.2247   20.2439 H   0  0  0  0  0  0  0  0  0  0  0  0
   21.3009   18.8512   18.7028 H   0  0  0  0  0  0  0  0  0  0  0  0
   21.4180   19.9263   20.1039 H   0  0  0  0  0  0  0  0  0  0  0  0
   19.7416   18.5058   20.1964 C   0  0  0  0  0  0  0  0  0  0  0  0
   19.5097   17.5224   19.7639 H   0  0  0  0  0  0  0  0  0  0  0  0
   19.0259   19.2126   19.7539 H   0  0  0  0  0  0  0  0  0  0  0  0
   19.5314   18.4374   21.7282 C   0  0  0  0  0  0  0  0  0  0  0  0
   18.5209   18.0538   21.9253 H   0  0  0  0  0  0  0  0  0  0  0  0
   20.2307   17.7056   22.1535 H   0  0  0  0  0  0  0  0  0  0  0  0
   19.6999   19.8076   22.4323 C   0  0  0  0  0  0  0  0  0  0  0  0
   19.0859   20.5554   21.9117 H   0  0  0  0  0  0  0  0  0  0  0  0
   20.7404   20.1484   22.3489 H   0  0  0  0  0  0  0  0  0  0  0  0
   19.2893   19.7879   23.9252 C   0  0  0  0  0  0  0  0  0  0  0  0
   19.3378   20.8147   24.3138 H   0  0  0  0  0  0  0  0  0  0  0  0
   18.2401   19.4739   24.0148 H   0  0  0  0  0  0  0  0  0  0  0  0
   20.1827   18.8769   24.7993 C   0  0  0  0  0  0  0  0  0  0  0  0
   21.2360   19.1605   24.6727 H   0  0  0  0  0  0  0  0  0  0  0  0
   20.0873   17.8324   24.4770 H   0  0  0  0  0  0  0  0  0  0  0  0
   19.8011   18.9791   26.2866 C   0  0  0  0  0  0  0  0  0  0  0  0
   19.9104   20.0132   26.6245 H   0  0  0  0  0  0  0  0  0  0  0  0
   18.7574   18.6820   26.4200 H   0  0  0  0  0  0  0  0  0  0  0  0
   20.6548   18.1028   27.1803 N   0  3  0  0  0  0  0  0  0  0  0  0
   20.5751   17.1112   26.9322 H   0  0  0  0  0  0  0  0  0  0  0  0
   20.3842   18.1864   28.1663 H   0  0  0  0  0  0  0  0  0  0  0  0
   21.6481   18.3499   27.1217 H   0  0  0  0  0  0  0  0  0  0  0  0
  1  2  1  0  0  0  0
  1  3  1  0  0  0  0
  1  4  1  0  0  0  0
  1  5  1  0  0  0  0
  5  6  1  0  0  0  0
  5  7  1  0  0  0  0
  5  8  1  0  0  0  0
  8  9  1  0  0  0  0
  8 10  1  0  0  0  0
  8 11  1  0  0  0  0
 11 12  1  0  0  0  0
 11 13  1  0  0  0  0
 11 14  1  0  0  0  0
 14 15  1  0  0  0  0
 14 16  1  0  0  0  0
 14 17  1  0  0  0  0
 17 18  1  0  0  0  0
 17 19  1  0  0  0  0
 17 20  1  0  0  0  0
 20 21  1  0  0  0  0
 20 22  1  0  0  0  0
 20 23  1  0  0  0  0
 23 24  1  0  0  0  0
 23 25  1  0  0  0  0
 23 26  1  0  0  0  0
M  END
> <VM2 Rank>
39

> <Conf_Id>
496

> <Probability>
0.89

> <Sum Probability>
76.03

> <Delta G>
1.265

> <G>
49.526

> <E>
16.937

> <-TS>
32.589

> <U+W>
-4.525

> <U>
48.768

> <W>
-53.293

> <W(PB)>
-55.606

> <W(SA)>
2.313

> <Valence>
3.172

> <Coulomb>
44.791

> <VdW>
0.805

> <VdW6>
-7.080

> <VdW12>
7.886

> <Bond>
0.203

> <Angle>
0.850

> <Pdih>
2.119

> <Idih>
0.000

> <Tether>
0.000

$$$$
VeraChem MOL file


 26 25  0  0  0  0  0  0  0  0999 V2000     
   18.6775   18.9469   19.9242 C   0  0  0  0  0  0  0  0  0  0  0  0
   19.2236   18.5263   19.0697 H   0  0  0  0  0  0  0  0  0  0  0  0
   18.0131   18.1688   20.3221 H   0  0  0  0  0  0  0  0  0  0  0  0
   18.0506   19.7676   19.5521 H   0  0  0  0  0  0  0  0  0  0  0  0
   19.6503   19.4536   21.0100 C   0  0  0  0  0  0  0  0  0  0  0  0
   19.0696   19.9019   21.8272 H   0  0  0  0  0  0  0  0  0  0  0  0
   20.2808   20.2505   20.5918 H   0  0  0  0  0  0  0  0  0  0  0  0
   20.5426   18.3129   21.5535 C   0  0  0  0  0  0  0  0  0  0  0  0
   19.9153   17.5349   22.0081 H   0  0  0  0  0  0  0  0  0  0  0  0
   21.0562   17.8300   20.7107 H   0  0  0  0  0  0  0  0  0  0  0  0
   21.6144   18.7913   22.5670 C   0  0  0  0  0  0  0  0  0  0  0  0
   22.3057   19.4760   22.0566 H   0  0  0  0  0  0  0  0  0  0  0  0
   22.2201   17.9273   22.8732 H   0  0  0  0  0  0  0  0  0  0  0  0
   21.0643   19.4938   23.8353 C   0  0  0  0  0  0  0  0  0  0  0  0
   21.9160   19.7862   24.4652 H   0  0  0  0  0  0  0  0  0  0  0  0
   20.5603   20.4293   23.5585 H   0  0  0  0  0  0  0  0  0  0  0  0
   20.1060   18.6095   24.6669 C   0  0  0  0  0  0  0  0  0  0  0  0
   20.5976   17.6578   24.9088 H   0  0  0  0  0  0  0  0  0  0  0  0
   19.2089   18.3718   24.0814 H   0  0  0  0  0  0  0  0  0  0  0  0
   19.6828   19.3125   25.9687 C   0  0  0  0  0  0  0  0  0  0  0  0
   20.5678   19.5382   26.5697 H   0  0  0  0  0  0  0  0  0  0  0  0
   19.1786   20.2533   25.7317 H   0  0  0  0  0  0  0  0  0  0  0  0
   18.7431   18.4785   26.8154 N   0  3  0  0  0  0  0  0  0  0  0  0
   19.1689   17.5889   27.0953 H   0  0  0  0  0  0  0  0  0  0  0  0
   17.8759   18.2545   26.3164 H   0  0  0  0  0  0  0  0  0  0  0  0
   18.4743   18.9651   27.6776 H   0  0  0  0  0  0  0  0  0  0  0  0
  1  2  1  0  0  0  0
  1  3  1  0  0  0  0
  1  4  1  0  0  0  0
  1  5  1  0  0  0  0
  5  6  1  0  0  0  0
  5  7  1  0  0  0  0
  5  8  1  0  0  0  0
  8  9  1  0  0  0  0
  8 10  1  0  0  0  0
  8 11  1  0  0  0  0
 11 12  1  0  0  0  0
 11 13  1  0  0  0  0
 11 14  1  0  0  0  0
 14 15  1  0  0  0  0
 14 16  1  0  0  0  0
 14 17  1  0  0  0  0
 17 18  1  0  0  0  0
 17 19  1  0  0  0  0
 17 20  1  0  0  0  0
 20 21  1  0  0  0  0
 20 22  1  0  0  0  0
 20 23  1  0  0  0  0
 23 24  1  0  0  0  0
 23 25  1  0  0  0  0
 23 26  1  0  0  0  0
M  END
> <VM2 Rank>
40

> <Conf_Id>
152

> <Probability>
0.86

> <Sum Probability>
76.89

> <Delta G>
1.288

> <G>
49.550

> <E>
16.754

> <-TS>
32.795

> <U+W>
-4.707

> <U>
48.910

> <W>
-53.618

> <W(PB)>
-55.928

> <W(SA)>
2.311

> <Valence>
3.149

> <Coulomb>
45.131

> <VdW>
0.630

> <VdW6>
-7.453

> <VdW12>
8.083

> <Bond>
0.212

> <Angle>
1.075

> <Pdih>
1.862

> <Idih>
0.000

> <Tether>
0.000

$$$$
VeraChem MOL file


 26 25  0  0  0  0  0  0  0  0999 V2000     
   19.8456   19.2215   19.3278 C   0  0  0  0  0  0  0  0  0  0  0  0
   18.7986   18.9692   19.5356 H   0  0  0  0  0  0  0  0  0  0  0  0
   19.9451   20.3147   19.3368 H   0  0  0  0  0  0  0  0  0  0  0  0
   20.0726   18.8725   18.3121 H   0  0  0  0  0  0  0  0  0  0  0  0
   20.8029   18.5677   20.3502 C   0  0  0  0  0  0  0  0  0  0  0  0
   21.8381   18.7422   20.0248 H   0  0  0  0  0  0  0  0  0  0  0  0
   20.6598   17.4780   20.3472 H   0  0  0  0  0  0  0  0  0  0  0  0
   20.6377   19.1138   21.7892 C   0  0  0  0  0  0  0  0  0  0  0  0
   21.4434   18.6940   22.4048 H   0  0  0  0  0  0  0  0  0  0  0  0
   20.7839   20.2027   21.7869 H   0  0  0  0  0  0  0  0  0  0  0  0
   19.2664   18.7710   22.4253 C   0  0  0  0  0  0  0  0  0  0  0  0
   19.1213   17.6820   22.4301 H   0  0  0  0  0  0  0  0  0  0  0  0
   18.4624   19.1871   21.8047 H   0  0  0  0  0  0  0  0  0  0  0  0
   19.0946   19.3238   23.8619 C   0  0  0  0  0  0  0  0  0  0  0  0
   19.2408   20.4129   23.8576 H   0  0  0  0  0  0  0  0  0  0  0  0
   18.0556   19.1540   24.1771 H   0  0  0  0  0  0  0  0  0  0  0  0
   20.0430   18.6734   24.8966 C   0  0  0  0  0  0  0  0  0  0  0  0
   21.0872   18.9041   24.6517 H   0  0  0  0  0  0  0  0  0  0  0  0
   19.9351   17.5811   24.8619 H   0  0  0  0  0  0  0  0  0  0  0  0
   19.7425   19.1713   26.3213 C   0  0  0  0  0  0  0  0  0  0  0  0
   19.8643   20.2570   26.3651 H   0  0  0  0  0  0  0  0  0  0  0  0
   18.7093   18.9302   26.5853 H   0  0  0  0  0  0  0  0  0  0  0  0
   20.6482   18.5564   27.3687 N   0  3  0  0  0  0  0  0  0  0  0  0
   21.6356   18.7702   27.1935 H   0  0  0  0  0  0  0  0  0  0  0  0
   20.5609   17.5353   27.3976 H   0  0  0  0  0  0  0  0  0  0  0  0
   20.4307   18.9013   28.3101 H   0  0  0  0  0  0  0  0  0  0  0  0
  1  2  1  0  0  0  0
  1  3  1  0  0  0  0
  1  4  1  0  0  0  0
  1  5  1  0  0  0  0
  5  6  1  0  0  0  0
  5  7  1  0  0  0  0
  5  8  1  0  0  0  0
  8  9  1  0  0  0  0
  8 10  1  0  0  0  0
  8 11  1  0  0  0  0
 11 12  1  0  0  0  0
 11 13  1  0  0  0  0
 11 14  1  0  0  0  0
 14 15  1  0  0  0  0
 14 16  1  0  0  0  0
 14 17  1  0  0  0  0
 17 18  1  0  0  0  0
 17 19  1  0  0  0  0
 17 20  1  0  0  0  0
 20 21  1  0  0  0  0
 20 22  1  0  0  0  0
 20 23  1  0  0  0  0
 23 24  1  0  0  0  0
 23 25  1  0  0  0  0
 23 26  1  0  0  0  0
M  END
> <VM2 Rank>
41

> <Conf_Id>
742

> <Probability>
0.77

> <Sum Probability>
77.66

> <Delta G>
1.350

> <G>
49.611

> <E>
17.104

> <-TS>
32.507

> <U+W>
-4.358

> <U>
48.901

> <W>
-53.259

> <W(PB)>
-55.568

> <W(SA)>
2.309

> <Valence>
3.277

> <Coulomb>
44.745

> <VdW>
0.880

> <VdW6>
-6.990

> <VdW12>
7.870

> <Bond>
0.211

> <Angle>
0.950

> <Pdih>
2.115

> <Idih>
0.000

> <Tether>
0.000

$$$$
VeraChem MOL file


 26 25  0  0  0  0  0  0  0  0999 V2000     
   19.9873   19.3146   19.3325 C   0  0  0  0  0  0  0  0  0  0  0  0
   20.6209   20.1701   19.5966 H   0  0  0  0  0  0  0  0  0  0  0  0
   20.2662   18.9995   18.3186 H   0  0  0  0  0  0  0  0  0  0  0  0
   18.9439   19.6544   19.3029 H   0  0  0  0  0  0  0  0  0  0  0  0
   20.1635   18.1461   20.3289 C   0  0  0  0  0  0  0  0  0  0  0  0
   21.2205   17.8475   20.3662 H   0  0  0  0  0  0  0  0  0  0  0  0
   19.6114   17.2744   19.9504 H   0  0  0  0  0  0  0  0  0  0  0  0
   19.6597   18.4693   21.7565 C   0  0  0  0  0  0  0  0  0  0  0  0
   18.6024   18.7648   21.7138 H   0  0  0  0  0  0  0  0  0  0  0  0
   19.6998   17.5449   22.3466 H   0  0  0  0  0  0  0  0  0  0  0  0
   20.4838   19.5739   22.4660 C   0  0  0  0  0  0  0  0  0  0  0  0
   20.4466   20.4954   21.8710 H   0  0  0  0  0  0  0  0  0  0  0  0
   21.5407   19.2773   22.5109 H   0  0  0  0  0  0  0  0  0  0  0  0
   19.9768   19.9056   23.8914 C   0  0  0  0  0  0  0  0  0  0  0  0
   20.5263   20.7832   24.2597 H   0  0  0  0  0  0  0  0  0  0  0  0
   18.9194   20.2010   23.8470 H   0  0  0  0  0  0  0  0  0  0  0  0
   20.1535   18.7463   24.9003 C   0  0  0  0  0  0  0  0  0  0  0  0
   21.2007   18.4157   24.9042 H   0  0  0  0  0  0  0  0  0  0  0  0
   19.5428   17.8857   24.6001 H   0  0  0  0  0  0  0  0  0  0  0  0
   19.7480   19.1749   26.3215 C   0  0  0  0  0  0  0  0  0  0  0  0
   20.3631   20.0207   26.6406 H   0  0  0  0  0  0  0  0  0  0  0  0
   18.7010   19.4898   26.3263 H   0  0  0  0  0  0  0  0  0  0  0  0
   19.9083   18.0684   27.3440 N   0  3  0  0  0  0  0  0  0  0  0  0
   19.6333   18.3753   28.2835 H   0  0  0  0  0  0  0  0  0  0  0  0
   20.8792   17.7451   27.4081 H   0  0  0  0  0  0  0  0  0  0  0  0
   19.3324   17.2513   27.1166 H   0  0  0  0  0  0  0  0  0  0  0  0
  1  2  1  0  0  0  0
  1  3  1  0  0  0  0
  1  4  1  0  0  0  0
  1  5  1  0  0  0  0
  5  6  1  0  0  0  0
  5  7  1  0  0  0  0
  5  8  1  0  0  0  0
  8  9  1  0  0  0  0
  8 10  1  0  0  0  0
  8 11  1  0  0  0  0
 11 12  1  0  0  0  0
 11 13  1  0  0  0  0
 11 14  1  0  0  0  0
 14 15  1  0  0  0  0
 14 16  1  0  0  0  0
 14 17  1  0  0  0  0
 17 18  1  0  0  0  0
 17 19  1  0  0  0  0
 17 20  1  0  0  0  0
 20 21  1  0  0  0  0
 20 22  1  0  0  0  0
 20 23  1  0  0  0  0
 23 24  1  0  0  0  0
 23 25  1  0  0  0  0
 23 26  1  0  0  0  0
M  END
> <VM2 Rank>
42

> <Conf_Id>
931

> <Probability>
0.76

> <Sum Probability>
78.42

> <Delta G>
1.364

> <G>
49.625

> <E>
17.118

> <-TS>
32.507

> <U+W>
-4.344

> <U>
48.901

> <W>
-53.245

> <W(PB)>
-55.589

> <W(SA)>
2.344

> <Valence>
3.277

> <Coulomb>
44.745

> <VdW>
0.880

> <VdW6>
-6.990

> <VdW12>
7.870

> <Bond>
0.211

> <Angle>
0.950

> <Pdih>
2.115

> <Idih>
0.000

> <Tether>
0.000

$$$$
VeraChem MOL file


 26 25  0  0  0  0  0  0  0  0999 V2000     
   19.1492   18.7120   19.8225 C   0  0  0  0  0  0  0  0  0  0  0  0
   18.3111   18.5699   20.5159 H   0  0  0  0  0  0  0  0  0  0  0  0
   19.1700   19.7666   19.5186 H   0  0  0  0  0  0  0  0  0  0  0  0
   18.9433   18.1091   18.9286 H   0  0  0  0  0  0  0  0  0  0  0  0
   20.4922   18.2910   20.4610 C   0  0  0  0  0  0  0  0  0  0  0  0
   21.2780   18.3346   19.6940 H   0  0  0  0  0  0  0  0  0  0  0  0
   20.4353   17.2418   20.7833 H   0  0  0  0  0  0  0  0  0  0  0  0
   20.9127   19.1831   21.6539 C   0  0  0  0  0  0  0  0  0  0  0  0
   21.9206   18.8847   21.9741 H   0  0  0  0  0  0  0  0  0  0  0  0
   20.9907   20.2273   21.3210 H   0  0  0  0  0  0  0  0  0  0  0  0
   19.9504   19.0905   22.8623 C   0  0  0  0  0  0  0  0  0  0  0  0
   19.8325   18.0372   23.1488 H   0  0  0  0  0  0  0  0  0  0  0  0
   18.9561   19.4578   22.5763 H   0  0  0  0  0  0  0  0  0  0  0  0
   20.4658   19.9127   24.0679 C   0  0  0  0  0  0  0  0  0  0  0  0
   21.4474   19.5347   24.3836 H   0  0  0  0  0  0  0  0  0  0  0  0
   20.6269   20.9525   23.7514 H   0  0  0  0  0  0  0  0  0  0  0  0
   19.4887   19.9096   25.2702 C   0  0  0  0  0  0  0  0  0  0  0  0
   18.5398   20.3715   24.9665 H   0  0  0  0  0  0  0  0  0  0  0  0
   19.8950   20.5430   26.0699 H   0  0  0  0  0  0  0  0  0  0  0  0
   19.1958   18.5059   25.8381 C   0  0  0  0  0  0  0  0  0  0  0  0
   18.4815   18.5895   26.6617 H   0  0  0  0  0  0  0  0  0  0  0  0
   18.7475   17.8792   25.0630 H   0  0  0  0  0  0  0  0  0  0  0  0
   20.4262   17.7943   26.3649 N   0  3  0  0  0  0  0  0  0  0  0  0
   20.8774   18.3225   27.1188 H   0  0  0  0  0  0  0  0  0  0  0  0
   21.1263   17.6569   25.6295 H   0  0  0  0  0  0  0  0  0  0  0  0
   20.1987   16.8680   26.7422 H   0  0  0  0  0  0  0  0  0  0  0  0
  1  2  1  0  0  0  0
  1  3  1  0  0  0  0
  1  4  1  0  0  0  0
  1  5  1  0  0  0  0
  5  6  1  0  0  0  0
  5  7  1  0  0  0  0
  5  8  1  0  0  0  0
  8  9  1  0  0  0  0
  8 10  1  0  0  0  0
  8 11  1  0  0  0  0
 11 12  1  0  0  0  0
 11 13  1  0  0  0  0
 11 14  1  0  0  0  0
 14 15  1  0  0  0  0
 14 16  1  0  0  0  0
 14 17  1  0  0  0  0
 17 18  1  0  0  0  0
 17 19  1  0  0  0  0
 17 20  1  0  0  0  0
 20 21  1  0  0  0  0
 20 22  1  0  0  0  0
 20 23  1  0  0  0  0
 23 24  1  0  0  0  0
 23 25  1  0  0  0  0
 23 26  1  0  0  0  0
M  END
> <VM2 Rank>
43

> <Conf_Id>
454

> <Probability>
0.62

> <Sum Probability>
79.04

> <Delta G>
1.482

> <G>
49.743

> <E>
16.993

> <-TS>
32.750

> <U+W>
-4.469

> <U>
49.278

> <W>
-53.747

> <W(PB)>
-56.035

> <W(SA)>
2.288

> <Valence>
3.047

> <Coulomb>
45.459

> <VdW>
0.771

> <VdW6>
-7.730

> <VdW12>
8.501

> <Bond>
0.210

> <Angle>
0.867

> <Pdih>
1.970

> <Idih>
0.000

> <Tether>
0.000

$$$$
VeraChem MOL file


 26 25  0  0  0  0  0  0  0  0999 V2000     
   20.3826   19.9109   19.6219 C   0  0  0  0  0  0  0  0  0  0  0  0
   20.4925   20.9268   20.0232 H   0  0  0  0  0  0  0  0  0  0  0  0
   21.0729   19.8067   18.7748 H   0  0  0  0  0  0  0  0  0  0  0  0
   19.3596   19.8035   19.2382 H   0  0  0  0  0  0  0  0  0  0  0  0
   20.6833   18.8515   20.7033 C   0  0  0  0  0  0  0  0  0  0  0  0
   21.7224   18.9627   21.0437 H   0  0  0  0  0  0  0  0  0  0  0  0
   20.5994   17.8479   20.2634 H   0  0  0  0  0  0  0  0  0  0  0  0
   19.7242   18.9755   21.9079 C   0  0  0  0  0  0  0  0  0  0  0  0
   19.8110   19.9845   22.3320 H   0  0  0  0  0  0  0  0  0  0  0  0
   18.6871   18.8615   21.5636 H   0  0  0  0  0  0  0  0  0  0  0  0
   20.0279   17.9172   22.9952 C   0  0  0  0  0  0  0  0  0  0  0  0
   21.0509   18.0548   23.3698 H   0  0  0  0  0  0  0  0  0  0  0  0
   20.0047   16.9184   22.5378 H   0  0  0  0  0  0  0  0  0  0  0  0
   19.0224   17.9367   24.1755 C   0  0  0  0  0  0  0  0  0  0  0  0
   18.0187   17.7022   23.7952 H   0  0  0  0  0  0  0  0  0  0  0  0
   19.2744   17.1232   24.8690 H   0  0  0  0  0  0  0  0  0  0  0  0
   18.9600   19.2747   24.9583 C   0  0  0  0  0  0  0  0  0  0  0  0
   18.2593   19.1694   25.7971 H   0  0  0  0  0  0  0  0  0  0  0  0
   18.5410   20.0595   24.3157 H   0  0  0  0  0  0  0  0  0  0  0  0
   20.3244   19.7488   25.4977 C   0  0  0  0  0  0  0  0  0  0  0  0
   21.0203   19.8908   24.6667 H   0  0  0  0  0  0  0  0  0  0  0  0
   20.2009   20.7090   26.0058 H   0  0  0  0  0  0  0  0  0  0  0  0
   20.9561   18.7836   26.4811 N   0  3  0  0  0  0  0  0  0  0  0  0
   20.3609   18.6337   27.3021 H   0  0  0  0  0  0  0  0  0  0  0  0
   21.8601   19.1258   26.8244 H   0  0  0  0  0  0  0  0  0  0  0  0
   21.1220   17.8664   26.0556 H   0  0  0  0  0  0  0  0  0  0  0  0
  1  2  1  0  0  0  0
  1  3  1  0  0  0  0
  1  4  1  0  0  0  0
  1  5  1  0  0  0  0
  5  6  1  0  0  0  0
  5  7  1  0  0  0  0
  5  8  1  0  0  0  0
  8  9  1  0  0  0  0
  8 10  1  0  0  0  0
  8 11  1  0  0  0  0
 11 12  1  0  0  0  0
 11 13  1  0  0  0  0
 11 14  1  0  0  0  0
 14 15  1  0  0  0  0
 14 16  1  0  0  0  0
 14 17  1  0  0  0  0
 17 18  1  0  0  0  0
 17 19  1  0  0  0  0
 17 20  1  0  0  0  0
 20 21  1  0  0  0  0
 20 22  1  0  0  0  0
 20 23  1  0  0  0  0
 23 24  1  0  0  0  0
 23 25  1  0  0  0  0
 23 26  1  0  0  0  0
M  END
> <VM2 Rank>
44

> <Conf_Id>
355

> <Probability>
0.61

> <Sum Probability>
79.65

> <Delta G>
1.492

> <G>
49.753

> <E>
16.853

> <-TS>
32.900

> <U+W>
-4.609

> <U>
49.198

> <W>
-53.807

> <W(PB)>
-56.083

> <W(SA)>
2.276

> <Valence>
3.018

> <Coulomb>
45.590

> <VdW>
0.590

> <VdW6>
-8.073

> <VdW12>
8.663

> <Bond>
0.222

> <Angle>
0.958

> <Pdih>
1.839

> <Idih>
0.000

> <Tether>
0.000

$$$$
VeraChem MOL file


 26 25  0  0  0  0  0  0  0  0999 V2000     
   19.3872   19.9493   20.2013 C   0  0  0  0  0  0  0  0  0  0  0  0
   20.2321   20.1336   19.5252 H   0  0  0  0  0  0  0  0  0  0  0  0
   18.4639   20.1922   19.6597 H   0  0  0  0  0  0  0  0  0  0  0  0
   19.4658   20.6430   21.0476 H   0  0  0  0  0  0  0  0  0  0  0  0
   19.3660   18.4785   20.6753 C   0  0  0  0  0  0  0  0  0  0  0  0
   19.1672   17.8310   19.8099 H   0  0  0  0  0  0  0  0  0  0  0  0
   18.5256   18.3234   21.3650 H   0  0  0  0  0  0  0  0  0  0  0  0
   20.6926   18.0245   21.3360 C   0  0  0  0  0  0  0  0  0  0  0  0
   20.6048   16.9653   21.6143 H   0  0  0  0  0  0  0  0  0  0  0  0
   21.4959   18.0727   20.5880 H   0  0  0  0  0  0  0  0  0  0  0  0
   21.1252   18.8390   22.5826 C   0  0  0  0  0  0  0  0  0  0  0  0
   21.3272   19.8800   22.2977 H   0  0  0  0  0  0  0  0  0  0  0  0
   22.0806   18.4344   22.9445 H   0  0  0  0  0  0  0  0  0  0  0  0
   20.0935   18.8012   23.7352 C   0  0  0  0  0  0  0  0  0  0  0  0
   19.1557   19.2723   23.4123 H   0  0  0  0  0  0  0  0  0  0  0  0
   19.8610   17.7558   23.9780 H   0  0  0  0  0  0  0  0  0  0  0  0
   20.6164   19.5310   24.9950 C   0  0  0  0  0  0  0  0  0  0  0  0
   20.8842   20.5630   24.7320 H   0  0  0  0  0  0  0  0  0  0  0  0
   21.5360   19.0504   25.3547 H   0  0  0  0  0  0  0  0  0  0  0  0
   19.5785   19.5715   26.1332 C   0  0  0  0  0  0  0  0  0  0  0  0
   19.9708   20.1689   26.9607 H   0  0  0  0  0  0  0  0  0  0  0  0
   18.6595   20.0446   25.7768 H   0  0  0  0  0  0  0  0  0  0  0  0
   19.2215   18.2041   26.6823 N   0  3  0  0  0  0  0  0  0  0  0  0
   18.8120   17.6010   25.9623 H   0  0  0  0  0  0  0  0  0  0  0  0
   18.5390   18.2667   27.4456 H   0  0  0  0  0  0  0  0  0  0  0  0
   20.0433   17.7171   27.0546 H   0  0  0  0  0  0  0  0  0  0  0  0
  1  2  1  0  0  0  0
  1  3  1  0  0  0  0
  1  4  1  0  0  0  0
  1  5  1  0  0  0  0
  5  6  1  0  0  0  0
  5  7  1  0  0  0  0
  5  8  1  0  0  0  0
  8  9  1  0  0  0  0
  8 10  1  0  0  0  0
  8 11  1  0  0  0  0
 11 12  1  0  0  0  0
 11 13  1  0  0  0  0
 11 14  1  0  0  0  0
 14 15  1  0  0  0  0
 14 16  1  0  0  0  0
 14 17  1  0  0  0  0
 17 18  1  0  0  0  0
 17 19  1  0  0  0  0
 17 20  1  0  0  0  0
 20 21  1  0  0  0  0
 20 22  1  0  0  0  0
 20 23  1  0  0  0  0
 23 24  1  0  0  0  0
 23 25  1  0  0  0  0
 23 26  1  0  0  0  0
M  END
> <VM2 Rank>
45

> <Conf_Id>
235

> <Probability>
0.60

> <Sum Probability>
80.25

> <Delta G>
1.500

> <G>
49.761

> <E>
16.874

> <-TS>
32.888

> <U+W>
-4.588

> <U>
49.147

> <W>
-53.735

> <W(PB)>
-56.021

> <W(SA)>
2.286

> <Valence>
3.219

> <Coulomb>
45.149

> <VdW>
0.779

> <VdW6>
-7.884

> <VdW12>
8.664

> <Bond>
0.228

> <Angle>
1.077

> <Pdih>
1.914

> <Idih>
0.000

> <Tether>
0.000

$$$$
VeraChem MOL file


 26 25  0  0  0  0  0  0  0  0999 V2000     
   19.8857   19.7490   19.6631 C   0  0  0  0  0  0  0  0  0  0  0  0
   18.8185   19.7208   19.9161 H   0  0  0  0  0  0  0  0  0  0  0  0
   20.2918   20.7147   19.9912 H   0  0  0  0  0  0  0  0  0  0  0  0
   19.9669   19.7047   18.5694 H   0  0  0  0  0  0  0  0  0  0  0  0
   20.6534   18.5744   20.3108 C   0  0  0  0  0  0  0  0  0  0  0  0
   21.6868   18.5769   19.9367 H   0  0  0  0  0  0  0  0  0  0  0  0
   20.2118   17.6214   19.9875 H   0  0  0  0  0  0  0  0  0  0  0  0
   20.6841   18.6398   21.8568 C   0  0  0  0  0  0  0  0  0  0  0  0
   21.3302   17.8324   22.2277 H   0  0  0  0  0  0  0  0  0  0  0  0
   21.1548   19.5822   22.1664 H   0  0  0  0  0  0  0  0  0  0  0  0
   19.2827   18.5060   22.5044 C   0  0  0  0  0  0  0  0  0  0  0  0
   18.7788   17.6225   22.0889 H   0  0  0  0  0  0  0  0  0  0  0  0
   18.6608   19.3710   22.2389 H   0  0  0  0  0  0  0  0  0  0  0  0
   19.3286   18.3664   24.0458 C   0  0  0  0  0  0  0  0  0  0  0  0
   18.3093   18.1758   24.4092 H   0  0  0  0  0  0  0  0  0  0  0  0
   19.9229   17.4821   24.3122 H   0  0  0  0  0  0  0  0  0  0  0  0
   19.8917   19.6203   24.7602 C   0  0  0  0  0  0  0  0  0  0  0  0
   19.3460   20.5098   24.4184 H   0  0  0  0  0  0  0  0  0  0  0  0
   20.9447   19.7743   24.4924 H   0  0  0  0  0  0  0  0  0  0  0  0
   19.7694   19.5322   26.2936 C   0  0  0  0  0  0  0  0  0  0  0  0
   20.1084   20.4713   26.7395 H   0  0  0  0  0  0  0  0  0  0  0  0
   18.7228   19.3810   26.5713 H   0  0  0  0  0  0  0  0  0  0  0  0
   20.5853   18.4108   26.9062 N   0  3  0  0  0  0  0  0  0  0  0  0
   20.4913   18.3855   27.9274 H   0  0  0  0  0  0  0  0  0  0  0  0
   21.5846   18.5102   26.6999 H   0  0  0  0  0  0  0  0  0  0  0  0
   20.2930   17.4936   26.5552 H   0  0  0  0  0  0  0  0  0  0  0  0
  1  2  1  0  0  0  0
  1  3  1  0  0  0  0
  1  4  1  0  0  0  0
  1  5  1  0  0  0  0
  5  6  1  0  0  0  0
  5  7  1  0  0  0  0
  5  8  1  0  0  0  0
  8  9  1  0  0  0  0
  8 10  1  0  0  0  0
  8 11  1  0  0  0  0
 11 12  1  0  0  0  0
 11 13  1  0  0  0  0
 11 14  1  0  0  0  0
 14 15  1  0  0  0  0
 14 16  1  0  0  0  0
 14 17  1  0  0  0  0
 17 18  1  0  0  0  0
 17 19  1  0  0  0  0
 17 20  1  0  0  0  0
 20 21  1  0  0  0  0
 20 22  1  0  0  0  0
 20 23  1  0  0  0  0
 23 24  1  0  0  0  0
 23 25  1  0  0  0  0
 23 26  1  0  0  0  0
M  END
> <VM2 Rank>
46

> <Conf_Id>
790

> <Probability>
0.60

> <Sum Probability>
80.85

> <Delta G>
1.502

> <G>
49.763

> <E>
17.062

> <-TS>
32.701

> <U+W>
-4.400

> <U>
49.228

> <W>
-53.627

> <W(PB)>
-55.903

> <W(SA)>
2.275

> <Valence>
3.267

> <Coulomb>
45.067

> <VdW>
0.893

> <VdW6>
-7.615

> <VdW12>
8.508

> <Bond>
0.224

> <Angle>
0.867

> <Pdih>
2.176

> <Idih>
0.000

> <Tether>
0.000

$$$$
VeraChem MOL file


 26 25  0  0  0  0  0  0  0  0999 V2000     
   21.4560   18.7053   20.5076 C   0  0  0  0  0  0  0  0  0  0  0  0
   21.1162   17.9704   19.7664 H   0  0  0  0  0  0  0  0  0  0  0  0
   22.3649   19.1811   20.1171 H   0  0  0  0  0  0  0  0  0  0  0  0
   21.7319   18.1682   21.4236 H   0  0  0  0  0  0  0  0  0  0  0  0
   20.3644   19.7649   20.7796 C   0  0  0  0  0  0  0  0  0  0  0  0
   20.2078   20.3539   19.8652 H   0  0  0  0  0  0  0  0  0  0  0  0
   20.7189   20.4765   21.5372 H   0  0  0  0  0  0  0  0  0  0  0  0
   19.0064   19.1545   21.2111 C   0  0  0  0  0  0  0  0  0  0  0  0
   18.2831   19.9687   21.3569 H   0  0  0  0  0  0  0  0  0  0  0  0
   18.6122   18.5473   20.3846 H   0  0  0  0  0  0  0  0  0  0  0  0
   19.0479   18.2820   22.4923 C   0  0  0  0  0  0  0  0  0  0  0  0
   19.6800   17.3999   22.3242 H   0  0  0  0  0  0  0  0  0  0  0  0
   18.0361   17.8967   22.6795 H   0  0  0  0  0  0  0  0  0  0  0  0
   19.5369   19.0457   23.7461 C   0  0  0  0  0  0  0  0  0  0  0  0
   20.5723   19.3759   23.5948 H   0  0  0  0  0  0  0  0  0  0  0  0
   18.9283   19.9498   23.8855 H   0  0  0  0  0  0  0  0  0  0  0  0
   19.4564   18.1687   25.0180 C   0  0  0  0  0  0  0  0  0  0  0  0
   20.0824   17.2743   24.8985 H   0  0  0  0  0  0  0  0  0  0  0  0
   18.4256   17.8142   25.1510 H   0  0  0  0  0  0  0  0  0  0  0  0
   19.8789   18.9262   26.2916 C   0  0  0  0  0  0  0  0  0  0  0  0
   19.2629   19.8219   26.4085 H   0  0  0  0  0  0  0  0  0  0  0  0
   19.7190   18.2864   27.1637 H   0  0  0  0  0  0  0  0  0  0  0  0
   21.3341   19.3518   26.2948 N   0  3  0  0  0  0  0  0  0  0  0  0
   21.5456   19.9873   25.5194 H   0  0  0  0  0  0  0  0  0  0  0  0
   21.9657   18.5487   26.2103 H   0  0  0  0  0  0  0  0  0  0  0  0
   21.5855   19.8407   27.1609 H   0  0  0  0  0  0  0  0  0  0  0  0
  1  2  1  0  0  0  0
  1  3  1  0  0  0  0
  1  4  1  0  0  0  0
  1  5  1  0  0  0  0
  5  6  1  0  0  0  0
  5  7  1  0  0  0  0
  5  8  1  0  0  0  0
  8  9  1  0  0  0  0
  8 10  1  0  0  0  0
  8 11  1  0  0  0  0
 11 12  1  0  0  0  0
 11 13  1  0  0  0  0
 11 14  1  0  0  0  0
 14 15  1  0  0  0  0
 14 16  1  0  0  0  0
 14 17  1  0  0  0  0
 17 18  1  0  0  0  0
 17 19  1  0  0  0  0
 17 20  1  0  0  0  0
 20 21  1  0  0  0  0
 20 22  1  0  0  0  0
 20 23  1  0  0  0  0
 23 24  1  0  0  0  0
 23 25  1  0  0  0  0
 23 26  1  0  0  0  0
M  END
> <VM2 Rank>
47

> <Conf_Id>
155

> <Probability>
0.59

> <Sum Probability>
81.44

> <Delta G>
1.507

> <G>
49.768

> <E>
16.878

> <-TS>
32.890

> <U+W>
-4.584

> <U>
49.426

> <W>
-54.010

> <W(PB)>
-56.294

> <W(SA)>
2.284

> <Valence>
3.214

> <Coulomb>
45.444

> <VdW>
0.768

> <VdW6>
-7.916

> <VdW12>
8.684

> <Bond>
0.230

> <Angle>
1.078

> <Pdih>
1.906

> <Idih>
0.000

> <Tether>
0.000

$$$$
VeraChem MOL file


 26 25  0  0  0  0  0  0  0  0999 V2000     
   19.4716   19.4758   19.6490 C   0  0  0  0  0  0  0  0  0  0  0  0
   19.5315   19.4170   18.5546 H   0  0  0  0  0  0  0  0  0  0  0  0
   18.4099   19.4743   19.9278 H   0  0  0  0  0  0  0  0  0  0  0  0
   19.9056   20.4368   19.9520 H   0  0  0  0  0  0  0  0  0  0  0  0
   20.2179   18.2872   20.2963 C   0  0  0  0  0  0  0  0  0  0  0  0
   21.2817   18.3261   20.0235 H   0  0  0  0  0  0  0  0  0  0  0  0
   19.8266   17.3507   19.8746 H   0  0  0  0  0  0  0  0  0  0  0  0
   20.0735   18.2376   21.8364 C   0  0  0  0  0  0  0  0  0  0  0  0
   19.0086   18.1680   22.0946 H   0  0  0  0  0  0  0  0  0  0  0  0
   20.5436   17.3142   22.2017 H   0  0  0  0  0  0  0  0  0  0  0  0
   20.7171   19.4519   22.5524 C   0  0  0  0  0  0  0  0  0  0  0  0
   20.1795   20.3725   22.2896 H   0  0  0  0  0  0  0  0  0  0  0  0
   21.7459   19.5787   22.1880 H   0  0  0  0  0  0  0  0  0  0  0  0
   20.7556   19.3073   24.0935 C   0  0  0  0  0  0  0  0  0  0  0  0
   21.3220   18.4047   24.3589 H   0  0  0  0  0  0  0  0  0  0  0  0
   21.3142   20.1572   24.5096 H   0  0  0  0  0  0  0  0  0  0  0  0
   19.3496   19.2627   24.7422 C   0  0  0  0  0  0  0  0  0  0  0  0
   18.8071   18.3645   24.4211 H   0  0  0  0  0  0  0  0  0  0  0  0
   18.7628   20.1251   24.3990 H   0  0  0  0  0  0  0  0  0  0  0  0
   19.4073   19.2934   26.2815 C   0  0  0  0  0  0  0  0  0  0  0  0
   19.9443   20.1865   26.6121 H   0  0  0  0  0  0  0  0  0  0  0  0
   18.3910   19.3387   26.6822 H   0  0  0  0  0  0  0  0  0  0  0  0
   20.0884   18.0831   26.8897 N   0  3  0  0  0  0  0  0  0  0  0  0
   20.1011   18.1283   27.9145 H   0  0  0  0  0  0  0  0  0  0  0  0
   21.0620   18.0007   26.5810 H   0  0  0  0  0  0  0  0  0  0  0  0
   19.6142   17.2108   26.6343 H   0  0  0  0  0  0  0  0  0  0  0  0
  1  2  1  0  0  0  0
  1  3  1  0  0  0  0
  1  4  1  0  0  0  0
  1  5  1  0  0  0  0
  5  6  1  0  0  0  0
  5  7  1  0  0  0  0
  5  8  1  0  0  0  0
  8  9  1  0  0  0  0
  8 10  1  0  0  0  0
  8 11  1  0  0  0  0
 11 12  1  0  0  0  0
 11 13  1  0  0  0  0
 11 14  1  0  0  0  0
 14 15  1  0  0  0  0
 14 16  1  0  0  0  0
 14 17  1  0  0  0  0
 17 18  1  0  0  0  0
 17 19  1  0  0  0  0
 17 20  1  0  0  0  0
 20 21  1  0  0  0  0
 20 22  1  0  0  0  0
 20 23  1  0  0  0  0
 23 24  1  0  0  0  0
 23 25  1  0  0  0  0
 23 26  1  0  0  0  0
M  END
> <VM2 Rank>
48

> <Conf_Id>
1262

> <Probability>
0.59

> <Sum Probability>
82.03

> <Delta G>
1.514

> <G>
49.775

> <E>
17.074

> <-TS>
32.701

> <U+W>
-4.388

> <U>
49.228

> <W>
-53.616

> <W(PB)>
-55.904

> <W(SA)>
2.288

> <Valence>
3.267

> <Coulomb>
45.067

> <VdW>
0.893

> <VdW6>
-7.615

> <VdW12>
8.508

> <Bond>
0.224

> <Angle>
0.867

> <Pdih>
2.176

> <Idih>
0.000

> <Tether>
0.000

$$$$
VeraChem MOL file


 26 25  0  0  0  0  0  0  0  0999 V2000     
   20.1768   20.4611   20.3373 C   0  0  0  0  0  0  0  0  0  0  0  0
   19.1750   20.8797   20.4995 H   0  0  0  0  0  0  0  0  0  0  0  0
   20.8339   20.8199   21.1391 H   0  0  0  0  0  0  0  0  0  0  0  0
   20.5603   20.8651   19.3915 H   0  0  0  0  0  0  0  0  0  0  0  0
   20.1325   18.9169   20.2871 C   0  0  0  0  0  0  0  0  0  0  0  0
   21.1497   18.5220   20.1562 H   0  0  0  0  0  0  0  0  0  0  0  0
   19.5661   18.6080   19.3974 H   0  0  0  0  0  0  0  0  0  0  0  0
   19.4799   18.2786   21.5371 C   0  0  0  0  0  0  0  0  0  0  0  0
   18.4566   18.6616   21.6524 H   0  0  0  0  0  0  0  0  0  0  0  0
   19.3878   17.1969   21.3677 H   0  0  0  0  0  0  0  0  0  0  0  0
   20.2780   18.5202   22.8408 C   0  0  0  0  0  0  0  0  0  0  0  0
   20.3216   19.5962   23.0501 H   0  0  0  0  0  0  0  0  0  0  0  0
   21.3132   18.1781   22.7051 H   0  0  0  0  0  0  0  0  0  0  0  0
   19.6442   17.7824   24.0445 C   0  0  0  0  0  0  0  0  0  0  0  0
   18.6156   18.1357   24.1968 H   0  0  0  0  0  0  0  0  0  0  0  0
   19.5671   16.7115   23.8109 H   0  0  0  0  0  0  0  0  0  0  0  0
   20.4562   17.9424   25.3544 C   0  0  0  0  0  0  0  0  0  0  0  0
   21.4546   17.5065   25.2167 H   0  0  0  0  0  0  0  0  0  0  0  0
   19.9759   17.3607   26.1523 H   0  0  0  0  0  0  0  0  0  0  0  0
   20.6150   19.4037   25.8215 C   0  0  0  0  0  0  0  0  0  0  0  0
   21.2174   19.4296   26.7335 H   0  0  0  0  0  0  0  0  0  0  0  0
   21.1359   19.9828   25.0547 H   0  0  0  0  0  0  0  0  0  0  0  0
   19.2983   20.0938   26.1183 N   0  3  0  0  0  0  0  0  0  0  0  0
   18.6963   20.1300   25.2900 H   0  0  0  0  0  0  0  0  0  0  0  0
   19.4369   21.0600   26.4336 H   0  0  0  0  0  0  0  0  0  0  0  0
   18.7734   19.6106   26.8545 H   0  0  0  0  0  0  0  0  0  0  0  0
  1  2  1  0  0  0  0
  1  3  1  0  0  0  0
  1  4  1  0  0  0  0
  1  5  1  0  0  0  0
  5  6  1  0  0  0  0
  5  7  1  0  0  0  0
  5  8  1  0  0  0  0
  8  9  1  0  0  0  0
  8 10  1  0  0  0  0
  8 11  1  0  0  0  0
 11 12  1  0  0  0  0
 11 13  1  0  0  0  0
 11 14  1  0  0  0  0
 14 15  1  0  0  0  0
 14 16  1  0  0  0  0
 14 17  1  0  0  0  0
 17 18  1  0  0  0  0
 17 19  1  0  0  0  0
 17 20  1  0  0  0  0
 20 21  1  0  0  0  0
 20 22  1  0  0  0  0
 20 23  1  0  0  0  0
 23 24  1  0  0  0  0
 23 25  1  0  0  0  0
 23 26  1  0  0  0  0
M  END
> <VM2 Rank>
49

> <Conf_Id>
568

> <Probability>
0.58

> <Sum Probability>
82.61

> <Delta G>
1.519

> <G>
49.781

> <E>
17.032

> <-TS>
32.749

> <U+W>
-4.430

> <U>
49.414

> <W>
-53.843

> <W(PB)>
-56.117

> <W(SA)>
2.274

> <Valence>
3.043

> <Coulomb>
45.606

> <VdW>
0.764

> <VdW6>
-7.758

> <VdW12>
8.523

> <Bond>
0.212

> <Angle>
0.867

> <Pdih>
1.964

> <Idih>
0.000

> <Tether>
0.000

$$$$
VeraChem MOL file


 26 25  0  0  0  0  0  0  0  0999 V2000     
   18.6705   19.4658   20.2869 C   0  0  0  0  0  0  0  0  0  0  0  0
   18.1933   19.3013   19.3121 H   0  0  0  0  0  0  0  0  0  0  0  0
   18.0463   18.9779   21.0456 H   0  0  0  0  0  0  0  0  0  0  0  0
   18.6699   20.5460   20.4827 H   0  0  0  0  0  0  0  0  0  0  0  0
   20.1095   18.9018   20.2863 C   0  0  0  0  0  0  0  0  0  0  0  0
   20.6565   19.3286   19.4339 H   0  0  0  0  0  0  0  0  0  0  0  0
   20.0809   17.8158   20.1202 H   0  0  0  0  0  0  0  0  0  0  0  0
   20.8932   19.2124   21.5844 C   0  0  0  0  0  0  0  0  0  0  0  0
   21.9314   18.8775   21.4529 H   0  0  0  0  0  0  0  0  0  0  0  0
   20.9361   20.2998   21.7354 H   0  0  0  0  0  0  0  0  0  0  0  0
   20.2982   18.5336   22.8414 C   0  0  0  0  0  0  0  0  0  0  0  0
   20.2139   17.4520   22.6681 H   0  0  0  0  0  0  0  0  0  0  0  0
   19.2825   18.9097   23.0153 H   0  0  0  0  0  0  0  0  0  0  0  0
   21.1683   18.7891   24.0955 C   0  0  0  0  0  0  0  0  0  0  0  0
   22.1935   18.4463   23.8988 H   0  0  0  0  0  0  0  0  0  0  0  0
   21.2390   19.8686   24.2846 H   0  0  0  0  0  0  0  0  0  0  0  0
   20.6423   18.0654   25.3605 C   0  0  0  0  0  0  0  0  0  0  0  0
   21.3279   18.2535   26.1974 H   0  0  0  0  0  0  0  0  0  0  0  0
   20.6585   16.9807   25.1898 H   0  0  0  0  0  0  0  0  0  0  0  0
   19.2156   18.4795   25.7747 C   0  0  0  0  0  0  0  0  0  0  0  0
   18.5151   18.2522   24.9671 H   0  0  0  0  0  0  0  0  0  0  0  0
   18.9135   17.9078   26.6564 H   0  0  0  0  0  0  0  0  0  0  0  0
   19.0832   19.9515   26.1115 N   0  3  0  0  0  0  0  0  0  0  0  0
   19.3243   20.5447   25.3115 H   0  0  0  0  0  0  0  0  0  0  0  0
   19.6985   20.2211   26.8858 H   0  0  0  0  0  0  0  0  0  0  0  0
   18.1264   20.1943   26.3902 H   0  0  0  0  0  0  0  0  0  0  0  0
  1  2  1  0  0  0  0
  1  3  1  0  0  0  0
  1  4  1  0  0  0  0
  1  5  1  0  0  0  0
  5  6  1  0  0  0  0
  5  7  1  0  0  0  0
  5  8  1  0  0  0  0
  8  9  1  0  0  0  0
  8 10  1  0  0  0  0
  8 11  1  0  0  0  0
 11 12  1  0  0  0  0
 11 13  1  0  0  0  0
 11 14  1  0  0  0  0
 14 15  1  0  0  0  0
 14 16  1  0  0  0  0
 14 17  1  0  0  0  0
 17 18  1  0  0  0  0
 17 19  1  0  0  0  0
 17 20  1  0  0  0  0
 20 21  1  0  0  0  0
 20 22  1  0  0  0  0
 20 23  1  0  0  0  0
 23 24  1  0  0  0  0
 23 25  1  0  0  0  0
 23 26  1  0  0  0  0
M  END
> <VM2 Rank>
50

> <Conf_Id>
287

> <Probability>
0.58

> <Sum Probability>
83.19

> <Delta G>
1.523

> <G>
49.784

> <E>
17.036

> <-TS>
32.748

> <U+W>
-4.426

> <U>
49.414

> <W>
-53.840

> <W(PB)>
-56.133

> <W(SA)>
2.294

> <Valence>
3.043

> <Coulomb>
45.606

> <VdW>
0.765

> <VdW6>
-7.758

> <VdW12>
8.523

> <Bond>
0.212

> <Angle>
0.867

> <Pdih>
1.964

> <Idih>
0.000

> <Tether>
0.000

$$$$
VeraChem MOL file


 26 25  0  0  0  0  0  0  0  0999 V2000     
   19.4576   19.9956   20.2036 C   0  0  0  0  0  0  0  0  0  0  0  0
   18.9881   19.3129   19.4835 H   0  0  0  0  0  0  0  0  0  0  0  0
   18.7501   20.1709   21.0236 H   0  0  0  0  0  0  0  0  0  0  0  0
   19.6222   20.9560   19.6982 H   0  0  0  0  0  0  0  0  0  0  0  0
   20.7948   19.4209   20.7230 C   0  0  0  0  0  0  0  0  0  0  0  0
   21.2351   20.1106   21.4555 H   0  0  0  0  0  0  0  0  0  0  0  0
   21.5079   19.3749   19.8881 H   0  0  0  0  0  0  0  0  0  0  0  0
   20.6603   18.0032   21.3350 C   0  0  0  0  0  0  0  0  0  0  0  0
   20.3355   17.3072   20.5493 H   0  0  0  0  0  0  0  0  0  0  0  0
   21.6547   17.6578   21.6495 H   0  0  0  0  0  0  0  0  0  0  0  0
   19.6843   17.8886   22.5345 C   0  0  0  0  0  0  0  0  0  0  0  0
   19.6639   16.8406   22.8637 H   0  0  0  0  0  0  0  0  0  0  0  0
   18.6620   18.1221   22.2086 H   0  0  0  0  0  0  0  0  0  0  0  0
   20.0704   18.7860   23.7345 C   0  0  0  0  0  0  0  0  0  0  0  0
   21.1106   18.5802   24.0198 H   0  0  0  0  0  0  0  0  0  0  0  0
   20.0208   19.8430   23.4412 H   0  0  0  0  0  0  0  0  0  0  0  0
   19.1361   18.5547   24.9456 C   0  0  0  0  0  0  0  0  0  0  0  0
   19.1998   17.5095   25.2766 H   0  0  0  0  0  0  0  0  0  0  0  0
   18.0953   18.7235   24.6389 H   0  0  0  0  0  0  0  0  0  0  0  0
   19.4535   19.4889   26.1291 C   0  0  0  0  0  0  0  0  0  0  0  0
   19.3962   20.5305   25.8015 H   0  0  0  0  0  0  0  0  0  0  0  0
   18.7122   19.3386   26.9187 H   0  0  0  0  0  0  0  0  0  0  0  0
   20.8241   19.2611   26.7358 N   0  3  0  0  0  0  0  0  0  0  0  0
   20.9991   19.8892   27.5278 H   0  0  0  0  0  0  0  0  0  0  0  0
   21.5723   19.4216   26.0544 H   0  0  0  0  0  0  0  0  0  0  0  0
   20.9315   18.3029   27.0843 H   0  0  0  0  0  0  0  0  0  0  0  0
  1  2  1  0  0  0  0
  1  3  1  0  0  0  0
  1  4  1  0  0  0  0
  1  5  1  0  0  0  0
  5  6  1  0  0  0  0
  5  7  1  0  0  0  0
  5  8  1  0  0  0  0
  8  9  1  0  0  0  0
  8 10  1  0  0  0  0
  8 11  1  0  0  0  0
 11 12  1  0  0  0  0
 11 13  1  0  0  0  0
 11 14  1  0  0  0  0
 14 15  1  0  0  0  0
 14 16  1  0  0  0  0
 14 17  1  0  0  0  0
 17 18  1  0  0  0  0
 17 19  1  0  0  0  0
 17 20  1  0  0  0  0
 20 21  1  0  0  0  0
 20 22  1  0  0  0  0
 20 23  1  0  0  0  0
 23 24  1  0  0  0  0
 23 25  1  0  0  0  0
 23 26  1  0  0  0  0
M  END
> <VM2 Rank>
51

> <Conf_Id>
1342

> <Probability>
0.56

> <Sum Probability>
83.75

> <Delta G>
1.545

> <G>
49.807

> <E>
16.919

> <-TS>
32.888

> <U+W>
-4.543

> <U>
49.147

> <W>
-53.690

> <W(PB)>
-55.965

> <W(SA)>
2.275

> <Valence>
3.219

> <Coulomb>
45.149

> <VdW>
0.779

> <VdW6>
-7.884

> <VdW12>
8.664

> <Bond>
0.228

> <Angle>
1.077

> <Pdih>
1.914

> <Idih>
0.000

> <Tether>
0.000

$$$$
VeraChem MOL file


 26 25  0  0  0  0  0  0  0  0999 V2000     
   19.1293   19.0843   19.5797 C   0  0  0  0  0  0  0  0  0  0  0  0
   19.6476   19.9933   19.2476 H   0  0  0  0  0  0  0  0  0  0  0  0
   18.9933   18.4352   18.7050 H   0  0  0  0  0  0  0  0  0  0  0  0
   18.1344   19.3717   19.9440 H   0  0  0  0  0  0  0  0  0  0  0  0
   19.9336   18.3571   20.6781 C   0  0  0  0  0  0  0  0  0  0  0  0
   20.9089   18.0519   20.2737 H   0  0  0  0  0  0  0  0  0  0  0  0
   19.4075   17.4362   20.9661 H   0  0  0  0  0  0  0  0  0  0  0  0
   20.1402   19.2499   21.9217 C   0  0  0  0  0  0  0  0  0  0  0  0
   20.6684   20.1680   21.6297 H   0  0  0  0  0  0  0  0  0  0  0  0
   19.1597   19.5550   22.3100 H   0  0  0  0  0  0  0  0  0  0  0  0
   20.9423   18.5203   23.0257 C   0  0  0  0  0  0  0  0  0  0  0  0
   21.8901   18.1617   22.6008 H   0  0  0  0  0  0  0  0  0  0  0  0
   20.3966   17.6235   23.3479 H   0  0  0  0  0  0  0  0  0  0  0  0
   21.2643   19.4153   24.2504 C   0  0  0  0  0  0  0  0  0  0  0  0
   21.8804   18.8418   24.9560 H   0  0  0  0  0  0  0  0  0  0  0  0
   21.8917   20.2564   23.9245 H   0  0  0  0  0  0  0  0  0  0  0  0
   20.0235   19.9761   24.9938 C   0  0  0  0  0  0  0  0  0  0  0  0
   19.4970   20.6899   24.3475 H   0  0  0  0  0  0  0  0  0  0  0  0
   20.3564   20.5527   25.8670 H   0  0  0  0  0  0  0  0  0  0  0  0
   19.0274   18.8933   25.4547 C   0  0  0  0  0  0  0  0  0  0  0  0
   18.1703   19.3697   25.9382 H   0  0  0  0  0  0  0  0  0  0  0  0
   18.6623   18.3353   24.5884 H   0  0  0  0  0  0  0  0  0  0  0  0
   19.6202   17.9027   26.4370 N   0  3  0  0  0  0  0  0  0  0  0  0
   19.9536   18.3654   27.2888 H   0  0  0  0  0  0  0  0  0  0  0  0
   20.4173   17.4017   26.0326 H   0  0  0  0  0  0  0  0  0  0  0  0
   18.9351   17.1968   26.7275 H   0  0  0  0  0  0  0  0  0  0  0  0
  1  2  1  0  0  0  0
  1  3  1  0  0  0  0
  1  4  1  0  0  0  0
  1  5  1  0  0  0  0
  5  6  1  0  0  0  0
  5  7  1  0  0  0  0
  5  8  1  0  0  0  0
  8  9  1  0  0  0  0
  8 10  1  0  0  0  0
  8 11  1  0  0  0  0
 11 12  1  0  0  0  0
 11 13  1  0  0  0  0
 11 14  1  0  0  0  0
 14 15  1  0  0  0  0
 14 16  1  0  0  0  0
 14 17  1  0  0  0  0
 17 18  1  0  0  0  0
 17 19  1  0  0  0  0
 17 20  1  0  0  0  0
 20 21  1  0  0  0  0
 20 22  1  0  0  0  0
 20 23  1  0  0  0  0
 23 24  1  0  0  0  0
 23 25  1  0  0  0  0
 23 26  1  0  0  0  0
M  END
> <VM2 Rank>
52

> <Conf_Id>
525

> <Probability>
0.55

> <Sum Probability>
84.30

> <Delta G>
1.553

> <G>
49.814

> <E>
16.914

> <-TS>
32.900

> <U+W>
-4.548

> <U>
49.197

> <W>
-53.745

> <W(PB)>
-56.033

> <W(SA)>
2.288

> <Valence>
3.018

> <Coulomb>
45.589

> <VdW>
0.590

> <VdW6>
-8.073

> <VdW12>
8.662

> <Bond>
0.222

> <Angle>
0.958

> <Pdih>
1.839

> <Idih>
0.000

> <Tether>
0.000

$$$$
VeraChem MOL file


 26 25  0  0  0  0  0  0  0  0999 V2000     
   19.7731   17.5958   20.4515 C   0  0  0  0  0  0  0  0  0  0  0  0
   20.1155   17.1025   21.3698 H   0  0  0  0  0  0  0  0  0  0  0  0
   18.9971   16.9607   20.0049 H   0  0  0  0  0  0  0  0  0  0  0  0
   20.6160   17.6405   19.7498 H   0  0  0  0  0  0  0  0  0  0  0  0
   19.2164   19.0080   20.7413 C   0  0  0  0  0  0  0  0  0  0  0  0
   18.3883   18.9401   21.4594 H   0  0  0  0  0  0  0  0  0  0  0  0
   18.7795   19.4122   19.8175 H   0  0  0  0  0  0  0  0  0  0  0  0
   20.2906   20.0011   21.2539 C   0  0  0  0  0  0  0  0  0  0  0  0
   21.0416   20.1488   20.4657 H   0  0  0  0  0  0  0  0  0  0  0  0
   19.8204   20.9821   21.4081 H   0  0  0  0  0  0  0  0  0  0  0  0
   21.0160   19.5795   22.5580 C   0  0  0  0  0  0  0  0  0  0  0  0
   21.7587   20.3510   22.8038 H   0  0  0  0  0  0  0  0  0  0  0  0
   21.5855   18.6562   22.3878 H   0  0  0  0  0  0  0  0  0  0  0  0
   20.0640   19.3932   23.7637 C   0  0  0  0  0  0  0  0  0  0  0  0
   19.4664   20.3046   23.9035 H   0  0  0  0  0  0  0  0  0  0  0  0
   19.3610   18.5773   23.5543 H   0  0  0  0  0  0  0  0  0  0  0  0
   20.8419   19.0821   25.0642 C   0  0  0  0  0  0  0  0  0  0  0  0
   21.5664   19.8848   25.2560 H   0  0  0  0  0  0  0  0  0  0  0  0
   21.4228   18.1580   24.9433 H   0  0  0  0  0  0  0  0  0  0  0  0
   19.9210   18.9539   26.2930 C   0  0  0  0  0  0  0  0  0  0  0  0
   20.5308   18.8214   27.1908 H   0  0  0  0  0  0  0  0  0  0  0  0
   19.3350   19.8694   26.4109 H   0  0  0  0  0  0  0  0  0  0  0  0
   18.9580   17.7854   26.2153 N   0  3  0  0  0  0  0  0  0  0  0  0
   18.3699   17.7207   27.0534 H   0  0  0  0  0  0  0  0  0  0  0  0
   19.4512   16.8910   26.1261 H   0  0  0  0  0  0  0  0  0  0  0  0
   18.3273   17.8658   25.4118 H   0  0  0  0  0  0  0  0  0  0  0  0
  1  2  1  0  0  0  0
  1  3  1  0  0  0  0
  1  4  1  0  0  0  0
  1  5  1  0  0  0  0
  5  6  1  0  0  0  0
  5  7  1  0  0  0  0
  5  8  1  0  0  0  0
  8  9  1  0  0  0  0
  8 10  1  0  0  0  0
  8 11  1  0  0  0  0
 11 12  1  0  0  0  0
 11 13  1  0  0  0  0
 11 14  1  0  0  0  0
 14 15  1  0  0  0  0
 14 16  1  0  0  0  0
 14 17  1  0  0  0  0
 17 18  1  0  0  0  0
 17 19  1  0  0  0  0
 17 20  1  0  0  0  0
 20 21  1  0  0  0  0
 20 22  1  0  0  0  0
 20 23  1  0  0  0  0
 23 24  1  0  0  0  0
 23 25  1  0  0  0  0
 23 26  1  0  0  0  0
M  END
> <VM2 Rank>
53

> <Conf_Id>
401

> <Probability>
0.53

> <Sum Probability>
84.83

> <Delta G>
1.576

> <G>
49.838

> <E>
16.948

> <-TS>
32.890

> <U+W>
-4.514

> <U>
49.426

> <W>
-53.941

> <W(PB)>
-56.205

> <W(SA)>
2.264

> <Valence>
3.214

> <Coulomb>
45.444

> <VdW>
0.769

> <VdW6>
-7.916

> <VdW12>
8.684

> <Bond>
0.230

> <Angle>
1.078

> <Pdih>
1.906

> <Idih>
0.000

> <Tether>
0.000

$$$$
VeraChem MOL file


 26 25  0  0  0  0  0  0  0  0999 V2000     
   21.0184   19.4051   19.7603 C   0  0  0  0  0  0  0  0  0  0  0  0
   21.2144   20.4363   20.0817 H   0  0  0  0  0  0  0  0  0  0  0  0
   21.7877   18.7564   20.1971 H   0  0  0  0  0  0  0  0  0  0  0  0
   21.1339   19.3658   18.6694 H   0  0  0  0  0  0  0  0  0  0  0  0
   19.5977   18.9557   20.1704 C   0  0  0  0  0  0  0  0  0  0  0  0
   19.4358   17.9139   19.8603 H   0  0  0  0  0  0  0  0  0  0  0  0
   18.8621   19.5582   19.6194 H   0  0  0  0  0  0  0  0  0  0  0  0
   19.3228   19.0997   21.6867 C   0  0  0  0  0  0  0  0  0  0  0  0
   19.4571   20.1501   21.9764 H   0  0  0  0  0  0  0  0  0  0  0  0
   18.2679   18.8568   21.8750 H   0  0  0  0  0  0  0  0  0  0  0  0
   20.2178   18.1858   22.5616 C   0  0  0  0  0  0  0  0  0  0  0  0
   21.2675   18.4979   22.4812 H   0  0  0  0  0  0  0  0  0  0  0  0
   20.1688   17.1596   22.1722 H   0  0  0  0  0  0  0  0  0  0  0  0
   19.8066   18.1639   24.0545 C   0  0  0  0  0  0  0  0  0  0  0  0
   18.7617   17.8355   24.1436 H   0  0  0  0  0  0  0  0  0  0  0  0
   20.4132   17.4042   24.5649 H   0  0  0  0  0  0  0  0  0  0  0  0
   19.9867   19.5292   24.7644 C   0  0  0  0  0  0  0  0  0  0  0  0
   19.3525   20.2845   24.2838 H   0  0  0  0  0  0  0  0  0  0  0  0
   21.0235   19.8751   24.6583 H   0  0  0  0  0  0  0  0  0  0  0  0
   19.6128   19.4759   26.2584 C   0  0  0  0  0  0  0  0  0  0  0  0
   19.6662   20.4829   26.6810 H   0  0  0  0  0  0  0  0  0  0  0  0
   18.5869   19.1142   26.3685 H   0  0  0  0  0  0  0  0  0  0  0  0
   20.5183   18.5836   27.0847 N   0  3  0  0  0  0  0  0  0  0  0  0
   21.4965   18.8871   27.0392 H   0  0  0  0  0  0  0  0  0  0  0  0
   20.4876   17.6106   26.7650 H   0  0  0  0  0  0  0  0  0  0  0  0
   20.2508   18.5826   28.0751 H   0  0  0  0  0  0  0  0  0  0  0  0
  1  2  1  0  0  0  0
  1  3  1  0  0  0  0
  1  4  1  0  0  0  0
  1  5  1  0  0  0  0
  5  6  1  0  0  0  0
  5  7  1  0  0  0  0
  5  8  1  0  0  0  0
  8  9  1  0  0  0  0
  8 10  1  0  0  0  0
  8 11  1  0  0  0  0
 11 12  1  0  0  0  0
 11 13  1  0  0  0  0
 11 14  1  0  0  0  0
 14 15  1  0  0  0  0
 14 16  1  0  0  0  0
 14 17  1  0  0  0  0
 17 18  1  0  0  0  0
 17 19  1  0  0  0  0
 17 20  1  0  0  0  0
 20 21  1  0  0  0  0
 20 22  1  0  0  0  0
 20 23  1  0  0  0  0
 23 24  1  0  0  0  0
 23 25  1  0  0  0  0
 23 26  1  0  0  0  0
M  END
> <VM2 Rank>
54

> <Conf_Id>
156

> <Probability>
0.53

> <Sum Probability>
85.36

> <Delta G>
1.578

> <G>
49.839

> <E>
17.164

> <-TS>
32.675

> <U+W>
-4.298

> <U>
49.153

> <W>
-53.450

> <W(PB)>
-55.735

> <W(SA)>
2.284

> <Valence>
3.298

> <Coulomb>
44.906

> <VdW>
0.948

> <VdW6>
-7.574

> <VdW12>
8.522

> <Bond>
0.229

> <Angle>
0.912

> <Pdih>
2.157

> <Idih>
0.000

> <Tether>
0.000

$$$$
VeraChem MOL file


 26 25  0  0  0  0  0  0  0  0999 V2000     
   19.5725   19.3766   19.4727 C   0  0  0  0  0  0  0  0  0  0  0  0
   18.4825   19.3118   19.5853 H   0  0  0  0  0  0  0  0  0  0  0  0
   19.8878   20.3900   19.7497 H   0  0  0  0  0  0  0  0  0  0  0  0
   19.8087   19.2377   18.4098 H   0  0  0  0  0  0  0  0  0  0  0  0
   20.2846   18.3046   20.3288 C   0  0  0  0  0  0  0  0  0  0  0  0
   21.3735   18.4122   20.2264 H   0  0  0  0  0  0  0  0  0  0  0  0
   20.0352   17.3118   19.9288 H   0  0  0  0  0  0  0  0  0  0  0  0
   19.8924   18.3479   21.8257 C   0  0  0  0  0  0  0  0  0  0  0  0
   18.8036   18.2371   21.9226 H   0  0  0  0  0  0  0  0  0  0  0  0
   20.3380   17.4739   22.3177 H   0  0  0  0  0  0  0  0  0  0  0  0
   20.3534   19.6400   22.5470 C   0  0  0  0  0  0  0  0  0  0  0  0
   19.9094   20.5129   22.0514 H   0  0  0  0  0  0  0  0  0  0  0  0
   21.4423   19.7505   22.4506 H   0  0  0  0  0  0  0  0  0  0  0  0
   19.9572   19.6874   24.0433 C   0  0  0  0  0  0  0  0  0  0  0  0
   20.2061   20.6827   24.4369 H   0  0  0  0  0  0  0  0  0  0  0  0
   18.8676   19.5827   24.1331 H   0  0  0  0  0  0  0  0  0  0  0  0
   20.6680   18.6155   24.9070 C   0  0  0  0  0  0  0  0  0  0  0  0
   21.7512   18.6687   24.7350 H   0  0  0  0  0  0  0  0  0  0  0  0
   20.3504   17.6083   24.6095 H   0  0  0  0  0  0  0  0  0  0  0  0
   20.4039   18.8007   26.4137 C   0  0  0  0  0  0  0  0  0  0  0  0
   20.9885   18.0687   26.9775 H   0  0  0  0  0  0  0  0  0  0  0  0
   20.7201   19.8006   26.7226 H   0  0  0  0  0  0  0  0  0  0  0  0
   18.9490   18.6264   26.8029 N   0  3  0  0  0  0  0  0  0  0  0  0
   18.3463   19.3091   26.3332 H   0  0  0  0  0  0  0  0  0  0  0  0
   18.8080   18.7452   27.8120 H   0  0  0  0  0  0  0  0  0  0  0  0
   18.5987   17.6942   26.5592 H   0  0  0  0  0  0  0  0  0  0  0  0
  1  2  1  0  0  0  0
  1  3  1  0  0  0  0
  1  4  1  0  0  0  0
  1  5  1  0  0  0  0
  5  6  1  0  0  0  0
  5  7  1  0  0  0  0
  5  8  1  0  0  0  0
  8  9  1  0  0  0  0
  8 10  1  0  0  0  0
  8 11  1  0  0  0  0
 11 12  1  0  0  0  0
 11 13  1  0  0  0  0
 11 14  1  0  0  0  0
 14 15  1  0  0  0  0
 14 16  1  0  0  0  0
 14 17  1  0  0  0  0
 17 18  1  0  0  0  0
 17 19  1  0  0  0  0
 17 20  1  0  0  0  0
 20 21  1  0  0  0  0
 20 22  1  0  0  0  0
 20 23  1  0  0  0  0
 23 24  1  0  0  0  0
 23 25  1  0  0  0  0
 23 26  1  0  0  0  0
M  END
> <VM2 Rank>
55

> <Conf_Id>
730

> <Probability>
0.52

> <Sum Probability>
85.88

> <Delta G>
1.591

> <G>
49.852

> <E>
17.226

> <-TS>
32.626

> <U+W>
-4.236

> <U>
49.401

> <W>
-53.636

> <W(PB)>
-55.927

> <W(SA)>
2.290

> <Valence>
3.370

> <Coulomb>
45.065

> <VdW>
0.965

> <VdW6>
-7.528

> <VdW12>
8.494

> <Bond>
0.232

> <Angle>
0.963

> <Pdih>
2.174

> <Idih>
0.000

> <Tether>
0.000

$$$$
VeraChem MOL file


 26 25  0  0  0  0  0  0  0  0999 V2000     
   19.3375   18.2964   19.7041 C   0  0  0  0  0  0  0  0  0  0  0  0
   18.2985   18.5129   19.9844 H   0  0  0  0  0  0  0  0  0  0  0  0
   19.3790   18.2084   18.6107 H   0  0  0  0  0  0  0  0  0  0  0  0
   19.6112   17.3207   20.1243 H   0  0  0  0  0  0  0  0  0  0  0  0
   20.2890   19.4117   20.1935 C   0  0  0  0  0  0  0  0  0  0  0  0
   20.0500   20.3418   19.6591 H   0  0  0  0  0  0  0  0  0  0  0  0
   21.3240   19.1593   19.9234 H   0  0  0  0  0  0  0  0  0  0  0  0
   20.1941   19.6744   21.7158 C   0  0  0  0  0  0  0  0  0  0  0  0
   20.8226   20.5418   21.9603 H   0  0  0  0  0  0  0  0  0  0  0  0
   19.1631   19.9562   21.9666 H   0  0  0  0  0  0  0  0  0  0  0  0
   20.6415   18.4653   22.5758 C   0  0  0  0  0  0  0  0  0  0  0  0
   21.6214   18.1178   22.2208 H   0  0  0  0  0  0  0  0  0  0  0  0
   19.9465   17.6266   22.4371 H   0  0  0  0  0  0  0  0  0  0  0  0
   20.7536   18.7886   24.0861 C   0  0  0  0  0  0  0  0  0  0  0  0
   21.1895   17.9163   24.5908 H   0  0  0  0  0  0  0  0  0  0  0  0
   21.4611   19.6162   24.2338 H   0  0  0  0  0  0  0  0  0  0  0  0
   19.3957   19.1393   24.7446 C   0  0  0  0  0  0  0  0  0  0  0  0
   18.6760   18.3265   24.5799 H   0  0  0  0  0  0  0  0  0  0  0  0
   18.9732   20.0342   24.2712 H   0  0  0  0  0  0  0  0  0  0  0  0
   19.5219   19.4160   26.2553 C   0  0  0  0  0  0  0  0  0  0  0  0
   20.2517   20.2124   26.4240 H   0  0  0  0  0  0  0  0  0  0  0  0
   18.5563   19.7508   26.6439 H   0  0  0  0  0  0  0  0  0  0  0  0
   19.9477   18.2072   27.0657 N   0  3  0  0  0  0  0  0  0  0  0  0
   20.8684   17.8618   26.7777 H   0  0  0  0  0  0  0  0  0  0  0  0
   19.2871   17.4297   26.9654 H   0  0  0  0  0  0  0  0  0  0  0  0
   20.0076   18.4222   28.0669 H   0  0  0  0  0  0  0  0  0  0  0  0
  1  2  1  0  0  0  0
  1  3  1  0  0  0  0
  1  4  1  0  0  0  0
  1  5  1  0  0  0  0
  5  6  1  0  0  0  0
  5  7  1  0  0  0  0
  5  8  1  0  0  0  0
  8  9  1  0  0  0  0
  8 10  1  0  0  0  0
  8 11  1  0  0  0  0
 11 12  1  0  0  0  0
 11 13  1  0  0  0  0
 11 14  1  0  0  0  0
 14 15  1  0  0  0  0
 14 16  1  0  0  0  0
 14 17  1  0  0  0  0
 17 18  1  0  0  0  0
 17 19  1  0  0  0  0
 17 20  1  0  0  0  0
 20 21  1  0  0  0  0
 20 22  1  0  0  0  0
 20 23  1  0  0  0  0
 23 24  1  0  0  0  0
 23 25  1  0  0  0  0
 23 26  1  0  0  0  0
M  END
> <VM2 Rank>
56

> <Conf_Id>
980

> <Probability>
0.51

> <Sum Probability>
86.38

> <Delta G>
1.602

> <G>
49.864

> <E>
17.189

> <-TS>
32.675

> <U+W>
-4.273

> <U>
49.153

> <W>
-53.426

> <W(PB)>
-55.726

> <W(SA)>
2.300

> <Valence>
3.298

> <Coulomb>
44.907

> <VdW>
0.948

> <VdW6>
-7.574

> <VdW12>
8.522

> <Bond>
0.229

> <Angle>
0.912

> <Pdih>
2.157

> <Idih>
0.000

> <Tether>
0.000

$$$$
VeraChem MOL file


 26 25  0  0  0  0  0  0  0  0999 V2000     
   19.6026   20.0066   19.7417 C   0  0  0  0  0  0  0  0  0  0  0  0
   19.6406   19.2720   18.9268 H   0  0  0  0  0  0  0  0  0  0  0  0
   18.5483   20.2003   19.9786 H   0  0  0  0  0  0  0  0  0  0  0  0
   20.0424   20.9421   19.3723 H   0  0  0  0  0  0  0  0  0  0  0  0
   20.3656   19.4988   20.9834 C   0  0  0  0  0  0  0  0  0  0  0  0
   20.3392   20.2751   21.7596 H   0  0  0  0  0  0  0  0  0  0  0  0
   21.4219   19.3425   20.7238 H   0  0  0  0  0  0  0  0  0  0  0  0
   19.7609   18.1823   21.5254 C   0  0  0  0  0  0  0  0  0  0  0  0
   18.7174   18.3477   21.8238 H   0  0  0  0  0  0  0  0  0  0  0  0
   19.7267   17.4446   20.7118 H   0  0  0  0  0  0  0  0  0  0  0  0
   20.5608   17.5694   22.7042 C   0  0  0  0  0  0  0  0  0  0  0  0
   21.5625   17.2930   22.3470 H   0  0  0  0  0  0  0  0  0  0  0  0
   20.0799   16.6283   23.0046 H   0  0  0  0  0  0  0  0  0  0  0  0
   20.7118   18.4770   23.9527 C   0  0  0  0  0  0  0  0  0  0  0  0
   21.3067   17.9317   24.6971 H   0  0  0  0  0  0  0  0  0  0  0  0
   21.2951   19.3718   23.6982 H   0  0  0  0  0  0  0  0  0  0  0  0
   19.3592   18.8953   24.5816 C   0  0  0  0  0  0  0  0  0  0  0  0
   18.7632   18.0046   24.8204 H   0  0  0  0  0  0  0  0  0  0  0  0
   18.7779   19.4783   23.8564 H   0  0  0  0  0  0  0  0  0  0  0  0
   19.5336   19.7534   25.8496 C   0  0  0  0  0  0  0  0  0  0  0  0
   20.1428   20.6315   25.6191 H   0  0  0  0  0  0  0  0  0  0  0  0
   18.5537   20.0985   26.1906 H   0  0  0  0  0  0  0  0  0  0  0  0
   20.1864   19.0162   27.0025 N   0  3  0  0  0  0  0  0  0  0  0  0
   21.1296   18.6954   26.7631 H   0  0  0  0  0  0  0  0  0  0  0  0
   19.6466   18.1903   27.2806 H   0  0  0  0  0  0  0  0  0  0  0  0
   20.2737   19.6108   27.8339 H   0  0  0  0  0  0  0  0  0  0  0  0
  1  2  1  0  0  0  0
  1  3  1  0  0  0  0
  1  4  1  0  0  0  0
  1  5  1  0  0  0  0
  5  6  1  0  0  0  0
  5  7  1  0  0  0  0
  5  8  1  0  0  0  0
  8  9  1  0  0  0  0
  8 10  1  0  0  0  0
  8 11  1  0  0  0  0
 11 12  1  0  0  0  0
 11 13  1  0  0  0  0
 11 14  1  0  0  0  0
 14 15  1  0  0  0  0
 14 16  1  0  0  0  0
 14 17  1  0  0  0  0
 17 18  1  0  0  0  0
 17 19  1  0  0  0  0
 17 20  1  0  0  0  0
 20 21  1  0  0  0  0
 20 22  1  0  0  0  0
 20 23  1  0  0  0  0
 23 24  1  0  0  0  0
 23 25  1  0  0  0  0
 23 26  1  0  0  0  0
M  END
> <VM2 Rank>
57

> <Conf_Id>
477

> <Probability>
0.50

> <Sum Probability>
86.88

> <Delta G>
1.612

> <G>
49.873

> <E>
16.983

> <-TS>
32.890

> <U+W>
-4.479

> <U>
49.231

> <W>
-53.710

> <W(PB)>
-55.983

> <W(SA)>
2.273

> <Valence>
3.276

> <Coulomb>
45.175

> <VdW>
0.779

> <VdW6>
-7.944

> <VdW12>
8.723

> <Bond>
0.239

> <Angle>
1.155

> <Pdih>
1.882

> <Idih>
0.000

> <Tether>
0.000

$$$$
VeraChem MOL file


 26 25  0  0  0  0  0  0  0  0999 V2000     
   20.6457   20.3700   20.5103 C   0  0  0  0  0  0  0  0  0  0  0  0
   21.4617   20.6909   21.1707 H   0  0  0  0  0  0  0  0  0  0  0  0
   20.8655   20.7403   19.5006 H   0  0  0  0  0  0  0  0  0  0  0  0
   19.7207   20.8555   20.8453 H   0  0  0  0  0  0  0  0  0  0  0  0
   20.5085   18.8306   20.5038 C   0  0  0  0  0  0  0  0  0  0  0  0
   21.4108   18.3962   20.0511 H   0  0  0  0  0  0  0  0  0  0  0  0
   19.6689   18.5368   19.8585 H   0  0  0  0  0  0  0  0  0  0  0  0
   20.3207   18.2260   21.9160 C   0  0  0  0  0  0  0  0  0  0  0  0
   20.3391   17.1306   21.8332 H   0  0  0  0  0  0  0  0  0  0  0  0
   21.1784   18.5054   22.5420 H   0  0  0  0  0  0  0  0  0  0  0  0
   18.9991   18.6600   22.5985 C   0  0  0  0  0  0  0  0  0  0  0  0
   18.1633   18.4753   21.9097 H   0  0  0  0  0  0  0  0  0  0  0  0
   19.0073   19.7418   22.7827 H   0  0  0  0  0  0  0  0  0  0  0  0
   18.7148   17.9092   23.9251 C   0  0  0  0  0  0  0  0  0  0  0  0
   17.7479   18.2485   24.3218 H   0  0  0  0  0  0  0  0  0  0  0  0
   18.5954   16.8375   23.7144 H   0  0  0  0  0  0  0  0  0  0  0  0
   19.7967   18.0892   25.0191 C   0  0  0  0  0  0  0  0  0  0  0  0
   20.7399   17.6323   24.6935 H   0  0  0  0  0  0  0  0  0  0  0  0
   19.4847   17.5424   25.9188 H   0  0  0  0  0  0  0  0  0  0  0  0
   20.0346   19.5662   25.3844 C   0  0  0  0  0  0  0  0  0  0  0  0
   20.3852   20.1118   24.5044 H   0  0  0  0  0  0  0  0  0  0  0  0
   19.0970   20.0180   25.7193 H   0  0  0  0  0  0  0  0  0  0  0  0
   21.0610   19.7477   26.4837 N   0  3  0  0  0  0  0  0  0  0  0  0
   21.9753   19.3665   26.2198 H   0  0  0  0  0  0  0  0  0  0  0  0
   20.7780   19.2803   27.3512 H   0  0  0  0  0  0  0  0  0  0  0  0
   21.2044   20.7376   26.7114 H   0  0  0  0  0  0  0  0  0  0  0  0
  1  2  1  0  0  0  0
  1  3  1  0  0  0  0
  1  4  1  0  0  0  0
  1  5  1  0  0  0  0
  5  6  1  0  0  0  0
  5  7  1  0  0  0  0
  5  8  1  0  0  0  0
  8  9  1  0  0  0  0
  8 10  1  0  0  0  0
  8 11  1  0  0  0  0
 11 12  1  0  0  0  0
 11 13  1  0  0  0  0
 11 14  1  0  0  0  0
 14 15  1  0  0  0  0
 14 16  1  0  0  0  0
 14 17  1  0  0  0  0
 17 18  1  0  0  0  0
 17 19  1  0  0  0  0
 17 20  1  0  0  0  0
 20 21  1  0  0  0  0
 20 22  1  0  0  0  0
 20 23  1  0  0  0  0
 23 24  1  0  0  0  0
 23 25  1  0  0  0  0
 23 26  1  0  0  0  0
M  END
> <VM2 Rank>
58

> <Conf_Id>
1039

> <Probability>
0.48

> <Sum Probability>
87.36

> <Delta G>
1.634

> <G>
49.895

> <E>
17.075

> <-TS>
32.821

> <U+W>
-4.387

> <U>
49.567

> <W>
-53.954

> <W(PB)>
-56.241

> <W(SA)>
2.287

> <Valence>
3.380

> <Coulomb>
45.516

> <VdW>
0.670

> <VdW6>
-8.071

> <VdW12>
8.742

> <Bond>
0.231

> <Angle>
1.069

> <Pdih>
2.080

> <Idih>
0.000

> <Tether>
0.000

$$$$
VeraChem MOL file


 26 25  0  0  0  0  0  0  0  0999 V2000     
   20.4786   19.5130   19.4477 C   0  0  0  0  0  0  0  0  0  0  0  0
   21.4641   19.7579   19.8623 H   0  0  0  0  0  0  0  0  0  0  0  0
   20.6276   19.2076   18.4039 H   0  0  0  0  0  0  0  0  0  0  0  0
   19.8687   20.4257   19.4462 H   0  0  0  0  0  0  0  0  0  0  0  0
   19.7885   18.3844   20.2473 C   0  0  0  0  0  0  0  0  0  0  0  0
   20.4332   17.4946   20.2638 H   0  0  0  0  0  0  0  0  0  0  0  0
   18.8711   18.0890   19.7191 H   0  0  0  0  0  0  0  0  0  0  0  0
   19.4174   18.7895   21.6946 C   0  0  0  0  0  0  0  0  0  0  0  0
   18.7717   19.6781   21.6722 H   0  0  0  0  0  0  0  0  0  0  0  0
   18.8164   17.9802   22.1281 H   0  0  0  0  0  0  0  0  0  0  0  0
   20.6502   19.0606   22.5944 C   0  0  0  0  0  0  0  0  0  0  0  0
   21.2524   19.8652   22.1531 H   0  0  0  0  0  0  0  0  0  0  0  0
   21.2944   18.1710   22.6200 H   0  0  0  0  0  0  0  0  0  0  0  0
   20.2841   19.4782   24.0403 C   0  0  0  0  0  0  0  0  0  0  0  0
   21.2055   19.7954   24.5462 H   0  0  0  0  0  0  0  0  0  0  0  0
   19.6279   20.3592   24.0138 H   0  0  0  0  0  0  0  0  0  0  0  0
   19.6115   18.3497   24.8621 C   0  0  0  0  0  0  0  0  0  0  0  0
   20.2496   17.4561   24.8678 H   0  0  0  0  0  0  0  0  0  0  0  0
   18.6653   18.0577   24.3903 H   0  0  0  0  0  0  0  0  0  0  0  0
   19.3064   18.7723   26.3123 C   0  0  0  0  0  0  0  0  0  0  0  0
   18.6880   19.6739   26.3108 H   0  0  0  0  0  0  0  0  0  0  0  0
   18.7469   17.9762   26.8111 H   0  0  0  0  0  0  0  0  0  0  0  0
   20.5443   19.0513   27.1423 N   0  3  0  0  0  0  0  0  0  0  0  0
   21.0999   19.8179   26.7505 H   0  0  0  0  0  0  0  0  0  0  0  0
   21.1570   18.2313   27.1998 H   0  0  0  0  0  0  0  0  0  0  0  0
   20.3059   19.3150   28.1046 H   0  0  0  0  0  0  0  0  0  0  0  0
  1  2  1  0  0  0  0
  1  3  1  0  0  0  0
  1  4  1  0  0  0  0
  1  5  1  0  0  0  0
  5  6  1  0  0  0  0
  5  7  1  0  0  0  0
  5  8  1  0  0  0  0
  8  9  1  0  0  0  0
  8 10  1  0  0  0  0
  8 11  1  0  0  0  0
 11 12  1  0  0  0  0
 11 13  1  0  0  0  0
 11 14  1  0  0  0  0
 14 15  1  0  0  0  0
 14 16  1  0  0  0  0
 14 17  1  0  0  0  0
 17 18  1  0  0  0  0
 17 19  1  0  0  0  0
 17 20  1  0  0  0  0
 20 21  1  0  0  0  0
 20 22  1  0  0  0  0
 20 23  1  0  0  0  0
 23 24  1  0  0  0  0
 23 25  1  0  0  0  0
 23 26  1  0  0  0  0
M  END
> <VM2 Rank>
59

> <Conf_Id>
1347

> <Probability>
0.48

> <Sum Probability>
87.84

> <Delta G>
1.634

> <G>
49.896

> <E>
17.316

> <-TS>
32.579

> <U+W>
-4.146

> <U>
49.323

> <W>
-53.468

> <W(PB)>
-55.770

> <W(SA)>
2.301

> <Valence>
3.408

> <Coulomb>
44.893

> <VdW>
1.021

> <VdW6>
-7.482

> <VdW12>
8.503

> <Bond>
0.239

> <Angle>
1.013

> <Pdih>
2.156

> <Idih>
0.000

> <Tether>
0.000

$$$$
VeraChem MOL file


 26 25  0  0  0  0  0  0  0  0999 V2000     
   19.5762   19.1706   19.2685 C   0  0  0  0  0  0  0  0  0  0  0  0
   20.2100   19.9917   18.9088 H   0  0  0  0  0  0  0  0  0  0  0  0
   19.6002   18.3721   18.5156 H   0  0  0  0  0  0  0  0  0  0  0  0
   18.5444   19.5394   19.3360 H   0  0  0  0  0  0  0  0  0  0  0  0
   20.0680   18.6466   20.6345 C   0  0  0  0  0  0  0  0  0  0  0  0
   21.0907   18.2584   20.5286 H   0  0  0  0  0  0  0  0  0  0  0  0
   19.4362   17.8020   20.9393 H   0  0  0  0  0  0  0  0  0  0  0  0
   20.0387   19.7546   21.7139 C   0  0  0  0  0  0  0  0  0  0  0  0
   20.6080   20.6208   21.3494 H   0  0  0  0  0  0  0  0  0  0  0  0
   19.0071   20.1036   21.8590 H   0  0  0  0  0  0  0  0  0  0  0  0
   20.6349   19.3149   23.0739 C   0  0  0  0  0  0  0  0  0  0  0  0
   20.6952   20.2006   23.7198 H   0  0  0  0  0  0  0  0  0  0  0  0
   21.6675   18.9692   22.9274 H   0  0  0  0  0  0  0  0  0  0  0  0
   19.8098   18.2116   23.7839 C   0  0  0  0  0  0  0  0  0  0  0  0
   18.7701   18.5439   23.9035 H   0  0  0  0  0  0  0  0  0  0  0  0
   19.7734   17.3150   23.1519 H   0  0  0  0  0  0  0  0  0  0  0  0
   20.3947   17.8035   25.1597 C   0  0  0  0  0  0  0  0  0  0  0  0
   21.4072   17.4027   25.0177 H   0  0  0  0  0  0  0  0  0  0  0  0
   19.7970   16.9827   25.5779 H   0  0  0  0  0  0  0  0  0  0  0  0
   20.4569   18.9531   26.1861 C   0  0  0  0  0  0  0  0  0  0  0  0
   20.8981   18.5850   27.1163 H   0  0  0  0  0  0  0  0  0  0  0  0
   21.0924   19.7565   25.8049 H   0  0  0  0  0  0  0  0  0  0  0  0
   19.1017   19.5440   26.5206 N   0  3  0  0  0  0  0  0  0  0  0  0
   19.1750   20.2992   27.2109 H   0  0  0  0  0  0  0  0  0  0  0  0
   18.4663   18.8410   26.9116 H   0  0  0  0  0  0  0  0  0  0  0  0
   18.6463   19.9369   25.6910 H   0  0  0  0  0  0  0  0  0  0  0  0
  1  2  1  0  0  0  0
  1  3  1  0  0  0  0
  1  4  1  0  0  0  0
  1  5  1  0  0  0  0
  5  6  1  0  0  0  0
  5  7  1  0  0  0  0
  5  8  1  0  0  0  0
  8  9  1  0  0  0  0
  8 10  1  0  0  0  0
  8 11  1  0  0  0  0
 11 12  1  0  0  0  0
 11 13  1  0  0  0  0
 11 14  1  0  0  0  0
 14 15  1  0  0  0  0
 14 16  1  0  0  0  0
 14 17  1  0  0  0  0
 17 18  1  0  0  0  0
 17 19  1  0  0  0  0
 17 20  1  0  0  0  0
 20 21  1  0  0  0  0
 20 22  1  0  0  0  0
 20 23  1  0  0  0  0
 23 24  1  0  0  0  0
 23 25  1  0  0  0  0
 23 26  1  0  0  0  0
M  END
> <VM2 Rank>
60

> <Conf_Id>
576

> <Probability>
0.47

> <Sum Probability>
88.31

> <Delta G>
1.646

> <G>
49.908

> <E>
17.200

> <-TS>
32.708

> <U+W>
-4.262

> <U>
49.425

> <W>
-53.687

> <W(PB)>
-55.969

> <W(SA)>
2.283

> <Valence>
3.135

> <Coulomb>
45.468

> <VdW>
0.822

> <VdW6>
-7.705

> <VdW12>
8.527

> <Bond>
0.222

> <Angle>
0.941

> <Pdih>
1.972

> <Idih>
0.000

> <Tether>
0.000

$$$$
VeraChem MOL file


 26 25  0  0  0  0  0  0  0  0999 V2000     
   19.4649   18.8443   19.4138 C   0  0  0  0  0  0  0  0  0  0  0  0
   18.8660   19.7643   19.4126 H   0  0  0  0  0  0  0  0  0  0  0  0
   19.7355   18.6190   18.3741 H   0  0  0  0  0  0  0  0  0  0  0  0
   18.8338   18.0229   19.7745 H   0  0  0  0  0  0  0  0  0  0  0  0
   20.7353   19.0089   20.2789 C   0  0  0  0  0  0  0  0  0  0  0  0
   21.3913   19.7513   19.8032 H   0  0  0  0  0  0  0  0  0  0  0  0
   21.2987   18.0655   20.2927 H   0  0  0  0  0  0  0  0  0  0  0  0
   20.4415   19.4650   21.7288 C   0  0  0  0  0  0  0  0  0  0  0  0
   21.4007   19.6848   22.2144 H   0  0  0  0  0  0  0  0  0  0  0  0
   19.8799   20.4091   21.7092 H   0  0  0  0  0  0  0  0  0  0  0  0
   19.6666   18.4120   22.5615 C   0  0  0  0  0  0  0  0  0  0  0  0
   20.2296   17.4688   22.5844 H   0  0  0  0  0  0  0  0  0  0  0  0
   18.7117   18.1895   22.0683 H   0  0  0  0  0  0  0  0  0  0  0  0
   19.3596   18.8685   24.0094 C   0  0  0  0  0  0  0  0  0  0  0  0
   18.8094   19.8194   23.9865 H   0  0  0  0  0  0  0  0  0  0  0  0
   18.6827   18.1318   24.4618 H   0  0  0  0  0  0  0  0  0  0  0  0
   20.6220   19.0160   24.8959 C   0  0  0  0  0  0  0  0  0  0  0  0
   21.2838   19.7842   24.4778 H   0  0  0  0  0  0  0  0  0  0  0  0
   21.1918   18.0773   24.8993 H   0  0  0  0  0  0  0  0  0  0  0  0
   20.2862   19.4183   26.3451 C   0  0  0  0  0  0  0  0  0  0  0  0
   21.2139   19.6029   26.8936 H   0  0  0  0  0  0  0  0  0  0  0  0
   19.7012   20.3420   26.3446 H   0  0  0  0  0  0  0  0  0  0  0  0
   19.5050   18.3660   27.1076 N   0  3  0  0  0  0  0  0  0  0  0  0
   18.6009   18.1702   26.6670 H   0  0  0  0  0  0  0  0  0  0  0  0
   19.3117   18.6594   28.0714 H   0  0  0  0  0  0  0  0  0  0  0  0
   20.0147   17.4781   27.1616 H   0  0  0  0  0  0  0  0  0  0  0  0
  1  2  1  0  0  0  0
  1  3  1  0  0  0  0
  1  4  1  0  0  0  0
  1  5  1  0  0  0  0
  5  6  1  0  0  0  0
  5  7  1  0  0  0  0
  5  8  1  0  0  0  0
  8  9  1  0  0  0  0
  8 10  1  0  0  0  0
  8 11  1  0  0  0  0
 11 12  1  0  0  0  0
 11 13  1  0  0  0  0
 11 14  1  0  0  0  0
 14 15  1  0  0  0  0
 14 16  1  0  0  0  0
 14 17  1  0  0  0  0
 17 18  1  0  0  0  0
 17 19  1  0  0  0  0
 17 20  1  0  0  0  0
 20 21  1  0  0  0  0
 20 22  1  0  0  0  0
 20 23  1  0  0  0  0
 23 24  1  0  0  0  0
 23 25  1  0  0  0  0
 23 26  1  0  0  0  0
M  END
> <VM2 Rank>
61

> <Conf_Id>
1024

> <Probability>
0.47

> <Sum Probability>
88.78

> <Delta G>
1.649

> <G>
49.911

> <E>
17.331

> <-TS>
32.579

> <U+W>
-4.131

> <U>
49.323

> <W>
-53.453

> <W(PB)>
-55.749

> <W(SA)>
2.296

> <Valence>
3.408

> <Coulomb>
44.893

> <VdW>
1.021

> <VdW6>
-7.481

> <VdW12>
8.503

> <Bond>
0.239

> <Angle>
1.013

> <Pdih>
2.156

> <Idih>
0.000

> <Tether>
0.000

$$$$
VeraChem MOL file


 26 25  0  0  0  0  0  0  0  0999 V2000     
   19.3417   19.8346   19.7330 C   0  0  0  0  0  0  0  0  0  0  0  0
   20.0396   19.5354   18.9402 H   0  0  0  0  0  0  0  0  0  0  0  0
   18.3269   19.8104   19.3149 H   0  0  0  0  0  0  0  0  0  0  0  0
   19.5663   20.8721   20.0129 H   0  0  0  0  0  0  0  0  0  0  0  0
   19.4510   18.8953   20.9527 C   0  0  0  0  0  0  0  0  0  0  0  0
   19.1922   17.8713   20.6491 H   0  0  0  0  0  0  0  0  0  0  0  0
   18.7120   19.2013   21.7052 H   0  0  0  0  0  0  0  0  0  0  0  0
   20.8724   18.9155   21.5626 C   0  0  0  0  0  0  0  0  0  0  0  0
   21.6014   18.6813   20.7746 H   0  0  0  0  0  0  0  0  0  0  0  0
   21.1160   19.9301   21.9040 H   0  0  0  0  0  0  0  0  0  0  0  0
   21.0666   17.9030   22.7211 C   0  0  0  0  0  0  0  0  0  0  0  0
   22.1058   17.9649   23.0724 H   0  0  0  0  0  0  0  0  0  0  0  0
   20.9441   16.8850   22.3263 H   0  0  0  0  0  0  0  0  0  0  0  0
   20.1154   18.0835   23.9327 C   0  0  0  0  0  0  0  0  0  0  0  0
   19.0764   17.9078   23.6240 H   0  0  0  0  0  0  0  0  0  0  0  0
   20.3484   17.2995   24.6652 H   0  0  0  0  0  0  0  0  0  0  0  0
   20.2323   19.4716   24.6107 C   0  0  0  0  0  0  0  0  0  0  0  0
   19.9583   20.2574   23.8957 H   0  0  0  0  0  0  0  0  0  0  0  0
   21.2733   19.6612   24.9040 H   0  0  0  0  0  0  0  0  0  0  0  0
   19.3169   19.6104   25.8424 C   0  0  0  0  0  0  0  0  0  0  0  0
   19.3681   20.6361   26.2177 H   0  0  0  0  0  0  0  0  0  0  0  0
   18.2819   19.4032   25.5572 H   0  0  0  0  0  0  0  0  0  0  0  0
   19.6848   18.6852   26.9858 N   0  3  0  0  0  0  0  0  0  0  0  0
   19.0658   18.8135   27.7937 H   0  0  0  0  0  0  0  0  0  0  0  0
   20.6425   18.8477   27.3138 H   0  0  0  0  0  0  0  0  0  0  0  0
   19.6211   17.6997   26.7129 H   0  0  0  0  0  0  0  0  0  0  0  0
  1  2  1  0  0  0  0
  1  3  1  0  0  0  0
  1  4  1  0  0  0  0
  1  5  1  0  0  0  0
  5  6  1  0  0  0  0
  5  7  1  0  0  0  0
  5  8  1  0  0  0  0
  8  9  1  0  0  0  0
  8 10  1  0  0  0  0
  8 11  1  0  0  0  0
 11 12  1  0  0  0  0
 11 13  1  0  0  0  0
 11 14  1  0  0  0  0
 14 15  1  0  0  0  0
 14 16  1  0  0  0  0
 14 17  1  0  0  0  0
 17 18  1  0  0  0  0
 17 19  1  0  0  0  0
 17 20  1  0  0  0  0
 20 21  1  0  0  0  0
 20 22  1  0  0  0  0
 20 23  1  0  0  0  0
 23 24  1  0  0  0  0
 23 25  1  0  0  0  0
 23 26  1  0  0  0  0
M  END
> <VM2 Rank>
62

> <Conf_Id>
428

> <Probability>
0.46

> <Sum Probability>
89.25

> <Delta G>
1.655

> <G>
49.917

> <E>
17.026

> <-TS>
32.890

> <U+W>
-4.435

> <U>
49.231

> <W>
-53.666

> <W(PB)>
-55.963

> <W(SA)>
2.296

> <Valence>
3.277

> <Coulomb>
45.175

> <VdW>
0.779

> <VdW6>
-7.944

> <VdW12>
8.723

> <Bond>
0.239

> <Angle>
1.155

> <Pdih>
1.883

> <Idih>
0.000

> <Tether>
0.000

$$$$
VeraChem MOL file


 26 25  0  0  0  0  0  0  0  0999 V2000     
   20.9192   20.0875   20.0859 C   0  0  0  0  0  0  0  0  0  0  0  0
   20.4832   21.0512   20.3799 H   0  0  0  0  0  0  0  0  0  0  0  0
   21.9811   20.2522   19.8619 H   0  0  0  0  0  0  0  0  0  0  0  0
   20.4273   19.7572   19.1617 H   0  0  0  0  0  0  0  0  0  0  0  0
   20.7551   19.0397   21.2072 C   0  0  0  0  0  0  0  0  0  0  0  0
   21.2925   19.3865   22.0998 H   0  0  0  0  0  0  0  0  0  0  0  0
   21.2261   18.0966   20.8970 H   0  0  0  0  0  0  0  0  0  0  0  0
   19.2656   18.7934   21.5440 C   0  0  0  0  0  0  0  0  0  0  0  0
   18.8045   19.7266   21.8934 H   0  0  0  0  0  0  0  0  0  0  0  0
   18.7322   18.5212   20.6227 H   0  0  0  0  0  0  0  0  0  0  0  0
   19.0420   17.6674   22.5866 C   0  0  0  0  0  0  0  0  0  0  0  0
   19.4021   16.7177   22.1676 H   0  0  0  0  0  0  0  0  0  0  0  0
   17.9616   17.5374   22.7385 H   0  0  0  0  0  0  0  0  0  0  0  0
   19.7194   17.8932   23.9630 C   0  0  0  0  0  0  0  0  0  0  0  0
   19.4888   17.0330   24.6068 H   0  0  0  0  0  0  0  0  0  0  0  0
   20.8101   17.8963   23.8424 H   0  0  0  0  0  0  0  0  0  0  0  0
   19.2569   19.1899   24.6728 C   0  0  0  0  0  0  0  0  0  0  0  0
   18.1599   19.2086   24.7173 H   0  0  0  0  0  0  0  0  0  0  0  0
   19.5642   20.0723   24.0972 H   0  0  0  0  0  0  0  0  0  0  0  0
   19.8063   19.3076   26.1074 C   0  0  0  0  0  0  0  0  0  0  0  0
   19.3856   20.1964   26.5854 H   0  0  0  0  0  0  0  0  0  0  0  0
   19.5054   18.4325   26.6897 H   0  0  0  0  0  0  0  0  0  0  0  0
   21.3167   19.4204   26.1741 N   0  3  0  0  0  0  0  0  0  0  0  0
   21.6602   20.2403   25.6636 H   0  0  0  0  0  0  0  0  0  0  0  0
   21.7766   18.5976   25.7724 H   0  0  0  0  0  0  0  0  0  0  0  0
   21.6491   19.5082   27.1406 H   0  0  0  0  0  0  0  0  0  0  0  0
  1  2  1  0  0  0  0
  1  3  1  0  0  0  0
  1  4  1  0  0  0  0
  1  5  1  0  0  0  0
  5  6  1  0  0  0  0
  5  7  1  0  0  0  0
  5  8  1  0  0  0  0
  8  9  1  0  0  0  0
  8 10  1  0  0  0  0
  8 11  1  0  0  0  0
 11 12  1  0  0  0  0
 11 13  1  0  0  0  0
 11 14  1  0  0  0  0
 14 15  1  0  0  0  0
 14 16  1  0  0  0  0
 14 17  1  0  0  0  0
 17 18  1  0  0  0  0
 17 19  1  0  0  0  0
 17 20  1  0  0  0  0
 20 21  1  0  0  0  0
 20 22  1  0  0  0  0
 20 23  1  0  0  0  0
 23 24  1  0  0  0  0
 23 25  1  0  0  0  0
 23 26  1  0  0  0  0
M  END
> <VM2 Rank>
63

> <Conf_Id>
550

> <Probability>
0.46

> <Sum Probability>
89.70

> <Delta G>
1.663

> <G>
49.924

> <E>
17.019

> <-TS>
32.905

> <U+W>
-4.443

> <U>
49.678

> <W>
-54.121

> <W(PB)>
-56.391

> <W(SA)>
2.271

> <Valence>
3.238

> <Coulomb>
45.761

> <VdW>
0.679

> <VdW6>
-8.038

> <VdW12>
8.716

> <Bond>
0.233

> <Angle>
1.079

> <Pdih>
1.925

> <Idih>
0.000

> <Tether>
0.000

$$$$
VeraChem MOL file


 26 25  0  0  0  0  0  0  0  0999 V2000     
   18.5625   18.9962   20.4409 C   0  0  0  0  0  0  0  0  0  0  0  0
   18.4641   20.0268   20.8036 H   0  0  0  0  0  0  0  0  0  0  0  0
   18.1829   18.9712   19.4113 H   0  0  0  0  0  0  0  0  0  0  0  0
   17.9169   18.3526   21.0525 H   0  0  0  0  0  0  0  0  0  0  0  0
   20.0308   18.5157   20.4878 C   0  0  0  0  0  0  0  0  0  0  0  0
   20.6601   19.1911   19.8916 H   0  0  0  0  0  0  0  0  0  0  0  0
   20.0966   17.5297   20.0070 H   0  0  0  0  0  0  0  0  0  0  0  0
   20.5943   18.4064   21.9250 C   0  0  0  0  0  0  0  0  0  0  0  0
   19.9719   17.7094   22.5015 H   0  0  0  0  0  0  0  0  0  0  0  0
   21.5971   17.9604   21.8749 H   0  0  0  0  0  0  0  0  0  0  0  0
   20.6828   19.7704   22.6548 C   0  0  0  0  0  0  0  0  0  0  0  0
   19.6773   20.1836   22.8052 H   0  0  0  0  0  0  0  0  0  0  0  0
   21.2127   20.4865   22.0117 H   0  0  0  0  0  0  0  0  0  0  0  0
   21.4223   19.6947   24.0156 C   0  0  0  0  0  0  0  0  0  0  0  0
   22.4633   19.3882   23.8437 H   0  0  0  0  0  0  0  0  0  0  0  0
   21.4720   20.7043   24.4463 H   0  0  0  0  0  0  0  0  0  0  0  0
   20.7811   18.7383   25.0519 C   0  0  0  0  0  0  0  0  0  0  0  0
   21.3640   18.7816   25.9815 H   0  0  0  0  0  0  0  0  0  0  0  0
   20.8455   17.7019   24.6969 H   0  0  0  0  0  0  0  0  0  0  0  0
   19.3141   19.0911   25.3603 C   0  0  0  0  0  0  0  0  0  0  0  0
   19.2519   20.1201   25.7246 H   0  0  0  0  0  0  0  0  0  0  0  0
   18.7163   19.0113   24.4486 H   0  0  0  0  0  0  0  0  0  0  0  0
   18.6931   18.1862   26.4046 N   0  3  0  0  0  0  0  0  0  0  0  0
   19.1932   18.2351   27.2983 H   0  0  0  0  0  0  0  0  0  0  0  0
   18.6964   17.2042   26.1102 H   0  0  0  0  0  0  0  0  0  0  0  0
   17.7170   18.4379   26.5949 H   0  0  0  0  0  0  0  0  0  0  0  0
  1  2  1  0  0  0  0
  1  3  1  0  0  0  0
  1  4  1  0  0  0  0
  1  5  1  0  0  0  0
  5  6  1  0  0  0  0
  5  7  1  0  0  0  0
  5  8  1  0  0  0  0
  8  9  1  0  0  0  0
  8 10  1  0  0  0  0
  8 11  1  0  0  0  0
 11 12  1  0  0  0  0
 11 13  1  0  0  0  0
 11 14  1  0  0  0  0
 14 15  1  0  0  0  0
 14 16  1  0  0  0  0
 14 17  1  0  0  0  0
 17 18  1  0  0  0  0
 17 19  1  0  0  0  0
 17 20  1  0  0  0  0
 20 21  1  0  0  0  0
 20 22  1  0  0  0  0
 20 23  1  0  0  0  0
 23 24  1  0  0  0  0
 23 25  1  0  0  0  0
 23 26  1  0  0  0  0
M  END
> <VM2 Rank>
64

> <Conf_Id>
118

> <Probability>
0.46

> <Sum Probability>
90.16

> <Delta G>
1.665

> <G>
49.926

> <E>
17.106

> <-TS>
32.821

> <U+W>
-4.356

> <U>
49.567

> <W>
-53.923

> <W(PB)>
-56.210

> <W(SA)>
2.287

> <Valence>
3.380

> <Coulomb>
45.516

> <VdW>
0.670

> <VdW6>
-8.071

> <VdW12>
8.742

> <Bond>
0.231

> <Angle>
1.069

> <Pdih>
2.080

> <Idih>
0.000

> <Tether>
0.000

$$$$
VeraChem MOL file


 26 25  0  0  0  0  0  0  0  0999 V2000     
   19.9451   19.6222   19.4852 C   0  0  0  0  0  0  0  0  0  0  0  0
   20.0293   19.3832   18.4172 H   0  0  0  0  0  0  0  0  0  0  0  0
   18.8775   19.7239   19.7160 H   0  0  0  0  0  0  0  0  0  0  0  0
   20.4275   20.5943   19.6504 H   0  0  0  0  0  0  0  0  0  0  0  0
   20.6100   18.5191   20.3397 C   0  0  0  0  0  0  0  0  0  0  0  0
   21.6384   18.3689   19.9825 H   0  0  0  0  0  0  0  0  0  0  0  0
   20.0882   17.5647   20.1834 H   0  0  0  0  0  0  0  0  0  0  0  0
   20.6545   18.8504   21.8512 C   0  0  0  0  0  0  0  0  0  0  0  0
   21.2592   18.0814   22.3486 H   0  0  0  0  0  0  0  0  0  0  0  0
   21.1795   19.8037   22.0021 H   0  0  0  0  0  0  0  0  0  0  0  0
   19.2530   18.9144   22.5102 C   0  0  0  0  0  0  0  0  0  0  0  0
   18.7284   17.9609   22.3599 H   0  0  0  0  0  0  0  0  0  0  0  0
   18.6488   19.6816   22.0092 H   0  0  0  0  0  0  0  0  0  0  0  0
   19.2955   19.2511   24.0212 C   0  0  0  0  0  0  0  0  0  0  0  0
   19.8155   20.2077   24.1648 H   0  0  0  0  0  0  0  0  0  0  0  0
   18.2652   19.4030   24.3719 H   0  0  0  0  0  0  0  0  0  0  0  0
   19.9604   18.1490   24.8835 C   0  0  0  0  0  0  0  0  0  0  0  0
   21.0239   18.0523   24.6319 H   0  0  0  0  0  0  0  0  0  0  0  0
   19.4937   17.1805   24.6599 H   0  0  0  0  0  0  0  0  0  0  0  0
   19.8242   18.4187   26.3943 C   0  0  0  0  0  0  0  0  0  0  0  0
   18.7673   18.5135   26.6576 H   0  0  0  0  0  0  0  0  0  0  0  0
   20.2404   17.5757   26.9527 H   0  0  0  0  0  0  0  0  0  0  0  0
   20.5382   19.6740   26.8557 N   0  3  0  0  0  0  0  0  0  0  0  0
   20.1699   20.5113   26.3937 H   0  0  0  0  0  0  0  0  0  0  0  0
   21.5432   19.6353   26.6572 H   0  0  0  0  0  0  0  0  0  0  0  0
   20.4376   19.8197   27.8661 H   0  0  0  0  0  0  0  0  0  0  0  0
  1  2  1  0  0  0  0
  1  3  1  0  0  0  0
  1  4  1  0  0  0  0
  1  5  1  0  0  0  0
  5  6  1  0  0  0  0
  5  7  1  0  0  0  0
  5  8  1  0  0  0  0
  8  9  1  0  0  0  0
  8 10  1  0  0  0  0
  8 11  1  0  0  0  0
 11 12  1  0  0  0  0
 11 13  1  0  0  0  0
 11 14  1  0  0  0  0
 14 15  1  0  0  0  0
 14 16  1  0  0  0  0
 14 17  1  0  0  0  0
 17 18  1  0  0  0  0
 17 19  1  0  0  0  0
 17 20  1  0  0  0  0
 20 21  1  0  0  0  0
 20 22  1  0  0  0  0
 20 23  1  0  0  0  0
 23 24  1  0  0  0  0
 23 25  1  0  0  0  0
 23 26  1  0  0  0  0
M  END
> <VM2 Rank>
65

> <Conf_Id>
215

> <Probability>
0.45

> <Sum Probability>
90.61

> <Delta G>
1.669

> <G>
49.930

> <E>
17.305

> <-TS>
32.626

> <U+W>
-4.157

> <U>
49.401

> <W>
-53.558

> <W(PB)>
-55.887

> <W(SA)>
2.328

> <Valence>
3.370

> <Coulomb>
45.066

> <VdW>
0.965

> <VdW6>
-7.528

> <VdW12>
8.494

> <Bond>
0.232

> <Angle>
0.963

> <Pdih>
2.174

> <Idih>
0.000

> <Tether>
0.000

$$$$
VeraChem MOL file


 26 25  0  0  0  0  0  0  0  0999 V2000     
   20.1413   19.5436   19.2873 C   0  0  0  0  0  0  0  0  0  0  0  0
   19.1553   19.2952   18.8736 H   0  0  0  0  0  0  0  0  0  0  0  0
   20.2036   20.6348   19.3912 H   0  0  0  0  0  0  0  0  0  0  0  0
   20.9006   19.2305   18.5590 H   0  0  0  0  0  0  0  0  0  0  0  0
   20.3668   18.8438   20.6445 C   0  0  0  0  0  0  0  0  0  0  0  0
   21.3762   19.0828   21.0040 H   0  0  0  0  0  0  0  0  0  0  0  0
   20.3277   17.7547   20.5033 H   0  0  0  0  0  0  0  0  0  0  0  0
   19.3100   19.2735   21.6896 C   0  0  0  0  0  0  0  0  0  0  0  0
   19.3868   20.3543   21.8716 H   0  0  0  0  0  0  0  0  0  0  0  0
   18.3079   19.1023   21.2727 H   0  0  0  0  0  0  0  0  0  0  0  0
   19.4172   18.5111   23.0332 C   0  0  0  0  0  0  0  0  0  0  0  0
   19.3373   17.4308   22.8497 H   0  0  0  0  0  0  0  0  0  0  0  0
   18.5497   18.7842   23.6482 H   0  0  0  0  0  0  0  0  0  0  0  0
   20.7213   18.8136   23.8144 C   0  0  0  0  0  0  0  0  0  0  0  0
   21.5889   18.5140   23.2126 H   0  0  0  0  0  0  0  0  0  0  0  0
   20.8175   19.8961   23.9721 H   0  0  0  0  0  0  0  0  0  0  0  0
   20.8033   18.0733   25.1733 C   0  0  0  0  0  0  0  0  0  0  0  0
   21.7721   18.2871   25.6440 H   0  0  0  0  0  0  0  0  0  0  0  0
   20.7819   16.9897   24.9967 H   0  0  0  0  0  0  0  0  0  0  0  0
   19.6746   18.4363   26.1598 C   0  0  0  0  0  0  0  0  0  0  0  0
   18.7053   18.1798   25.7249 H   0  0  0  0  0  0  0  0  0  0  0  0
   19.7969   17.8575   27.0794 H   0  0  0  0  0  0  0  0  0  0  0  0
   19.6464   19.9037   26.5389 N   0  3  0  0  0  0  0  0  0  0  0  0
   19.5024   20.5022   25.7197 H   0  0  0  0  0  0  0  0  0  0  0  0
   20.5230   20.1993   26.9806 H   0  0  0  0  0  0  0  0  0  0  0  0
   18.8915   20.1119   27.2014 H   0  0  0  0  0  0  0  0  0  0  0  0
  1  2  1  0  0  0  0
  1  3  1  0  0  0  0
  1  4  1  0  0  0  0
  1  5  1  0  0  0  0
  5  6  1  0  0  0  0
  5  7  1  0  0  0  0
  5  8  1  0  0  0  0
  8  9  1  0  0  0  0
  8 10  1  0  0  0  0
  8 11  1  0  0  0  0
 11 12  1  0  0  0  0
 11 13  1  0  0  0  0
 11 14  1  0  0  0  0
 14 15  1  0  0  0  0
 14 16  1  0  0  0  0
 14 17  1  0  0  0  0
 17 18  1  0  0  0  0
 17 19  1  0  0  0  0
 17 20  1  0  0  0  0
 20 21  1  0  0  0  0
 20 22  1  0  0  0  0
 20 23  1  0  0  0  0
 23 24  1  0  0  0  0
 23 25  1  0  0  0  0
 23 26  1  0  0  0  0
M  END
> <VM2 Rank>
66

> <Conf_Id>
273

> <Probability>
0.45

> <Sum Probability>
91.06

> <Delta G>
1.676

> <G>
49.937

> <E>
17.230

> <-TS>
32.707

> <U+W>
-4.232

> <U>
49.425

> <W>
-53.657

> <W(PB)>
-55.945

> <W(SA)>
2.288

> <Valence>
3.135

> <Coulomb>
45.468

> <VdW>
0.822

> <VdW6>
-7.705

> <VdW12>
8.527

> <Bond>
0.222

> <Angle>
0.941

> <Pdih>
1.972

> <Idih>
0.000

> <Tether>
0.000

$$$$
VeraChem MOL file


 26 25  0  0  0  0  0  0  0  0999 V2000     
   20.3466   18.2637   19.4854 C   0  0  0  0  0  0  0  0  0  0  0  0
   19.3729   18.5588   19.0730 H   0  0  0  0  0  0  0  0  0  0  0  0
   21.1121   18.9284   19.0641 H   0  0  0  0  0  0  0  0  0  0  0  0
   20.5620   17.2430   19.1436 H   0  0  0  0  0  0  0  0  0  0  0  0
   20.3392   18.3320   21.0273 C   0  0  0  0  0  0  0  0  0  0  0  0
   21.3153   18.0035   21.4107 H   0  0  0  0  0  0  0  0  0  0  0  0
   19.5913   17.6256   21.4111 H   0  0  0  0  0  0  0  0  0  0  0  0
   20.0334   19.7617   21.5329 C   0  0  0  0  0  0  0  0  0  0  0  0
   20.7458   20.4620   21.0754 H   0  0  0  0  0  0  0  0  0  0  0  0
   19.0358   20.0703   21.1909 H   0  0  0  0  0  0  0  0  0  0  0  0
   20.1229   19.9064   23.0718 C   0  0  0  0  0  0  0  0  0  0  0  0
   20.0073   20.9685   23.3283 H   0  0  0  0  0  0  0  0  0  0  0  0
   21.1287   19.6161   23.4037 H   0  0  0  0  0  0  0  0  0  0  0  0
   19.0509   19.0851   23.8319 C   0  0  0  0  0  0  0  0  0  0  0  0
   18.0592   19.3193   23.4210 H   0  0  0  0  0  0  0  0  0  0  0  0
   19.2061   18.0118   23.6649 H   0  0  0  0  0  0  0  0  0  0  0  0
   19.0344   19.3730   25.3541 C   0  0  0  0  0  0  0  0  0  0  0  0
   18.2329   18.7892   25.8257 H   0  0  0  0  0  0  0  0  0  0  0  0
   18.7821   20.4288   25.5203 H   0  0  0  0  0  0  0  0  0  0  0  0
   20.3684   19.0659   26.0643 C   0  0  0  0  0  0  0  0  0  0  0  0
   21.1664   19.6747   25.6317 H   0  0  0  0  0  0  0  0  0  0  0  0
   20.2828   19.3219   27.1239 H   0  0  0  0  0  0  0  0  0  0  0  0
   20.7852   17.6112   25.9733 N   0  3  0  0  0  0  0  0  0  0  0  0
   20.9125   17.3156   25.0005 H   0  0  0  0  0  0  0  0  0  0  0  0
   20.0861   16.9887   26.3912 H   0  0  0  0  0  0  0  0  0  0  0  0
   21.6710   17.4374   26.4604 H   0  0  0  0  0  0  0  0  0  0  0  0
  1  2  1  0  0  0  0
  1  3  1  0  0  0  0
  1  4  1  0  0  0  0
  1  5  1  0  0  0  0
  5  6  1  0  0  0  0
  5  7  1  0  0  0  0
  5  8  1  0  0  0  0
  8  9  1  0  0  0  0
  8 10  1  0  0  0  0
  8 11  1  0  0  0  0
 11 12  1  0  0  0  0
 11 13  1  0  0  0  0
 11 14  1  0  0  0  0
 14 15  1  0  0  0  0
 14 16  1  0  0  0  0
 14 17  1  0  0  0  0
 17 18  1  0  0  0  0
 17 19  1  0  0  0  0
 17 20  1  0  0  0  0
 20 21  1  0  0  0  0
 20 22  1  0  0  0  0
 20 23  1  0  0  0  0
 23 24  1  0  0  0  0
 23 25  1  0  0  0  0
 23 26  1  0  0  0  0
M  END
> <VM2 Rank>
67

> <Conf_Id>
813

> <Probability>
0.43

> <Sum Probability>
91.49

> <Delta G>
1.697

> <G>
49.958

> <E>
17.207

> <-TS>
32.751

> <U+W>
-4.254

> <U>
49.692

> <W>
-53.946

> <W(PB)>
-56.227

> <W(SA)>
2.281

> <Valence>
3.067

> <Coulomb>
45.913

> <VdW>
0.712

> <VdW6>
-7.810

> <VdW12>
8.523

> <Bond>
0.215

> <Angle>
0.854

> <Pdih>
1.997

> <Idih>
0.000

> <Tether>
0.000

$$$$
VeraChem MOL file


 26 25  0  0  0  0  0  0  0  0999 V2000     
   18.8830   18.4739   19.9566 C   0  0  0  0  0  0  0  0  0  0  0  0
   17.9551   18.2379   20.4938 H   0  0  0  0  0  0  0  0  0  0  0  0
   18.7275   19.4063   19.3984 H   0  0  0  0  0  0  0  0  0  0  0  0
   19.0645   17.6722   19.2291 H   0  0  0  0  0  0  0  0  0  0  0  0
   20.0713   18.6029   20.9330 C   0  0  0  0  0  0  0  0  0  0  0  0
   20.9893   18.8087   20.3652 H   0  0  0  0  0  0  0  0  0  0  0  0
   20.2205   17.6414   21.4421 H   0  0  0  0  0  0  0  0  0  0  0  0
   19.8370   19.7254   21.9711 C   0  0  0  0  0  0  0  0  0  0  0  0
   19.6248   20.6634   21.4397 H   0  0  0  0  0  0  0  0  0  0  0  0
   18.9382   19.5040   22.5615 H   0  0  0  0  0  0  0  0  0  0  0  0
   21.0465   19.9609   22.9123 C   0  0  0  0  0  0  0  0  0  0  0  0
   20.8188   20.8056   23.5763 H   0  0  0  0  0  0  0  0  0  0  0  0
   21.9072   20.2833   22.3104 H   0  0  0  0  0  0  0  0  0  0  0  0
   21.4700   18.7356   23.7667 C   0  0  0  0  0  0  0  0  0  0  0  0
   21.8660   17.9488   23.1110 H   0  0  0  0  0  0  0  0  0  0  0  0
   22.3088   19.0322   24.4116 H   0  0  0  0  0  0  0  0  0  0  0  0
   20.3463   18.1404   24.6509 C   0  0  0  0  0  0  0  0  0  0  0  0
   20.7549   17.2972   25.2234 H   0  0  0  0  0  0  0  0  0  0  0  0
   19.5503   17.7266   24.0187 H   0  0  0  0  0  0  0  0  0  0  0  0
   19.7508   19.1712   25.6277 C   0  0  0  0  0  0  0  0  0  0  0  0
   20.5421   19.5724   26.2666 H   0  0  0  0  0  0  0  0  0  0  0  0
   19.3085   19.9984   25.0663 H   0  0  0  0  0  0  0  0  0  0  0  0
   18.6761   18.5888   26.5227 N   0  3  0  0  0  0  0  0  0  0  0  0
   19.0349   17.8213   27.1002 H   0  0  0  0  0  0  0  0  0  0  0  0
   17.8883   18.2171   25.9821 H   0  0  0  0  0  0  0  0  0  0  0  0
   18.2932   19.2913   27.1647 H   0  0  0  0  0  0  0  0  0  0  0  0
  1  2  1  0  0  0  0
  1  3  1  0  0  0  0
  1  4  1  0  0  0  0
  1  5  1  0  0  0  0
  5  6  1  0  0  0  0
  5  7  1  0  0  0  0
  5  8  1  0  0  0  0
  8  9  1  0  0  0  0
  8 10  1  0  0  0  0
  8 11  1  0  0  0  0
 11 12  1  0  0  0  0
 11 13  1  0  0  0  0
 11 14  1  0  0  0  0
 14 15  1  0  0  0  0
 14 16  1  0  0  0  0
 14 17  1  0  0  0  0
 17 18  1  0  0  0  0
 17 19  1  0  0  0  0
 17 20  1  0  0  0  0
 20 21  1  0  0  0  0
 20 22  1  0  0  0  0
 20 23  1  0  0  0  0
 23 24  1  0  0  0  0
 23 25  1  0  0  0  0
 23 26  1  0  0  0  0
M  END
> <VM2 Rank>
68

> <Conf_Id>
83

> <Probability>
0.43

> <Sum Probability>
91.92

> <Delta G>
1.702

> <G>
49.963

> <E>
16.926

> <-TS>
33.038

> <U+W>
-4.536

> <U>
49.453

> <W>
-53.989

> <W(PB)>
-56.276

> <W(SA)>
2.286

> <Valence>
3.376

> <Coulomb>
45.559

> <VdW>
0.518

> <VdW6>
-8.348

> <VdW12>
8.866

> <Bond>
0.240

> <Angle>
1.237

> <Pdih>
1.900

> <Idih>
0.000

> <Tether>
0.000

$$$$
VeraChem MOL file


 26 25  0  0  0  0  0  0  0  0999 V2000     
   18.7345   18.6465   20.0130 C   0  0  0  0  0  0  0  0  0  0  0  0
   19.2740   18.9965   19.1232 H   0  0  0  0  0  0  0  0  0  0  0  0
   18.1767   17.7430   19.7348 H   0  0  0  0  0  0  0  0  0  0  0  0
   18.0068   19.4178   20.2972 H   0  0  0  0  0  0  0  0  0  0  0  0
   19.7092   18.3499   21.1723 C   0  0  0  0  0  0  0  0  0  0  0  0
   20.4050   17.5550   20.8696 H   0  0  0  0  0  0  0  0  0  0  0  0
   19.1381   17.9655   22.0278 H   0  0  0  0  0  0  0  0  0  0  0  0
   20.5046   19.6106   21.5854 C   0  0  0  0  0  0  0  0  0  0  0  0
   21.0068   20.0215   20.6987 H   0  0  0  0  0  0  0  0  0  0  0  0
   19.8122   20.3912   21.9271 H   0  0  0  0  0  0  0  0  0  0  0  0
   21.5781   19.3402   22.6713 C   0  0  0  0  0  0  0  0  0  0  0  0
   22.1146   20.2766   22.8772 H   0  0  0  0  0  0  0  0  0  0  0  0
   22.3285   18.6480   22.2653 H   0  0  0  0  0  0  0  0  0  0  0  0
   21.0408   18.7647   24.0072 C   0  0  0  0  0  0  0  0  0  0  0  0
   20.6152   17.7678   23.8358 H   0  0  0  0  0  0  0  0  0  0  0  0
   21.8914   18.6176   24.6870 H   0  0  0  0  0  0  0  0  0  0  0  0
   19.9983   19.6789   24.6976 C   0  0  0  0  0  0  0  0  0  0  0  0
   19.0939   19.7621   24.0816 H   0  0  0  0  0  0  0  0  0  0  0  0
   20.4098   20.6925   24.7926 H   0  0  0  0  0  0  0  0  0  0  0  0
   19.6077   19.1765   26.1007 C   0  0  0  0  0  0  0  0  0  0  0  0
   20.5026   19.0899   26.7230 H   0  0  0  0  0  0  0  0  0  0  0  0
   18.9343   19.8986   26.5704 H   0  0  0  0  0  0  0  0  0  0  0  0
   18.9078   17.8316   26.0935 N   0  3  0  0  0  0  0  0  0  0  0  0
   19.5015   17.0972   25.6960 H   0  0  0  0  0  0  0  0  0  0  0  0
   18.0434   17.8552   25.5429 H   0  0  0  0  0  0  0  0  0  0  0  0
   18.6519   17.5311   27.0403 H   0  0  0  0  0  0  0  0  0  0  0  0
  1  2  1  0  0  0  0
  1  3  1  0  0  0  0
  1  4  1  0  0  0  0
  1  5  1  0  0  0  0
  5  6  1  0  0  0  0
  5  7  1  0  0  0  0
  5  8  1  0  0  0  0
  8  9  1  0  0  0  0
  8 10  1  0  0  0  0
  8 11  1  0  0  0  0
 11 12  1  0  0  0  0
 11 13  1  0  0  0  0
 11 14  1  0  0  0  0
 14 15  1  0  0  0  0
 14 16  1  0  0  0  0
 14 17  1  0  0  0  0
 17 18  1  0  0  0  0
 17 19  1  0  0  0  0
 17 20  1  0  0  0  0
 20 21  1  0  0  0  0
 20 22  1  0  0  0  0
 20 23  1  0  0  0  0
 23 24  1  0  0  0  0
 23 25  1  0  0  0  0
 23 26  1  0  0  0  0
M  END
> <VM2 Rank>
69

> <Conf_Id>
965

> <Probability>
0.42

> <Sum Probability>
92.34

> <Delta G>
1.715

> <G>
49.977

> <E>
17.071

> <-TS>
32.905

> <U+W>
-4.390

> <U>
49.678

> <W>
-54.068

> <W(PB)>
-56.333

> <W(SA)>
2.265

> <Valence>
3.238

> <Coulomb>
45.761

> <VdW>
0.679

> <VdW6>
-8.038

> <VdW12>
8.717

> <Bond>
0.233

> <Angle>
1.079

> <Pdih>
1.925

> <Idih>
0.000

> <Tether>
0.000

$$$$
VeraChem MOL file


 26 25  0  0  0  0  0  0  0  0999 V2000     
   19.2519   20.2702   20.6298 C   0  0  0  0  0  0  0  0  0  0  0  0
   18.3778   20.4743   19.9980 H   0  0  0  0  0  0  0  0  0  0  0  0
   18.9773   20.5170   21.6630 H   0  0  0  0  0  0  0  0  0  0  0  0
   20.0582   20.9461   20.3168 H   0  0  0  0  0  0  0  0  0  0  0  0
   19.6831   18.7922   20.4963 C   0  0  0  0  0  0  0  0  0  0  0  0
   19.8313   18.5618   19.4320 H   0  0  0  0  0  0  0  0  0  0  0  0
   18.8693   18.1368   20.8345 H   0  0  0  0  0  0  0  0  0  0  0  0
   20.9908   18.4600   21.2593 C   0  0  0  0  0  0  0  0  0  0  0  0
   21.2419   17.4041   21.0882 H   0  0  0  0  0  0  0  0  0  0  0  0
   21.8147   19.0394   20.8204 H   0  0  0  0  0  0  0  0  0  0  0  0
   20.9521   18.7284   22.7858 C   0  0  0  0  0  0  0  0  0  0  0  0
   20.8178   19.8025   22.9670 H   0  0  0  0  0  0  0  0  0  0  0  0
   21.9338   18.4708   23.2066 H   0  0  0  0  0  0  0  0  0  0  0  0
   19.8578   17.9190   23.5262 C   0  0  0  0  0  0  0  0  0  0  0  0
   18.8619   18.2332   23.1867 H   0  0  0  0  0  0  0  0  0  0  0  0
   19.9562   16.8561   23.2662 H   0  0  0  0  0  0  0  0  0  0  0  0
   19.9356   18.0646   25.0640 C   0  0  0  0  0  0  0  0  0  0  0  0
   20.9172   17.7228   25.4184 H   0  0  0  0  0  0  0  0  0  0  0  0
   19.1880   17.4041   25.5231 H   0  0  0  0  0  0  0  0  0  0  0  0
   19.6887   19.5098   25.5359 C   0  0  0  0  0  0  0  0  0  0  0  0
   20.4528   20.1709   25.1191 H   0  0  0  0  0  0  0  0  0  0  0  0
   18.7105   19.8493   25.1850 H   0  0  0  0  0  0  0  0  0  0  0  0
   19.7210   19.6547   27.0437 N   0  3  0  0  0  0  0  0  0  0  0  0
   20.6267   19.3757   27.4349 H   0  0  0  0  0  0  0  0  0  0  0  0
   19.0054   19.0782   27.4983 H   0  0  0  0  0  0  0  0  0  0  0  0
   19.5546   20.6235   27.3371 H   0  0  0  0  0  0  0  0  0  0  0  0
  1  2  1  0  0  0  0
  1  3  1  0  0  0  0
  1  4  1  0  0  0  0
  1  5  1  0  0  0  0
  5  6  1  0  0  0  0
  5  7  1  0  0  0  0
  5  8  1  0  0  0  0
  8  9  1  0  0  0  0
  8 10  1  0  0  0  0
  8 11  1  0  0  0  0
 11 12  1  0  0  0  0
 11 13  1  0  0  0  0
 11 14  1  0  0  0  0
 14 15  1  0  0  0  0
 14 16  1  0  0  0  0
 14 17  1  0  0  0  0
 17 18  1  0  0  0  0
 17 19  1  0  0  0  0
 17 20  1  0  0  0  0
 20 21  1  0  0  0  0
 20 22  1  0  0  0  0
 20 23  1  0  0  0  0
 23 24  1  0  0  0  0
 23 25  1  0  0  0  0
 23 26  1  0  0  0  0
M  END
> <VM2 Rank>
70

> <Conf_Id>
1067

> <Probability>
0.42

> <Sum Probability>
92.76

> <Delta G>
1.716

> <G>
49.977

> <E>
17.088

> <-TS>
32.889

> <U+W>
-4.373

> <U>
49.255

> <W>
-53.628

> <W(PB)>
-55.893

> <W(SA)>
2.264

> <Valence>
3.394

> <Coulomb>
45.181

> <VdW>
0.680

> <VdW6>
-8.024

> <VdW12>
8.705

> <Bond>
0.231

> <Angle>
1.123

> <Pdih>
2.041

> <Idih>
0.000

> <Tether>
0.000

$$$$
VeraChem MOL file


 26 25  0  0  0  0  0  0  0  0999 V2000     
   20.6610   18.4706   19.4958 C   0  0  0  0  0  0  0  0  0  0  0  0
   20.7937   19.4937   19.1203 H   0  0  0  0  0  0  0  0  0  0  0  0
   21.5285   17.8789   19.1757 H   0  0  0  0  0  0  0  0  0  0  0  0
   19.7685   18.0445   19.0193 H   0  0  0  0  0  0  0  0  0  0  0  0
   20.5296   18.4573   21.0336 C   0  0  0  0  0  0  0  0  0  0  0  0
   21.4552   18.8519   21.4732 H   0  0  0  0  0  0  0  0  0  0  0  0
   20.4280   17.4197   21.3810 H   0  0  0  0  0  0  0  0  0  0  0  0
   19.3149   19.2891   21.5089 C   0  0  0  0  0  0  0  0  0  0  0  0
   19.4414   20.3372   21.2045 H   0  0  0  0  0  0  0  0  0  0  0  0
   18.4124   18.9268   20.9976 H   0  0  0  0  0  0  0  0  0  0  0  0
   19.0753   19.2171   23.0369 C   0  0  0  0  0  0  0  0  0  0  0  0
   18.9290   18.1691   23.3303 H   0  0  0  0  0  0  0  0  0  0  0  0
   18.1345   19.7365   23.2659 H   0  0  0  0  0  0  0  0  0  0  0  0
   20.2168   19.8519   23.8708 C   0  0  0  0  0  0  0  0  0  0  0  0
   21.1481   19.2891   23.7296 H   0  0  0  0  0  0  0  0  0  0  0  0
   20.4127   20.8672   23.4994 H   0  0  0  0  0  0  0  0  0  0  0  0
   19.8884   19.9347   25.3825 C   0  0  0  0  0  0  0  0  0  0  0  0
   19.0116   20.5798   25.5278 H   0  0  0  0  0  0  0  0  0  0  0  0
   20.7187   20.4243   25.9085 H   0  0  0  0  0  0  0  0  0  0  0  0
   19.6103   18.5673   26.0391 C   0  0  0  0  0  0  0  0  0  0  0  0
   19.3599   18.7149   27.0931 H   0  0  0  0  0  0  0  0  0  0  0  0
   18.7566   18.0897   25.5514 H   0  0  0  0  0  0  0  0  0  0  0  0
   20.7847   17.6110   25.9734 N   0  3  0  0  0  0  0  0  0  0  0  0
   21.0508   17.4065   25.0053 H   0  0  0  0  0  0  0  0  0  0  0  0
   20.5717   16.7144   26.4240 H   0  0  0  0  0  0  0  0  0  0  0  0
   21.6125   17.9929   26.4421 H   0  0  0  0  0  0  0  0  0  0  0  0
  1  2  1  0  0  0  0
  1  3  1  0  0  0  0
  1  4  1  0  0  0  0
  1  5  1  0  0  0  0
  5  6  1  0  0  0  0
  5  7  1  0  0  0  0
  5  8  1  0  0  0  0
  8  9  1  0  0  0  0
  8 10  1  0  0  0  0
  8 11  1  0  0  0  0
 11 12  1  0  0  0  0
 11 13  1  0  0  0  0
 11 14  1  0  0  0  0
 14 15  1  0  0  0  0
 14 16  1  0  0  0  0
 14 17  1  0  0  0  0
 17 18  1  0  0  0  0
 17 19  1  0  0  0  0
 17 20  1  0  0  0  0
 20 21  1  0  0  0  0
 20 22  1  0  0  0  0
 20 23  1  0  0  0  0
 23 24  1  0  0  0  0
 23 25  1  0  0  0  0
 23 26  1  0  0  0  0
M  END
> <VM2 Rank>
71

> <Conf_Id>
1118

> <Probability>
0.42

> <Sum Probability>
93.18

> <Delta G>
1.717

> <G>
49.978

> <E>
17.227

> <-TS>
32.751

> <U+W>
-4.234

> <U>
49.692

> <W>
-53.926

> <W(PB)>
-56.220

> <W(SA)>
2.294

> <Valence>
3.067

> <Coulomb>
45.912

> <VdW>
0.712

> <VdW6>
-7.810

> <VdW12>
8.523

> <Bond>
0.215

> <Angle>
0.854

> <Pdih>
1.997

> <Idih>
0.000

> <Tether>
0.000

$$$$
VeraChem MOL file


 26 25  0  0  0  0  0  0  0  0999 V2000     
   21.0216   19.8855   20.0283 C   0  0  0  0  0  0  0  0  0  0  0  0
   20.2519   20.4125   19.4495 H   0  0  0  0  0  0  0  0  0  0  0  0
   21.5771   20.6286   20.6151 H   0  0  0  0  0  0  0  0  0  0  0  0
   21.7209   19.4255   19.3180 H   0  0  0  0  0  0  0  0  0  0  0  0
   20.3918   18.8145   20.9438 C   0  0  0  0  0  0  0  0  0  0  0  0
   21.1930   18.2833   21.4747 H   0  0  0  0  0  0  0  0  0  0  0  0
   19.8692   18.0694   20.3278 H   0  0  0  0  0  0  0  0  0  0  0  0
   19.4039   19.4396   21.9566 C   0  0  0  0  0  0  0  0  0  0  0  0
   19.9323   20.1601   22.5948 H   0  0  0  0  0  0  0  0  0  0  0  0
   18.6501   20.0201   21.4071 H   0  0  0  0  0  0  0  0  0  0  0  0
   18.6697   18.3921   22.8328 C   0  0  0  0  0  0  0  0  0  0  0  0
   18.0640   17.7467   22.1819 H   0  0  0  0  0  0  0  0  0  0  0  0
   17.9519   18.9133   23.4804 H   0  0  0  0  0  0  0  0  0  0  0  0
   19.5896   17.4944   23.7038 C   0  0  0  0  0  0  0  0  0  0  0  0
   18.9583   16.8207   24.2996 H   0  0  0  0  0  0  0  0  0  0  0  0
   20.1878   16.8411   23.0549 H   0  0  0  0  0  0  0  0  0  0  0  0
   20.5359   18.2654   24.6572 C   0  0  0  0  0  0  0  0  0  0  0  0
   21.2576   18.8532   24.0758 H   0  0  0  0  0  0  0  0  0  0  0  0
   21.1237   17.5406   25.2358 H   0  0  0  0  0  0  0  0  0  0  0  0
   19.7768   19.1884   25.6284 C   0  0  0  0  0  0  0  0  0  0  0  0
   19.2164   19.9375   25.0631 H   0  0  0  0  0  0  0  0  0  0  0  0
   19.0683   18.5998   26.2173 H   0  0  0  0  0  0  0  0  0  0  0  0
   20.6916   19.9191   26.5899 N   0  3  0  0  0  0  0  0  0  0  0  0
   21.3670   20.5133   26.0982 H   0  0  0  0  0  0  0  0  0  0  0  0
   21.2293   19.2698   27.1733 H   0  0  0  0  0  0  0  0  0  0  0  0
   20.1664   20.5278   27.2272 H   0  0  0  0  0  0  0  0  0  0  0  0
  1  2  1  0  0  0  0
  1  3  1  0  0  0  0
  1  4  1  0  0  0  0
  1  5  1  0  0  0  0
  5  6  1  0  0  0  0
  5  7  1  0  0  0  0
  5  8  1  0  0  0  0
  8  9  1  0  0  0  0
  8 10  1  0  0  0  0
  8 11  1  0  0  0  0
 11 12  1  0  0  0  0
 11 13  1  0  0  0  0
 11 14  1  0  0  0  0
 14 15  1  0  0  0  0
 14 16  1  0  0  0  0
 14 17  1  0  0  0  0
 17 18  1  0  0  0  0
 17 19  1  0  0  0  0
 17 20  1  0  0  0  0
 20 21  1  0  0  0  0
 20 22  1  0  0  0  0
 20 23  1  0  0  0  0
 23 24  1  0  0  0  0
 23 25  1  0  0  0  0
 23 26  1  0  0  0  0
M  END
> <VM2 Rank>
72

> <Conf_Id>
135

> <Probability>
0.40

> <Sum Probability>
93.58

> <Delta G>
1.738

> <G>
49.999

> <E>
16.962

> <-TS>
33.038

> <U+W>
-4.500

> <U>
49.453

> <W>
-53.954

> <W(PB)>
-56.228

> <W(SA)>
2.274

> <Valence>
3.376

> <Coulomb>
45.559

> <VdW>
0.518

> <VdW6>
-8.348

> <VdW12>
8.866

> <Bond>
0.240

> <Angle>
1.236

> <Pdih>
1.900

> <Idih>
0.000

> <Tether>
0.000

$$$$
VeraChem MOL file


 26 25  0  0  0  0  0  0  0  0999 V2000     
   19.1945   20.2325   20.6281 C   0  0  0  0  0  0  0  0  0  0  0  0
   19.0273   20.5500   21.6649 H   0  0  0  0  0  0  0  0  0  0  0  0
   19.3784   21.1354   20.0317 H   0  0  0  0  0  0  0  0  0  0  0  0
   18.2722   19.7667   20.2574 H   0  0  0  0  0  0  0  0  0  0  0  0
   20.3902   19.2593   20.5200 C   0  0  0  0  0  0  0  0  0  0  0  0
   21.2953   19.7392   20.9157 H   0  0  0  0  0  0  0  0  0  0  0  0
   20.5934   19.0654   19.4575 H   0  0  0  0  0  0  0  0  0  0  0  0
   20.1481   17.9034   21.2310 C   0  0  0  0  0  0  0  0  0  0  0  0
   19.3135   17.3875   20.7367 H   0  0  0  0  0  0  0  0  0  0  0  0
   21.0281   17.2630   21.0810 H   0  0  0  0  0  0  0  0  0  0  0  0
   19.8455   17.9974   22.7487 C   0  0  0  0  0  0  0  0  0  0  0  0
   19.6783   16.9811   23.1310 H   0  0  0  0  0  0  0  0  0  0  0  0
   18.9026   18.5375   22.9029 H   0  0  0  0  0  0  0  0  0  0  0  0
   20.9833   18.6621   23.5639 C   0  0  0  0  0  0  0  0  0  0  0  0
   21.9336   18.1617   23.3324 H   0  0  0  0  0  0  0  0  0  0  0  0
   21.1005   19.7112   23.2616 H   0  0  0  0  0  0  0  0  0  0  0  0
   20.7473   18.6006   25.0912 C   0  0  0  0  0  0  0  0  0  0  0  0
   21.6258   19.0135   25.6047 H   0  0  0  0  0  0  0  0  0  0  0  0
   20.6603   17.5532   25.4098 H   0  0  0  0  0  0  0  0  0  0  0  0
   19.4941   19.3814   25.5294 C   0  0  0  0  0  0  0  0  0  0  0  0
   19.5818   20.4246   25.2140 H   0  0  0  0  0  0  0  0  0  0  0  0
   18.6067   18.9521   25.0571 H   0  0  0  0  0  0  0  0  0  0  0  0
   19.2780   19.3623   27.0287 N   0  3  0  0  0  0  0  0  0  0  0  0
   20.0669   19.7791   27.5338 H   0  0  0  0  0  0  0  0  0  0  0  0
   19.1613   18.4084   27.3858 H   0  0  0  0  0  0  0  0  0  0  0  0
   18.4393   19.8873   27.2996 H   0  0  0  0  0  0  0  0  0  0  0  0
  1  2  1  0  0  0  0
  1  3  1  0  0  0  0
  1  4  1  0  0  0  0
  1  5  1  0  0  0  0
  5  6  1  0  0  0  0
  5  7  1  0  0  0  0
  5  8  1  0  0  0  0
  8  9  1  0  0  0  0
  8 10  1  0  0  0  0
  8 11  1  0  0  0  0
 11 12  1  0  0  0  0
 11 13  1  0  0  0  0
 11 14  1  0  0  0  0
 14 15  1  0  0  0  0
 14 16  1  0  0  0  0
 14 17  1  0  0  0  0
 17 18  1  0  0  0  0
 17 19  1  0  0  0  0
 17 20  1  0  0  0  0
 20 21  1  0  0  0  0
 20 22  1  0  0  0  0
 20 23  1  0  0  0  0
 23 24  1  0  0  0  0
 23 25  1  0  0  0  0
 23 26  1  0  0  0  0
M  END
> <VM2 Rank>
73

> <Conf_Id>
276

> <Probability>
0.39

> <Sum Probability>
93.97

> <Delta G>
1.754

> <G>
50.015

> <E>
17.126

> <-TS>
32.889

> <U+W>
-4.335

> <U>
49.255

> <W>
-53.591

> <W(PB)>
-55.888

> <W(SA)>
2.298

> <Valence>
3.394

> <Coulomb>
45.181

> <VdW>
0.680

> <VdW6>
-8.024

> <VdW12>
8.704

> <Bond>
0.231

> <Angle>
1.123

> <Pdih>
2.041

> <Idih>
0.000

> <Tether>
0.000

$$$$
VeraChem MOL file


 26 25  0  0  0  0  0  0  0  0999 V2000     
   20.9282   18.3413   20.0345 C   0  0  0  0  0  0  0  0  0  0  0  0
   21.3559   17.7952   20.8845 H   0  0  0  0  0  0  0  0  0  0  0  0
   20.8442   17.6362   19.1974 H   0  0  0  0  0  0  0  0  0  0  0  0
   21.6337   19.1293   19.7409 H   0  0  0  0  0  0  0  0  0  0  0  0
   19.5448   18.9359   20.3823 C   0  0  0  0  0  0  0  0  0  0  0  0
   18.8632   18.1327   20.6923 H   0  0  0  0  0  0  0  0  0  0  0  0
   19.1059   19.3659   19.4712 H   0  0  0  0  0  0  0  0  0  0  0  0
   19.6033   20.0399   21.4690 C   0  0  0  0  0  0  0  0  0  0  0  0
   20.1845   20.8876   21.0806 H   0  0  0  0  0  0  0  0  0  0  0  0
   18.5880   20.4245   21.6375 H   0  0  0  0  0  0  0  0  0  0  0  0
   20.2095   19.6050   22.8286 C   0  0  0  0  0  0  0  0  0  0  0  0
   20.2201   20.4821   23.4888 H   0  0  0  0  0  0  0  0  0  0  0  0
   21.2602   19.3160   22.6941 H   0  0  0  0  0  0  0  0  0  0  0  0
   19.4319   18.4521   23.5127 C   0  0  0  0  0  0  0  0  0  0  0  0
   18.3770   18.7351   23.6320 H   0  0  0  0  0  0  0  0  0  0  0  0
   19.4461   17.5649   22.8663 H   0  0  0  0  0  0  0  0  0  0  0  0
   20.0193   18.0566   24.8880 C   0  0  0  0  0  0  0  0  0  0  0  0
   21.0713   17.7646   24.7698 H   0  0  0  0  0  0  0  0  0  0  0  0
   19.4873   17.1710   25.2602 H   0  0  0  0  0  0  0  0  0  0  0  0
   19.9078   19.1839   25.9317 C   0  0  0  0  0  0  0  0  0  0  0  0
   20.4731   20.0571   25.5965 H   0  0  0  0  0  0  0  0  0  0  0  0
   18.8604   19.4751   26.0481 H   0  0  0  0  0  0  0  0  0  0  0  0
   20.4362   18.7842   27.2942 N   0  3  0  0  0  0  0  0  0  0  0  0
   21.4271   18.5233   27.2583 H   0  0  0  0  0  0  0  0  0  0  0  0
   19.9270   17.9830   27.6815 H   0  0  0  0  0  0  0  0  0  0  0  0
   20.3528   19.5478   27.9743 H   0  0  0  0  0  0  0  0  0  0  0  0
  1  2  1  0  0  0  0
  1  3  1  0  0  0  0
  1  4  1  0  0  0  0
  1  5  1  0  0  0  0
  5  6  1  0  0  0  0
  5  7  1  0  0  0  0
  5  8  1  0  0  0  0
  8  9  1  0  0  0  0
  8 10  1  0  0  0  0
  8 11  1  0  0  0  0
 11 12  1  0  0  0  0
 11 13  1  0  0  0  0
 11 14  1  0  0  0  0
 14 15  1  0  0  0  0
 14 16  1  0  0  0  0
 14 17  1  0  0  0  0
 17 18  1  0  0  0  0
 17 19  1  0  0  0  0
 17 20  1  0  0  0  0
 20 21  1  0  0  0  0
 20 22  1  0  0  0  0
 20 23  1  0  0  0  0
 23 24  1  0  0  0  0
 23 25  1  0  0  0  0
 23 26  1  0  0  0  0
M  END
> <VM2 Rank>
74

> <Conf_Id>
970

> <Probability>
0.38

> <Sum Probability>
94.35

> <Delta G>
1.778

> <G>
50.040

> <E>
17.173

> <-TS>
32.867

> <U+W>
-4.289

> <U>
49.209

> <W>
-53.498

> <W(PB)>
-55.784

> <W(SA)>
2.286

> <Valence>
3.465

> <Coulomb>
44.958

> <VdW>
0.786

> <VdW6>
-7.903

> <VdW12>
8.690

> <Bond>
0.237

> <Angle>
1.213

> <Pdih>
2.015

> <Idih>
0.000

> <Tether>
0.000

$$$$
VeraChem MOL file


 26 25  0  0  0  0  0  0  0  0999 V2000     
   20.3367   17.9514   20.0148 C   0  0  0  0  0  0  0  0  0  0  0  0
   21.0560   17.7758   19.2045 H   0  0  0  0  0  0  0  0  0  0  0  0
   20.6306   17.3170   20.8604 H   0  0  0  0  0  0  0  0  0  0  0  0
   19.3493   17.6234   19.6649 H   0  0  0  0  0  0  0  0  0  0  0  0
   20.3183   19.4457   20.4081 C   0  0  0  0  0  0  0  0  0  0  0  0
   20.1384   20.0465   19.5057 H   0  0  0  0  0  0  0  0  0  0  0  0
   21.3095   19.7452   20.7739 H   0  0  0  0  0  0  0  0  0  0  0  0
   19.2310   19.7946   21.4565 C   0  0  0  0  0  0  0  0  0  0  0  0
   19.2692   20.8735   21.6602 H   0  0  0  0  0  0  0  0  0  0  0  0
   18.2422   19.6073   21.0157 H   0  0  0  0  0  0  0  0  0  0  0  0
   19.3288   19.0246   22.7991 C   0  0  0  0  0  0  0  0  0  0  0  0
   19.1873   17.9498   22.6249 H   0  0  0  0  0  0  0  0  0  0  0  0
   18.4885   19.3408   23.4309 H   0  0  0  0  0  0  0  0  0  0  0  0
   20.6614   19.2625   23.5537 C   0  0  0  0  0  0  0  0  0  0  0  0
   21.5006   18.9192   22.9349 H   0  0  0  0  0  0  0  0  0  0  0  0
   20.8106   20.3394   23.7133 H   0  0  0  0  0  0  0  0  0  0  0  0
   20.7296   18.5249   24.9117 C   0  0  0  0  0  0  0  0  0  0  0  0
   21.7347   18.6526   25.3354 H   0  0  0  0  0  0  0  0  0  0  0  0
   20.5899   17.4472   24.7537 H   0  0  0  0  0  0  0  0  0  0  0  0
   19.6896   19.0400   25.9244 C   0  0  0  0  0  0  0  0  0  0  0  0
   19.8282   20.1132   26.0803 H   0  0  0  0  0  0  0  0  0  0  0  0
   18.6811   18.8755   25.5366 H   0  0  0  0  0  0  0  0  0  0  0  0
   19.7856   18.3553   27.2725 N   0  3  0  0  0  0  0  0  0  0  0  0
   19.0854   18.7122   27.9319 H   0  0  0  0  0  0  0  0  0  0  0  0
   20.7035   18.4951   27.7075 H   0  0  0  0  0  0  0  0  0  0  0  0
   19.6376   17.3435   27.1986 H   0  0  0  0  0  0  0  0  0  0  0  0
  1  2  1  0  0  0  0
  1  3  1  0  0  0  0
  1  4  1  0  0  0  0
  1  5  1  0  0  0  0
  5  6  1  0  0  0  0
  5  7  1  0  0  0  0
  5  8  1  0  0  0  0
  8  9  1  0  0  0  0
  8 10  1  0  0  0  0
  8 11  1  0  0  0  0
 11 12  1  0  0  0  0
 11 13  1  0  0  0  0
 11 14  1  0  0  0  0
 14 15  1  0  0  0  0
 14 16  1  0  0  0  0
 14 17  1  0  0  0  0
 17 18  1  0  0  0  0
 17 19  1  0  0  0  0
 17 20  1  0  0  0  0
 20 21  1  0  0  0  0
 20 22  1  0  0  0  0
 20 23  1  0  0  0  0
 23 24  1  0  0  0  0
 23 25  1  0  0  0  0
 23 26  1  0  0  0  0
M  END
> <VM2 Rank>
75

> <Conf_Id>
1094

> <Probability>
0.36

> <Sum Probability>
94.71

> <Delta G>
1.801

> <G>
50.063

> <E>
17.196

> <-TS>
32.866

> <U+W>
-4.266

> <U>
49.209

> <W>
-53.475

> <W(PB)>
-55.751

> <W(SA)>
2.276

> <Valence>
3.465

> <Coulomb>
44.958

> <VdW>
0.787

> <VdW6>
-7.904

> <VdW12>
8.690

> <Bond>
0.237

> <Angle>
1.213

> <Pdih>
2.015

> <Idih>
0.000

> <Tether>
0.000

$$$$
VeraChem MOL file


 26 25  0  0  0  0  0  0  0  0999 V2000     
   20.3769   19.1768   19.5971 C   0  0  0  0  0  0  0  0  0  0  0  0
   21.0233   18.9689   18.7346 H   0  0  0  0  0  0  0  0  0  0  0  0
   19.3365   19.0278   19.2801 H   0  0  0  0  0  0  0  0  0  0  0  0
   20.5089   20.2335   19.8596 H   0  0  0  0  0  0  0  0  0  0  0  0
   20.7367   18.2471   20.7783 C   0  0  0  0  0  0  0  0  0  0  0  0
   21.7699   18.4395   21.0996 H   0  0  0  0  0  0  0  0  0  0  0  0
   20.7134   17.2060   20.4268 H   0  0  0  0  0  0  0  0  0  0  0  0
   19.7784   18.3829   21.9864 C   0  0  0  0  0  0  0  0  0  0  0  0
   18.7475   18.1868   21.6610 H   0  0  0  0  0  0  0  0  0  0  0  0
   20.0313   17.5960   22.7084 H   0  0  0  0  0  0  0  0  0  0  0  0
   19.8539   19.7663   22.6812 C   0  0  0  0  0  0  0  0  0  0  0  0
   19.6084   20.5527   21.9561 H   0  0  0  0  0  0  0  0  0  0  0  0
   20.8850   19.9630   23.0038 H   0  0  0  0  0  0  0  0  0  0  0  0
   18.8848   19.9106   23.8835 C   0  0  0  0  0  0  0  0  0  0  0  0
   18.9657   20.9328   24.2783 H   0  0  0  0  0  0  0  0  0  0  0  0
   17.8508   19.8063   23.5268 H   0  0  0  0  0  0  0  0  0  0  0  0
   19.1209   18.9089   25.0414 C   0  0  0  0  0  0  0  0  0  0  0  0
   18.9018   17.8871   24.7067 H   0  0  0  0  0  0  0  0  0  0  0  0
   18.4076   19.1265   25.8475 H   0  0  0  0  0  0  0  0  0  0  0  0
   20.5525   18.9756   25.6051 C   0  0  0  0  0  0  0  0  0  0  0  0
   21.2698   18.7192   24.8211 H   0  0  0  0  0  0  0  0  0  0  0  0
   20.7656   19.9914   25.9488 H   0  0  0  0  0  0  0  0  0  0  0  0
   20.7769   18.0309   26.7680 N   0  3  0  0  0  0  0  0  0  0  0  0
   20.6182   17.0534   26.5026 H   0  0  0  0  0  0  0  0  0  0  0  0
   20.1503   18.2361   27.5531 H   0  0  0  0  0  0  0  0  0  0  0  0
   21.7357   18.0908   27.1279 H   0  0  0  0  0  0  0  0  0  0  0  0
  1  2  1  0  0  0  0
  1  3  1  0  0  0  0
  1  4  1  0  0  0  0
  1  5  1  0  0  0  0
  5  6  1  0  0  0  0
  5  7  1  0  0  0  0
  5  8  1  0  0  0  0
  8  9  1  0  0  0  0
  8 10  1  0  0  0  0
  8 11  1  0  0  0  0
 11 12  1  0  0  0  0
 11 13  1  0  0  0  0
 11 14  1  0  0  0  0
 14 15  1  0  0  0  0
 14 16  1  0  0  0  0
 14 17  1  0  0  0  0
 17 18  1  0  0  0  0
 17 19  1  0  0  0  0
 17 20  1  0  0  0  0
 20 21  1  0  0  0  0
 20 22  1  0  0  0  0
 20 23  1  0  0  0  0
 23 24  1  0  0  0  0
 23 25  1  0  0  0  0
 23 26  1  0  0  0  0
M  END
> <VM2 Rank>
76

> <Conf_Id>
539

> <Probability>
0.34

> <Sum Probability>
95.05

> <Delta G>
1.843

> <G>
50.105

> <E>
17.343

> <-TS>
32.762

> <U+W>
-4.119

> <U>
49.638

> <W>
-53.757

> <W(PB)>
-56.037

> <W(SA)>
2.280

> <Valence>
3.491

> <Coulomb>
45.360

> <VdW>
0.787

> <VdW6>
-7.914

> <VdW12>
8.701

> <Bond>
0.240

> <Angle>
1.203

> <Pdih>
2.047

> <Idih>
0.000

> <Tether>
0.000

$$$$
VeraChem MOL file


 26 25  0  0  0  0  0  0  0  0999 V2000     
   19.8067   18.8011   19.5781 C   0  0  0  0  0  0  0  0  0  0  0  0
   20.3680   19.7070   19.3147 H   0  0  0  0  0  0  0  0  0  0  0  0
   19.7833   18.1520   18.6932 H   0  0  0  0  0  0  0  0  0  0  0  0
   18.7723   19.0896   19.8015 H   0  0  0  0  0  0  0  0  0  0  0  0
   20.4633   18.0670   20.7693 C   0  0  0  0  0  0  0  0  0  0  0  0
   21.4446   17.6876   20.4515 H   0  0  0  0  0  0  0  0  0  0  0  0
   19.8648   17.1847   21.0360 H   0  0  0  0  0  0  0  0  0  0  0  0
   20.6596   18.9633   22.0159 C   0  0  0  0  0  0  0  0  0  0  0  0
   21.2487   18.3979   22.7493 H   0  0  0  0  0  0  0  0  0  0  0  0
   21.2607   19.8422   21.7452 H   0  0  0  0  0  0  0  0  0  0  0  0
   19.3275   19.4195   22.6636 C   0  0  0  0  0  0  0  0  0  0  0  0
   18.7259   18.5408   22.9317 H   0  0  0  0  0  0  0  0  0  0  0  0
   18.7360   19.9779   21.9269 H   0  0  0  0  0  0  0  0  0  0  0  0
   19.5205   20.3295   23.9047 C   0  0  0  0  0  0  0  0  0  0  0  0
   20.0399   21.2485   23.5999 H   0  0  0  0  0  0  0  0  0  0  0  0
   18.5317   20.6471   24.2638 H   0  0  0  0  0  0  0  0  0  0  0  0
   20.2933   19.6814   25.0806 C   0  0  0  0  0  0  0  0  0  0  0  0
   20.3367   20.3976   25.9119 H   0  0  0  0  0  0  0  0  0  0  0  0
   21.3333   19.4892   24.7879 H   0  0  0  0  0  0  0  0  0  0  0  0
   19.6425   18.3761   25.5747 C   0  0  0  0  0  0  0  0  0  0  0  0
   18.6100   18.5713   25.8769 H   0  0  0  0  0  0  0  0  0  0  0  0
   19.6319   17.6404   24.7663 H   0  0  0  0  0  0  0  0  0  0  0  0
   20.3675   17.7610   26.7541 N   0  3  0  0  0  0  0  0  0  0  0  0
   19.9184   16.8934   27.0670 H   0  0  0  0  0  0  0  0  0  0  0  0
   20.3893   18.3932   27.5610 H   0  0  0  0  0  0  0  0  0  0  0  0
   21.3398   17.5286   26.5263 H   0  0  0  0  0  0  0  0  0  0  0  0
  1  2  1  0  0  0  0
  1  3  1  0  0  0  0
  1  4  1  0  0  0  0
  1  5  1  0  0  0  0
  5  6  1  0  0  0  0
  5  7  1  0  0  0  0
  5  8  1  0  0  0  0
  8  9  1  0  0  0  0
  8 10  1  0  0  0  0
  8 11  1  0  0  0  0
 11 12  1  0  0  0  0
 11 13  1  0  0  0  0
 11 14  1  0  0  0  0
 14 15  1  0  0  0  0
 14 16  1  0  0  0  0
 14 17  1  0  0  0  0
 17 18  1  0  0  0  0
 17 19  1  0  0  0  0
 17 20  1  0  0  0  0
 20 21  1  0  0  0  0
 20 22  1  0  0  0  0
 20 23  1  0  0  0  0
 23 24  1  0  0  0  0
 23 25  1  0  0  0  0
 23 26  1  0  0  0  0
M  END
> <VM2 Rank>
77

> <Conf_Id>
1361

> <Probability>
0.34

> <Sum Probability>
95.39

> <Delta G>
1.845

> <G>
50.106

> <E>
17.345

> <-TS>
32.761

> <U+W>
-4.117

> <U>
49.639

> <W>
-53.756

> <W(PB)>
-56.049

> <W(SA)>
2.294

> <Valence>
3.490

> <Coulomb>
45.361

> <VdW>
0.787

> <VdW6>
-7.915

> <VdW12>
8.702

> <Bond>
0.240

> <Angle>
1.203

> <Pdih>
2.047

> <Idih>
0.000

> <Tether>
0.000

$$$$
VeraChem MOL file


 26 25  0  0  0  0  0  0  0  0999 V2000     
   19.0729   19.1980   20.0755 C   0  0  0  0  0  0  0  0  0  0  0  0
   19.7816   19.3693   19.2549 H   0  0  0  0  0  0  0  0  0  0  0  0
   18.1205   18.8757   19.6353 H   0  0  0  0  0  0  0  0  0  0  0  0
   18.8961   20.1549   20.5822 H   0  0  0  0  0  0  0  0  0  0  0  0
   19.6063   18.1286   21.0553 C   0  0  0  0  0  0  0  0  0  0  0  0
   19.6635   17.1649   20.5302 H   0  0  0  0  0  0  0  0  0  0  0  0
   18.8876   17.9835   21.8729 H   0  0  0  0  0  0  0  0  0  0  0  0
   21.0073   18.4636   21.6268 C   0  0  0  0  0  0  0  0  0  0  0  0
   21.3398   17.6345   22.2653 H   0  0  0  0  0  0  0  0  0  0  0  0
   21.7273   18.5026   20.7979 H   0  0  0  0  0  0  0  0  0  0  0  0
   21.0958   19.7947   22.4212 C   0  0  0  0  0  0  0  0  0  0  0  0
   20.9346   20.6372   21.7355 H   0  0  0  0  0  0  0  0  0  0  0  0
   22.1222   19.9123   22.7949 H   0  0  0  0  0  0  0  0  0  0  0  0
   20.1110   19.9217   23.6119 C   0  0  0  0  0  0  0  0  0  0  0  0
   20.2554   20.9065   24.0774 H   0  0  0  0  0  0  0  0  0  0  0  0
   19.0758   19.9101   23.2457 H   0  0  0  0  0  0  0  0  0  0  0  0
   20.2980   18.8262   24.6874 C   0  0  0  0  0  0  0  0  0  0  0  0
   21.3419   18.8172   25.0280 H   0  0  0  0  0  0  0  0  0  0  0  0
   20.0882   17.8378   24.2594 H   0  0  0  0  0  0  0  0  0  0  0  0
   19.3686   19.0590   25.8915 C   0  0  0  0  0  0  0  0  0  0  0  0
   19.5816   20.0341   26.3378 H   0  0  0  0  0  0  0  0  0  0  0  0
   18.3270   19.0528   25.5590 H   0  0  0  0  0  0  0  0  0  0  0  0
   19.5212   18.0073   26.9713 N   0  3  0  0  0  0  0  0  0  0  0  0
   20.4751   17.9804   27.3463 H   0  0  0  0  0  0  0  0  0  0  0  0
   19.3073   17.0672   26.6225 H   0  0  0  0  0  0  0  0  0  0  0  0
   18.8937   18.1815   27.7640 H   0  0  0  0  0  0  0  0  0  0  0  0
  1  2  1  0  0  0  0
  1  3  1  0  0  0  0
  1  4  1  0  0  0  0
  1  5  1  0  0  0  0
  5  6  1  0  0  0  0
  5  7  1  0  0  0  0
  5  8  1  0  0  0  0
  8  9  1  0  0  0  0
  8 10  1  0  0  0  0
  8 11  1  0  0  0  0
 11 12  1  0  0  0  0
 11 13  1  0  0  0  0
 11 14  1  0  0  0  0
 14 15  1  0  0  0  0
 14 16  1  0  0  0  0
 14 17  1  0  0  0  0
 17 18  1  0  0  0  0
 17 19  1  0  0  0  0
 17 20  1  0  0  0  0
 20 21  1  0  0  0  0
 20 22  1  0  0  0  0
 20 23  1  0  0  0  0
 23 24  1  0  0  0  0
 23 25  1  0  0  0  0
 23 26  1  0  0  0  0
M  END
> <VM2 Rank>
78

> <Conf_Id>
954

> <Probability>
0.32

> <Sum Probability>
95.71

> <Delta G>
1.878

> <G>
50.140

> <E>
17.022

> <-TS>
33.118

> <U+W>
-4.440

> <U>
49.278

> <W>
-53.718

> <W(PB)>
-55.975

> <W(SA)>
2.257

> <Valence>
3.566

> <Coulomb>
45.108

> <VdW>
0.605

> <VdW6>
-8.326

> <VdW12>
8.930

> <Bond>
0.252

> <Angle>
1.371

> <Pdih>
1.943

> <Idih>
0.000

> <Tether>
0.000

$$$$
VeraChem MOL file


 26 25  0  0  0  0  0  0  0  0999 V2000     
   20.2774   19.9921   20.1157 C   0  0  0  0  0  0  0  0  0  0  0  0
   19.4444   20.5163   20.6005 H   0  0  0  0  0  0  0  0  0  0  0  0
   20.9682   20.7531   19.7306 H   0  0  0  0  0  0  0  0  0  0  0  0
   19.8799   19.4339   19.2582 H   0  0  0  0  0  0  0  0  0  0  0  0
   21.0042   19.0503   21.1021 C   0  0  0  0  0  0  0  0  0  0  0  0
   21.3818   19.6280   21.9563 H   0  0  0  0  0  0  0  0  0  0  0  0
   21.8913   18.6337   20.6048 H   0  0  0  0  0  0  0  0  0  0  0  0
   20.1194   17.8782   21.5972 C   0  0  0  0  0  0  0  0  0  0  0  0
   19.8393   17.2578   20.7348 H   0  0  0  0  0  0  0  0  0  0  0  0
   20.7204   17.2261   22.2446 H   0  0  0  0  0  0  0  0  0  0  0  0
   18.8252   18.2977   22.3453 C   0  0  0  0  0  0  0  0  0  0  0  0
   18.2964   17.3900   22.6670 H   0  0  0  0  0  0  0  0  0  0  0  0
   18.1467   18.7992   21.6424 H   0  0  0  0  0  0  0  0  0  0  0  0
   19.0401   19.2157   23.5762 C   0  0  0  0  0  0  0  0  0  0  0  0
   19.4745   20.1731   23.2591 H   0  0  0  0  0  0  0  0  0  0  0  0
   18.0572   19.4572   24.0040 H   0  0  0  0  0  0  0  0  0  0  0  0
   19.9227   18.5788   24.6749 C   0  0  0  0  0  0  0  0  0  0  0  0
   20.9328   18.3947   24.2875 H   0  0  0  0  0  0  0  0  0  0  0  0
   19.5049   17.6061   24.9667 H   0  0  0  0  0  0  0  0  0  0  0  0
   20.0182   19.4872   25.9131 C   0  0  0  0  0  0  0  0  0  0  0  0
   20.4487   20.4515   25.6298 H   0  0  0  0  0  0  0  0  0  0  0  0
   19.0182   19.6627   26.3189 H   0  0  0  0  0  0  0  0  0  0  0  0
   20.8738   18.8990   27.0165 N   0  3  0  0  0  0  0  0  0  0  0  0
   20.9235   19.5197   27.8318 H   0  0  0  0  0  0  0  0  0  0  0  0
   21.8374   18.7353   26.7070 H   0  0  0  0  0  0  0  0  0  0  0  0
   20.5061   18.0009   27.3473 H   0  0  0  0  0  0  0  0  0  0  0  0
  1  2  1  0  0  0  0
  1  3  1  0  0  0  0
  1  4  1  0  0  0  0
  1  5  1  0  0  0  0
  5  6  1  0  0  0  0
  5  7  1  0  0  0  0
  5  8  1  0  0  0  0
  8  9  1  0  0  0  0
  8 10  1  0  0  0  0
  8 11  1  0  0  0  0
 11 12  1  0  0  0  0
 11 13  1  0  0  0  0
 11 14  1  0  0  0  0
 14 15  1  0  0  0  0
 14 16  1  0  0  0  0
 14 17  1  0  0  0  0
 17 18  1  0  0  0  0
 17 19  1  0  0  0  0
 17 20  1  0  0  0  0
 20 21  1  0  0  0  0
 20 22  1  0  0  0  0
 20 23  1  0  0  0  0
 23 24  1  0  0  0  0
 23 25  1  0  0  0  0
 23 26  1  0  0  0  0
M  END
> <VM2 Rank>
79

> <Conf_Id>
1301

> <Probability>
0.32

> <Sum Probability>
96.03

> <Delta G>
1.884

> <G>
50.146

> <E>
17.028

> <-TS>
33.118

> <U+W>
-4.434

> <U>
49.278

> <W>
-53.712

> <W(PB)>
-55.986

> <W(SA)>
2.274

> <Valence>
3.566

> <Coulomb>
45.108

> <VdW>
0.605

> <VdW6>
-8.326

> <VdW12>
8.930

> <Bond>
0.252

> <Angle>
1.371

> <Pdih>
1.943

> <Idih>
0.000

> <Tether>
0.000

$$$$
VeraChem MOL file


 26 25  0  0  0  0  0  0  0  0999 V2000     
   18.5779   19.0170   20.4709 C   0  0  0  0  0  0  0  0  0  0  0  0
   18.1025   19.8776   20.9591 H   0  0  0  0  0  0  0  0  0  0  0  0
   18.2020   18.9654   19.4409 H   0  0  0  0  0  0  0  0  0  0  0  0
   18.2520   18.1053   20.9868 H   0  0  0  0  0  0  0  0  0  0  0  0
   20.1174   19.1541   20.4786 C   0  0  0  0  0  0  0  0  0  0  0  0
   20.4000   20.0115   19.8518 H   0  0  0  0  0  0  0  0  0  0  0  0
   20.5699   18.2688   20.0105 H   0  0  0  0  0  0  0  0  0  0  0  0
   20.7076   19.3578   21.8946 C   0  0  0  0  0  0  0  0  0  0  0  0
   21.7848   19.5524   21.8002 H   0  0  0  0  0  0  0  0  0  0  0  0
   20.2665   20.2590   22.3404 H   0  0  0  0  0  0  0  0  0  0  0  0
   20.4934   18.1411   22.8297 C   0  0  0  0  0  0  0  0  0  0  0  0
   20.8444   17.2329   22.3208 H   0  0  0  0  0  0  0  0  0  0  0  0
   19.4220   17.9918   23.0136 H   0  0  0  0  0  0  0  0  0  0  0  0
   21.2417   18.2653   24.1819 C   0  0  0  0  0  0  0  0  0  0  0  0
   21.0809   17.3466   24.7619 H   0  0  0  0  0  0  0  0  0  0  0  0
   22.3227   18.3103   23.9911 H   0  0  0  0  0  0  0  0  0  0  0  0
   20.8342   19.4912   25.0410 C   0  0  0  0  0  0  0  0  0  0  0  0
   21.1518   20.4146   24.5402 H   0  0  0  0  0  0  0  0  0  0  0  0
   21.3816   19.4631   25.9925 H   0  0  0  0  0  0  0  0  0  0  0  0
   19.3223   19.5776   25.3310 C   0  0  0  0  0  0  0  0  0  0  0  0
   19.1141   20.4817   25.9096 H   0  0  0  0  0  0  0  0  0  0  0  0
   18.7695   19.6411   24.3901 H   0  0  0  0  0  0  0  0  0  0  0  0
   18.7864   18.3950   26.1132 N   0  3  0  0  0  0  0  0  0  0  0  0
   19.2471   18.3019   27.0242 H   0  0  0  0  0  0  0  0  0  0  0  0
   18.9295   17.5141   25.6099 H   0  0  0  0  0  0  0  0  0  0  0  0
   17.7803   18.4809   26.2931 H   0  0  0  0  0  0  0  0  0  0  0  0
  1  2  1  0  0  0  0
  1  3  1  0  0  0  0
  1  4  1  0  0  0  0
  1  5  1  0  0  0  0
  5  6  1  0  0  0  0
  5  7  1  0  0  0  0
  5  8  1  0  0  0  0
  8  9  1  0  0  0  0
  8 10  1  0  0  0  0
  8 11  1  0  0  0  0
 11 12  1  0  0  0  0
 11 13  1  0  0  0  0
 11 14  1  0  0  0  0
 14 15  1  0  0  0  0
 14 16  1  0  0  0  0
 14 17  1  0  0  0  0
 17 18  1  0  0  0  0
 17 19  1  0  0  0  0
 17 20  1  0  0  0  0
 20 21  1  0  0  0  0
 20 22  1  0  0  0  0
 20 23  1  0  0  0  0
 23 24  1  0  0  0  0
 23 25  1  0  0  0  0
 23 26  1  0  0  0  0
M  END
> <VM2 Rank>
80

> <Conf_Id>
1056

> <Probability>
0.24

> <Sum Probability>
96.27

> <Delta G>
2.042

> <G>
50.303

> <E>
17.276

> <-TS>
33.027

> <U+W>
-4.186

> <U>
49.857

> <W>
-54.043

> <W(PB)>
-56.303

> <W(SA)>
2.260

> <Valence>
3.483

> <Coulomb>
45.719

> <VdW>
0.655

> <VdW6>
-8.796

> <VdW12>
9.451

> <Bond>
0.257

> <Angle>
1.140

> <Pdih>
2.086

> <Idih>
0.000

> <Tether>
0.000

$$$$
VeraChem MOL file


 26 25  0  0  0  0  0  0  0  0999 V2000     
   20.6180   20.3637   20.5390 C   0  0  0  0  0  0  0  0  0  0  0  0
   20.8606   20.7204   19.5297 H   0  0  0  0  0  0  0  0  0  0  0  0
   19.9907   21.1241   21.0221 H   0  0  0  0  0  0  0  0  0  0  0  0
   21.5594   20.2888   21.0973 H   0  0  0  0  0  0  0  0  0  0  0  0
   19.8885   19.0028   20.4708 C   0  0  0  0  0  0  0  0  0  0  0  0
   20.5465   18.2531   20.0097 H   0  0  0  0  0  0  0  0  0  0  0  0
   19.0192   19.0996   19.8055 H   0  0  0  0  0  0  0  0  0  0  0  0
   19.4041   18.4972   21.8509 C   0  0  0  0  0  0  0  0  0  0  0  0
   18.7280   19.2433   22.2887 H   0  0  0  0  0  0  0  0  0  0  0  0
   18.8076   17.5868   21.7005 H   0  0  0  0  0  0  0  0  0  0  0  0
   20.5624   18.1868   22.8320 C   0  0  0  0  0  0  0  0  0  0  0  0
   21.1108   19.1069   23.0701 H   0  0  0  0  0  0  0  0  0  0  0  0
   21.2831   17.5225   22.3355 H   0  0  0  0  0  0  0  0  0  0  0  0
   20.0921   17.5066   24.1435 C   0  0  0  0  0  0  0  0  0  0  0  0
   19.6359   16.5368   23.9012 H   0  0  0  0  0  0  0  0  0  0  0  0
   20.9722   17.2750   24.7583 H   0  0  0  0  0  0  0  0  0  0  0  0
   19.0854   18.3369   24.9825 C   0  0  0  0  0  0  0  0  0  0  0  0
   18.8523   17.7936   25.9078 H   0  0  0  0  0  0  0  0  0  0  0  0
   18.1358   18.4240   24.4393 H   0  0  0  0  0  0  0  0  0  0  0  0
   19.5852   19.7511   25.3400 C   0  0  0  0  0  0  0  0  0  0  0  0
   19.7875   20.3130   24.4243 H   0  0  0  0  0  0  0  0  0  0  0  0
   18.8091   20.2805   25.8994 H   0  0  0  0  0  0  0  0  0  0  0  0
   20.8453   19.7539   26.1823 N   0  3  0  0  0  0  0  0  0  0  0  0
   21.6221   19.2913   25.7002 H   0  0  0  0  0  0  0  0  0  0  0  0
   20.7078   19.2660   27.0733 H   0  0  0  0  0  0  0  0  0  0  0  0
   21.1525   20.7066   26.4062 H   0  0  0  0  0  0  0  0  0  0  0  0
  1  2  1  0  0  0  0
  1  3  1  0  0  0  0
  1  4  1  0  0  0  0
  1  5  1  0  0  0  0
  5  6  1  0  0  0  0
  5  7  1  0  0  0  0
  5  8  1  0  0  0  0
  8  9  1  0  0  0  0
  8 10  1  0  0  0  0
  8 11  1  0  0  0  0
 11 12  1  0  0  0  0
 11 13  1  0  0  0  0
 11 14  1  0  0  0  0
 14 15  1  0  0  0  0
 14 16  1  0  0  0  0
 14 17  1  0  0  0  0
 17 18  1  0  0  0  0
 17 19  1  0  0  0  0
 17 20  1  0  0  0  0
 20 21  1  0  0  0  0
 20 22  1  0  0  0  0
 20 23  1  0  0  0  0
 23 24  1  0  0  0  0
 23 25  1  0  0  0  0
 23 26  1  0  0  0  0
M  END
> <VM2 Rank>
81

> <Conf_Id>
846

> <Probability>
0.24

> <Sum Probability>
96.50

> <Delta G>
2.057

> <G>
50.318

> <E>
17.291

> <-TS>
33.027

> <U+W>
-4.170

> <U>
49.857

> <W>
-54.027

> <W(PB)>
-56.274

> <W(SA)>
2.247

> <Valence>
3.483

> <Coulomb>
45.719

> <VdW>
0.655

> <VdW6>
-8.795

> <VdW12>
9.450

> <Bond>
0.257

> <Angle>
1.140

> <Pdih>
2.086

> <Idih>
0.000

> <Tether>
0.000

$$$$
VeraChem MOL file


 26 25  0  0  0  0  0  0  0  0999 V2000     
   19.3228   19.5455   19.7460 C   0  0  0  0  0  0  0  0  0  0  0  0
   18.5489   20.2263   20.1237 H   0  0  0  0  0  0  0  0  0  0  0  0
   20.1075   20.1491   19.2715 H   0  0  0  0  0  0  0  0  0  0  0  0
   18.8682   18.9150   18.9708 H   0  0  0  0  0  0  0  0  0  0  0  0
   19.9013   18.6780   20.8839 C   0  0  0  0  0  0  0  0  0  0  0  0
   20.6499   17.9873   20.4715 H   0  0  0  0  0  0  0  0  0  0  0  0
   19.0969   18.0611   21.3060 H   0  0  0  0  0  0  0  0  0  0  0  0
   20.5454   19.5452   21.9909 C   0  0  0  0  0  0  0  0  0  0  0  0
   21.2994   20.2018   21.5354 H   0  0  0  0  0  0  0  0  0  0  0  0
   19.7898   20.2117   22.4273 H   0  0  0  0  0  0  0  0  0  0  0  0
   21.2311   18.7160   23.1072 C   0  0  0  0  0  0  0  0  0  0  0  0
   21.7113   19.4053   23.8146 H   0  0  0  0  0  0  0  0  0  0  0  0
   22.0490   18.1317   22.6637 H   0  0  0  0  0  0  0  0  0  0  0  0
   20.2957   17.7505   23.8840 C   0  0  0  0  0  0  0  0  0  0  0  0
   19.9442   16.9587   23.2093 H   0  0  0  0  0  0  0  0  0  0  0  0
   20.8842   17.2344   24.6542 H   0  0  0  0  0  0  0  0  0  0  0  0
   19.0685   18.4281   24.5479 C   0  0  0  0  0  0  0  0  0  0  0  0
   18.4941   17.6733   25.1011 H   0  0  0  0  0  0  0  0  0  0  0  0
   18.3929   18.8095   23.7715 H   0  0  0  0  0  0  0  0  0  0  0  0
   19.4332   19.5836   25.5013 C   0  0  0  0  0  0  0  0  0  0  0  0
   19.9801   20.3551   24.9531 H   0  0  0  0  0  0  0  0  0  0  0  0
   18.5176   20.0314   25.8969 H   0  0  0  0  0  0  0  0  0  0  0  0
   20.2830   19.1521   26.6799 N   0  3  0  0  0  0  0  0  0  0  0  0
   21.1723   18.7451   26.3745 H   0  0  0  0  0  0  0  0  0  0  0  0
   19.8080   18.4474   27.2531 H   0  0  0  0  0  0  0  0  0  0  0  0
   20.5072   19.9398   27.2974 H   0  0  0  0  0  0  0  0  0  0  0  0
  1  2  1  0  0  0  0
  1  3  1  0  0  0  0
  1  4  1  0  0  0  0
  1  5  1  0  0  0  0
  5  6  1  0  0  0  0
  5  7  1  0  0  0  0
  5  8  1  0  0  0  0
  8  9  1  0  0  0  0
  8 10  1  0  0  0  0
  8 11  1  0  0  0  0
 11 12  1  0  0  0  0
 11 13  1  0  0  0  0
 11 14  1  0  0  0  0
 14 15  1  0  0  0  0
 14 16  1  0  0  0  0
 14 17  1  0  0  0  0
 17 18  1  0  0  0  0
 17 19  1  0  0  0  0
 17 20  1  0  0  0  0
 20 21  1  0  0  0  0
 20 22  1  0  0  0  0
 20 23  1  0  0  0  0
 23 24  1  0  0  0  0
 23 25  1  0  0  0  0
 23 26  1  0  0  0  0
M  END
> <VM2 Rank>
82

> <Conf_Id>
534

> <Probability>
0.21

> <Sum Probability>
96.71

> <Delta G>
2.130

> <G>
50.391

> <E>
17.162

> <-TS>
33.230

> <U+W>
-4.300

> <U>
49.635

> <W>
-53.935

> <W(PB)>
-56.177

> <W(SA)>
2.243

> <Valence>
3.475

> <Coulomb>
45.628

> <VdW>
0.532

> <VdW6>
-9.030

> <VdW12>
9.562

> <Bond>
0.265

> <Angle>
1.304

> <Pdih>
1.905

> <Idih>
0.000

> <Tether>
0.000

$$$$
VeraChem MOL file


 26 25  0  0  0  0  0  0  0  0999 V2000     
   19.8748   19.9096   19.7644 C   0  0  0  0  0  0  0  0  0  0  0  0
   19.0346   19.4410   19.2355 H   0  0  0  0  0  0  0  0  0  0  0  0
   19.5352   20.8771   20.1566 H   0  0  0  0  0  0  0  0  0  0  0  0
   20.6685   20.1029   19.0311 H   0  0  0  0  0  0  0  0  0  0  0  0
   20.3917   19.0017   20.9003 C   0  0  0  0  0  0  0  0  0  0  0  0
   21.2544   19.4847   21.3782 H   0  0  0  0  0  0  0  0  0  0  0  0
   20.7519   18.0545   20.4750 H   0  0  0  0  0  0  0  0  0  0  0  0
   19.2908   18.7175   21.9490 C   0  0  0  0  0  0  0  0  0  0  0  0
   18.9547   19.6607   22.3994 H   0  0  0  0  0  0  0  0  0  0  0  0
   18.4130   18.2975   21.4389 H   0  0  0  0  0  0  0  0  0  0  0  0
   19.7314   17.7266   23.0571 C   0  0  0  0  0  0  0  0  0  0  0  0
   19.9679   16.7587   22.5941 H   0  0  0  0  0  0  0  0  0  0  0  0
   18.8769   17.5353   23.7198 H   0  0  0  0  0  0  0  0  0  0  0  0
   20.9493   18.1817   23.9058 C   0  0  0  0  0  0  0  0  0  0  0  0
   21.1566   17.4141   24.6634 H   0  0  0  0  0  0  0  0  0  0  0  0
   21.8460   18.2133   23.2729 H   0  0  0  0  0  0  0  0  0  0  0  0
   20.7776   19.5556   24.6049 C   0  0  0  0  0  0  0  0  0  0  0  0
   20.7284   20.3502   23.8495 H   0  0  0  0  0  0  0  0  0  0  0  0
   21.6706   19.7688   25.2071 H   0  0  0  0  0  0  0  0  0  0  0  0
   19.5286   19.6465   25.5044 C   0  0  0  0  0  0  0  0  0  0  0  0
   19.4581   20.6520   25.9282 H   0  0  0  0  0  0  0  0  0  0  0  0
   18.6308   19.4648   24.9080 H   0  0  0  0  0  0  0  0  0  0  0  0
   19.5368   18.6599   26.6551 N   0  3  0  0  0  0  0  0  0  0  0  0
   20.3438   18.8011   27.2711 H   0  0  0  0  0  0  0  0  0  0  0  0
   19.5760   17.6919   26.3214 H   0  0  0  0  0  0  0  0  0  0  0  0
   18.6964   18.7453   27.2369 H   0  0  0  0  0  0  0  0  0  0  0  0
  1  2  1  0  0  0  0
  1  3  1  0  0  0  0
  1  4  1  0  0  0  0
  1  5  1  0  0  0  0
  5  6  1  0  0  0  0
  5  7  1  0  0  0  0
  5  8  1  0  0  0  0
  8  9  1  0  0  0  0
  8 10  1  0  0  0  0
  8 11  1  0  0  0  0
 11 12  1  0  0  0  0
 11 13  1  0  0  0  0
 11 14  1  0  0  0  0
 14 15  1  0  0  0  0
 14 16  1  0  0  0  0
 14 17  1  0  0  0  0
 17 18  1  0  0  0  0
 17 19  1  0  0  0  0
 17 20  1  0  0  0  0
 20 21  1  0  0  0  0
 20 22  1  0  0  0  0
 20 23  1  0  0  0  0
 23 24  1  0  0  0  0
 23 25  1  0  0  0  0
 23 26  1  0  0  0  0
M  END
> <VM2 Rank>
83

> <Conf_Id>
461

> <Probability>
0.21

> <Sum Probability>
96.92

> <Delta G>
2.133

> <G>
50.395

> <E>
17.165

> <-TS>
33.230

> <U+W>
-4.297

> <U>
49.634

> <W>
-53.931

> <W(PB)>
-56.188

> <W(SA)>
2.257

> <Valence>
3.475

> <Coulomb>
45.628

> <VdW>
0.532

> <VdW6>
-9.030

> <VdW12>
9.562

> <Bond>
0.265

> <Angle>
1.304

> <Pdih>
1.905

> <Idih>
0.000

> <Tether>
0.000

$$$$
VeraChem MOL file


 26 25  0  0  0  0  0  0  0  0999 V2000     
   19.2121   19.7186   20.1749 C   0  0  0  0  0  0  0  0  0  0  0  0
   19.2161   18.9808   19.3622 H   0  0  0  0  0  0  0  0  0  0  0  0
   18.3418   19.5221   20.8132 H   0  0  0  0  0  0  0  0  0  0  0  0
   19.0767   20.7115   19.7270 H   0  0  0  0  0  0  0  0  0  0  0  0
   20.5294   19.6631   20.9810 C   0  0  0  0  0  0  0  0  0  0  0  0
   20.4978   20.4003   21.7944 H   0  0  0  0  0  0  0  0  0  0  0  0
   21.3573   19.9714   20.3275 H   0  0  0  0  0  0  0  0  0  0  0  0
   20.8444   18.2550   21.5465 C   0  0  0  0  0  0  0  0  0  0  0  0
   20.9719   17.5575   20.7073 H   0  0  0  0  0  0  0  0  0  0  0  0
   21.8177   18.2835   22.0539 H   0  0  0  0  0  0  0  0  0  0  0  0
   19.7748   17.6759   22.5116 C   0  0  0  0  0  0  0  0  0  0  0  0
   20.1176   16.6943   22.8666 H   0  0  0  0  0  0  0  0  0  0  0  0
   18.8512   17.4791   21.9511 H   0  0  0  0  0  0  0  0  0  0  0  0
   19.4367   18.5625   23.7380 C   0  0  0  0  0  0  0  0  0  0  0  0
   19.0004   19.5133   23.4043 H   0  0  0  0  0  0  0  0  0  0  0  0
   18.6525   18.0566   24.3163 H   0  0  0  0  0  0  0  0  0  0  0  0
   20.6546   18.8387   24.6548 C   0  0  0  0  0  0  0  0  0  0  0  0
   21.4286   19.3748   24.0915 H   0  0  0  0  0  0  0  0  0  0  0  0
   21.1025   17.8909   24.9815 H   0  0  0  0  0  0  0  0  0  0  0  0
   20.2897   19.6877   25.8877 C   0  0  0  0  0  0  0  0  0  0  0  0
   21.2002   19.9305   26.4424 H   0  0  0  0  0  0  0  0  0  0  0  0
   19.8268   20.6245   25.5658 H   0  0  0  0  0  0  0  0  0  0  0  0
   19.3392   18.9975   26.8464 N   0  3  0  0  0  0  0  0  0  0  0  0
   19.1289   19.5834   27.6618 H   0  0  0  0  0  0  0  0  0  0  0  0
   19.7291   18.1186   27.2020 H   0  0  0  0  0  0  0  0  0  0  0  0
   18.4449   18.7735   26.3994 H   0  0  0  0  0  0  0  0  0  0  0  0
  1  2  1  0  0  0  0
  1  3  1  0  0  0  0
  1  4  1  0  0  0  0
  1  5  1  0  0  0  0
  5  6  1  0  0  0  0
  5  7  1  0  0  0  0
  5  8  1  0  0  0  0
  8  9  1  0  0  0  0
  8 10  1  0  0  0  0
  8 11  1  0  0  0  0
 11 12  1  0  0  0  0
 11 13  1  0  0  0  0
 11 14  1  0  0  0  0
 14 15  1  0  0  0  0
 14 16  1  0  0  0  0
 14 17  1  0  0  0  0
 17 18  1  0  0  0  0
 17 19  1  0  0  0  0
 17 20  1  0  0  0  0
 20 21  1  0  0  0  0
 20 22  1  0  0  0  0
 20 23  1  0  0  0  0
 23 24  1  0  0  0  0
 23 25  1  0  0  0  0
 23 26  1  0  0  0  0
M  END
> <VM2 Rank>
84

> <Conf_Id>
266

> <Probability>
0.20

> <Sum Probability>
97.12

> <Delta G>
2.167

> <G>
50.429

> <E>
17.212

> <-TS>
33.217

> <U+W>
-4.250

> <U>
49.638

> <W>
-53.888

> <W(PB)>
-56.127

> <W(SA)>
2.239

> <Valence>
3.691

> <Coulomb>
45.199

> <VdW>
0.747

> <VdW6>
-8.826

> <VdW12>
9.573

> <Bond>
0.278

> <Angle>
1.445

> <Pdih>
1.968

> <Idih>
0.000

> <Tether>
0.000

$$$$
VeraChem MOL file


 26 25  0  0  0  0  0  0  0  0999 V2000     
   19.7387   20.0661   20.1924 C   0  0  0  0  0  0  0  0  0  0  0  0
   20.2306   20.7690   20.8763 H   0  0  0  0  0  0  0  0  0  0  0  0
   20.4530   19.7971   19.4035 H   0  0  0  0  0  0  0  0  0  0  0  0
   18.9004   20.5949   19.7209 H   0  0  0  0  0  0  0  0  0  0  0  0
   19.2359   18.8092   20.9377 C   0  0  0  0  0  0  0  0  0  0  0  0
   18.6586   18.1898   20.2372 H   0  0  0  0  0  0  0  0  0  0  0  0
   18.5330   19.1034   21.7286 H   0  0  0  0  0  0  0  0  0  0  0  0
   20.3799   17.9484   21.5310 C   0  0  0  0  0  0  0  0  0  0  0  0
   19.9486   17.0498   21.9915 H   0  0  0  0  0  0  0  0  0  0  0  0
   21.0099   17.5825   20.7086 H   0  0  0  0  0  0  0  0  0  0  0  0
   21.2863   18.6737   22.5622 C   0  0  0  0  0  0  0  0  0  0  0  0
   21.8552   19.4620   22.0516 H   0  0  0  0  0  0  0  0  0  0  0  0
   22.0372   17.9615   22.9309 H   0  0  0  0  0  0  0  0  0  0  0  0
   20.5470   19.2955   23.7751 C   0  0  0  0  0  0  0  0  0  0  0  0
   21.2923   19.7992   24.4045 H   0  0  0  0  0  0  0  0  0  0  0  0
   19.8600   20.0808   23.4329 H   0  0  0  0  0  0  0  0  0  0  0  0
   19.7732   18.2571   24.6252 C   0  0  0  0  0  0  0  0  0  0  0  0
   20.4532   17.4624   24.9596 H   0  0  0  0  0  0  0  0  0  0  0  0
   19.0033   17.7744   24.0104 H   0  0  0  0  0  0  0  0  0  0  0  0
   19.0789   18.8886   25.8473 C   0  0  0  0  0  0  0  0  0  0  0  0
   18.4148   19.6926   25.5187 H   0  0  0  0  0  0  0  0  0  0  0  0
   18.4730   18.1306   26.3512 H   0  0  0  0  0  0  0  0  0  0  0  0
   20.0411   19.4604   26.8700 N   0  3  0  0  0  0  0  0  0  0  0  0
   19.5474   19.8592   27.6760 H   0  0  0  0  0  0  0  0  0  0  0  0
   20.6184   20.2076   26.4723 H   0  0  0  0  0  0  0  0  0  0  0  0
   20.6792   18.7452   27.2337 H   0  0  0  0  0  0  0  0  0  0  0  0
  1  2  1  0  0  0  0
  1  3  1  0  0  0  0
  1  4  1  0  0  0  0
  1  5  1  0  0  0  0
  5  6  1  0  0  0  0
  5  7  1  0  0  0  0
  5  8  1  0  0  0  0
  8  9  1  0  0  0  0
  8 10  1  0  0  0  0
  8 11  1  0  0  0  0
 11 12  1  0  0  0  0
 11 13  1  0  0  0  0
 11 14  1  0  0  0  0
 14 15  1  0  0  0  0
 14 16  1  0  0  0  0
 14 17  1  0  0  0  0
 17 18  1  0  0  0  0
 17 19  1  0  0  0  0
 17 20  1  0  0  0  0
 20 21  1  0  0  0  0
 20 22  1  0  0  0  0
 20 23  1  0  0  0  0
 23 24  1  0  0  0  0
 23 25  1  0  0  0  0
 23 26  1  0  0  0  0
M  END
> <VM2 Rank>
85

> <Conf_Id>
850

> <Probability>
0.19

> <Sum Probability>
97.31

> <Delta G>
2.185

> <G>
50.446

> <E>
17.229

> <-TS>
33.217

> <U+W>
-4.233

> <U>
49.638

> <W>
-53.870

> <W(PB)>
-56.099

> <W(SA)>
2.229

> <Valence>
3.692

> <Coulomb>
45.199

> <VdW>
0.747

> <VdW6>
-8.826

> <VdW12>
9.573

> <Bond>
0.278

> <Angle>
1.445

> <Pdih>
1.969

> <Idih>
0.000

> <Tether>
0.000

$$$$
VeraChem MOL file


 26 25  0  0  0  0  0  0  0  0999 V2000     
   19.2698   19.2736   19.9941 C   0  0  0  0  0  0  0  0  0  0  0  0
   18.8123   18.7753   19.1297 H   0  0  0  0  0  0  0  0  0  0  0  0
   18.4781   19.4439   20.7343 H   0  0  0  0  0  0  0  0  0  0  0  0
   19.6449   20.2496   19.6599 H   0  0  0  0  0  0  0  0  0  0  0  0
   20.4115   18.4094   20.5754 C   0  0  0  0  0  0  0  0  0  0  0  0
   21.1166   18.1662   19.7684 H   0  0  0  0  0  0  0  0  0  0  0  0
   20.0096   17.4478   20.9212 H   0  0  0  0  0  0  0  0  0  0  0  0
   21.1929   19.1070   21.7182 C   0  0  0  0  0  0  0  0  0  0  0  0
   21.9975   18.4393   22.0555 H   0  0  0  0  0  0  0  0  0  0  0  0
   21.6925   19.9974   21.3122 H   0  0  0  0  0  0  0  0  0  0  0  0
   20.3430   19.5317   22.9438 C   0  0  0  0  0  0  0  0  0  0  0  0
   19.5994   20.2811   22.6419 H   0  0  0  0  0  0  0  0  0  0  0  0
   21.0083   20.0370   23.6559 H   0  0  0  0  0  0  0  0  0  0  0  0
   19.6356   18.3459   23.6477 C   0  0  0  0  0  0  0  0  0  0  0  0
   18.9483   17.8593   22.9436 H   0  0  0  0  0  0  0  0  0  0  0  0
   20.3759   17.5851   23.9284 H   0  0  0  0  0  0  0  0  0  0  0  0
   18.8201   18.7751   24.8934 C   0  0  0  0  0  0  0  0  0  0  0  0
   18.3024   17.8991   25.3063 H   0  0  0  0  0  0  0  0  0  0  0  0
   18.0342   19.4779   24.5865 H   0  0  0  0  0  0  0  0  0  0  0  0
   19.6637   19.4307   26.0056 C   0  0  0  0  0  0  0  0  0  0  0  0
   20.1432   20.3351   25.6228 H   0  0  0  0  0  0  0  0  0  0  0  0
   19.0107   19.7184   26.8341 H   0  0  0  0  0  0  0  0  0  0  0  0
   20.7444   18.5255   26.5629 N   0  3  0  0  0  0  0  0  0  0  0  0
   21.4111   18.2437   25.8376 H   0  0  0  0  0  0  0  0  0  0  0  0
   20.3522   17.6679   26.9647 H   0  0  0  0  0  0  0  0  0  0  0  0
   21.2823   18.9860   27.3050 H   0  0  0  0  0  0  0  0  0  0  0  0
  1  2  1  0  0  0  0
  1  3  1  0  0  0  0
  1  4  1  0  0  0  0
  1  5  1  0  0  0  0
  5  6  1  0  0  0  0
  5  7  1  0  0  0  0
  5  8  1  0  0  0  0
  8  9  1  0  0  0  0
  8 10  1  0  0  0  0
  8 11  1  0  0  0  0
 11 12  1  0  0  0  0
 11 13  1  0  0  0  0
 11 14  1  0  0  0  0
 14 15  1  0  0  0  0
 14 16  1  0  0  0  0
 14 17  1  0  0  0  0
 17 18  1  0  0  0  0
 17 19  1  0  0  0  0
 17 20  1  0  0  0  0
 20 21  1  0  0  0  0
 20 22  1  0  0  0  0
 20 23  1  0  0  0  0
 23 24  1  0  0  0  0
 23 25  1  0  0  0  0
 23 26  1  0  0  0  0
M  END
> <VM2 Rank>
86

> <Conf_Id>
541

> <Probability>
0.18

> <Sum Probability>
97.49

> <Delta G>
2.205

> <G>
50.466

> <E>
17.411

> <-TS>
33.055

> <U+W>
-4.051

> <U>
49.822

> <W>
-53.873

> <W(PB)>
-56.118

> <W(SA)>
2.246

> <Valence>
3.548

> <Coulomb>
45.475

> <VdW>
0.799

> <VdW6>
-8.640

> <VdW12>
9.439

> <Bond>
0.263

> <Angle>
1.337

> <Pdih>
1.948

> <Idih>
0.000

> <Tether>
0.000

$$$$
VeraChem MOL file


 26 25  0  0  0  0  0  0  0  0999 V2000     
   20.7072   18.9252   19.7256 C   0  0  0  0  0  0  0  0  0  0  0  0
   21.6670   19.2104   20.1737 H   0  0  0  0  0  0  0  0  0  0  0  0
   20.9264   18.3270   18.8317 H   0  0  0  0  0  0  0  0  0  0  0  0
   20.1937   19.8391   19.4000 H   0  0  0  0  0  0  0  0  0  0  0  0
   19.8343   18.1191   20.7143 C   0  0  0  0  0  0  0  0  0  0  0  0
   20.3832   17.2290   21.0521 H   0  0  0  0  0  0  0  0  0  0  0  0
   18.9479   17.7490   20.1805 H   0  0  0  0  0  0  0  0  0  0  0  0
   19.3666   18.9422   21.9390 C   0  0  0  0  0  0  0  0  0  0  0  0
   18.8149   19.8284   21.5966 H   0  0  0  0  0  0  0  0  0  0  0  0
   18.6518   18.3308   22.5045 H   0  0  0  0  0  0  0  0  0  0  0  0
   20.5270   19.3757   22.8703 C   0  0  0  0  0  0  0  0  0  0  0  0
   21.2416   19.9856   22.3029 H   0  0  0  0  0  0  0  0  0  0  0  0
   21.0828   18.4900   23.2053 H   0  0  0  0  0  0  0  0  0  0  0  0
   20.0609   20.2061   24.0945 C   0  0  0  0  0  0  0  0  0  0  0  0
   20.9456   20.5283   24.6599 H   0  0  0  0  0  0  0  0  0  0  0  0
   19.5833   21.1298   23.7399 H   0  0  0  0  0  0  0  0  0  0  0  0
   19.0840   19.4737   25.0518 C   0  0  0  0  0  0  0  0  0  0  0  0
   18.1236   19.3103   24.5468 H   0  0  0  0  0  0  0  0  0  0  0  0
   18.8635   20.1245   25.9083 H   0  0  0  0  0  0  0  0  0  0  0  0
   19.6111   18.1206   25.5699 C   0  0  0  0  0  0  0  0  0  0  0  0
   18.8552   17.6565   26.2092 H   0  0  0  0  0  0  0  0  0  0  0  0
   19.8005   17.4514   24.7266 H   0  0  0  0  0  0  0  0  0  0  0  0
   20.8897   18.2365   26.3756 N   0  3  0  0  0  0  0  0  0  0  0  0
   21.6489   18.6441   25.8212 H   0  0  0  0  0  0  0  0  0  0  0  0
   21.2152   17.3224   26.7084 H   0  0  0  0  0  0  0  0  0  0  0  0
   20.7656   18.8298   27.2022 H   0  0  0  0  0  0  0  0  0  0  0  0
  1  2  1  0  0  0  0
  1  3  1  0  0  0  0
  1  4  1  0  0  0  0
  1  5  1  0  0  0  0
  5  6  1  0  0  0  0
  5  7  1  0  0  0  0
  5  8  1  0  0  0  0
  8  9  1  0  0  0  0
  8 10  1  0  0  0  0
  8 11  1  0  0  0  0
 11 12  1  0  0  0  0
 11 13  1  0  0  0  0
 11 14  1  0  0  0  0
 14 15  1  0  0  0  0
 14 16  1  0  0  0  0
 14 17  1  0  0  0  0
 17 18  1  0  0  0  0
 17 19  1  0  0  0  0
 17 20  1  0  0  0  0
 20 21  1  0  0  0  0
 20 22  1  0  0  0  0
 20 23  1  0  0  0  0
 23 24  1  0  0  0  0
 23 25  1  0  0  0  0
 23 26  1  0  0  0  0
M  END
> <VM2 Rank>
87

> <Conf_Id>
1259

> <Probability>
0.18

> <Sum Probability>
97.67

> <Delta G>
2.219

> <G>
50.480

> <E>
17.503

> <-TS>
32.977

> <U+W>
-3.959

> <U>
49.925

> <W>
-53.884

> <W(PB)>
-56.157

> <W(SA)>
2.273

> <Valence>
3.593

> <Coulomb>
45.559

> <VdW>
0.774

> <VdW6>
-8.638

> <VdW12>
9.412

> <Bond>
0.265

> <Angle>
1.266

> <Pdih>
2.061

> <Idih>
0.000

> <Tether>
0.000

$$$$
VeraChem MOL file


 26 25  0  0  0  0  0  0  0  0999 V2000     
   20.1349   19.8435   20.0230 C   0  0  0  0  0  0  0  0  0  0  0  0
   20.2557   20.6149   20.7938 H   0  0  0  0  0  0  0  0  0  0  0  0
   20.8127   20.0933   19.1966 H   0  0  0  0  0  0  0  0  0  0  0  0
   19.1068   19.8951   19.6420 H   0  0  0  0  0  0  0  0  0  0  0  0
   20.4519   18.4360   20.5768 C   0  0  0  0  0  0  0  0  0  0  0  0
   21.4769   18.4145   20.9703 H   0  0  0  0  0  0  0  0  0  0  0  0
   20.4354   17.7173   19.7456 H   0  0  0  0  0  0  0  0  0  0  0  0
   19.4507   17.9591   21.6599 C   0  0  0  0  0  0  0  0  0  0  0  0
   18.4556   17.8646   21.2039 H   0  0  0  0  0  0  0  0  0  0  0  0
   19.7315   16.9462   21.9797 H   0  0  0  0  0  0  0  0  0  0  0  0
   19.3381   18.8696   22.9102 C   0  0  0  0  0  0  0  0  0  0  0  0
   18.5792   18.4365   23.5747 H   0  0  0  0  0  0  0  0  0  0  0  0
   18.9566   19.8576   22.6204 H   0  0  0  0  0  0  0  0  0  0  0  0
   20.6724   19.0292   23.6822 C   0  0  0  0  0  0  0  0  0  0  0  0
   21.0667   18.0404   23.9514 H   0  0  0  0  0  0  0  0  0  0  0  0
   21.4223   19.4897   23.0261 H   0  0  0  0  0  0  0  0  0  0  0  0
   20.5412   19.9093   24.9508 C   0  0  0  0  0  0  0  0  0  0  0  0
   20.2192   20.9179   24.6594 H   0  0  0  0  0  0  0  0  0  0  0  0
   21.5300   20.0261   25.4140 H   0  0  0  0  0  0  0  0  0  0  0  0
   19.5557   19.3594   26.0020 C   0  0  0  0  0  0  0  0  0  0  0  0
   19.5097   20.0473   26.8507 H   0  0  0  0  0  0  0  0  0  0  0  0
   18.5544   19.2879   25.5698 H   0  0  0  0  0  0  0  0  0  0  0  0
   19.9360   17.9927   26.5360 N   0  3  0  0  0  0  0  0  0  0  0  0
   19.2671   17.6579   27.2379 H   0  0  0  0  0  0  0  0  0  0  0  0
   20.8591   18.0020   26.9818 H   0  0  0  0  0  0  0  0  0  0  0  0
   19.9664   17.2914   25.7895 H   0  0  0  0  0  0  0  0  0  0  0  0
  1  2  1  0  0  0  0
  1  3  1  0  0  0  0
  1  4  1  0  0  0  0
  1  5  1  0  0  0  0
  5  6  1  0  0  0  0
  5  7  1  0  0  0  0
  5  8  1  0  0  0  0
  8  9  1  0  0  0  0
  8 10  1  0  0  0  0
  8 11  1  0  0  0  0
 11 12  1  0  0  0  0
 11 13  1  0  0  0  0
 11 14  1  0  0  0  0
 14 15  1  0  0  0  0
 14 16  1  0  0  0  0
 14 17  1  0  0  0  0
 17 18  1  0  0  0  0
 17 19  1  0  0  0  0
 17 20  1  0  0  0  0
 20 21  1  0  0  0  0
 20 22  1  0  0  0  0
 20 23  1  0  0  0  0
 23 24  1  0  0  0  0
 23 25  1  0  0  0  0
 23 26  1  0  0  0  0
M  END
> <VM2 Rank>
88

> <Conf_Id>
700

> <Probability>
0.18

> <Sum Probability>
97.85

> <Delta G>
2.225

> <G>
50.486

> <E>
17.431

> <-TS>
33.055

> <U+W>
-4.031

> <U>
49.821

> <W>
-53.852

> <W(PB)>
-56.098

> <W(SA)>
2.246

> <Valence>
3.548

> <Coulomb>
45.474

> <VdW>
0.799

> <VdW6>
-8.640

> <VdW12>
9.439

> <Bond>
0.263

> <Angle>
1.337

> <Pdih>
1.948

> <Idih>
0.000

> <Tether>
0.000

$$$$
VeraChem MOL file


 26 25  0  0  0  0  0  0  0  0999 V2000     
   20.4316   19.2147   19.8955 C   0  0  0  0  0  0  0  0  0  0  0  0
   19.5022   19.0879   19.3252 H   0  0  0  0  0  0  0  0  0  0  0  0
   20.4733   20.2488   20.2594 H   0  0  0  0  0  0  0  0  0  0  0  0
   21.2722   19.0731   19.2041 H   0  0  0  0  0  0  0  0  0  0  0  0
   20.5112   18.2013   21.0595 C   0  0  0  0  0  0  0  0  0  0  0  0
   21.4408   18.3572   21.6228 H   0  0  0  0  0  0  0  0  0  0  0  0
   20.5784   17.1873   20.6415 H   0  0  0  0  0  0  0  0  0  0  0  0
   19.2903   18.2629   22.0121 C   0  0  0  0  0  0  0  0  0  0  0  0
   18.3847   18.0107   21.4434 H   0  0  0  0  0  0  0  0  0  0  0  0
   19.3898   17.4754   22.7709 H   0  0  0  0  0  0  0  0  0  0  0  0
   19.0697   19.6302   22.7133 C   0  0  0  0  0  0  0  0  0  0  0  0
   18.1851   19.5555   23.3598 H   0  0  0  0  0  0  0  0  0  0  0  0
   18.8125   20.3863   21.9598 H   0  0  0  0  0  0  0  0  0  0  0  0
   20.2732   20.1454   23.5477 C   0  0  0  0  0  0  0  0  0  0  0  0
   21.1148   20.3691   22.8787 H   0  0  0  0  0  0  0  0  0  0  0  0
   19.9964   21.1046   24.0065 H   0  0  0  0  0  0  0  0  0  0  0  0
   20.7524   19.1793   24.6593 C   0  0  0  0  0  0  0  0  0  0  0  0
   21.5938   19.6417   25.1922 H   0  0  0  0  0  0  0  0  0  0  0  0
   21.1407   18.2552   24.2126 H   0  0  0  0  0  0  0  0  0  0  0  0
   19.6415   18.8396   25.6702 C   0  0  0  0  0  0  0  0  0  0  0  0
   19.2639   19.7595   26.1247 H   0  0  0  0  0  0  0  0  0  0  0  0
   18.8138   18.3444   25.1558 H   0  0  0  0  0  0  0  0  0  0  0  0
   20.1113   17.9257   26.7834 N   0  3  0  0  0  0  0  0  0  0  0  0
   19.3568   17.7120   27.4447 H   0  0  0  0  0  0  0  0  0  0  0  0
   20.8734   18.3453   27.3258 H   0  0  0  0  0  0  0  0  0  0  0  0
   20.4551   17.0297   26.4229 H   0  0  0  0  0  0  0  0  0  0  0  0
  1  2  1  0  0  0  0
  1  3  1  0  0  0  0
  1  4  1  0  0  0  0
  1  5  1  0  0  0  0
  5  6  1  0  0  0  0
  5  7  1  0  0  0  0
  5  8  1  0  0  0  0
  8  9  1  0  0  0  0
  8 10  1  0  0  0  0
  8 11  1  0  0  0  0
 11 12  1  0  0  0  0
 11 13  1  0  0  0  0
 11 14  1  0  0  0  0
 14 15  1  0  0  0  0
 14 16  1  0  0  0  0
 14 17  1  0  0  0  0
 17 18  1  0  0  0  0
 17 19  1  0  0  0  0
 17 20  1  0  0  0  0
 20 21  1  0  0  0  0
 20 22  1  0  0  0  0
 20 23  1  0  0  0  0
 23 24  1  0  0  0  0
 23 25  1  0  0  0  0
 23 26  1  0  0  0  0
M  END
> <VM2 Rank>
89

> <Conf_Id>
210

> <Probability>
0.16

> <Sum Probability>
98.02

> <Delta G>
2.276

> <G>
50.537

> <E>
17.205

> <-TS>
33.332

> <U+W>
-4.257

> <U>
49.825

> <W>
-54.082

> <W(PB)>
-56.298

> <W(SA)>
2.217

> <Valence>
3.797

> <Coulomb>
45.507

> <VdW>
0.521

> <VdW6>
-9.174

> <VdW12>
9.695

> <Bond>
0.280

> <Angle>
1.536

> <Pdih>
1.980

> <Idih>
0.000

> <Tether>
0.000

$$$$
VeraChem MOL file


 26 25  0  0  0  0  0  0  0  0999 V2000     
   20.9537   19.8913   20.4476 C   0  0  0  0  0  0  0  0  0  0  0  0
   20.3673   19.8161   19.5227 H   0  0  0  0  0  0  0  0  0  0  0  0
   20.5515   20.7203   21.0430 H   0  0  0  0  0  0  0  0  0  0  0  0
   21.9840   20.1508   20.1722 H   0  0  0  0  0  0  0  0  0  0  0  0
   20.9218   18.5615   21.2343 C   0  0  0  0  0  0  0  0  0  0  0  0
   21.5041   18.6642   22.1596 H   0  0  0  0  0  0  0  0  0  0  0  0
   21.4311   17.7882   20.6426 H   0  0  0  0  0  0  0  0  0  0  0  0
   19.4869   18.0722   21.5559 C   0  0  0  0  0  0  0  0  0  0  0  0
   18.9596   17.8779   20.6118 H   0  0  0  0  0  0  0  0  0  0  0  0
   19.5469   17.1006   22.0639 H   0  0  0  0  0  0  0  0  0  0  0  0
   18.6312   19.0481   22.4080 C   0  0  0  0  0  0  0  0  0  0  0  0
   17.6510   18.5869   22.5910 H   0  0  0  0  0  0  0  0  0  0  0  0
   18.4247   19.9545   21.8234 H   0  0  0  0  0  0  0  0  0  0  0  0
   19.2544   19.4584   23.7669 C   0  0  0  0  0  0  0  0  0  0  0  0
   20.1830   20.0167   23.5932 H   0  0  0  0  0  0  0  0  0  0  0  0
   18.5687   20.1574   24.2655 H   0  0  0  0  0  0  0  0  0  0  0  0
   19.5208   18.2579   24.7088 C   0  0  0  0  0  0  0  0  0  0  0  0
   20.2728   17.5881   24.2729 H   0  0  0  0  0  0  0  0  0  0  0  0
   18.5999   17.6698   24.8171 H   0  0  0  0  0  0  0  0  0  0  0  0
   19.9877   18.6972   26.1097 C   0  0  0  0  0  0  0  0  0  0  0  0
   19.2449   19.3664   26.5522 H   0  0  0  0  0  0  0  0  0  0  0  0
   20.0813   17.8183   26.7533 H   0  0  0  0  0  0  0  0  0  0  0  0
   21.3246   19.4124   26.1099 N   0  3  0  0  0  0  0  0  0  0  0  0
   21.2961   20.2696   25.5494 H   0  0  0  0  0  0  0  0  0  0  0  0
   22.0713   18.8235   25.7274 H   0  0  0  0  0  0  0  0  0  0  0  0
   21.6112   19.6822   27.0571 H   0  0  0  0  0  0  0  0  0  0  0  0
  1  2  1  0  0  0  0
  1  3  1  0  0  0  0
  1  4  1  0  0  0  0
  1  5  1  0  0  0  0
  5  6  1  0  0  0  0
  5  7  1  0  0  0  0
  5  8  1  0  0  0  0
  8  9  1  0  0  0  0
  8 10  1  0  0  0  0
  8 11  1  0  0  0  0
 11 12  1  0  0  0  0
 11 13  1  0  0  0  0
 11 14  1  0  0  0  0
 14 15  1  0  0  0  0
 14 16  1  0  0  0  0
 14 17  1  0  0  0  0
 17 18  1  0  0  0  0
 17 19  1  0  0  0  0
 17 20  1  0  0  0  0
 20 21  1  0  0  0  0
 20 22  1  0  0  0  0
 20 23  1  0  0  0  0
 23 24  1  0  0  0  0
 23 25  1  0  0  0  0
 23 26  1  0  0  0  0
M  END
> <VM2 Rank>
90

> <Conf_Id>
851

> <Probability>
0.16

> <Sum Probability>
98.18

> <Delta G>
2.285

> <G>
50.546

> <E>
17.315

> <-TS>
33.231

> <U+W>
-4.146

> <U>
50.091

> <W>
-54.237

> <W(PB)>
-56.466

> <W(SA)>
2.229

> <Valence>
3.653

> <Coulomb>
45.797

> <VdW>
0.641

> <VdW6>
-8.932

> <VdW12>
9.573

> <Bond>
0.273

> <Angle>
1.380

> <Pdih>
2.000

> <Idih>
0.000

> <Tether>
0.000

$$$$
VeraChem MOL file


 26 25  0  0  0  0  0  0  0  0999 V2000     
   18.8840   18.5275   20.3784 C   0  0  0  0  0  0  0  0  0  0  0  0
   18.2532   17.6924   20.0475 H   0  0  0  0  0  0  0  0  0  0  0  0
   18.2533   19.2060   20.9661 H   0  0  0  0  0  0  0  0  0  0  0  0
   19.2269   19.0646   19.4845 H   0  0  0  0  0  0  0  0  0  0  0  0
   20.0809   18.0074   21.2061 C   0  0  0  0  0  0  0  0  0  0  0  0
   20.6181   17.2525   20.6153 H   0  0  0  0  0  0  0  0  0  0  0  0
   19.7144   17.4850   22.0998 H   0  0  0  0  0  0  0  0  0  0  0  0
   21.0797   19.1219   21.6090 C   0  0  0  0  0  0  0  0  0  0  0  0
   21.9245   18.6673   22.1432 H   0  0  0  0  0  0  0  0  0  0  0  0
   21.5095   19.5583   20.6970 H   0  0  0  0  0  0  0  0  0  0  0  0
   20.4806   20.2667   22.4698 C   0  0  0  0  0  0  0  0  0  0  0  0
   19.7567   20.8322   21.8680 H   0  0  0  0  0  0  0  0  0  0  0  0
   21.2812   20.9790   22.7123 H   0  0  0  0  0  0  0  0  0  0  0  0
   19.7955   19.8148   23.7850 C   0  0  0  0  0  0  0  0  0  0  0  0
   19.4002   20.7052   24.2934 H   0  0  0  0  0  0  0  0  0  0  0  0
   18.9256   19.1880   23.5513 H   0  0  0  0  0  0  0  0  0  0  0  0
   20.7491   19.0672   24.7498 C   0  0  0  0  0  0  0  0  0  0  0  0
   21.6464   19.6771   24.9187 H   0  0  0  0  0  0  0  0  0  0  0  0
   21.0885   18.1255   24.3001 H   0  0  0  0  0  0  0  0  0  0  0  0
   20.0969   18.7692   26.1134 C   0  0  0  0  0  0  0  0  0  0  0  0
   20.8371   18.3162   26.7785 H   0  0  0  0  0  0  0  0  0  0  0  0
   19.7544   19.7020   26.5693 H   0  0  0  0  0  0  0  0  0  0  0  0
   18.9142   17.8243   26.0295 N   0  3  0  0  0  0  0  0  0  0  0  0
   18.5096   17.6387   26.9537 H   0  0  0  0  0  0  0  0  0  0  0  0
   19.1788   16.9177   25.6309 H   0  0  0  0  0  0  0  0  0  0  0  0
   18.1644   18.2062   25.4450 H   0  0  0  0  0  0  0  0  0  0  0  0
  1  2  1  0  0  0  0
  1  3  1  0  0  0  0
  1  4  1  0  0  0  0
  1  5  1  0  0  0  0
  5  6  1  0  0  0  0
  5  7  1  0  0  0  0
  5  8  1  0  0  0  0
  8  9  1  0  0  0  0
  8 10  1  0  0  0  0
  8 11  1  0  0  0  0
 11 12  1  0  0  0  0
 11 13  1  0  0  0  0
 11 14  1  0  0  0  0
 14 15  1  0  0  0  0
 14 16  1  0  0  0  0
 14 17  1  0  0  0  0
 17 18  1  0  0  0  0
 17 19  1  0  0  0  0
 17 20  1  0  0  0  0
 20 21  1  0  0  0  0
 20 22  1  0  0  0  0
 20 23  1  0  0  0  0
 23 24  1  0  0  0  0
 23 25  1  0  0  0  0
 23 26  1  0  0  0  0
M  END
> <VM2 Rank>
91

> <Conf_Id>
1093

> <Probability>
0.16

> <Sum Probability>
98.34

> <Delta G>
2.289

> <G>
50.550

> <E>
17.319

> <-TS>
33.231

> <U+W>
-4.143

> <U>
50.091

> <W>
-54.233

> <W(PB)>
-56.461

> <W(SA)>
2.228

> <Valence>
3.653

> <Coulomb>
45.797

> <VdW>
0.641

> <VdW6>
-8.932

> <VdW12>
9.573

> <Bond>
0.273

> <Angle>
1.380

> <Pdih>
2.000

> <Idih>
0.000

> <Tether>
0.000

$$$$
VeraChem MOL file


 26 25  0  0  0  0  0  0  0  0999 V2000     
   19.7362   18.7567   19.8723 C   0  0  0  0  0  0  0  0  0  0  0  0
   19.5676   17.9502   19.1471 H   0  0  0  0  0  0  0  0  0  0  0  0
   18.7533   19.1156   20.2020 H   0  0  0  0  0  0  0  0  0  0  0  0
   20.2447   19.5774   19.3501 H   0  0  0  0  0  0  0  0  0  0  0  0
   20.5812   18.2475   21.0618 C   0  0  0  0  0  0  0  0  0  0  0  0
   21.5052   17.7980   20.6723 H   0  0  0  0  0  0  0  0  0  0  0  0
   20.0461   17.4382   21.5762 H   0  0  0  0  0  0  0  0  0  0  0  0
   20.9608   19.3635   22.0679 C   0  0  0  0  0  0  0  0  0  0  0  0
   21.6094   18.9377   22.8449 H   0  0  0  0  0  0  0  0  0  0  0  0
   21.5752   20.1127   21.5500 H   0  0  0  0  0  0  0  0  0  0  0  0
   19.7597   20.0847   22.7364 C   0  0  0  0  0  0  0  0  0  0  0  0
   19.2017   20.6427   21.9728 H   0  0  0  0  0  0  0  0  0  0  0  0
   20.1463   20.8476   23.4253 H   0  0  0  0  0  0  0  0  0  0  0  0
   18.7742   19.1577   23.4976 C   0  0  0  0  0  0  0  0  0  0  0  0
   17.9810   19.7767   23.9391 H   0  0  0  0  0  0  0  0  0  0  0  0
   18.2688   18.4939   22.7837 H   0  0  0  0  0  0  0  0  0  0  0  0
   19.4209   18.3020   24.6149 C   0  0  0  0  0  0  0  0  0  0  0  0
   20.1373   17.5941   24.1791 H   0  0  0  0  0  0  0  0  0  0  0  0
   18.6404   17.6958   25.0936 H   0  0  0  0  0  0  0  0  0  0  0  0
   20.1228   19.1568   25.6863 C   0  0  0  0  0  0  0  0  0  0  0  0
   20.9272   19.7368   25.2264 H   0  0  0  0  0  0  0  0  0  0  0  0
   19.4057   19.8529   26.1294 H   0  0  0  0  0  0  0  0  0  0  0  0
   20.7252   18.3302   26.8039 N   0  3  0  0  0  0  0  0  0  0  0  0
   20.0147   17.7797   27.2972 H   0  0  0  0  0  0  0  0  0  0  0  0
   21.1875   18.9183   27.5059 H   0  0  0  0  0  0  0  0  0  0  0  0
   21.4294   17.6716   26.4555 H   0  0  0  0  0  0  0  0  0  0  0  0
  1  2  1  0  0  0  0
  1  3  1  0  0  0  0
  1  4  1  0  0  0  0
  1  5  1  0  0  0  0
  5  6  1  0  0  0  0
  5  7  1  0  0  0  0
  5  8  1  0  0  0  0
  8  9  1  0  0  0  0
  8 10  1  0  0  0  0
  8 11  1  0  0  0  0
 11 12  1  0  0  0  0
 11 13  1  0  0  0  0
 11 14  1  0  0  0  0
 14 15  1  0  0  0  0
 14 16  1  0  0  0  0
 14 17  1  0  0  0  0
 17 18  1  0  0  0  0
 17 19  1  0  0  0  0
 17 20  1  0  0  0  0
 20 21  1  0  0  0  0
 20 22  1  0  0  0  0
 20 23  1  0  0  0  0
 23 24  1  0  0  0  0
 23 25  1  0  0  0  0
 23 26  1  0  0  0  0
M  END
> <VM2 Rank>
92

> <Conf_Id>
1360

> <Probability>
0.15

> <Sum Probability>
98.49

> <Delta G>
2.314

> <G>
50.575

> <E>
17.243

> <-TS>
33.332

> <U+W>
-4.219

> <U>
49.825

> <W>
-54.043

> <W(PB)>
-56.276

> <W(SA)>
2.232

> <Valence>
3.796

> <Coulomb>
45.507

> <VdW>
0.521

> <VdW6>
-9.174

> <VdW12>
9.695

> <Bond>
0.280

> <Angle>
1.536

> <Pdih>
1.980

> <Idih>
0.000

> <Tether>
0.000

$$$$
VeraChem MOL file


 26 25  0  0  0  0  0  0  0  0999 V2000     
   20.8778   20.3568   21.0046 C   0  0  0  0  0  0  0  0  0  0  0  0
   21.8222   20.6466   20.5261 H   0  0  0  0  0  0  0  0  0  0  0  0
   20.0801   20.9779   20.5769 H   0  0  0  0  0  0  0  0  0  0  0  0
   20.9622   20.5928   22.0721 H   0  0  0  0  0  0  0  0  0  0  0  0
   20.5940   18.8549   20.7762 C   0  0  0  0  0  0  0  0  0  0  0  0
   21.3954   18.2531   21.2250 H   0  0  0  0  0  0  0  0  0  0  0  0
   20.6324   18.6484   19.6976 H   0  0  0  0  0  0  0  0  0  0  0  0
   19.2142   18.3992   21.3158 C   0  0  0  0  0  0  0  0  0  0  0  0
   18.4253   18.9348   20.7699 H   0  0  0  0  0  0  0  0  0  0  0  0
   19.0745   17.3356   21.0782 H   0  0  0  0  0  0  0  0  0  0  0  0
   18.9968   18.6088   22.8365 C   0  0  0  0  0  0  0  0  0  0  0  0
   17.9815   18.2738   23.0895 H   0  0  0  0  0  0  0  0  0  0  0  0
   19.0274   19.6810   23.0682 H   0  0  0  0  0  0  0  0  0  0  0  0
   20.0141   17.8392   23.7160 C   0  0  0  0  0  0  0  0  0  0  0  0
   20.0225   16.7826   23.4153 H   0  0  0  0  0  0  0  0  0  0  0  0
   21.0292   18.2165   23.5387 H   0  0  0  0  0  0  0  0  0  0  0  0
   19.6898   17.9199   25.2287 C   0  0  0  0  0  0  0  0  0  0  0  0
   20.4185   17.3194   25.7893 H   0  0  0  0  0  0  0  0  0  0  0  0
   18.7091   17.4620   25.4138 H   0  0  0  0  0  0  0  0  0  0  0  0
   19.6797   19.3560   25.7907 C   0  0  0  0  0  0  0  0  0  0  0  0
   18.9308   19.9537   25.2648 H   0  0  0  0  0  0  0  0  0  0  0  0
   19.4098   19.3294   26.8499 H   0  0  0  0  0  0  0  0  0  0  0  0
   21.0147   20.0642   25.6725 N   0  3  0  0  0  0  0  0  0  0  0  0
   21.3140   20.1439   24.6960 H   0  0  0  0  0  0  0  0  0  0  0  0
   21.7546   19.5659   26.1777 H   0  0  0  0  0  0  0  0  0  0  0  0
   20.9770   21.0146   26.0568 H   0  0  0  0  0  0  0  0  0  0  0  0
  1  2  1  0  0  0  0
  1  3  1  0  0  0  0
  1  4  1  0  0  0  0
  1  5  1  0  0  0  0
  5  6  1  0  0  0  0
  5  7  1  0  0  0  0
  5  8  1  0  0  0  0
  8  9  1  0  0  0  0
  8 10  1  0  0  0  0
  8 11  1  0  0  0  0
 11 12  1  0  0  0  0
 11 13  1  0  0  0  0
 11 14  1  0  0  0  0
 14 15  1  0  0  0  0
 14 16  1  0  0  0  0
 14 17  1  0  0  0  0
 17 18  1  0  0  0  0
 17 19  1  0  0  0  0
 17 20  1  0  0  0  0
 20 21  1  0  0  0  0
 20 22  1  0  0  0  0
 20 23  1  0  0  0  0
 23 24  1  0  0  0  0
 23 25  1  0  0  0  0
 23 26  1  0  0  0  0
M  END
> <VM2 Rank>
93

> <Conf_Id>
538

> <Probability>
0.09

> <Sum Probability>
98.58

> <Delta G>
2.625

> <G>
50.886

> <E>
17.833

> <-TS>
33.053

> <U+W>
-3.629

> <U>
50.414

> <W>
-54.043

> <W(PB)>
-56.257

> <W(SA)>
2.213

> <Valence>
3.472

> <Coulomb>
46.374

> <VdW>
0.568

> <VdW6>
-8.862

> <VdW12>
9.430

> <Bond>
0.255

> <Angle>
1.219

> <Pdih>
1.997

> <Idih>
0.000

> <Tether>
0.000

$$$$
VeraChem MOL file


 26 25  0  0  0  0  0  0  0  0999 V2000     
   20.5911   19.2031   19.9559 C   0  0  0  0  0  0  0  0  0  0  0  0
   19.9475   19.9613   19.4914 H   0  0  0  0  0  0  0  0  0  0  0  0
   21.4025   19.7182   20.4850 H   0  0  0  0  0  0  0  0  0  0  0  0
   21.0451   18.6093   19.1521 H   0  0  0  0  0  0  0  0  0  0  0  0
   19.7809   18.2952   20.9085 C   0  0  0  0  0  0  0  0  0  0  0  0
   20.4479   17.5560   21.3716 H   0  0  0  0  0  0  0  0  0  0  0  0
   19.0567   17.7185   20.3164 H   0  0  0  0  0  0  0  0  0  0  0  0
   19.0114   19.0814   22.0002 C   0  0  0  0  0  0  0  0  0  0  0  0
   18.2835   19.7439   21.5122 H   0  0  0  0  0  0  0  0  0  0  0  0
   18.4153   18.3759   22.5940 H   0  0  0  0  0  0  0  0  0  0  0  0
   19.8980   19.9331   22.9480 C   0  0  0  0  0  0  0  0  0  0  0  0
   19.2490   20.4420   23.6730 H   0  0  0  0  0  0  0  0  0  0  0  0
   20.3741   20.7380   22.3725 H   0  0  0  0  0  0  0  0  0  0  0  0
   20.9976   19.1434   23.7076 C   0  0  0  0  0  0  0  0  0  0  0  0
   21.7312   18.7547   22.9889 H   0  0  0  0  0  0  0  0  0  0  0  0
   21.5567   19.8417   24.3445 H   0  0  0  0  0  0  0  0  0  0  0  0
   20.4717   17.9699   24.5750 C   0  0  0  0  0  0  0  0  0  0  0  0
   21.3161   17.4975   25.0940 H   0  0  0  0  0  0  0  0  0  0  0  0
   20.0457   17.1938   23.9265 H   0  0  0  0  0  0  0  0  0  0  0  0
   19.4106   18.3869   25.6129 C   0  0  0  0  0  0  0  0  0  0  0  0
   18.5509   18.8301   25.1037 H   0  0  0  0  0  0  0  0  0  0  0  0
   19.0659   17.5027   26.1559 H   0  0  0  0  0  0  0  0  0  0  0  0
   19.9196   19.3860   26.6329 N   0  3  0  0  0  0  0  0  0  0  0  0
   19.1941   19.6420   27.3112 H   0  0  0  0  0  0  0  0  0  0  0  0
   20.2353   20.2526   26.1865 H   0  0  0  0  0  0  0  0  0  0  0  0
   20.7117   19.0139   27.1668 H   0  0  0  0  0  0  0  0  0  0  0  0
  1  2  1  0  0  0  0
  1  3  1  0  0  0  0
  1  4  1  0  0  0  0
  1  5  1  0  0  0  0
  5  6  1  0  0  0  0
  5  7  1  0  0  0  0
  5  8  1  0  0  0  0
  8  9  1  0  0  0  0
  8 10  1  0  0  0  0
  8 11  1  0  0  0  0
 11 12  1  0  0  0  0
 11 13  1  0  0  0  0
 11 14  1  0  0  0  0
 14 15  1  0  0  0  0
 14 16  1  0  0  0  0
 14 17  1  0  0  0  0
 17 18  1  0  0  0  0
 17 19  1  0  0  0  0
 17 20  1  0  0  0  0
 20 21  1  0  0  0  0
 20 22  1  0  0  0  0
 20 23  1  0  0  0  0
 23 24  1  0  0  0  0
 23 25  1  0  0  0  0
 23 26  1  0  0  0  0
M  END
> <VM2 Rank>
94

> <Conf_Id>
506

> <Probability>
0.08

> <Sum Probability>
98.67

> <Delta G>
2.670

> <G>
50.931

> <E>
17.404

> <-TS>
33.527

> <U+W>
-4.058

> <U>
50.052

> <W>
-54.110

> <W(PB)>
-56.309

> <W(SA)>
2.199

> <Valence>
3.895

> <Coulomb>
45.624

> <VdW>
0.532

> <VdW6>
-9.866

> <VdW12>
10.399

> <Bond>
0.306

> <Angle>
1.609

> <Pdih>
1.981

> <Idih>
0.000

> <Tether>
0.000

$$$$
VeraChem MOL file


 26 25  0  0  0  0  0  0  0  0999 V2000     
   19.6815   18.6032   19.9256 C   0  0  0  0  0  0  0  0  0  0  0  0
   20.0860   17.9768   19.1200 H   0  0  0  0  0  0  0  0  0  0  0  0
   18.8653   18.0447   20.4005 H   0  0  0  0  0  0  0  0  0  0  0  0
   19.2593   19.5075   19.4686 H   0  0  0  0  0  0  0  0  0  0  0  0
   20.7894   18.9603   20.9420 C   0  0  0  0  0  0  0  0  0  0  0  0
   21.6309   19.4163   20.4021 H   0  0  0  0  0  0  0  0  0  0  0  0
   21.1850   18.0421   21.3960 H   0  0  0  0  0  0  0  0  0  0  0  0
   20.3188   19.9436   22.0438 C   0  0  0  0  0  0  0  0  0  0  0  0
   21.1733   20.1947   22.6859 H   0  0  0  0  0  0  0  0  0  0  0  0
   20.0189   20.8883   21.5700 H   0  0  0  0  0  0  0  0  0  0  0  0
   19.1443   19.4360   22.9228 C   0  0  0  0  0  0  0  0  0  0  0  0
   18.2448   19.3338   22.3014 H   0  0  0  0  0  0  0  0  0  0  0  0
   18.8981   20.2106   23.6612 H   0  0  0  0  0  0  0  0  0  0  0  0
   19.4024   18.0914   23.6543 C   0  0  0  0  0  0  0  0  0  0  0  0
   18.5118   17.8337   24.2427 H   0  0  0  0  0  0  0  0  0  0  0  0
   19.5048   17.2865   22.9145 H   0  0  0  0  0  0  0  0  0  0  0  0
   20.6464   18.0852   24.5808 C   0  0  0  0  0  0  0  0  0  0  0  0
   21.5567   18.1905   23.9770 H   0  0  0  0  0  0  0  0  0  0  0  0
   20.7246   17.1075   25.0742 H   0  0  0  0  0  0  0  0  0  0  0  0
   20.6316   19.1922   25.6539 C   0  0  0  0  0  0  0  0  0  0  0  0
   21.5538   19.1437   26.2392 H   0  0  0  0  0  0  0  0  0  0  0  0
   20.5857   20.1723   25.1719 H   0  0  0  0  0  0  0  0  0  0  0  0
   19.4666   19.0870   26.6179 N   0  3  0  0  0  0  0  0  0  0  0  0
   19.4727   18.1965   27.1255 H   0  0  0  0  0  0  0  0  0  0  0  0
   18.5675   19.1523   26.1310 H   0  0  0  0  0  0  0  0  0  0  0  0
   19.4847   19.8335   27.3211 H   0  0  0  0  0  0  0  0  0  0  0  0
  1  2  1  0  0  0  0
  1  3  1  0  0  0  0
  1  4  1  0  0  0  0
  1  5  1  0  0  0  0
  5  6  1  0  0  0  0
  5  7  1  0  0  0  0
  5  8  1  0  0  0  0
  8  9  1  0  0  0  0
  8 10  1  0  0  0  0
  8 11  1  0  0  0  0
 11 12  1  0  0  0  0
 11 13  1  0  0  0  0
 11 14  1  0  0  0  0
 14 15  1  0  0  0  0
 14 16  1  0  0  0  0
 14 17  1  0  0  0  0
 17 18  1  0  0  0  0
 17 19  1  0  0  0  0
 17 20  1  0  0  0  0
 20 21  1  0  0  0  0
 20 22  1  0  0  0  0
 20 23  1  0  0  0  0
 23 24  1  0  0  0  0
 23 25  1  0  0  0  0
 23 26  1  0  0  0  0
M  END
> <VM2 Rank>
95

> <Conf_Id>
842

> <Probability>
0.08

> <Sum Probability>
98.75

> <Delta G>
2.709

> <G>
50.970

> <E>
17.443

> <-TS>
33.527

> <U+W>
-4.019

> <U>
50.052

> <W>
-54.071

> <W(PB)>
-56.267

> <W(SA)>
2.196

> <Valence>
3.895

> <Coulomb>
45.624

> <VdW>
0.532

> <VdW6>
-9.866

> <VdW12>
10.398

> <Bond>
0.306

> <Angle>
1.609

> <Pdih>
1.981

> <Idih>
0.000

> <Tether>
0.000

$$$$
VeraChem MOL file


 26 25  0  0  0  0  0  0  0  0999 V2000     
   19.9069   18.5964   19.1924 C   0  0  0  0  0  0  0  0  0  0  0  0
   20.5949   19.3940   18.8831 H   0  0  0  0  0  0  0  0  0  0  0  0
   20.0616   17.7398   18.5235 H   0  0  0  0  0  0  0  0  0  0  0  0
   18.8797   18.9557   19.0476 H   0  0  0  0  0  0  0  0  0  0  0  0
   20.1512   18.1917   20.6616 C   0  0  0  0  0  0  0  0  0  0  0  0
   21.1747   17.8054   20.7678 H   0  0  0  0  0  0  0  0  0  0  0  0
   19.4726   17.3701   20.9307 H   0  0  0  0  0  0  0  0  0  0  0  0
   19.9397   19.3806   21.6250 C   0  0  0  0  0  0  0  0  0  0  0  0
   20.6177   20.1999   21.3486 H   0  0  0  0  0  0  0  0  0  0  0  0
   18.9160   19.7642   21.5144 H   0  0  0  0  0  0  0  0  0  0  0  0
   20.1850   18.9798   23.0973 C   0  0  0  0  0  0  0  0  0  0  0  0
   21.2119   18.6047   23.2075 H   0  0  0  0  0  0  0  0  0  0  0  0
   19.5053   18.1585   23.3559 H   0  0  0  0  0  0  0  0  0  0  0  0
   19.9591   20.1695   24.0601 C   0  0  0  0  0  0  0  0  0  0  0  0
   20.5331   21.0339   23.6984 H   0  0  0  0  0  0  0  0  0  0  0  0
   18.9025   20.4698   24.0300 H   0  0  0  0  0  0  0  0  0  0  0  0
   20.3756   19.8953   25.5279 C   0  0  0  0  0  0  0  0  0  0  0  0
   20.2471   20.8277   26.0936 H   0  0  0  0  0  0  0  0  0  0  0  0
   21.4456   19.6546   25.5832 H   0  0  0  0  0  0  0  0  0  0  0  0
   19.5501   18.7999   26.2343 C   0  0  0  0  0  0  0  0  0  0  0  0
   19.6231   18.9417   27.3160 H   0  0  0  0  0  0  0  0  0  0  0  0
   18.4977   18.8874   25.9513 H   0  0  0  0  0  0  0  0  0  0  0  0
   20.0133   17.3859   25.9424 N   0  3  0  0  0  0  0  0  0  0  0  0
   19.9689   17.1698   24.9428 H   0  0  0  0  0  0  0  0  0  0  0  0
   19.4382   16.6895   26.4290 H   0  0  0  0  0  0  0  0  0  0  0  0
   20.9820   17.2348   26.2424 H   0  0  0  0  0  0  0  0  0  0  0  0
  1  2  1  0  0  0  0
  1  3  1  0  0  0  0
  1  4  1  0  0  0  0
  1  5  1  0  0  0  0
  5  6  1  0  0  0  0
  5  7  1  0  0  0  0
  5  8  1  0  0  0  0
  8  9  1  0  0  0  0
  8 10  1  0  0  0  0
  8 11  1  0  0  0  0
 11 12  1  0  0  0  0
 11 13  1  0  0  0  0
 11 14  1  0  0  0  0
 14 15  1  0  0  0  0
 14 16  1  0  0  0  0
 14 17  1  0  0  0  0
 17 18  1  0  0  0  0
 17 19  1  0  0  0  0
 17 20  1  0  0  0  0
 20 21  1  0  0  0  0
 20 22  1  0  0  0  0
 20 23  1  0  0  0  0
 23 24  1  0  0  0  0
 23 25  1  0  0  0  0
 23 26  1  0  0  0  0
M  END
> <VM2 Rank>
96

> <Conf_Id>
1179

> <Probability>
0.07

> <Sum Probability>
98.82

> <Delta G>
2.776

> <G>
51.037

> <E>
18.537

> <-TS>
32.500

> <U+W>
-2.925

> <U>
50.881

> <W>
-53.806

> <W(PB)>
-56.130

> <W(SA)>
2.324

> <Valence>
3.754

> <Coulomb>
46.575

> <VdW>
0.553

> <VdW6>
-7.277

> <VdW12>
7.829

> <Bond>
0.187

> <Angle>
0.957

> <Pdih>
2.610

> <Idih>
0.000

> <Tether>
0.000

$$$$
VeraChem MOL file


 26 25  0  0  0  0  0  0  0  0999 V2000     
   20.5431   19.0158   19.2136 C   0  0  0  0  0  0  0  0  0  0  0  0
   20.6238   20.1053   19.1058 H   0  0  0  0  0  0  0  0  0  0  0  0
   21.2999   18.5560   18.5648 H   0  0  0  0  0  0  0  0  0  0  0  0
   19.5545   18.7083   18.8484 H   0  0  0  0  0  0  0  0  0  0  0  0
   20.7504   18.5866   20.6816 C   0  0  0  0  0  0  0  0  0  0  0  0
   21.7591   18.8772   21.0070 H   0  0  0  0  0  0  0  0  0  0  0  0
   20.6977   17.4911   20.7519 H   0  0  0  0  0  0  0  0  0  0  0  0
   19.6970   19.2206   21.6169 C   0  0  0  0  0  0  0  0  0  0  0  0
   19.7525   20.3156   21.5424 H   0  0  0  0  0  0  0  0  0  0  0  0
   18.6909   18.9300   21.2842 H   0  0  0  0  0  0  0  0  0  0  0  0
   19.9001   18.7920   23.0878 C   0  0  0  0  0  0  0  0  0  0  0  0
   20.9094   19.0841   23.4029 H   0  0  0  0  0  0  0  0  0  0  0  0
   19.8357   17.6975   23.1615 H   0  0  0  0  0  0  0  0  0  0  0  0
   18.8515   19.4394   24.0231 C   0  0  0  0  0  0  0  0  0  0  0  0
   18.9925   20.5291   24.0330 H   0  0  0  0  0  0  0  0  0  0  0  0
   17.8489   19.2644   23.6087 H   0  0  0  0  0  0  0  0  0  0  0  0
   18.8713   18.9036   25.4776 C   0  0  0  0  0  0  0  0  0  0  0  0
   18.6692   17.8243   25.4904 H   0  0  0  0  0  0  0  0  0  0  0  0
   18.0392   19.3722   26.0198 H   0  0  0  0  0  0  0  0  0  0  0  0
   20.1688   19.2078   26.2550 C   0  0  0  0  0  0  0  0  0  0  0  0
   20.5153   20.2174   26.0186 H   0  0  0  0  0  0  0  0  0  0  0  0
   19.9596   19.1636   27.3273 H   0  0  0  0  0  0  0  0  0  0  0  0
   21.2989   18.2333   25.9854 N   0  3  0  0  0  0  0  0  0  0  0  0
   22.1418   18.4718   26.5194 H   0  0  0  0  0  0  0  0  0  0  0  0
   21.5613   18.2194   24.9960 H   0  0  0  0  0  0  0  0  0  0  0  0
   21.0429   17.2749   26.2445 H   0  0  0  0  0  0  0  0  0  0  0  0
  1  2  1  0  0  0  0
  1  3  1  0  0  0  0
  1  4  1  0  0  0  0
  1  5  1  0  0  0  0
  5  6  1  0  0  0  0
  5  7  1  0  0  0  0
  5  8  1  0  0  0  0
  8  9  1  0  0  0  0
  8 10  1  0  0  0  0
  8 11  1  0  0  0  0
 11 12  1  0  0  0  0
 11 13  1  0  0  0  0
 11 14  1  0  0  0  0
 14 15  1  0  0  0  0
 14 16  1  0  0  0  0
 14 17  1  0  0  0  0
 17 18  1  0  0  0  0
 17 19  1  0  0  0  0
 17 20  1  0  0  0  0
 20 21  1  0  0  0  0
 20 22  1  0  0  0  0
 20 23  1  0  0  0  0
 23 24  1  0  0  0  0
 23 25  1  0  0  0  0
 23 26  1  0  0  0  0
M  END
> <VM2 Rank>
97

> <Conf_Id>
452

> <Probability>
0.07

> <Sum Probability>
98.89

> <Delta G>
2.784

> <G>
51.045

> <E>
18.545

> <-TS>
32.500

> <U+W>
-2.917

> <U>
50.881

> <W>
-53.798

> <W(PB)>
-56.115

> <W(SA)>
2.317

> <Valence>
3.754

> <Coulomb>
46.574

> <VdW>
0.553

> <VdW6>
-7.276

> <VdW12>
7.829

> <Bond>
0.187

> <Angle>
0.957

> <Pdih>
2.610

> <Idih>
0.000

> <Tether>
0.000

$$$$
VeraChem MOL file


 26 25  0  0  0  0  0  0  0  0999 V2000     
   20.5647   20.4473   20.0733 C   0  0  0  0  0  0  0  0  0  0  0  0
   21.4047   20.9009   20.6154 H   0  0  0  0  0  0  0  0  0  0  0  0
   20.8208   20.4332   19.0060 H   0  0  0  0  0  0  0  0  0  0  0  0
   19.6866   21.0938   20.2006 H   0  0  0  0  0  0  0  0  0  0  0  0
   20.2807   19.0189   20.5844 C   0  0  0  0  0  0  0  0  0  0  0  0
   21.1644   18.3880   20.4140 H   0  0  0  0  0  0  0  0  0  0  0  0
   19.4600   18.5798   20.0001 H   0  0  0  0  0  0  0  0  0  0  0  0
   19.9162   19.0110   22.0855 C   0  0  0  0  0  0  0  0  0  0  0  0
   20.7430   19.4589   22.6513 H   0  0  0  0  0  0  0  0  0  0  0  0
   19.0291   19.6381   22.2501 H   0  0  0  0  0  0  0  0  0  0  0  0
   19.6457   17.5791   22.6037 C   0  0  0  0  0  0  0  0  0  0  0  0
   20.5710   16.9894   22.5448 H   0  0  0  0  0  0  0  0  0  0  0  0
   18.9277   17.0869   21.9332 H   0  0  0  0  0  0  0  0  0  0  0  0
   19.0817   17.5112   24.0467 C   0  0  0  0  0  0  0  0  0  0  0  0
   18.1019   18.0066   24.0929 H   0  0  0  0  0  0  0  0  0  0  0  0
   18.8912   16.4540   24.2782 H   0  0  0  0  0  0  0  0  0  0  0  0
   20.0174   18.0831   25.1415 C   0  0  0  0  0  0  0  0  0  0  0  0
   21.0641   17.8535   24.9015 H   0  0  0  0  0  0  0  0  0  0  0  0
   19.7978   17.5740   26.0895 H   0  0  0  0  0  0  0  0  0  0  0  0
   19.8368   19.5980   25.3601 C   0  0  0  0  0  0  0  0  0  0  0  0
   20.0524   20.1426   24.4390 H   0  0  0  0  0  0  0  0  0  0  0  0
   18.8018   19.8057   25.6445 H   0  0  0  0  0  0  0  0  0  0  0  0
   20.7377   20.1504   26.4457 N   0  3  0  0  0  0  0  0  0  0  0  0
   21.7296   20.0111   26.2269 H   0  0  0  0  0  0  0  0  0  0  0  0
   20.5629   19.7027   27.3513 H   0  0  0  0  0  0  0  0  0  0  0  0
   20.5997   21.1580   26.5795 H   0  0  0  0  0  0  0  0  0  0  0  0
  1  2  1  0  0  0  0
  1  3  1  0  0  0  0
  1  4  1  0  0  0  0
  1  5  1  0  0  0  0
  5  6  1  0  0  0  0
  5  7  1  0  0  0  0
  5  8  1  0  0  0  0
  8  9  1  0  0  0  0
  8 10  1  0  0  0  0
  8 11  1  0  0  0  0
 11 12  1  0  0  0  0
 11 13  1  0  0  0  0
 11 14  1  0  0  0  0
 14 15  1  0  0  0  0
 14 16  1  0  0  0  0
 14 17  1  0  0  0  0
 17 18  1  0  0  0  0
 17 19  1  0  0  0  0
 17 20  1  0  0  0  0
 20 21  1  0  0  0  0
 20 22  1  0  0  0  0
 20 23  1  0  0  0  0
 23 24  1  0  0  0  0
 23 25  1  0  0  0  0
 23 26  1  0  0  0  0
M  END
> <VM2 Rank>
98

> <Conf_Id>
1107

> <Probability>
0.06

> <Sum Probability>
98.95

> <Delta G>
2.861

> <G>
51.122

> <E>
18.433

> <-TS>
32.689

> <U+W>
-3.028

> <U>
50.863

> <W>
-53.891

> <W(PB)>
-56.212

> <W(SA)>
2.321

> <Valence>
4.548

> <Coulomb>
45.757

> <VdW>
0.558

> <VdW6>
-7.490

> <VdW12>
8.048

> <Bond>
0.198

> <Angle>
1.148

> <Pdih>
3.202

> <Idih>
0.000

> <Tether>
0.000

$$$$
VeraChem MOL file


 26 25  0  0  0  0  0  0  0  0999 V2000     
   18.5437   19.1138   20.0058 C   0  0  0  0  0  0  0  0  0  0  0  0
   18.2883   20.1711   20.1539 H   0  0  0  0  0  0  0  0  0  0  0  0
   18.5059   18.9057   18.9286 H   0  0  0  0  0  0  0  0  0  0  0  0
   17.7724   18.5039   20.4940 H   0  0  0  0  0  0  0  0  0  0  0  0
   19.9436   18.7965   20.5731 C   0  0  0  0  0  0  0  0  0  0  0  0
   20.6961   19.3956   20.0414 H   0  0  0  0  0  0  0  0  0  0  0  0
   20.1846   17.7415   20.3812 H   0  0  0  0  0  0  0  0  0  0  0  0
   20.0240   19.0822   22.0891 C   0  0  0  0  0  0  0  0  0  0  0  0
   19.7882   20.1390   22.2755 H   0  0  0  0  0  0  0  0  0  0  0  0
   19.2619   18.4816   22.6018 H   0  0  0  0  0  0  0  0  0  0  0  0
   21.4215   18.7508   22.6630 C   0  0  0  0  0  0  0  0  0  0  0  0
   22.1865   19.2373   22.0421 H   0  0  0  0  0  0  0  0  0  0  0  0
   21.6030   17.6704   22.5793 H   0  0  0  0  0  0  0  0  0  0  0  0
   21.6379   19.1979   24.1322 C   0  0  0  0  0  0  0  0  0  0  0  0
   22.6731   18.9495   24.4046 H   0  0  0  0  0  0  0  0  0  0  0  0
   21.5649   20.2917   24.2087 H   0  0  0  0  0  0  0  0  0  0  0  0
   20.6945   18.5299   25.1641 C   0  0  0  0  0  0  0  0  0  0  0  0
   21.2043   18.5019   26.1364 H   0  0  0  0  0  0  0  0  0  0  0  0
   20.5060   17.4853   24.8827 H   0  0  0  0  0  0  0  0  0  0  0  0
   19.3635   19.2857   25.3443 C   0  0  0  0  0  0  0  0  0  0  0  0
   19.5656   20.3096   25.6701 H   0  0  0  0  0  0  0  0  0  0  0  0
   18.8215   19.3304   24.3979 H   0  0  0  0  0  0  0  0  0  0  0  0
   18.4522   18.6423   26.3694 N   0  3  0  0  0  0  0  0  0  0  0  0
   18.8899   18.5988   27.2955 H   0  0  0  0  0  0  0  0  0  0  0  0
   18.2012   17.6829   26.1091 H   0  0  0  0  0  0  0  0  0  0  0  0
   17.5744   19.1618   26.4785 H   0  0  0  0  0  0  0  0  0  0  0  0
  1  2  1  0  0  0  0
  1  3  1  0  0  0  0
  1  4  1  0  0  0  0
  1  5  1  0  0  0  0
  5  6  1  0  0  0  0
  5  7  1  0  0  0  0
  5  8  1  0  0  0  0
  8  9  1  0  0  0  0
  8 10  1  0  0  0  0
  8 11  1  0  0  0  0
 11 12  1  0  0  0  0
 11 13  1  0  0  0  0
 11 14  1  0  0  0  0
 14 15  1  0  0  0  0
 14 16  1  0  0  0  0
 14 17  1  0  0  0  0
 17 18  1  0  0  0  0
 17 19  1  0  0  0  0
 17 20  1  0  0  0  0
 20 21  1  0  0  0  0
 20 22  1  0  0  0  0
 20 23  1  0  0  0  0
 23 24  1  0  0  0  0
 23 25  1  0  0  0  0
 23 26  1  0  0  0  0
M  END
> <VM2 Rank>
99

> <Conf_Id>
1059

> <Probability>
0.06

> <Sum Probability>
99.01

> <Delta G>
2.871

> <G>
51.132

> <E>
18.443

> <-TS>
32.689

> <U+W>
-3.019

> <U>
50.863

> <W>
-53.881

> <W(PB)>
-56.199

> <W(SA)>
2.318

> <Valence>
4.548

> <Coulomb>
45.757

> <VdW>
0.558

> <VdW6>
-7.490

> <VdW12>
8.047

> <Bond>
0.198

> <Angle>
1.148

> <Pdih>
3.203

> <Idih>
0.000

> <Tether>
0.000

$$$$
VeraChem MOL file


 26 25  0  0  0  0  0  0  0  0999 V2000     
   19.8408   20.4592   20.4513 C   0  0  0  0  0  0  0  0  0  0  0  0
   18.8716   20.4149   19.9378 H   0  0  0  0  0  0  0  0  0  0  0  0
   19.6634   20.8010   21.4768 H   0  0  0  0  0  0  0  0  0  0  0  0
   20.4494   21.2213   19.9476 H   0  0  0  0  0  0  0  0  0  0  0  0
   20.5506   19.0858   20.4090 C   0  0  0  0  0  0  0  0  0  0  0  0
   21.5490   19.1573   20.8625 H   0  0  0  0  0  0  0  0  0  0  0  0
   20.7160   18.8231   19.3547 H   0  0  0  0  0  0  0  0  0  0  0  0
   19.7347   17.9498   21.0783 C   0  0  0  0  0  0  0  0  0  0  0  0
   18.6584   18.1527   20.9911 H   0  0  0  0  0  0  0  0  0  0  0  0
   19.9077   17.0250   20.5107 H   0  0  0  0  0  0  0  0  0  0  0  0
   20.1055   17.6648   22.5567 C   0  0  0  0  0  0  0  0  0  0  0  0
   21.1592   17.3593   22.6159 H   0  0  0  0  0  0  0  0  0  0  0  0
   19.5175   16.8013   22.8973 H   0  0  0  0  0  0  0  0  0  0  0  0
   19.8595   18.8514   23.5171 C   0  0  0  0  0  0  0  0  0  0  0  0
   20.5382   19.6767   23.2653 H   0  0  0  0  0  0  0  0  0  0  0  0
   18.8333   19.2230   23.3894 H   0  0  0  0  0  0  0  0  0  0  0  0
   20.0835   18.4527   24.9924 C   0  0  0  0  0  0  0  0  0  0  0  0
   21.1079   18.0792   25.1229 H   0  0  0  0  0  0  0  0  0  0  0  0
   19.4043   17.6329   25.2620 H   0  0  0  0  0  0  0  0  0  0  0  0
   19.8481   19.6431   25.9388 C   0  0  0  0  0  0  0  0  0  0  0  0
   20.5337   20.4563   25.6851 H   0  0  0  0  0  0  0  0  0  0  0  0
   18.8239   20.0080   25.8237 H   0  0  0  0  0  0  0  0  0  0  0  0
   20.0584   19.2921   27.3975 N   0  3  0  0  0  0  0  0  0  0  0  0
   21.0136   18.9666   27.5785 H   0  0  0  0  0  0  0  0  0  0  0  0
   19.4228   18.5497   27.7074 H   0  0  0  0  0  0  0  0  0  0  0  0
   19.8967   20.0986   28.0106 H   0  0  0  0  0  0  0  0  0  0  0  0
  1  2  1  0  0  0  0
  1  3  1  0  0  0  0
  1  4  1  0  0  0  0
  1  5  1  0  0  0  0
  5  6  1  0  0  0  0
  5  7  1  0  0  0  0
  5  8  1  0  0  0  0
  8  9  1  0  0  0  0
  8 10  1  0  0  0  0
  8 11  1  0  0  0  0
 11 12  1  0  0  0  0
 11 13  1  0  0  0  0
 11 14  1  0  0  0  0
 14 15  1  0  0  0  0
 14 16  1  0  0  0  0
 14 17  1  0  0  0  0
 17 18  1  0  0  0  0
 17 19  1  0  0  0  0
 17 20  1  0  0  0  0
 20 21  1  0  0  0  0
 20 22  1  0  0  0  0
 20 23  1  0  0  0  0
 23 24  1  0  0  0  0
 23 25  1  0  0  0  0
 23 26  1  0  0  0  0
M  END
> <VM2 Rank>
100

> <Conf_Id>
727

> <Probability>
0.03

> <Sum Probability>
99.04

> <Delta G>
3.307

> <G>
51.568

> <E>
18.875

> <-TS>
32.693

> <U+W>
-2.586

> <U>
50.680

> <W>
-53.266

> <W(PB)>
-55.566

> <W(SA)>
2.299

> <Valence>
5.154

> <Coulomb>
44.813

> <VdW>
0.713

> <VdW6>
-7.314

> <VdW12>
8.027

> <Bond>
0.213

> <Angle>
1.193

> <Pdih>
3.747

> <Idih>
0.000

> <Tether>
0.000

$$$$
VeraChem MOL file


 26 25  0  0  0  0  0  0  0  0999 V2000     
   18.7994   19.7722   20.4165 C   0  0  0  0  0  0  0  0  0  0  0  0
   19.2445   20.6608   19.9503 H   0  0  0  0  0  0  0  0  0  0  0  0
   17.8839   19.5290   19.8619 H   0  0  0  0  0  0  0  0  0  0  0  0
   18.5074   20.0384   21.4382 H   0  0  0  0  0  0  0  0  0  0  0  0
   19.7844   18.5803   20.3834 C   0  0  0  0  0  0  0  0  0  0  0  0
   20.0098   18.3573   19.3311 H   0  0  0  0  0  0  0  0  0  0  0  0
   19.3057   17.6775   20.7875 H   0  0  0  0  0  0  0  0  0  0  0  0
   21.1169   18.8617   21.1245 C   0  0  0  0  0  0  0  0  0  0  0  0
   21.9249   18.3557   20.5781 H   0  0  0  0  0  0  0  0  0  0  0  0
   21.3571   19.9330   21.0812 H   0  0  0  0  0  0  0  0  0  0  0  0
   21.1645   18.3634   22.5921 C   0  0  0  0  0  0  0  0  0  0  0  0
   22.1726   18.5528   22.9860 H   0  0  0  0  0  0  0  0  0  0  0  0
   21.0289   17.2732   22.6115 H   0  0  0  0  0  0  0  0  0  0  0  0
   20.1262   19.0274   23.5260 C   0  0  0  0  0  0  0  0  0  0  0  0
   20.1935   20.1203   23.4348 H   0  0  0  0  0  0  0  0  0  0  0  0
   19.1135   18.7367   23.2177 H   0  0  0  0  0  0  0  0  0  0  0  0
   20.3359   18.6193   25.0008 C   0  0  0  0  0  0  0  0  0  0  0  0
   21.3430   18.9119   25.3267 H   0  0  0  0  0  0  0  0  0  0  0  0
   20.2709   17.5270   25.0950 H   0  0  0  0  0  0  0  0  0  0  0  0
   19.2908   19.2755   25.9201 C   0  0  0  0  0  0  0  0  0  0  0  0
   19.3629   20.3636   25.8417 H   0  0  0  0  0  0  0  0  0  0  0  0
   18.2866   18.9739   25.6101 H   0  0  0  0  0  0  0  0  0  0  0  0
   19.4628   18.8993   27.3776 N   0  3  0  0  0  0  0  0  0  0  0  0
   19.3784   17.8880   27.5239 H   0  0  0  0  0  0  0  0  0  0  0  0
   18.7570   19.3468   27.9725 H   0  0  0  0  0  0  0  0  0  0  0  0
   20.3799   19.1810   27.7394 H   0  0  0  0  0  0  0  0  0  0  0  0
  1  2  1  0  0  0  0
  1  3  1  0  0  0  0
  1  4  1  0  0  0  0
  1  5  1  0  0  0  0
  5  6  1  0  0  0  0
  5  7  1  0  0  0  0
  5  8  1  0  0  0  0
  8  9  1  0  0  0  0
  8 10  1  0  0  0  0
  8 11  1  0  0  0  0
 11 12  1  0  0  0  0
 11 13  1  0  0  0  0
 11 14  1  0  0  0  0
 14 15  1  0  0  0  0
 14 16  1  0  0  0  0
 14 17  1  0  0  0  0
 17 18  1  0  0  0  0
 17 19  1  0  0  0  0
 17 20  1  0  0  0  0
 20 21  1  0  0  0  0
 20 22  1  0  0  0  0
 20 23  1  0  0  0  0
 23 24  1  0  0  0  0
 23 25  1  0  0  0  0
 23 26  1  0  0  0  0
M  END
> <VM2 Rank>
101

> <Conf_Id>
935

> <Probability>
0.03

> <Sum Probability>
99.07

> <Delta G>
3.307

> <G>
51.568

> <E>
18.875

> <-TS>
32.693

> <U+W>
-2.587

> <U>
50.680

> <W>
-53.267

> <W(PB)>
-55.569

> <W(SA)>
2.303

> <Valence>
5.154

> <Coulomb>
44.813

> <VdW>
0.713

> <VdW6>
-7.314

> <VdW12>
8.027

> <Bond>
0.213

> <Angle>
1.193

> <Pdih>
3.747

> <Idih>
0.000

> <Tether>
0.000

$$$$
VeraChem MOL file


 26 25  0  0  0  0  0  0  0  0999 V2000     
   18.5979   19.0204   20.5788 C   0  0  0  0  0  0  0  0  0  0  0  0
   18.4176   20.0643   20.8660 H   0  0  0  0  0  0  0  0  0  0  0  0
   17.9126   18.7748   19.7573 H   0  0  0  0  0  0  0  0  0  0  0  0
   18.3380   18.3738   21.4260 H   0  0  0  0  0  0  0  0  0  0  0  0
   20.0633   18.8080   20.1404 C   0  0  0  0  0  0  0  0  0  0  0  0
   20.2281   19.3404   19.1933 H   0  0  0  0  0  0  0  0  0  0  0  0
   20.2278   17.7433   19.9232 H   0  0  0  0  0  0  0  0  0  0  0  0
   21.1154   19.2971   21.1683 C   0  0  0  0  0  0  0  0  0  0  0  0
   22.1082   19.1400   20.7244 H   0  0  0  0  0  0  0  0  0  0  0  0
   21.0250   20.3823   21.3139 H   0  0  0  0  0  0  0  0  0  0  0  0
   21.0766   18.5650   22.5352 C   0  0  0  0  0  0  0  0  0  0  0  0
   22.1062   18.4691   22.9068 H   0  0  0  0  0  0  0  0  0  0  0  0
   20.7051   17.5395   22.4024 H   0  0  0  0  0  0  0  0  0  0  0  0
   20.2438   19.3075   23.6089 C   0  0  0  0  0  0  0  0  0  0  0  0
   20.6656   20.3096   23.7683 H   0  0  0  0  0  0  0  0  0  0  0  0
   19.2140   19.4542   23.2619 H   0  0  0  0  0  0  0  0  0  0  0  0
   20.2243   18.5418   24.9500 C   0  0  0  0  0  0  0  0  0  0  0  0
   21.2516   18.4044   25.3130 H   0  0  0  0  0  0  0  0  0  0  0  0
   19.7994   17.5406   24.7977 H   0  0  0  0  0  0  0  0  0  0  0  0
   19.4016   19.2900   26.0137 C   0  0  0  0  0  0  0  0  0  0  0  0
   19.8308   20.2817   26.1806 H   0  0  0  0  0  0  0  0  0  0  0  0
   18.3734   19.4145   25.6636 H   0  0  0  0  0  0  0  0  0  0  0  0
   19.3581   18.5692   27.3456 N   0  3  0  0  0  0  0  0  0  0  0  0
   18.8055   19.0844   28.0397 H   0  0  0  0  0  0  0  0  0  0  0  0
   20.2948   18.4443   27.7433 H   0  0  0  0  0  0  0  0  0  0  0  0
   18.9387   17.6373   27.2624 H   0  0  0  0  0  0  0  0  0  0  0  0
  1  2  1  0  0  0  0
  1  3  1  0  0  0  0
  1  4  1  0  0  0  0
  1  5  1  0  0  0  0
  5  6  1  0  0  0  0
  5  7  1  0  0  0  0
  5  8  1  0  0  0  0
  8  9  1  0  0  0  0
  8 10  1  0  0  0  0
  8 11  1  0  0  0  0
 11 12  1  0  0  0  0
 11 13  1  0  0  0  0
 11 14  1  0  0  0  0
 14 15  1  0  0  0  0
 14 16  1  0  0  0  0
 14 17  1  0  0  0  0
 17 18  1  0  0  0  0
 17 19  1  0  0  0  0
 17 20  1  0  0  0  0
 20 21  1  0  0  0  0
 20 22  1  0  0  0  0
 20 23  1  0  0  0  0
 23 24  1  0  0  0  0
 23 25  1  0  0  0  0
 23 26  1  0  0  0  0
M  END
> <VM2 Rank>
102

> <Conf_Id>
1246

> <Probability>
0.03

> <Sum Probability>
99.09

> <Delta G>
3.309

> <G>
51.570

> <E>
18.867

> <-TS>
32.703

> <U+W>
-2.595

> <U>
50.662

> <W>
-53.257

> <W(PB)>
-55.568

> <W(SA)>
2.312

> <Valence>
5.128

> <Coulomb>
44.842

> <VdW>
0.692

> <VdW6>
-7.327

> <VdW12>
8.019

> <Bond>
0.214

> <Angle>
1.153

> <Pdih>
3.761

> <Idih>
0.000

> <Tether>
0.000

$$$$
VeraChem MOL file


 26 25  0  0  0  0  0  0  0  0999 V2000     
   18.8517   18.1913   20.3877 C   0  0  0  0  0  0  0  0  0  0  0  0
   17.9682   18.2233   21.0383 H   0  0  0  0  0  0  0  0  0  0  0  0
   18.5025   18.0845   19.3525 H   0  0  0  0  0  0  0  0  0  0  0  0
   19.4288   17.2918   20.6351 H   0  0  0  0  0  0  0  0  0  0  0  0
   19.7023   19.4725   20.5418 C   0  0  0  0  0  0  0  0  0  0  0  0
   19.1227   20.3288   20.1694 H   0  0  0  0  0  0  0  0  0  0  0  0
   20.5940   19.4041   19.9031 H   0  0  0  0  0  0  0  0  0  0  0  0
   20.1240   19.7564   22.0036 C   0  0  0  0  0  0  0  0  0  0  0  0
   20.6176   20.7373   22.0370 H   0  0  0  0  0  0  0  0  0  0  0  0
   19.2240   19.8458   22.6224 H   0  0  0  0  0  0  0  0  0  0  0  0
   21.0879   18.6877   22.5818 C   0  0  0  0  0  0  0  0  0  0  0  0
   21.9443   18.5980   21.8993 H   0  0  0  0  0  0  0  0  0  0  0  0
   20.6092   17.7000   22.6007 H   0  0  0  0  0  0  0  0  0  0  0  0
   21.6287   19.0320   23.9944 C   0  0  0  0  0  0  0  0  0  0  0  0
   22.6296   18.5892   24.0930 H   0  0  0  0  0  0  0  0  0  0  0  0
   21.7733   20.1166   24.0938 H   0  0  0  0  0  0  0  0  0  0  0  0
   20.7665   18.4984   25.1662 C   0  0  0  0  0  0  0  0  0  0  0  0
   21.2840   18.7198   26.1091 H   0  0  0  0  0  0  0  0  0  0  0  0
   20.6947   17.4045   25.1011 H   0  0  0  0  0  0  0  0  0  0  0  0
   19.3516   19.1004   25.2228 C   0  0  0  0  0  0  0  0  0  0  0  0
   19.4151   20.1918   25.2372 H   0  0  0  0  0  0  0  0  0  0  0  0
   18.7874   18.7957   24.3382 H   0  0  0  0  0  0  0  0  0  0  0  0
   18.5682   18.6604   26.4427 N   0  3  0  0  0  0  0  0  0  0  0  0
   19.0305   18.9388   27.3144 H   0  0  0  0  0  0  0  0  0  0  0  0
   18.4516   17.6423   26.4749 H   0  0  0  0  0  0  0  0  0  0  0  0
   17.6277   19.0696   26.4598 H   0  0  0  0  0  0  0  0  0  0  0  0
  1  2  1  0  0  0  0
  1  3  1  0  0  0  0
  1  4  1  0  0  0  0
  1  5  1  0  0  0  0
  5  6  1  0  0  0  0
  5  7  1  0  0  0  0
  5  8  1  0  0  0  0
  8  9  1  0  0  0  0
  8 10  1  0  0  0  0
  8 11  1  0  0  0  0
 11 12  1  0  0  0  0
 11 13  1  0  0  0  0
 11 14  1  0  0  0  0
 14 15  1  0  0  0  0
 14 16  1  0  0  0  0
 14 17  1  0  0  0  0
 17 18  1  0  0  0  0
 17 19  1  0  0  0  0
 17 20  1  0  0  0  0
 20 21  1  0  0  0  0
 20 22  1  0  0  0  0
 20 23  1  0  0  0  0
 23 24  1  0  0  0  0
 23 25  1  0  0  0  0
 23 26  1  0  0  0  0
M  END
> <VM2 Rank>
103

> <Conf_Id>
1007

> <Probability>
0.03

> <Sum Probability>
99.12

> <Delta G>
3.338

> <G>
51.599

> <E>
19.072

> <-TS>
32.527

> <U+W>
-2.390

> <U>
51.488

> <W>
-53.878

> <W(PB)>
-56.160

> <W(SA)>
2.283

> <Valence>
5.168

> <Coulomb>
45.587

> <VdW>
0.733

> <VdW6>
-7.960

> <VdW12>
8.693

> <Bond>
0.251

> <Angle>
1.359

> <Pdih>
3.558

> <Idih>
0.000

> <Tether>
0.000

$$$$
VeraChem MOL file


 26 25  0  0  0  0  0  0  0  0999 V2000     
   21.0869   18.6128   20.0374 C   0  0  0  0  0  0  0  0  0  0  0  0
   20.4810   17.6982   20.0245 H   0  0  0  0  0  0  0  0  0  0  0  0
   21.3503   18.8493   18.9983 H   0  0  0  0  0  0  0  0  0  0  0  0
   22.0174   18.4016   20.5800 H   0  0  0  0  0  0  0  0  0  0  0  0
   20.3220   19.7903   20.6833 C   0  0  0  0  0  0  0  0  0  0  0  0
   19.3854   19.9668   20.1361 H   0  0  0  0  0  0  0  0  0  0  0  0
   20.9198   20.7057   20.5723 H   0  0  0  0  0  0  0  0  0  0  0  0
   20.0182   19.5730   22.1852 C   0  0  0  0  0  0  0  0  0  0  0  0
   20.9658   19.4311   22.7204 H   0  0  0  0  0  0  0  0  0  0  0  0
   19.5593   20.4875   22.5853 H   0  0  0  0  0  0  0  0  0  0  0  0
   19.0789   18.3711   22.4518 C   0  0  0  0  0  0  0  0  0  0  0  0
   19.6011   17.4339   22.2173 H   0  0  0  0  0  0  0  0  0  0  0  0
   18.2251   18.4271   21.7626 H   0  0  0  0  0  0  0  0  0  0  0  0
   18.5270   18.2955   23.8991 C   0  0  0  0  0  0  0  0  0  0  0  0
   17.9206   19.1849   24.1198 H   0  0  0  0  0  0  0  0  0  0  0  0
   17.8336   17.4443   23.9447 H   0  0  0  0  0  0  0  0  0  0  0  0
   19.6019   18.0995   24.9979 C   0  0  0  0  0  0  0  0  0  0  0  0
   20.3933   17.4294   24.6363 H   0  0  0  0  0  0  0  0  0  0  0  0
   19.1363   17.5953   25.8552 H   0  0  0  0  0  0  0  0  0  0  0  0
   20.2090   19.4257   25.4954 C   0  0  0  0  0  0  0  0  0  0  0  0
   20.6952   19.9525   24.6724 H   0  0  0  0  0  0  0  0  0  0  0  0
   19.4154   20.0663   25.8893 H   0  0  0  0  0  0  0  0  0  0  0  0
   21.2370   19.2311   26.5911 N   0  3  0  0  0  0  0  0  0  0  0  0
   21.6261   20.1245   26.9119 H   0  0  0  0  0  0  0  0  0  0  0  0
   22.0263   18.6571   26.2770 H   0  0  0  0  0  0  0  0  0  0  0  0
   20.8358   18.7683   27.4133 H   0  0  0  0  0  0  0  0  0  0  0  0
  1  2  1  0  0  0  0
  1  3  1  0  0  0  0
  1  4  1  0  0  0  0
  1  5  1  0  0  0  0
  5  6  1  0  0  0  0
  5  7  1  0  0  0  0
  5  8  1  0  0  0  0
  8  9  1  0  0  0  0
  8 10  1  0  0  0  0
  8 11  1  0  0  0  0
 11 12  1  0  0  0  0
 11 13  1  0  0  0  0
 11 14  1  0  0  0  0
 14 15  1  0  0  0  0
 14 16  1  0  0  0  0
 14 17  1  0  0  0  0
 17 18  1  0  0  0  0
 17 19  1  0  0  0  0
 17 20  1  0  0  0  0
 20 21  1  0  0  0  0
 20 22  1  0  0  0  0
 20 23  1  0  0  0  0
 23 24  1  0  0  0  0
 23 25  1  0  0  0  0
 23 26  1  0  0  0  0
M  END
> <VM2 Rank>
104

> <Conf_Id>
1375

> <Probability>
0.03

> <Sum Probability>
99.15

> <Delta G>
3.345

> <G>
51.607

> <E>
18.792

> <-TS>
32.815

> <U+W>
-2.670

> <U>
51.327

> <W>
-53.997

> <W(PB)>
-56.278

> <W(SA)>
2.281

> <Valence>
4.992

> <Coulomb>
45.664

> <VdW>
0.672

> <VdW6>
-8.113

> <VdW12>
8.785

> <Bond>
0.231

> <Angle>
1.333

> <Pdih>
3.427

> <Idih>
0.000

> <Tether>
0.000

$$$$
VeraChem MOL file


 26 25  0  0  0  0  0  0  0  0999 V2000     
   19.6946   18.7533   19.3396 C   0  0  0  0  0  0  0  0  0  0  0  0
   20.2257   19.6554   19.0088 H   0  0  0  0  0  0  0  0  0  0  0  0
   20.2782   17.8782   19.0252 H   0  0  0  0  0  0  0  0  0  0  0  0
   18.7296   18.7198   18.8173 H   0  0  0  0  0  0  0  0  0  0  0  0
   19.4866   18.7619   20.8689 C   0  0  0  0  0  0  0  0  0  0  0  0
   18.9274   17.8636   21.1654 H   0  0  0  0  0  0  0  0  0  0  0  0
   18.8665   19.6270   21.1396 H   0  0  0  0  0  0  0  0  0  0  0  0
   20.8339   18.8130   21.6273 C   0  0  0  0  0  0  0  0  0  0  0  0
   21.4668   17.9811   21.2886 H   0  0  0  0  0  0  0  0  0  0  0  0
   21.3714   19.7348   21.3654 H   0  0  0  0  0  0  0  0  0  0  0  0
   20.6808   18.7200   23.1653 C   0  0  0  0  0  0  0  0  0  0  0  0
   21.6833   18.6648   23.6115 H   0  0  0  0  0  0  0  0  0  0  0  0
   20.1685   17.7819   23.4126 H   0  0  0  0  0  0  0  0  0  0  0  0
   19.9153   19.9190   23.7788 C   0  0  0  0  0  0  0  0  0  0  0  0
   20.3212   20.8508   23.3614 H   0  0  0  0  0  0  0  0  0  0  0  0
   18.8597   19.8810   23.4785 H   0  0  0  0  0  0  0  0  0  0  0  0
   19.9984   20.0063   25.3242 C   0  0  0  0  0  0  0  0  0  0  0  0
   19.5052   20.9367   25.6357 H   0  0  0  0  0  0  0  0  0  0  0  0
   21.0440   20.0972   25.6472 H   0  0  0  0  0  0  0  0  0  0  0  0
   19.3141   18.8408   26.0683 C   0  0  0  0  0  0  0  0  0  0  0  0
   19.0886   19.1553   27.0909 H   0  0  0  0  0  0  0  0  0  0  0  0
   18.3713   18.5886   25.5756 H   0  0  0  0  0  0  0  0  0  0  0  0
   20.1572   17.5846   26.1685 N   0  3  0  0  0  0  0  0  0  0  0  0
   20.4047   17.2186   25.2451 H   0  0  0  0  0  0  0  0  0  0  0  0
   19.6661   16.8362   26.6696 H   0  0  0  0  0  0  0  0  0  0  0  0
   21.0338   17.7554   26.6720 H   0  0  0  0  0  0  0  0  0  0  0  0
  1  2  1  0  0  0  0
  1  3  1  0  0  0  0
  1  4  1  0  0  0  0
  1  5  1  0  0  0  0
  5  6  1  0  0  0  0
  5  7  1  0  0  0  0
  5  8  1  0  0  0  0
  8  9  1  0  0  0  0
  8 10  1  0  0  0  0
  8 11  1  0  0  0  0
 11 12  1  0  0  0  0
 11 13  1  0  0  0  0
 11 14  1  0  0  0  0
 14 15  1  0  0  0  0
 14 16  1  0  0  0  0
 14 17  1  0  0  0  0
 17 18  1  0  0  0  0
 17 19  1  0  0  0  0
 17 20  1  0  0  0  0
 20 21  1  0  0  0  0
 20 22  1  0  0  0  0
 20 23  1  0  0  0  0
 23 24  1  0  0  0  0
 23 25  1  0  0  0  0
 23 26  1  0  0  0  0
M  END
> <VM2 Rank>
105

> <Conf_Id>
1078

> <Probability>
0.03

> <Sum Probability>
99.18

> <Delta G>
3.346

> <G>
51.607

> <E>
18.965

> <-TS>
32.642

> <U+W>
-2.497

> <U>
51.400

> <W>
-53.897

> <W(PB)>
-56.162

> <W(SA)>
2.265

> <Valence>
4.232

> <Coulomb>
46.515

> <VdW>
0.654

> <VdW6>
-7.962

> <VdW12>
8.616

> <Bond>
0.225

> <Angle>
1.150

> <Pdih>
2.857

> <Idih>
0.000

> <Tether>
0.000

$$$$
VeraChem MOL file


 26 25  0  0  0  0  0  0  0  0999 V2000     
   20.6030   20.3430   20.6458 C   0  0  0  0  0  0  0  0  0  0  0  0
   21.2595   20.3010   21.5236 H   0  0  0  0  0  0  0  0  0  0  0  0
   21.1358   20.9010   19.8650 H   0  0  0  0  0  0  0  0  0  0  0  0
   19.7015   20.9112   20.9090 H   0  0  0  0  0  0  0  0  0  0  0  0
   20.2433   18.9267   20.1464 C   0  0  0  0  0  0  0  0  0  0  0  0
   21.1668   18.3628   19.9545 H   0  0  0  0  0  0  0  0  0  0  0  0
   19.7336   19.0143   19.1767 H   0  0  0  0  0  0  0  0  0  0  0  0
   19.3332   18.1215   21.1088 C   0  0  0  0  0  0  0  0  0  0  0  0
   18.3650   18.6277   21.2250 H   0  0  0  0  0  0  0  0  0  0  0  0
   19.1085   17.1612   20.6242 H   0  0  0  0  0  0  0  0  0  0  0  0
   19.9574   17.8267   22.4978 C   0  0  0  0  0  0  0  0  0  0  0  0
   21.0513   17.7679   22.4139 H   0  0  0  0  0  0  0  0  0  0  0  0
   19.6240   16.8317   22.8239 H   0  0  0  0  0  0  0  0  0  0  0  0
   19.5522   18.8513   23.5857 C   0  0  0  0  0  0  0  0  0  0  0  0
   19.8378   19.8657   23.2828 H   0  0  0  0  0  0  0  0  0  0  0  0
   18.4587   18.8539   23.6946 H   0  0  0  0  0  0  0  0  0  0  0  0
   20.2009   18.5263   24.9492 C   0  0  0  0  0  0  0  0  0  0  0  0
   21.2944   18.5268   24.8476 H   0  0  0  0  0  0  0  0  0  0  0  0
   19.9070   17.5174   25.2681 H   0  0  0  0  0  0  0  0  0  0  0  0
   19.7870   19.5442   26.0266 C   0  0  0  0  0  0  0  0  0  0  0  0
   20.0926   20.5485   25.7211 H   0  0  0  0  0  0  0  0  0  0  0  0
   18.6998   19.5358   26.1427 H   0  0  0  0  0  0  0  0  0  0  0  0
   20.4041   19.2592   27.3806 N   0  3  0  0  0  0  0  0  0  0  0  0
   21.4286   19.2797   27.3457 H   0  0  0  0  0  0  0  0  0  0  0  0
   20.1326   18.3373   27.7379 H   0  0  0  0  0  0  0  0  0  0  0  0
   20.1155   19.9485   28.0835 H   0  0  0  0  0  0  0  0  0  0  0  0
  1  2  1  0  0  0  0
  1  3  1  0  0  0  0
  1  4  1  0  0  0  0
  1  5  1  0  0  0  0
  5  6  1  0  0  0  0
  5  7  1  0  0  0  0
  5  8  1  0  0  0  0
  8  9  1  0  0  0  0
  8 10  1  0  0  0  0
  8 11  1  0  0  0  0
 11 12  1  0  0  0  0
 11 13  1  0  0  0  0
 11 14  1  0  0  0  0
 14 15  1  0  0  0  0
 14 16  1  0  0  0  0
 14 17  1  0  0  0  0
 17 18  1  0  0  0  0
 17 19  1  0  0  0  0
 17 20  1  0  0  0  0
 20 21  1  0  0  0  0
 20 22  1  0  0  0  0
 20 23  1  0  0  0  0
 23 24  1  0  0  0  0
 23 25  1  0  0  0  0
 23 26  1  0  0  0  0
M  END
> <VM2 Rank>
106

> <Conf_Id>
1341

> <Probability>
0.03

> <Sum Probability>
99.20

> <Delta G>
3.354

> <G>
51.615

> <E>
18.912

> <-TS>
32.703

> <U+W>
-2.550

> <U>
50.662

> <W>
-53.211

> <W(PB)>
-55.518

> <W(SA)>
2.307

> <Valence>
5.128

> <Coulomb>
44.842

> <VdW>
0.692

> <VdW6>
-7.327

> <VdW12>
8.019

> <Bond>
0.214

> <Angle>
1.153

> <Pdih>
3.761

> <Idih>
0.000

> <Tether>
0.000

$$$$
VeraChem MOL file


 26 25  0  0  0  0  0  0  0  0999 V2000     
   19.0012   18.1507   19.9054 C   0  0  0  0  0  0  0  0  0  0  0  0
   18.3652   17.2561   19.9180 H   0  0  0  0  0  0  0  0  0  0  0  0
   18.3735   19.0067   19.6254 H   0  0  0  0  0  0  0  0  0  0  0  0
   19.7601   18.0130   19.1242 H   0  0  0  0  0  0  0  0  0  0  0  0
   19.6574   18.3722   21.2847 C   0  0  0  0  0  0  0  0  0  0  0  0
   20.2568   17.4899   21.5491 H   0  0  0  0  0  0  0  0  0  0  0  0
   18.8669   18.4669   22.0407 H   0  0  0  0  0  0  0  0  0  0  0  0
   20.5497   19.6343   21.2956 C   0  0  0  0  0  0  0  0  0  0  0  0
   21.2521   19.5814   20.4523 H   0  0  0  0  0  0  0  0  0  0  0  0
   19.9273   20.5223   21.1186 H   0  0  0  0  0  0  0  0  0  0  0  0
   21.3688   19.8305   22.5976 C   0  0  0  0  0  0  0  0  0  0  0  0
   21.9913   20.7260   22.4635 H   0  0  0  0  0  0  0  0  0  0  0  0
   22.0739   18.9982   22.7291 H   0  0  0  0  0  0  0  0  0  0  0  0
   20.5165   20.0229   23.8791 C   0  0  0  0  0  0  0  0  0  0  0  0
   21.0273   20.7450   24.5313 H   0  0  0  0  0  0  0  0  0  0  0  0
   19.5486   20.4767   23.6247 H   0  0  0  0  0  0  0  0  0  0  0  0
   20.3063   18.7164   24.6817 C   0  0  0  0  0  0  0  0  0  0  0  0
   21.2814   18.3099   24.9816 H   0  0  0  0  0  0  0  0  0  0  0  0
   19.8231   17.9541   24.0603 H   0  0  0  0  0  0  0  0  0  0  0  0
   19.4511   18.9624   25.9370 C   0  0  0  0  0  0  0  0  0  0  0  0
   19.9393   19.7036   26.5756 H   0  0  0  0  0  0  0  0  0  0  0  0
   18.4720   19.3515   25.6448 H   0  0  0  0  0  0  0  0  0  0  0  0
   19.2299   17.7096   26.7599 N   0  3  0  0  0  0  0  0  0  0  0  0
   18.6587   17.8963   27.5914 H   0  0  0  0  0  0  0  0  0  0  0  0
   20.1138   17.3080   27.0896 H   0  0  0  0  0  0  0  0  0  0  0  0
   18.7478   16.9803   26.2244 H   0  0  0  0  0  0  0  0  0  0  0  0
  1  2  1  0  0  0  0
  1  3  1  0  0  0  0
  1  4  1  0  0  0  0
  1  5  1  0  0  0  0
  5  6  1  0  0  0  0
  5  7  1  0  0  0  0
  5  8  1  0  0  0  0
  8  9  1  0  0  0  0
  8 10  1  0  0  0  0
  8 11  1  0  0  0  0
 11 12  1  0  0  0  0
 11 13  1  0  0  0  0
 11 14  1  0  0  0  0
 14 15  1  0  0  0  0
 14 16  1  0  0  0  0
 14 17  1  0  0  0  0
 17 18  1  0  0  0  0
 17 19  1  0  0  0  0
 17 20  1  0  0  0  0
 20 21  1  0  0  0  0
 20 22  1  0  0  0  0
 20 23  1  0  0  0  0
 23 24  1  0  0  0  0
 23 25  1  0  0  0  0
 23 26  1  0  0  0  0
M  END
> <VM2 Rank>
107

> <Conf_Id>
1366

> <Probability>
0.03

> <Sum Probability>
99.23

> <Delta G>
3.367

> <G>
51.629

> <E>
18.906

> <-TS>
32.722

> <U+W>
-2.556

> <U>
51.214

> <W>
-53.769

> <W(PB)>
-56.071

> <W(SA)>
2.302

> <Valence>
5.193

> <Coulomb>
45.364

> <VdW>
0.656

> <VdW6>
-7.405

> <VdW12>
8.062

> <Bond>
0.216

> <Angle>
1.176

> <Pdih>
3.801

> <Idih>
0.000

> <Tether>
0.000

$$$$
VeraChem MOL file


 26 25  0  0  0  0  0  0  0  0999 V2000     
   21.2729   19.7908   20.4690 C   0  0  0  0  0  0  0  0  0  0  0  0
   21.5561   20.1017   19.4551 H   0  0  0  0  0  0  0  0  0  0  0  0
   21.5586   20.5956   21.1588 H   0  0  0  0  0  0  0  0  0  0  0  0
   21.8624   18.8996   20.7171 H   0  0  0  0  0  0  0  0  0  0  0  0
   19.7554   19.5074   20.5436 C   0  0  0  0  0  0  0  0  0  0  0  0
   19.4995   18.6805   19.8664 H   0  0  0  0  0  0  0  0  0  0  0  0
   19.2125   20.3878   20.1722 H   0  0  0  0  0  0  0  0  0  0  0  0
   19.2612   19.1863   21.9746 C   0  0  0  0  0  0  0  0  0  0  0  0
   19.5020   20.0296   22.6316 H   0  0  0  0  0  0  0  0  0  0  0  0
   18.1649   19.1168   21.9545 H   0  0  0  0  0  0  0  0  0  0  0  0
   19.8394   17.8629   22.5402 C   0  0  0  0  0  0  0  0  0  0  0  0
   20.9336   17.9144   22.6118 H   0  0  0  0  0  0  0  0  0  0  0  0
   19.6187   17.0615   21.8217 H   0  0  0  0  0  0  0  0  0  0  0  0
   19.2455   17.4578   23.9148 C   0  0  0  0  0  0  0  0  0  0  0  0
   18.1874   17.7481   23.9739 H   0  0  0  0  0  0  0  0  0  0  0  0
   19.2561   16.3609   23.9803 H   0  0  0  0  0  0  0  0  0  0  0  0
   20.0187   18.0046   25.1412 C   0  0  0  0  0  0  0  0  0  0  0  0
   21.0551   17.6426   25.1134 H   0  0  0  0  0  0  0  0  0  0  0  0
   19.5687   17.5872   26.0518 H   0  0  0  0  0  0  0  0  0  0  0  0
   20.0167   19.5398   25.2449 C   0  0  0  0  0  0  0  0  0  0  0  0
   20.5588   19.9656   24.3971 H   0  0  0  0  0  0  0  0  0  0  0  0
   18.9882   19.9100   25.2228 H   0  0  0  0  0  0  0  0  0  0  0  0
   20.6711   20.0494   26.5127 N   0  3  0  0  0  0  0  0  0  0  0  0
   20.6624   21.0740   26.5609 H   0  0  0  0  0  0  0  0  0  0  0  0
   21.6510   19.7556   26.5816 H   0  0  0  0  0  0  0  0  0  0  0  0
   20.1938   19.7072   27.3531 H   0  0  0  0  0  0  0  0  0  0  0  0
  1  2  1  0  0  0  0
  1  3  1  0  0  0  0
  1  4  1  0  0  0  0
  1  5  1  0  0  0  0
  5  6  1  0  0  0  0
  5  7  1  0  0  0  0
  5  8  1  0  0  0  0
  8  9  1  0  0  0  0
  8 10  1  0  0  0  0
  8 11  1  0  0  0  0
 11 12  1  0  0  0  0
 11 13  1  0  0  0  0
 11 14  1  0  0  0  0
 14 15  1  0  0  0  0
 14 16  1  0  0  0  0
 14 17  1  0  0  0  0
 17 18  1  0  0  0  0
 17 19  1  0  0  0  0
 17 20  1  0  0  0  0
 20 21  1  0  0  0  0
 20 22  1  0  0  0  0
 20 23  1  0  0  0  0
 23 24  1  0  0  0  0
 23 25  1  0  0  0  0
 23 26  1  0  0  0  0
M  END
> <VM2 Rank>
108

> <Conf_Id>
1365

> <Probability>
0.03

> <Sum Probability>
99.26

> <Delta G>
3.374

> <G>
51.635

> <E>
19.107

> <-TS>
32.528

> <U+W>
-2.354

> <U>
51.488

> <W>
-53.843

> <W(PB)>
-56.162

> <W(SA)>
2.319

> <Valence>
5.168

> <Coulomb>
45.587

> <VdW>
0.733

> <VdW6>
-7.960

> <VdW12>
8.693

> <Bond>
0.251

> <Angle>
1.358

> <Pdih>
3.559

> <Idih>
0.000

> <Tether>
0.000

$$$$
VeraChem MOL file


 26 25  0  0  0  0  0  0  0  0999 V2000     
   18.9916   17.9654   20.0448 C   0  0  0  0  0  0  0  0  0  0  0  0
   19.1807   18.5374   19.1271 H   0  0  0  0  0  0  0  0  0  0  0  0
   18.9674   16.9006   19.7790 H   0  0  0  0  0  0  0  0  0  0  0  0
   17.9979   18.2414   20.4212 H   0  0  0  0  0  0  0  0  0  0  0  0
   20.0808   18.2383   21.1036 C   0  0  0  0  0  0  0  0  0  0  0  0
   21.0560   17.9200   20.7094 H   0  0  0  0  0  0  0  0  0  0  0  0
   19.8856   17.6192   21.9874 H   0  0  0  0  0  0  0  0  0  0  0  0
   20.1413   19.7369   21.4861 C   0  0  0  0  0  0  0  0  0  0  0  0
   20.3727   20.3111   20.5783 H   0  0  0  0  0  0  0  0  0  0  0  0
   19.1558   20.0873   21.8225 H   0  0  0  0  0  0  0  0  0  0  0  0
   21.2162   20.0584   22.5571 C   0  0  0  0  0  0  0  0  0  0  0  0
   21.6497   21.0403   22.3221 H   0  0  0  0  0  0  0  0  0  0  0  0
   22.0485   19.3444   22.4885 H   0  0  0  0  0  0  0  0  0  0  0  0
   20.6848   20.1203   24.0126 C   0  0  0  0  0  0  0  0  0  0  0  0
   21.5132   20.4208   24.6693 H   0  0  0  0  0  0  0  0  0  0  0  0
   19.9292   20.9142   24.0918 H   0  0  0  0  0  0  0  0  0  0  0  0
   20.0896   18.7923   24.5327 C   0  0  0  0  0  0  0  0  0  0  0  0
   20.8094   17.9775   24.3787 H   0  0  0  0  0  0  0  0  0  0  0  0
   19.1830   18.5437   23.9671 H   0  0  0  0  0  0  0  0  0  0  0  0
   19.7337   18.8848   26.0269 C   0  0  0  0  0  0  0  0  0  0  0  0
   20.6316   19.1180   26.6056 H   0  0  0  0  0  0  0  0  0  0  0  0
   19.0061   19.6859   26.1831 H   0  0  0  0  0  0  0  0  0  0  0  0
   19.1430   17.6027   26.5771 N   0  3  0  0  0  0  0  0  0  0  0  0
   19.7908   16.8133   26.4853 H   0  0  0  0  0  0  0  0  0  0  0  0
   18.2779   17.3416   26.0929 H   0  0  0  0  0  0  0  0  0  0  0  0
   18.9138   17.6861   27.5736 H   0  0  0  0  0  0  0  0  0  0  0  0
  1  2  1  0  0  0  0
  1  3  1  0  0  0  0
  1  4  1  0  0  0  0
  1  5  1  0  0  0  0
  5  6  1  0  0  0  0
  5  7  1  0  0  0  0
  5  8  1  0  0  0  0
  8  9  1  0  0  0  0
  8 10  1  0  0  0  0
  8 11  1  0  0  0  0
 11 12  1  0  0  0  0
 11 13  1  0  0  0  0
 11 14  1  0  0  0  0
 14 15  1  0  0  0  0
 14 16  1  0  0  0  0
 14 17  1  0  0  0  0
 17 18  1  0  0  0  0
 17 19  1  0  0  0  0
 17 20  1  0  0  0  0
 20 21  1  0  0  0  0
 20 22  1  0  0  0  0
 20 23  1  0  0  0  0
 23 24  1  0  0  0  0
 23 25  1  0  0  0  0
 23 26  1  0  0  0  0
M  END
> <VM2 Rank>
109

> <Conf_Id>
991

> <Probability>
0.03

> <Sum Probability>
99.28

> <Delta G>
3.395

> <G>
51.656

> <E>
18.928

> <-TS>
32.728

> <U+W>
-2.534

> <U>
51.184

> <W>
-53.717

> <W(PB)>
-56.005

> <W(SA)>
2.288

> <Valence>
5.187

> <Coulomb>
45.355

> <VdW>
0.642

> <VdW6>
-7.428

> <VdW12>
8.070

> <Bond>
0.216

> <Angle>
1.173

> <Pdih>
3.798

> <Idih>
0.000

> <Tether>
0.000

$$$$
VeraChem MOL file


 26 25  0  0  0  0  0  0  0  0999 V2000     
   20.4756   19.2680   19.3656 C   0  0  0  0  0  0  0  0  0  0  0  0
   21.0645   18.3964   19.0515 H   0  0  0  0  0  0  0  0  0  0  0  0
   19.4538   19.1462   18.9830 H   0  0  0  0  0  0  0  0  0  0  0  0
   20.9099   20.1569   18.8900 H   0  0  0  0  0  0  0  0  0  0  0  0
   20.4783   19.4157   20.9019 C   0  0  0  0  0  0  0  0  0  0  0  0
   19.9150   20.3181   21.1744 H   0  0  0  0  0  0  0  0  0  0  0  0
   21.5093   19.5656   21.2515 H   0  0  0  0  0  0  0  0  0  0  0  0
   19.8665   18.1753   21.5950 C   0  0  0  0  0  0  0  0  0  0  0  0
   18.8209   18.0535   21.2803 H   0  0  0  0  0  0  0  0  0  0  0  0
   20.3974   17.2762   21.2529 H   0  0  0  0  0  0  0  0  0  0  0  0
   19.9405   18.2322   23.1406 C   0  0  0  0  0  0  0  0  0  0  0  0
   20.9919   18.3246   23.4401 H   0  0  0  0  0  0  0  0  0  0  0  0
   19.5762   17.2761   23.5412 H   0  0  0  0  0  0  0  0  0  0  0  0
   19.1120   19.3896   23.7520 C   0  0  0  0  0  0  0  0  0  0  0  0
   19.5761   20.3531   23.5024 H   0  0  0  0  0  0  0  0  0  0  0  0
   18.1162   19.3976   23.2876 H   0  0  0  0  0  0  0  0  0  0  0  0
   18.9272   19.3004   25.2884 C   0  0  0  0  0  0  0  0  0  0  0  0
   18.4174   18.3663   25.5594 H   0  0  0  0  0  0  0  0  0  0  0  0
   18.2525   20.1112   25.5938 H   0  0  0  0  0  0  0  0  0  0  0  0
   20.2319   19.4456   26.0990 C   0  0  0  0  0  0  0  0  0  0  0  0
   20.8574   20.2268   25.6586 H   0  0  0  0  0  0  0  0  0  0  0  0
   19.9843   19.7457   27.1208 H   0  0  0  0  0  0  0  0  0  0  0  0
   21.0490   18.1723   26.1984 N   0  3  0  0  0  0  0  0  0  0  0  0
   21.9060   18.3123   26.7445 H   0  0  0  0  0  0  0  0  0  0  0  0
   21.3307   17.8287   25.2762 H   0  0  0  0  0  0  0  0  0  0  0  0
   20.5238   17.4195   26.6551 H   0  0  0  0  0  0  0  0  0  0  0  0
  1  2  1  0  0  0  0
  1  3  1  0  0  0  0
  1  4  1  0  0  0  0
  1  5  1  0  0  0  0
  5  6  1  0  0  0  0
  5  7  1  0  0  0  0
  5  8  1  0  0  0  0
  8  9  1  0  0  0  0
  8 10  1  0  0  0  0
  8 11  1  0  0  0  0
 11 12  1  0  0  0  0
 11 13  1  0  0  0  0
 11 14  1  0  0  0  0
 14 15  1  0  0  0  0
 14 16  1  0  0  0  0
 14 17  1  0  0  0  0
 17 18  1  0  0  0  0
 17 19  1  0  0  0  0
 17 20  1  0  0  0  0
 20 21  1  0  0  0  0
 20 22  1  0  0  0  0
 20 23  1  0  0  0  0
 23 24  1  0  0  0  0
 23 25  1  0  0  0  0
 23 26  1  0  0  0  0
M  END
> <VM2 Rank>
110

> <Conf_Id>
815

> <Probability>
0.02

> <Sum Probability>
99.31

> <Delta G>
3.413

> <G>
51.674

> <E>
19.031

> <-TS>
32.643

> <U+W>
-2.431

> <U>
51.400

> <W>
-53.831

> <W(PB)>
-56.115

> <W(SA)>
2.284

> <Valence>
4.232

> <Coulomb>
46.514

> <VdW>
0.653

> <VdW6>
-7.962

> <VdW12>
8.616

> <Bond>
0.225

> <Angle>
1.150

> <Pdih>
2.857

> <Idih>
0.000

> <Tether>
0.000

$$$$
VeraChem MOL file


 26 25  0  0  0  0  0  0  0  0999 V2000     
   21.2753   19.6498   19.9813 C   0  0  0  0  0  0  0  0  0  0  0  0
   21.1398   18.9224   19.1703 H   0  0  0  0  0  0  0  0  0  0  0  0
   20.7489   20.5726   19.7046 H   0  0  0  0  0  0  0  0  0  0  0  0
   22.3462   19.8805   20.0510 H   0  0  0  0  0  0  0  0  0  0  0  0
   20.7497   19.0923   21.3212 C   0  0  0  0  0  0  0  0  0  0  0  0
   20.9383   19.8325   22.1099 H   0  0  0  0  0  0  0  0  0  0  0  0
   21.3121   18.1857   21.5844 H   0  0  0  0  0  0  0  0  0  0  0  0
   19.2395   18.7706   21.2518 C   0  0  0  0  0  0  0  0  0  0  0  0
   18.6769   19.6981   21.0769 H   0  0  0  0  0  0  0  0  0  0  0  0
   19.0512   18.1306   20.3788 H   0  0  0  0  0  0  0  0  0  0  0  0
   18.6769   18.0558   22.5076 C   0  0  0  0  0  0  0  0  0  0  0  0
   19.1580   17.0758   22.6317 H   0  0  0  0  0  0  0  0  0  0  0  0
   17.6160   17.8415   22.3173 H   0  0  0  0  0  0  0  0  0  0  0  0
   18.7754   18.8751   23.8210 C   0  0  0  0  0  0  0  0  0  0  0  0
   18.7507   19.9508   23.5982 H   0  0  0  0  0  0  0  0  0  0  0  0
   17.8812   18.6707   24.4263 H   0  0  0  0  0  0  0  0  0  0  0  0
   20.0205   18.5281   24.6721 C   0  0  0  0  0  0  0  0  0  0  0  0
   20.9394   18.6904   24.0976 H   0  0  0  0  0  0  0  0  0  0  0  0
   19.9969   17.4630   24.9385 H   0  0  0  0  0  0  0  0  0  0  0  0
   20.0722   19.3718   25.9579 C   0  0  0  0  0  0  0  0  0  0  0  0
   20.1131   20.4335   25.6999 H   0  0  0  0  0  0  0  0  0  0  0  0
   19.1700   19.1961   26.5500 H   0  0  0  0  0  0  0  0  0  0  0  0
   21.2715   19.0556   26.8281 N   0  3  0  0  0  0  0  0  0  0  0  0
   22.1556   19.2273   26.3382 H   0  0  0  0  0  0  0  0  0  0  0  0
   21.2778   18.0752   27.1283 H   0  0  0  0  0  0  0  0  0  0  0  0
   21.2858   19.6281   27.6792 H   0  0  0  0  0  0  0  0  0  0  0  0
  1  2  1  0  0  0  0
  1  3  1  0  0  0  0
  1  4  1  0  0  0  0
  1  5  1  0  0  0  0
  5  6  1  0  0  0  0
  5  7  1  0  0  0  0
  5  8  1  0  0  0  0
  8  9  1  0  0  0  0
  8 10  1  0  0  0  0
  8 11  1  0  0  0  0
 11 12  1  0  0  0  0
 11 13  1  0  0  0  0
 11 14  1  0  0  0  0
 14 15  1  0  0  0  0
 14 16  1  0  0  0  0
 14 17  1  0  0  0  0
 17 18  1  0  0  0  0
 17 19  1  0  0  0  0
 17 20  1  0  0  0  0
 20 21  1  0  0  0  0
 20 22  1  0  0  0  0
 20 23  1  0  0  0  0
 23 24  1  0  0  0  0
 23 25  1  0  0  0  0
 23 26  1  0  0  0  0
M  END
> <VM2 Rank>
111

> <Conf_Id>
743

> <Probability>
0.02

> <Sum Probability>
99.33

> <Delta G>
3.421

> <G>
51.682

> <E>
18.960

> <-TS>
32.722

> <U+W>
-2.502

> <U>
51.214

> <W>
-53.716

> <W(PB)>
-56.009

> <W(SA)>
2.294

> <Valence>
5.193

> <Coulomb>
45.364

> <VdW>
0.656

> <VdW6>
-7.405

> <VdW12>
8.062

> <Bond>
0.216

> <Angle>
1.176

> <Pdih>
3.800

> <Idih>
0.000

> <Tether>
0.000

$$$$
VeraChem MOL file


 26 25  0  0  0  0  0  0  0  0999 V2000     
   20.0259   17.9126   20.0021 C   0  0  0  0  0  0  0  0  0  0  0  0
   19.7536   17.7955   18.9452 H   0  0  0  0  0  0  0  0  0  0  0  0
   21.1044   18.1095   20.0454 H   0  0  0  0  0  0  0  0  0  0  0  0
   19.8297   16.9579   20.5072 H   0  0  0  0  0  0  0  0  0  0  0  0
   19.2142   19.0592   20.6463 C   0  0  0  0  0  0  0  0  0  0  0  0
   18.1438   18.8739   20.4796 H   0  0  0  0  0  0  0  0  0  0  0  0
   19.4449   20.0059   20.1380 H   0  0  0  0  0  0  0  0  0  0  0  0
   19.4631   19.2068   22.1666 C   0  0  0  0  0  0  0  0  0  0  0  0
   18.7843   19.9763   22.5593 H   0  0  0  0  0  0  0  0  0  0  0  0
   19.1968   18.2640   22.6614 H   0  0  0  0  0  0  0  0  0  0  0  0
   20.9233   19.5883   22.5134 C   0  0  0  0  0  0  0  0  0  0  0  0
   21.2388   20.4159   21.8633 H   0  0  0  0  0  0  0  0  0  0  0  0
   21.5903   18.7467   22.2837 H   0  0  0  0  0  0  0  0  0  0  0  0
   21.1419   20.0209   23.9865 C   0  0  0  0  0  0  0  0  0  0  0  0
   22.1937   20.3213   24.0904 H   0  0  0  0  0  0  0  0  0  0  0  0
   20.5525   20.9216   24.2078 H   0  0  0  0  0  0  0  0  0  0  0  0
   20.8492   18.9224   25.0395 C   0  0  0  0  0  0  0  0  0  0  0  0
   21.4552   19.1250   25.9326 H   0  0  0  0  0  0  0  0  0  0  0  0
   21.1709   17.9426   24.6621 H   0  0  0  0  0  0  0  0  0  0  0  0
   19.3695   18.8719   25.4675 C   0  0  0  0  0  0  0  0  0  0  0  0
   19.0743   19.8411   25.8784 H   0  0  0  0  0  0  0  0  0  0  0  0
   18.7330   18.6585   24.6070 H   0  0  0  0  0  0  0  0  0  0  0  0
   19.0940   17.8169   26.5192 N   0  3  0  0  0  0  0  0  0  0  0  0
   19.6385   17.9775   27.3730 H   0  0  0  0  0  0  0  0  0  0  0  0
   19.3260   16.8754   26.1862 H   0  0  0  0  0  0  0  0  0  0  0  0
   18.1058   17.8017   26.7942 H   0  0  0  0  0  0  0  0  0  0  0  0
  1  2  1  0  0  0  0
  1  3  1  0  0  0  0
  1  4  1  0  0  0  0
  1  5  1  0  0  0  0
  5  6  1  0  0  0  0
  5  7  1  0  0  0  0
  5  8  1  0  0  0  0
  8  9  1  0  0  0  0
  8 10  1  0  0  0  0
  8 11  1  0  0  0  0
 11 12  1  0  0  0  0
 11 13  1  0  0  0  0
 11 14  1  0  0  0  0
 14 15  1  0  0  0  0
 14 16  1  0  0  0  0
 14 17  1  0  0  0  0
 17 18  1  0  0  0  0
 17 19  1  0  0  0  0
 17 20  1  0  0  0  0
 20 21  1  0  0  0  0
 20 22  1  0  0  0  0
 20 23  1  0  0  0  0
 23 24  1  0  0  0  0
 23 25  1  0  0  0  0
 23 26  1  0  0  0  0
M  END
> <VM2 Rank>
112

> <Conf_Id>
284

> <Probability>
0.02

> <Sum Probability>
99.35

> <Delta G>
3.436

> <G>
51.697

> <E>
18.882

> <-TS>
32.815

> <U+W>
-2.580

> <U>
51.328

> <W>
-53.907

> <W(PB)>
-56.205

> <W(SA)>
2.297

> <Valence>
4.992

> <Coulomb>
45.664

> <VdW>
0.672

> <VdW6>
-8.113

> <VdW12>
8.785

> <Bond>
0.231

> <Angle>
1.333

> <Pdih>
3.428

> <Idih>
0.000

> <Tether>
0.000

$$$$
VeraChem MOL file


 26 25  0  0  0  0  0  0  0  0999 V2000     
   19.9725   18.9640   19.2274 C   0  0  0  0  0  0  0  0  0  0  0  0
   19.3942   18.0753   18.9428 H   0  0  0  0  0  0  0  0  0  0  0  0
   19.3359   19.8468   19.0838 H   0  0  0  0  0  0  0  0  0  0  0  0
   20.8235   19.0465   18.5388 H   0  0  0  0  0  0  0  0  0  0  0  0
   20.4612   18.8646   20.6881 C   0  0  0  0  0  0  0  0  0  0  0  0
   21.0692   19.7487   20.9195 H   0  0  0  0  0  0  0  0  0  0  0  0
   21.1179   17.9897   20.7931 H   0  0  0  0  0  0  0  0  0  0  0  0
   19.2774   18.7512   21.6781 C   0  0  0  0  0  0  0  0  0  0  0  0
   18.6495   19.6505   21.6120 H   0  0  0  0  0  0  0  0  0  0  0  0
   18.6411   17.9090   21.3727 H   0  0  0  0  0  0  0  0  0  0  0  0
   19.7120   18.5263   23.1476 C   0  0  0  0  0  0  0  0  0  0  0  0
   20.3655   17.6451   23.2065 H   0  0  0  0  0  0  0  0  0  0  0  0
   18.8103   18.2932   23.7266 H   0  0  0  0  0  0  0  0  0  0  0  0
   20.4184   19.7525   23.7788 C   0  0  0  0  0  0  0  0  0  0  0  0
   21.2684   20.0493   23.1518 H   0  0  0  0  0  0  0  0  0  0  0  0
   19.7291   20.6080   23.7857 H   0  0  0  0  0  0  0  0  0  0  0  0
   20.9560   19.5131   25.2132 C   0  0  0  0  0  0  0  0  0  0  0  0
   21.4996   20.4156   25.5226 H   0  0  0  0  0  0  0  0  0  0  0  0
   21.6956   18.7014   25.2138 H   0  0  0  0  0  0  0  0  0  0  0  0
   19.8666   19.2371   26.2703 C   0  0  0  0  0  0  0  0  0  0  0  0
   20.2571   19.4944   27.2586 H   0  0  0  0  0  0  0  0  0  0  0  0
   18.9932   19.8656   26.0769 H   0  0  0  0  0  0  0  0  0  0  0  0
   19.4170   17.7904   26.3374 N   0  3  0  0  0  0  0  0  0  0  0  0
   19.0296   17.4699   25.4457 H   0  0  0  0  0  0  0  0  0  0  0  0
   18.6925   17.6502   27.0502 H   0  0  0  0  0  0  0  0  0  0  0  0
   20.1926   17.1629   26.5734 H   0  0  0  0  0  0  0  0  0  0  0  0
  1  2  1  0  0  0  0
  1  3  1  0  0  0  0
  1  4  1  0  0  0  0
  1  5  1  0  0  0  0
  5  6  1  0  0  0  0
  5  7  1  0  0  0  0
  5  8  1  0  0  0  0
  8  9  1  0  0  0  0
  8 10  1  0  0  0  0
  8 11  1  0  0  0  0
 11 12  1  0  0  0  0
 11 13  1  0  0  0  0
 11 14  1  0  0  0  0
 14 15  1  0  0  0  0
 14 16  1  0  0  0  0
 14 17  1  0  0  0  0
 17 18  1  0  0  0  0
 17 19  1  0  0  0  0
 17 20  1  0  0  0  0
 20 21  1  0  0  0  0
 20 22  1  0  0  0  0
 20 23  1  0  0  0  0
 23 24  1  0  0  0  0
 23 25  1  0  0  0  0
 23 26  1  0  0  0  0
M  END
> <VM2 Rank>
113

> <Conf_Id>
1100

> <Probability>
0.02

> <Sum Probability>
99.38

> <Delta G>
3.447

> <G>
51.709

> <E>
19.203

> <-TS>
32.506

> <U+W>
-2.259

> <U>
51.605

> <W>
-53.864

> <W(PB)>
-56.158

> <W(SA)>
2.294

> <Valence>
4.451

> <Coulomb>
46.417

> <VdW>
0.736

> <VdW6>
-7.820

> <VdW12>
8.556

> <Bond>
0.235

> <Angle>
1.295

> <Pdih>
2.922

> <Idih>
0.000

> <Tether>
0.000

$$$$
VeraChem MOL file


 26 25  0  0  0  0  0  0  0  0999 V2000     
   20.0282   17.6558   20.1500 C   0  0  0  0  0  0  0  0  0  0  0  0
   19.9923   16.9685   21.0043 H   0  0  0  0  0  0  0  0  0  0  0  0
   18.9985   17.8621   19.8303 H   0  0  0  0  0  0  0  0  0  0  0  0
   20.5365   17.1344   19.3286 H   0  0  0  0  0  0  0  0  0  0  0  0
   20.7728   18.9633   20.5033 C   0  0  0  0  0  0  0  0  0  0  0  0
   20.8896   19.5622   19.5893 H   0  0  0  0  0  0  0  0  0  0  0  0
   21.7893   18.7281   20.8482 H   0  0  0  0  0  0  0  0  0  0  0  0
   20.0432   19.8187   21.5672 C   0  0  0  0  0  0  0  0  0  0  0  0
   20.5818   20.7699   21.6794 H   0  0  0  0  0  0  0  0  0  0  0  0
   19.0376   20.0735   21.2053 H   0  0  0  0  0  0  0  0  0  0  0  0
   19.9424   19.1291   22.9489 C   0  0  0  0  0  0  0  0  0  0  0  0
   20.9486   18.8294   23.2663 H   0  0  0  0  0  0  0  0  0  0  0  0
   19.3357   18.2178   22.8663 H   0  0  0  0  0  0  0  0  0  0  0  0
   19.3157   20.0651   24.0094 C   0  0  0  0  0  0  0  0  0  0  0  0
   19.9811   20.9225   24.1809 H   0  0  0  0  0  0  0  0  0  0  0  0
   18.3798   20.4792   23.6092 H   0  0  0  0  0  0  0  0  0  0  0  0
   18.9991   19.3794   25.3632 C   0  0  0  0  0  0  0  0  0  0  0  0
   18.2837   18.5590   25.2183 H   0  0  0  0  0  0  0  0  0  0  0  0
   18.4898   20.1139   26.0012 H   0  0  0  0  0  0  0  0  0  0  0  0
   20.2382   18.8711   26.1292 C   0  0  0  0  0  0  0  0  0  0  0  0
   21.0530   19.5945   26.0391 H   0  0  0  0  0  0  0  0  0  0  0  0
   19.9864   18.7744   27.1888 H   0  0  0  0  0  0  0  0  0  0  0  0
   20.7415   17.5165   25.6698 N   0  3  0  0  0  0  0  0  0  0  0  0
   20.0297   16.7880   25.7871 H   0  0  0  0  0  0  0  0  0  0  0  0
   21.5656   17.2169   26.2022 H   0  0  0  0  0  0  0  0  0  0  0  0
   21.0064   17.5247   24.6810 H   0  0  0  0  0  0  0  0  0  0  0  0
  1  2  1  0  0  0  0
  1  3  1  0  0  0  0
  1  4  1  0  0  0  0
  1  5  1  0  0  0  0
  5  6  1  0  0  0  0
  5  7  1  0  0  0  0
  5  8  1  0  0  0  0
  8  9  1  0  0  0  0
  8 10  1  0  0  0  0
  8 11  1  0  0  0  0
 11 12  1  0  0  0  0
 11 13  1  0  0  0  0
 11 14  1  0  0  0  0
 14 15  1  0  0  0  0
 14 16  1  0  0  0  0
 14 17  1  0  0  0  0
 17 18  1  0  0  0  0
 17 19  1  0  0  0  0
 17 20  1  0  0  0  0
 20 21  1  0  0  0  0
 20 22  1  0  0  0  0
 20 23  1  0  0  0  0
 23 24  1  0  0  0  0
 23 25  1  0  0  0  0
 23 26  1  0  0  0  0
M  END
> <VM2 Rank>
114

> <Conf_Id>
523

> <Probability>
0.02

> <Sum Probability>
99.40

> <Delta G>
3.495

> <G>
51.756

> <E>
19.127

> <-TS>
32.629

> <U+W>
-2.335

> <U>
51.554

> <W>
-53.888

> <W(PB)>
-56.151

> <W(SA)>
2.263

> <Valence>
4.249

> <Coulomb>
46.644

> <VdW>
0.661

> <VdW6>
-7.942

> <VdW12>
8.603

> <Bond>
0.222

> <Angle>
1.190

> <Pdih>
2.837

> <Idih>
0.000

> <Tether>
0.000

$$$$
VeraChem MOL file


 26 25  0  0  0  0  0  0  0  0999 V2000     
   18.9908   19.9252   20.6636 C   0  0  0  0  0  0  0  0  0  0  0  0
   18.3325   19.4244   21.3841 H   0  0  0  0  0  0  0  0  0  0  0  0
   19.3637   20.8535   21.1155 H   0  0  0  0  0  0  0  0  0  0  0  0
   18.3780   20.1971   19.7945 H   0  0  0  0  0  0  0  0  0  0  0  0
   20.1558   19.0062   20.2358 C   0  0  0  0  0  0  0  0  0  0  0  0
   20.6842   19.4762   19.3946 H   0  0  0  0  0  0  0  0  0  0  0  0
   19.7507   18.0603   19.8500 H   0  0  0  0  0  0  0  0  0  0  0  0
   21.1834   18.7119   21.3584 C   0  0  0  0  0  0  0  0  0  0  0  0
   21.9820   18.0966   20.9214 H   0  0  0  0  0  0  0  0  0  0  0  0
   21.6698   19.6435   21.6788 H   0  0  0  0  0  0  0  0  0  0  0  0
   20.6073   17.9554   22.5838 C   0  0  0  0  0  0  0  0  0  0  0  0
   21.3784   17.2704   22.9627 H   0  0  0  0  0  0  0  0  0  0  0  0
   19.7651   17.3220   22.2728 H   0  0  0  0  0  0  0  0  0  0  0  0
   20.1827   18.8907   23.7424 C   0  0  0  0  0  0  0  0  0  0  0  0
   21.0534   19.4750   24.0685 H   0  0  0  0  0  0  0  0  0  0  0  0
   19.4328   19.6122   23.3969 H   0  0  0  0  0  0  0  0  0  0  0  0
   19.6094   18.0948   24.9387 C   0  0  0  0  0  0  0  0  0  0  0  0
   20.3643   17.3961   25.3231 H   0  0  0  0  0  0  0  0  0  0  0  0
   18.7629   17.4845   24.5965 H   0  0  0  0  0  0  0  0  0  0  0  0
   19.1223   19.0061   26.0817 C   0  0  0  0  0  0  0  0  0  0  0  0
   18.3748   19.7071   25.7006 H   0  0  0  0  0  0  0  0  0  0  0  0
   18.6525   18.3952   26.8574 H   0  0  0  0  0  0  0  0  0  0  0  0
   20.2295   19.8086   26.7365 N   0  3  0  0  0  0  0  0  0  0  0  0
   20.6910   20.4340   26.0689 H   0  0  0  0  0  0  0  0  0  0  0  0
   20.9539   19.2027   27.1354 H   0  0  0  0  0  0  0  0  0  0  0  0
   19.8746   20.3940   27.5005 H   0  0  0  0  0  0  0  0  0  0  0  0
  1  2  1  0  0  0  0
  1  3  1  0  0  0  0
  1  4  1  0  0  0  0
  1  5  1  0  0  0  0
  5  6  1  0  0  0  0
  5  7  1  0  0  0  0
  5  8  1  0  0  0  0
  8  9  1  0  0  0  0
  8 10  1  0  0  0  0
  8 11  1  0  0  0  0
 11 12  1  0  0  0  0
 11 13  1  0  0  0  0
 11 14  1  0  0  0  0
 14 15  1  0  0  0  0
 14 16  1  0  0  0  0
 14 17  1  0  0  0  0
 17 18  1  0  0  0  0
 17 19  1  0  0  0  0
 17 20  1  0  0  0  0
 20 21  1  0  0  0  0
 20 22  1  0  0  0  0
 20 23  1  0  0  0  0
 23 24  1  0  0  0  0
 23 25  1  0  0  0  0
 23 26  1  0  0  0  0
M  END
> <VM2 Rank>
115

> <Conf_Id>
214

> <Probability>
0.02

> <Sum Probability>
99.42

> <Delta G>
3.525

> <G>
51.787

> <E>
18.982

> <-TS>
32.805

> <U+W>
-2.480

> <U>
51.297

> <W>
-53.777

> <W(PB)>
-56.034

> <W(SA)>
2.257

> <Valence>
5.228

> <Coulomb>
45.276

> <VdW>
0.793

> <VdW6>
-7.860

> <VdW12>
8.653

> <Bond>
0.234

> <Angle>
1.197

> <Pdih>
3.797

> <Idih>
0.000

> <Tether>
0.000

$$$$
VeraChem MOL file


 26 25  0  0  0  0  0  0  0  0999 V2000     
   21.3144   18.5027   20.1931 C   0  0  0  0  0  0  0  0  0  0  0  0
   21.5456   19.5393   19.9155 H   0  0  0  0  0  0  0  0  0  0  0  0
   21.9195   18.2376   21.0688 H   0  0  0  0  0  0  0  0  0  0  0  0
   21.6310   17.8550   19.3654 H   0  0  0  0  0  0  0  0  0  0  0  0
   19.8043   18.3255   20.4710 C   0  0  0  0  0  0  0  0  0  0  0  0
   19.6037   17.2888   20.7753 H   0  0  0  0  0  0  0  0  0  0  0  0
   19.2512   18.4832   19.5345 H   0  0  0  0  0  0  0  0  0  0  0  0
   19.2569   19.3009   21.5410 C   0  0  0  0  0  0  0  0  0  0  0  0
   19.4360   20.3359   21.2186 H   0  0  0  0  0  0  0  0  0  0  0  0
   18.1664   19.1793   21.5986 H   0  0  0  0  0  0  0  0  0  0  0  0
   19.8652   19.0784   22.9463 C   0  0  0  0  0  0  0  0  0  0  0  0
   20.9446   19.2776   22.9201 H   0  0  0  0  0  0  0  0  0  0  0  0
   19.7294   18.0264   23.2256 H   0  0  0  0  0  0  0  0  0  0  0  0
   19.2034   19.9912   24.0057 C   0  0  0  0  0  0  0  0  0  0  0  0
   19.2104   21.0264   23.6370 H   0  0  0  0  0  0  0  0  0  0  0  0
   18.1462   19.7140   24.1196 H   0  0  0  0  0  0  0  0  0  0  0  0
   19.8944   19.9692   25.3932 C   0  0  0  0  0  0  0  0  0  0  0  0
   19.3908   20.7074   26.0314 H   0  0  0  0  0  0  0  0  0  0  0  0
   20.9360   20.3062   25.3071 H   0  0  0  0  0  0  0  0  0  0  0  0
   19.8377   18.6072   26.1157 C   0  0  0  0  0  0  0  0  0  0  0  0
   19.9762   18.7675   27.1883 H   0  0  0  0  0  0  0  0  0  0  0  0
   18.8570   18.1478   25.9655 H   0  0  0  0  0  0  0  0  0  0  0  0
   20.9046   17.6239   25.6751 N   0  3  0  0  0  0  0  0  0  0  0  0
   20.8389   17.4144   24.6751 H   0  0  0  0  0  0  0  0  0  0  0  0
   20.8304   16.7324   26.1773 H   0  0  0  0  0  0  0  0  0  0  0  0
   21.8482   17.9859   25.8477 H   0  0  0  0  0  0  0  0  0  0  0  0
  1  2  1  0  0  0  0
  1  3  1  0  0  0  0
  1  4  1  0  0  0  0
  1  5  1  0  0  0  0
  5  6  1  0  0  0  0
  5  7  1  0  0  0  0
  5  8  1  0  0  0  0
  8  9  1  0  0  0  0
  8 10  1  0  0  0  0
  8 11  1  0  0  0  0
 11 12  1  0  0  0  0
 11 13  1  0  0  0  0
 11 14  1  0  0  0  0
 14 15  1  0  0  0  0
 14 16  1  0  0  0  0
 14 17  1  0  0  0  0
 17 18  1  0  0  0  0
 17 19  1  0  0  0  0
 17 20  1  0  0  0  0
 20 21  1  0  0  0  0
 20 22  1  0  0  0  0
 20 23  1  0  0  0  0
 23 24  1  0  0  0  0
 23 25  1  0  0  0  0
 23 26  1  0  0  0  0
M  END
> <VM2 Rank>
116

> <Conf_Id>
1326

> <Probability>
0.02

> <Sum Probability>
99.44

> <Delta G>
3.546

> <G>
51.808

> <E>
19.179

> <-TS>
32.629

> <U+W>
-2.283

> <U>
51.554

> <W>
-53.837

> <W(PB)>
-56.125

> <W(SA)>
2.288

> <Valence>
4.249

> <Coulomb>
46.644

> <VdW>
0.661

> <VdW6>
-7.942

> <VdW12>
8.603

> <Bond>
0.222

> <Angle>
1.189

> <Pdih>
2.837

> <Idih>
0.000

> <Tether>
0.000

$$$$
VeraChem MOL file


 26 25  0  0  0  0  0  0  0  0999 V2000     
   18.8429   18.0887   20.3480 C   0  0  0  0  0  0  0  0  0  0  0  0
   18.1253   18.9165   20.2783 H   0  0  0  0  0  0  0  0  0  0  0  0
   18.6993   17.4455   19.4701 H   0  0  0  0  0  0  0  0  0  0  0  0
   18.5970   17.4933   21.2357 H   0  0  0  0  0  0  0  0  0  0  0  0
   20.2953   18.6149   20.4003 C   0  0  0  0  0  0  0  0  0  0  0  0
   20.5331   19.0924   19.4394 H   0  0  0  0  0  0  0  0  0  0  0  0
   20.9910   17.7705   20.5041 H   0  0  0  0  0  0  0  0  0  0  0  0
   20.5400   19.6378   21.5360 C   0  0  0  0  0  0  0  0  0  0  0  0
   21.5568   20.0399   21.4281 H   0  0  0  0  0  0  0  0  0  0  0  0
   19.8564   20.4897   21.4161 H   0  0  0  0  0  0  0  0  0  0  0  0
   20.3807   19.0359   22.9528 C   0  0  0  0  0  0  0  0  0  0  0  0
   21.0344   18.1586   23.0525 H   0  0  0  0  0  0  0  0  0  0  0  0
   19.3473   18.6950   23.0828 H   0  0  0  0  0  0  0  0  0  0  0  0
   20.7224   20.0677   24.0539 C   0  0  0  0  0  0  0  0  0  0  0  0
   21.7023   20.5134   23.8335 H   0  0  0  0  0  0  0  0  0  0  0  0
   19.9968   20.8922   24.0205 H   0  0  0  0  0  0  0  0  0  0  0  0
   20.7723   19.4823   25.4884 C   0  0  0  0  0  0  0  0  0  0  0  0
   21.0950   20.2829   26.1672 H   0  0  0  0  0  0  0  0  0  0  0  0
   21.5416   18.7017   25.5563 H   0  0  0  0  0  0  0  0  0  0  0  0
   19.4237   18.9416   26.0073 C   0  0  0  0  0  0  0  0  0  0  0  0
   19.4425   18.9284   27.1004 H   0  0  0  0  0  0  0  0  0  0  0  0
   18.6120   19.6019   25.6902 H   0  0  0  0  0  0  0  0  0  0  0  0
   19.1038   17.5301   25.5545 N   0  3  0  0  0  0  0  0  0  0  0  0
   19.8086   16.8596   25.8782 H   0  0  0  0  0  0  0  0  0  0  0  0
   19.0636   17.4581   24.5341 H   0  0  0  0  0  0  0  0  0  0  0  0
   18.1990   17.2106   25.9174 H   0  0  0  0  0  0  0  0  0  0  0  0
  1  2  1  0  0  0  0
  1  3  1  0  0  0  0
  1  4  1  0  0  0  0
  1  5  1  0  0  0  0
  5  6  1  0  0  0  0
  5  7  1  0  0  0  0
  5  8  1  0  0  0  0
  8  9  1  0  0  0  0
  8 10  1  0  0  0  0
  8 11  1  0  0  0  0
 11 12  1  0  0  0  0
 11 13  1  0  0  0  0
 11 14  1  0  0  0  0
 14 15  1  0  0  0  0
 14 16  1  0  0  0  0
 14 17  1  0  0  0  0
 17 18  1  0  0  0  0
 17 19  1  0  0  0  0
 17 20  1  0  0  0  0
 20 21  1  0  0  0  0
 20 22  1  0  0  0  0
 20 23  1  0  0  0  0
 23 24  1  0  0  0  0
 23 25  1  0  0  0  0
 23 26  1  0  0  0  0
M  END
> <VM2 Rank>
117

> <Conf_Id>
654

> <Probability>
0.02

> <Sum Probability>
99.46

> <Delta G>
3.569

> <G>
51.830

> <E>
19.221

> <-TS>
32.609

> <U+W>
-2.241

> <U>
51.693

> <W>
-53.933

> <W(PB)>
-56.181

> <W(SA)>
2.248

> <Valence>
4.262

> <Coulomb>
46.777

> <VdW>
0.653

> <VdW6>
-7.961

> <VdW12>
8.615

> <Bond>
0.225

> <Angle>
1.192

> <Pdih>
2.845

> <Idih>
0.000

> <Tether>
0.000

$$$$
VeraChem MOL file


 26 25  0  0  0  0  0  0  0  0999 V2000     
   19.3989   20.5647   20.6403 C   0  0  0  0  0  0  0  0  0  0  0  0
   18.3968   20.7605   20.2370 H   0  0  0  0  0  0  0  0  0  0  0  0
   19.6440   21.3732   21.3413 H   0  0  0  0  0  0  0  0  0  0  0  0
   20.1117   20.6071   19.8064 H   0  0  0  0  0  0  0  0  0  0  0  0
   19.4452   19.1905   21.3408 C   0  0  0  0  0  0  0  0  0  0  0  0
   19.1650   18.4060   20.6241 H   0  0  0  0  0  0  0  0  0  0  0  0
   18.6922   19.1717   22.1389 H   0  0  0  0  0  0  0  0  0  0  0  0
   20.8503   18.8912   21.9151 C   0  0  0  0  0  0  0  0  0  0  0  0
   21.5821   18.9415   21.0971 H   0  0  0  0  0  0  0  0  0  0  0  0
   21.1480   19.6732   22.6246 H   0  0  0  0  0  0  0  0  0  0  0  0
   20.9646   17.4973   22.5815 C   0  0  0  0  0  0  0  0  0  0  0  0
   22.0048   17.3464   22.9014 H   0  0  0  0  0  0  0  0  0  0  0  0
   20.7748   16.7286   21.8197 H   0  0  0  0  0  0  0  0  0  0  0  0
   20.0272   17.2337   23.7913 C   0  0  0  0  0  0  0  0  0  0  0  0
   18.9741   17.2649   23.4815 H   0  0  0  0  0  0  0  0  0  0  0  0
   20.2024   16.1998   24.1198 H   0  0  0  0  0  0  0  0  0  0  0  0
   20.2565   18.1638   25.0097 C   0  0  0  0  0  0  0  0  0  0  0  0
   21.3284   18.3696   25.1299 H   0  0  0  0  0  0  0  0  0  0  0  0
   19.9393   17.6334   25.9174 H   0  0  0  0  0  0  0  0  0  0  0  0
   19.4653   19.4835   24.9274 C   0  0  0  0  0  0  0  0  0  0  0  0
   19.7619   20.0483   24.0418 H   0  0  0  0  0  0  0  0  0  0  0  0
   18.3967   19.2651   24.8508 H   0  0  0  0  0  0  0  0  0  0  0  0
   19.6731   20.3744   26.1349 N   0  3  0  0  0  0  0  0  0  0  0  0
   20.6569   20.6392   26.2495 H   0  0  0  0  0  0  0  0  0  0  0  0
   19.3816   19.9143   27.0035 H   0  0  0  0  0  0  0  0  0  0  0  0
   19.1354   21.2450   26.0634 H   0  0  0  0  0  0  0  0  0  0  0  0
  1  2  1  0  0  0  0
  1  3  1  0  0  0  0
  1  4  1  0  0  0  0
  1  5  1  0  0  0  0
  5  6  1  0  0  0  0
  5  7  1  0  0  0  0
  5  8  1  0  0  0  0
  8  9  1  0  0  0  0
  8 10  1  0  0  0  0
  8 11  1  0  0  0  0
 11 12  1  0  0  0  0
 11 13  1  0  0  0  0
 11 14  1  0  0  0  0
 14 15  1  0  0  0  0
 14 16  1  0  0  0  0
 14 17  1  0  0  0  0
 17 18  1  0  0  0  0
 17 19  1  0  0  0  0
 17 20  1  0  0  0  0
 20 21  1  0  0  0  0
 20 22  1  0  0  0  0
 20 23  1  0  0  0  0
 23 24  1  0  0  0  0
 23 25  1  0  0  0  0
 23 26  1  0  0  0  0
M  END
> <VM2 Rank>
118

> <Conf_Id>
130

> <Probability>
0.02

> <Sum Probability>
99.47

> <Delta G>
3.577

> <G>
51.838

> <E>
18.626

> <-TS>
33.212

> <U+W>
-2.836

> <U>
51.403

> <W>
-54.239

> <W(PB)>
-56.493

> <W(SA)>
2.255

> <Valence>
5.068

> <Coulomb>
46.079

> <VdW>
0.256

> <VdW6>
-8.820

> <VdW12>
9.075

> <Bond>
0.244

> <Angle>
1.725

> <Pdih>
3.099

> <Idih>
0.000

> <Tether>
0.000

$$$$
VeraChem MOL file


 26 25  0  0  0  0  0  0  0  0999 V2000     
   18.8654   20.2121   20.6222 C   0  0  0  0  0  0  0  0  0  0  0  0
   17.9936   20.2826   21.2858 H   0  0  0  0  0  0  0  0  0  0  0  0
   19.0960   21.2224   20.2602 H   0  0  0  0  0  0  0  0  0  0  0  0
   18.5865   19.5992   19.7552 H   0  0  0  0  0  0  0  0  0  0  0  0
   20.0777   19.6084   21.3620 C   0  0  0  0  0  0  0  0  0  0  0  0
   20.3522   20.2688   22.1944 H   0  0  0  0  0  0  0  0  0  0  0  0
   20.9418   19.5801   20.6836 H   0  0  0  0  0  0  0  0  0  0  0  0
   19.7766   18.1818   21.8792 C   0  0  0  0  0  0  0  0  0  0  0  0
   18.9084   18.1933   22.5497 H   0  0  0  0  0  0  0  0  0  0  0  0
   19.4823   17.5539   21.0269 H   0  0  0  0  0  0  0  0  0  0  0  0
   20.9822   17.5089   22.5822 C   0  0  0  0  0  0  0  0  0  0  0  0
   21.7984   17.4049   21.8540 H   0  0  0  0  0  0  0  0  0  0  0  0
   20.6991   16.4837   22.8578 H   0  0  0  0  0  0  0  0  0  0  0  0
   21.5348   18.2299   23.8417 C   0  0  0  0  0  0  0  0  0  0  0  0
   22.4013   17.6529   24.1933 H   0  0  0  0  0  0  0  0  0  0  0  0
   21.9323   19.2197   23.5804 H   0  0  0  0  0  0  0  0  0  0  0  0
   20.5335   18.3468   25.0190 C   0  0  0  0  0  0  0  0  0  0  0  0
   21.1029   18.4023   25.9564 H   0  0  0  0  0  0  0  0  0  0  0  0
   19.9196   17.4386   25.0829 H   0  0  0  0  0  0  0  0  0  0  0  0
   19.6337   19.5947   24.9331 C   0  0  0  0  0  0  0  0  0  0  0  0
   20.2558   20.4936   24.9131 H   0  0  0  0  0  0  0  0  0  0  0  0
   19.0397   19.5710   24.0177 H   0  0  0  0  0  0  0  0  0  0  0  0
   18.6773   19.7163   26.1016 N   0  3  0  0  0  0  0  0  0  0  0  0
   19.1738   19.7770   26.9966 H   0  0  0  0  0  0  0  0  0  0  0  0
   18.0439   18.9124   26.1622 H   0  0  0  0  0  0  0  0  0  0  0  0
   18.0905   20.5545   26.0285 H   0  0  0  0  0  0  0  0  0  0  0  0
  1  2  1  0  0  0  0
  1  3  1  0  0  0  0
  1  4  1  0  0  0  0
  1  5  1  0  0  0  0
  5  6  1  0  0  0  0
  5  7  1  0  0  0  0
  5  8  1  0  0  0  0
  8  9  1  0  0  0  0
  8 10  1  0  0  0  0
  8 11  1  0  0  0  0
 11 12  1  0  0  0  0
 11 13  1  0  0  0  0
 11 14  1  0  0  0  0
 14 15  1  0  0  0  0
 14 16  1  0  0  0  0
 14 17  1  0  0  0  0
 17 18  1  0  0  0  0
 17 19  1  0  0  0  0
 17 20  1  0  0  0  0
 20 21  1  0  0  0  0
 20 22  1  0  0  0  0
 20 23  1  0  0  0  0
 23 24  1  0  0  0  0
 23 25  1  0  0  0  0
 23 26  1  0  0  0  0
M  END
> <VM2 Rank>
119

> <Conf_Id>
973

> <Probability>
0.02

> <Sum Probability>
99.49

> <Delta G>
3.595

> <G>
51.857

> <E>
18.645

> <-TS>
33.212

> <U+W>
-2.817

> <U>
51.403

> <W>
-54.220

> <W(PB)>
-56.462

> <W(SA)>
2.243

> <Valence>
5.068

> <Coulomb>
46.079

> <VdW>
0.256

> <VdW6>
-8.819

> <VdW12>
9.075

> <Bond>
0.244

> <Angle>
1.725

> <Pdih>
3.099

> <Idih>
0.000

> <Tether>
0.000

$$$$
VeraChem MOL file


 26 25  0  0  0  0  0  0  0  0999 V2000     
   18.7581   19.2288   19.9406 C   0  0  0  0  0  0  0  0  0  0  0  0
   18.1545   20.0171   20.4091 H   0  0  0  0  0  0  0  0  0  0  0  0
   19.3541   19.6849   19.1395 H   0  0  0  0  0  0  0  0  0  0  0  0
   18.0710   18.5071   19.4801 H   0  0  0  0  0  0  0  0  0  0  0  0
   19.6635   18.5331   20.9790 C   0  0  0  0  0  0  0  0  0  0  0  0
   20.2275   17.7290   20.4860 H   0  0  0  0  0  0  0  0  0  0  0  0
   19.0350   18.0524   21.7380 H   0  0  0  0  0  0  0  0  0  0  0  0
   20.6493   19.5302   21.6345 C   0  0  0  0  0  0  0  0  0  0  0  0
   21.2745   19.9625   20.8409 H   0  0  0  0  0  0  0  0  0  0  0  0
   20.1028   20.3721   22.0813 H   0  0  0  0  0  0  0  0  0  0  0  0
   21.5797   18.8774   22.6901 C   0  0  0  0  0  0  0  0  0  0  0  0
   22.5628   19.3642   22.6261 H   0  0  0  0  0  0  0  0  0  0  0  0
   21.7567   17.8217   22.4424 H   0  0  0  0  0  0  0  0  0  0  0  0
   21.0903   19.0079   24.1556 C   0  0  0  0  0  0  0  0  0  0  0  0
   21.8588   18.5807   24.8146 H   0  0  0  0  0  0  0  0  0  0  0  0
   21.0189   20.0722   24.4169 H   0  0  0  0  0  0  0  0  0  0  0  0
   19.7399   18.3076   24.4411 C   0  0  0  0  0  0  0  0  0  0  0  0
   19.7772   17.2758   24.0675 H   0  0  0  0  0  0  0  0  0  0  0  0
   18.9289   18.8150   23.9038 H   0  0  0  0  0  0  0  0  0  0  0  0
   19.3988   18.2709   25.9432 C   0  0  0  0  0  0  0  0  0  0  0  0
   18.4755   17.7045   26.0923 H   0  0  0  0  0  0  0  0  0  0  0  0
   20.2001   17.7669   26.4903 H   0  0  0  0  0  0  0  0  0  0  0  0
   19.2015   19.6431   26.5569 N   0  3  0  0  0  0  0  0  0  0  0  0
   18.4425   20.1590   26.1001 H   0  0  0  0  0  0  0  0  0  0  0  0
   20.0469   20.2172   26.4816 H   0  0  0  0  0  0  0  0  0  0  0  0
   18.9662   19.5841   27.5536 H   0  0  0  0  0  0  0  0  0  0  0  0
  1  2  1  0  0  0  0
  1  3  1  0  0  0  0
  1  4  1  0  0  0  0
  1  5  1  0  0  0  0
  5  6  1  0  0  0  0
  5  7  1  0  0  0  0
  5  8  1  0  0  0  0
  8  9  1  0  0  0  0
  8 10  1  0  0  0  0
  8 11  1  0  0  0  0
 11 12  1  0  0  0  0
 11 13  1  0  0  0  0
 11 14  1  0  0  0  0
 14 15  1  0  0  0  0
 14 16  1  0  0  0  0
 14 17  1  0  0  0  0
 17 18  1  0  0  0  0
 17 19  1  0  0  0  0
 17 20  1  0  0  0  0
 20 21  1  0  0  0  0
 20 22  1  0  0  0  0
 20 23  1  0  0  0  0
 23 24  1  0  0  0  0
 23 25  1  0  0  0  0
 23 26  1  0  0  0  0
M  END
> <VM2 Rank>
120

> <Conf_Id>
1051

> <Probability>
0.02

> <Sum Probability>
99.51

> <Delta G>
3.620

> <G>
51.881

> <E>
19.050

> <-TS>
32.831

> <U+W>
-2.411

> <U>
51.463

> <W>
-53.875

> <W(PB)>
-56.136

> <W(SA)>
2.261

> <Valence>
5.277

> <Coulomb>
45.445

> <VdW>
0.741

> <VdW6>
-7.943

> <VdW12>
8.684

> <Bond>
0.235

> <Angle>
1.187

> <Pdih>
3.856

> <Idih>
0.000

> <Tether>
0.000

$$$$
VeraChem MOL file


 26 25  0  0  0  0  0  0  0  0999 V2000     
   20.1980   18.7716   19.5948 C   0  0  0  0  0  0  0  0  0  0  0  0
   21.2329   19.0697   19.8042 H   0  0  0  0  0  0  0  0  0  0  0  0
   20.2180   18.0993   18.7273 H   0  0  0  0  0  0  0  0  0  0  0  0
   19.6317   19.6683   19.3116 H   0  0  0  0  0  0  0  0  0  0  0  0
   19.5528   18.0673   20.8099 C   0  0  0  0  0  0  0  0  0  0  0  0
   20.1555   17.1930   21.0930 H   0  0  0  0  0  0  0  0  0  0  0  0
   18.5690   17.6787   20.5119 H   0  0  0  0  0  0  0  0  0  0  0  0
   19.3695   18.9949   22.0354 C   0  0  0  0  0  0  0  0  0  0  0  0
   18.7477   19.8550   21.7512 H   0  0  0  0  0  0  0  0  0  0  0  0
   18.8002   18.4478   22.7955 H   0  0  0  0  0  0  0  0  0  0  0  0
   20.7094   19.4991   22.6312 C   0  0  0  0  0  0  0  0  0  0  0  0
   21.2071   20.1298   21.8829 H   0  0  0  0  0  0  0  0  0  0  0  0
   21.3873   18.6549   22.8178 H   0  0  0  0  0  0  0  0  0  0  0  0
   20.5372   20.3387   23.9240 C   0  0  0  0  0  0  0  0  0  0  0  0
   21.3337   21.0953   23.9496 H   0  0  0  0  0  0  0  0  0  0  0  0
   19.5939   20.9012   23.8899 H   0  0  0  0  0  0  0  0  0  0  0  0
   20.6267   19.5225   25.2381 C   0  0  0  0  0  0  0  0  0  0  0  0
   20.5730   20.2173   26.0868 H   0  0  0  0  0  0  0  0  0  0  0  0
   21.6079   19.0331   25.2991 H   0  0  0  0  0  0  0  0  0  0  0  0
   19.5190   18.4651   25.3892 C   0  0  0  0  0  0  0  0  0  0  0  0
   18.5393   18.9423   25.3006 H   0  0  0  0  0  0  0  0  0  0  0  0
   19.6145   17.7178   24.5975 H   0  0  0  0  0  0  0  0  0  0  0  0
   19.5683   17.7397   26.7183 N   0  3  0  0  0  0  0  0  0  0  0  0
   18.8240   17.0383   26.7977 H   0  0  0  0  0  0  0  0  0  0  0  0
   19.4576   18.3830   27.5090 H   0  0  0  0  0  0  0  0  0  0  0  0
   20.4578   17.2476   26.8522 H   0  0  0  0  0  0  0  0  0  0  0  0
  1  2  1  0  0  0  0
  1  3  1  0  0  0  0
  1  4  1  0  0  0  0
  1  5  1  0  0  0  0
  5  6  1  0  0  0  0
  5  7  1  0  0  0  0
  5  8  1  0  0  0  0
  8  9  1  0  0  0  0
  8 10  1  0  0  0  0
  8 11  1  0  0  0  0
 11 12  1  0  0  0  0
 11 13  1  0  0  0  0
 11 14  1  0  0  0  0
 14 15  1  0  0  0  0
 14 16  1  0  0  0  0
 14 17  1  0  0  0  0
 17 18  1  0  0  0  0
 17 19  1  0  0  0  0
 17 20  1  0  0  0  0
 20 21  1  0  0  0  0
 20 22  1  0  0  0  0
 20 23  1  0  0  0  0
 23 24  1  0  0  0  0
 23 25  1  0  0  0  0
 23 26  1  0  0  0  0
M  END
> <VM2 Rank>
121

> <Conf_Id>
436

> <Probability>
0.02

> <Sum Probability>
99.53

> <Delta G>
3.620

> <G>
51.881

> <E>
19.217

> <-TS>
32.665

> <U+W>
-2.245

> <U>
51.521

> <W>
-53.766

> <W(PB)>
-56.075

> <W(SA)>
2.309

> <Valence>
5.275

> <Coulomb>
45.448

> <VdW>
0.798

> <VdW6>
-7.889

> <VdW12>
8.686

> <Bond>
0.249

> <Angle>
1.289

> <Pdih>
3.738

> <Idih>
0.000

> <Tether>
0.000

$$$$
VeraChem MOL file


 26 25  0  0  0  0  0  0  0  0999 V2000     
   21.3736   19.7574   20.4325 C   0  0  0  0  0  0  0  0  0  0  0  0
   22.0618   19.6625   19.5826 H   0  0  0  0  0  0  0  0  0  0  0  0
   20.8984   20.7450   20.3706 H   0  0  0  0  0  0  0  0  0  0  0  0
   21.9756   19.7215   21.3487 H   0  0  0  0  0  0  0  0  0  0  0  0
   20.3175   18.6294   20.4011 C   0  0  0  0  0  0  0  0  0  0  0  0
   20.8149   17.6543   20.4984 H   0  0  0  0  0  0  0  0  0  0  0  0
   19.8303   18.6286   19.4160 H   0  0  0  0  0  0  0  0  0  0  0  0
   19.2290   18.7733   21.4922 C   0  0  0  0  0  0  0  0  0  0  0  0
   18.7207   19.7407   21.3781 H   0  0  0  0  0  0  0  0  0  0  0  0
   18.4652   18.0013   21.3248 H   0  0  0  0  0  0  0  0  0  0  0  0
   19.7783   18.6388   22.9327 C   0  0  0  0  0  0  0  0  0  0  0  0
   20.4914   19.4493   23.1210 H   0  0  0  0  0  0  0  0  0  0  0  0
   20.3226   17.6892   23.0288 H   0  0  0  0  0  0  0  0  0  0  0  0
   18.6452   18.6981   23.9845 C   0  0  0  0  0  0  0  0  0  0  0  0
   18.1746   19.6908   23.9596 H   0  0  0  0  0  0  0  0  0  0  0  0
   17.8611   17.9807   23.7053 H   0  0  0  0  0  0  0  0  0  0  0  0
   19.0965   18.3775   25.4325 C   0  0  0  0  0  0  0  0  0  0  0  0
   19.5079   17.3609   25.4885 H   0  0  0  0  0  0  0  0  0  0  0  0
   18.2029   18.3763   26.0707 H   0  0  0  0  0  0  0  0  0  0  0  0
   20.0990   19.3869   26.0298 C   0  0  0  0  0  0  0  0  0  0  0  0
   19.8263   20.4024   25.7305 H   0  0  0  0  0  0  0  0  0  0  0  0
   20.0528   19.3310   27.1207 H   0  0  0  0  0  0  0  0  0  0  0  0
   21.5420   19.1376   25.6358 N   0  3  0  0  0  0  0  0  0  0  0  0
   21.6713   19.1772   24.6211 H   0  0  0  0  0  0  0  0  0  0  0  0
   21.8657   18.2159   25.9470 H   0  0  0  0  0  0  0  0  0  0  0  0
   22.1741   19.8313   26.0500 H   0  0  0  0  0  0  0  0  0  0  0  0
  1  2  1  0  0  0  0
  1  3  1  0  0  0  0
  1  4  1  0  0  0  0
  1  5  1  0  0  0  0
  5  6  1  0  0  0  0
  5  7  1  0  0  0  0
  5  8  1  0  0  0  0
  8  9  1  0  0  0  0
  8 10  1  0  0  0  0
  8 11  1  0  0  0  0
 11 12  1  0  0  0  0
 11 13  1  0  0  0  0
 11 14  1  0  0  0  0
 14 15  1  0  0  0  0
 14 16  1  0  0  0  0
 14 17  1  0  0  0  0
 17 18  1  0  0  0  0
 17 19  1  0  0  0  0
 17 20  1  0  0  0  0
 20 21  1  0  0  0  0
 20 22  1  0  0  0  0
 20 23  1  0  0  0  0
 23 24  1  0  0  0  0
 23 25  1  0  0  0  0
 23 26  1  0  0  0  0
M  END
> <VM2 Rank>
122

> <Conf_Id>
944

> <Probability>
0.02

> <Sum Probability>
99.54

> <Delta G>
3.625

> <G>
51.886

> <E>
19.277

> <-TS>
32.609

> <U+W>
-2.185

> <U>
51.693

> <W>
-53.878

> <W(PB)>
-56.146

> <W(SA)>
2.268

> <Valence>
4.262

> <Coulomb>
46.778

> <VdW>
0.654

> <VdW6>
-7.962

> <VdW12>
8.615

> <Bond>
0.225

> <Angle>
1.192

> <Pdih>
2.845

> <Idih>
0.000

> <Tether>
0.000

$$$$
VeraChem MOL file


 26 25  0  0  0  0  0  0  0  0999 V2000     
   20.1333   19.5122   19.6622 C   0  0  0  0  0  0  0  0  0  0  0  0
   19.8729   20.5650   19.8322 H   0  0  0  0  0  0  0  0  0  0  0  0
   20.6431   19.4456   18.6923 H   0  0  0  0  0  0  0  0  0  0  0  0
   19.2033   18.9360   19.5843 H   0  0  0  0  0  0  0  0  0  0  0  0
   21.0452   18.9760   20.7893 C   0  0  0  0  0  0  0  0  0  0  0  0
   22.0099   19.5000   20.7389 H   0  0  0  0  0  0  0  0  0  0  0  0
   21.2639   17.9130   20.6160 H   0  0  0  0  0  0  0  0  0  0  0  0
   20.4537   19.1658   22.2073 C   0  0  0  0  0  0  0  0  0  0  0  0
   21.2339   18.9007   22.9316 H   0  0  0  0  0  0  0  0  0  0  0  0
   20.2174   20.2266   22.3679 H   0  0  0  0  0  0  0  0  0  0  0  0
   19.1984   18.2984   22.4741 C   0  0  0  0  0  0  0  0  0  0  0  0
   19.4669   17.2361   22.3941 H   0  0  0  0  0  0  0  0  0  0  0  0
   18.4515   18.4838   21.6919 H   0  0  0  0  0  0  0  0  0  0  0  0
   18.5176   18.5560   23.8438 C   0  0  0  0  0  0  0  0  0  0  0  0
   18.1440   19.5884   23.8910 H   0  0  0  0  0  0  0  0  0  0  0  0
   17.6263   17.9154   23.8955 H   0  0  0  0  0  0  0  0  0  0  0  0
   19.4002   18.2539   25.0811 C   0  0  0  0  0  0  0  0  0  0  0  0
   20.0491   17.3909   24.8810 H   0  0  0  0  0  0  0  0  0  0  0  0
   18.7465   17.9635   25.9144 H   0  0  0  0  0  0  0  0  0  0  0  0
   20.2401   19.4647   25.5328 C   0  0  0  0  0  0  0  0  0  0  0  0
   20.9054   19.7861   24.7293 H   0  0  0  0  0  0  0  0  0  0  0  0
   19.5768   20.2981   25.7794 H   0  0  0  0  0  0  0  0  0  0  0  0
   21.0925   19.1720   26.7505 N   0  3  0  0  0  0  0  0  0  0  0  0
   21.7593   18.4128   26.5769 H   0  0  0  0  0  0  0  0  0  0  0  0
   20.5235   18.8950   27.5572 H   0  0  0  0  0  0  0  0  0  0  0  0
   21.6397   19.9905   27.0386 H   0  0  0  0  0  0  0  0  0  0  0  0
  1  2  1  0  0  0  0
  1  3  1  0  0  0  0
  1  4  1  0  0  0  0
  1  5  1  0  0  0  0
  5  6  1  0  0  0  0
  5  7  1  0  0  0  0
  5  8  1  0  0  0  0
  8  9  1  0  0  0  0
  8 10  1  0  0  0  0
  8 11  1  0  0  0  0
 11 12  1  0  0  0  0
 11 13  1  0  0  0  0
 11 14  1  0  0  0  0
 14 15  1  0  0  0  0
 14 16  1  0  0  0  0
 14 17  1  0  0  0  0
 17 18  1  0  0  0  0
 17 19  1  0  0  0  0
 17 20  1  0  0  0  0
 20 21  1  0  0  0  0
 20 22  1  0  0  0  0
 20 23  1  0  0  0  0
 23 24  1  0  0  0  0
 23 25  1  0  0  0  0
 23 26  1  0  0  0  0
M  END
> <VM2 Rank>
123

> <Conf_Id>
1187

> <Probability>
0.02

> <Sum Probability>
99.56

> <Delta G>
3.640

> <G>
51.901

> <E>
19.156

> <-TS>
32.745

> <U+W>
-2.306

> <U>
51.609

> <W>
-53.915

> <W(PB)>
-56.224

> <W(SA)>
2.309

> <Valence>
5.204

> <Coulomb>
45.645

> <VdW>
0.760

> <VdW6>
-7.997

> <VdW12>
8.757

> <Bond>
0.240

> <Angle>
1.456

> <Pdih>
3.508

> <Idih>
0.000

> <Tether>
0.000

$$$$
VeraChem MOL file


 26 25  0  0  0  0  0  0  0  0999 V2000     
   19.5911   19.1550   19.6441 C   0  0  0  0  0  0  0  0  0  0  0  0
   20.4891   19.7843   19.6274 H   0  0  0  0  0  0  0  0  0  0  0  0
   19.4971   18.6903   18.6541 H   0  0  0  0  0  0  0  0  0  0  0  0
   18.7185   19.8039   19.7938 H   0  0  0  0  0  0  0  0  0  0  0  0
   19.6730   18.0713   20.7434 C   0  0  0  0  0  0  0  0  0  0  0  0
   20.5715   17.4566   20.5927 H   0  0  0  0  0  0  0  0  0  0  0  0
   18.8152   17.3934   20.6321 H   0  0  0  0  0  0  0  0  0  0  0  0
   19.6652   18.6458   22.1809 C   0  0  0  0  0  0  0  0  0  0  0  0
   18.7763   19.2763   22.3198 H   0  0  0  0  0  0  0  0  0  0  0  0
   19.5684   17.8024   22.8759 H   0  0  0  0  0  0  0  0  0  0  0  0
   20.9426   19.4483   22.5325 C   0  0  0  0  0  0  0  0  0  0  0  0
   21.1024   20.2312   21.7805 H   0  0  0  0  0  0  0  0  0  0  0  0
   21.8164   18.7850   22.4728 H   0  0  0  0  0  0  0  0  0  0  0  0
   20.9098   20.1331   23.9237 C   0  0  0  0  0  0  0  0  0  0  0  0
   21.8459   20.6974   24.0365 H   0  0  0  0  0  0  0  0  0  0  0  0
   20.1063   20.8820   23.9564 H   0  0  0  0  0  0  0  0  0  0  0  0
   20.7827   19.1655   25.1273 C   0  0  0  0  0  0  0  0  0  0  0  0
   21.2673   19.6259   25.9987 H   0  0  0  0  0  0  0  0  0  0  0  0
   21.3298   18.2353   24.9240 H   0  0  0  0  0  0  0  0  0  0  0  0
   19.3197   18.8578   25.5019 C   0  0  0  0  0  0  0  0  0  0  0  0
   18.8033   19.7881   25.7533 H   0  0  0  0  0  0  0  0  0  0  0  0
   18.8007   18.3980   24.6588 H   0  0  0  0  0  0  0  0  0  0  0  0
   19.1969   17.9223   26.6872 N   0  3  0  0  0  0  0  0  0  0  0  0
   19.6403   17.0158   26.5064 H   0  0  0  0  0  0  0  0  0  0  0  0
   18.2168   17.7337   26.9241 H   0  0  0  0  0  0  0  0  0  0  0  0
   19.6371   18.3111   27.5276 H   0  0  0  0  0  0  0  0  0  0  0  0
  1  2  1  0  0  0  0
  1  3  1  0  0  0  0
  1  4  1  0  0  0  0
  1  5  1  0  0  0  0
  5  6  1  0  0  0  0
  5  7  1  0  0  0  0
  5  8  1  0  0  0  0
  8  9  1  0  0  0  0
  8 10  1  0  0  0  0
  8 11  1  0  0  0  0
 11 12  1  0  0  0  0
 11 13  1  0  0  0  0
 11 14  1  0  0  0  0
 14 15  1  0  0  0  0
 14 16  1  0  0  0  0
 14 17  1  0  0  0  0
 17 18  1  0  0  0  0
 17 19  1  0  0  0  0
 17 20  1  0  0  0  0
 20 21  1  0  0  0  0
 20 22  1  0  0  0  0
 20 23  1  0  0  0  0
 23 24  1  0  0  0  0
 23 25  1  0  0  0  0
 23 26  1  0  0  0  0
M  END
> <VM2 Rank>
124

> <Conf_Id>
659

> <Probability>
0.02

> <Sum Probability>
99.58

> <Delta G>
3.646

> <G>
51.907

> <E>
19.162

> <-TS>
32.745

> <U+W>
-2.300

> <U>
51.609

> <W>
-53.909

> <W(PB)>
-56.179

> <W(SA)>
2.270

> <Valence>
5.204

> <Coulomb>
45.645

> <VdW>
0.760

> <VdW6>
-7.997

> <VdW12>
8.757

> <Bond>
0.240

> <Angle>
1.456

> <Pdih>
3.507

> <Idih>
0.000

> <Tether>
0.000

$$$$
VeraChem MOL file


 26 25  0  0  0  0  0  0  0  0999 V2000     
   19.1921   20.3128   20.7346 C   0  0  0  0  0  0  0  0  0  0  0  0
   18.2326   19.9507   20.3429 H   0  0  0  0  0  0  0  0  0  0  0  0
   19.0530   20.5582   21.7930 H   0  0  0  0  0  0  0  0  0  0  0  0
   19.4365   21.2439   20.2071 H   0  0  0  0  0  0  0  0  0  0  0  0
   20.3068   19.2621   20.5210 C   0  0  0  0  0  0  0  0  0  0  0  0
   21.2758   19.6599   20.8533 H   0  0  0  0  0  0  0  0  0  0  0  0
   20.4058   19.0896   19.4401 H   0  0  0  0  0  0  0  0  0  0  0  0
   20.0153   17.9052   21.2123 C   0  0  0  0  0  0  0  0  0  0  0  0
   18.9318   17.7315   21.2671 H   0  0  0  0  0  0  0  0  0  0  0  0
   20.4107   17.1042   20.5724 H   0  0  0  0  0  0  0  0  0  0  0  0
   20.6540   17.7377   22.6153 C   0  0  0  0  0  0  0  0  0  0  0  0
   21.7472   17.8073   22.5288 H   0  0  0  0  0  0  0  0  0  0  0  0
   20.4398   16.7202   22.9705 H   0  0  0  0  0  0  0  0  0  0  0  0
   20.1557   18.7534   23.6692 C   0  0  0  0  0  0  0  0  0  0  0  0
   20.4824   19.7636   23.3901 H   0  0  0  0  0  0  0  0  0  0  0  0
   19.0577   18.7559   23.6798 H   0  0  0  0  0  0  0  0  0  0  0  0
   20.6958   18.4255   25.0813 C   0  0  0  0  0  0  0  0  0  0  0  0
   21.7927   18.3823   25.0498 H   0  0  0  0  0  0  0  0  0  0  0  0
   20.3517   17.4310   25.3951 H   0  0  0  0  0  0  0  0  0  0  0  0
   20.2787   19.4696   26.1349 C   0  0  0  0  0  0  0  0  0  0  0  0
   20.7562   19.2323   27.0895 H   0  0  0  0  0  0  0  0  0  0  0  0
   20.6150   20.4621   25.8229 H   0  0  0  0  0  0  0  0  0  0  0  0
   18.7826   19.5327   26.3725 N   0  3  0  0  0  0  0  0  0  0  0  0
   18.2733   19.7876   25.5208 H   0  0  0  0  0  0  0  0  0  0  0  0
   18.5398   20.2275   27.0871 H   0  0  0  0  0  0  0  0  0  0  0  0
   18.4097   18.6326   26.6913 H   0  0  0  0  0  0  0  0  0  0  0  0
  1  2  1  0  0  0  0
  1  3  1  0  0  0  0
  1  4  1  0  0  0  0
  1  5  1  0  0  0  0
  5  6  1  0  0  0  0
  5  7  1  0  0  0  0
  5  8  1  0  0  0  0
  8  9  1  0  0  0  0
  8 10  1  0  0  0  0
  8 11  1  0  0  0  0
 11 12  1  0  0  0  0
 11 13  1  0  0  0  0
 11 14  1  0  0  0  0
 14 15  1  0  0  0  0
 14 16  1  0  0  0  0
 14 17  1  0  0  0  0
 17 18  1  0  0  0  0
 17 19  1  0  0  0  0
 17 20  1  0  0  0  0
 20 21  1  0  0  0  0
 20 22  1  0  0  0  0
 20 23  1  0  0  0  0
 23 24  1  0  0  0  0
 23 25  1  0  0  0  0
 23 26  1  0  0  0  0
M  END
> <VM2 Rank>
125

> <Conf_Id>
1120

> <Probability>
0.02

> <Sum Probability>
99.59

> <Delta G>
3.660

> <G>
51.922

> <E>
19.124

> <-TS>
32.798

> <U+W>
-2.338

> <U>
51.512

> <W>
-53.849

> <W(PB)>
-56.118

> <W(SA)>
2.269

> <Valence>
5.253

> <Coulomb>
45.470

> <VdW>
0.789

> <VdW6>
-7.872

> <VdW12>
8.661

> <Bond>
0.233

> <Angle>
1.235

> <Pdih>
3.785

> <Idih>
0.000

> <Tether>
0.000

$$$$
VeraChem MOL file


 26 25  0  0  0  0  0  0  0  0999 V2000     
   19.1746   20.3012   20.7340 C   0  0  0  0  0  0  0  0  0  0  0  0
   19.9015   21.0524   20.3988 H   0  0  0  0  0  0  0  0  0  0  0  0
   18.2478   20.4592   20.1674 H   0  0  0  0  0  0  0  0  0  0  0  0
   18.9543   20.4930   21.7898 H   0  0  0  0  0  0  0  0  0  0  0  0
   19.7130   18.8702   20.5011 C   0  0  0  0  0  0  0  0  0  0  0  0
   19.8830   18.7445   19.4226 H   0  0  0  0  0  0  0  0  0  0  0  0
   18.9523   18.1261   20.7756 H   0  0  0  0  0  0  0  0  0  0  0  0
   21.0418   18.5827   21.2466 C   0  0  0  0  0  0  0  0  0  0  0  0
   21.6526   17.9239   20.6139 H   0  0  0  0  0  0  0  0  0  0  0  0
   21.6235   19.5082   21.3571 H   0  0  0  0  0  0  0  0  0  0  0  0
   20.8800   17.8869   22.6229 C   0  0  0  0  0  0  0  0  0  0  0  0
   21.8823   17.6724   23.0187 H   0  0  0  0  0  0  0  0  0  0  0  0
   20.3917   16.9125   22.4835 H   0  0  0  0  0  0  0  0  0  0  0  0
   20.0930   18.7121   23.6671 C   0  0  0  0  0  0  0  0  0  0  0  0
   20.5206   19.7216   23.7287 H   0  0  0  0  0  0  0  0  0  0  0  0
   19.0498   18.8180   23.3422 H   0  0  0  0  0  0  0  0  0  0  0  0
   20.1170   18.0434   25.0619 C   0  0  0  0  0  0  0  0  0  0  0  0
   21.1510   17.9585   25.4218 H   0  0  0  0  0  0  0  0  0  0  0  0
   19.7282   17.0196   24.9807 H   0  0  0  0  0  0  0  0  0  0  0  0
   19.2721   18.8052   26.1012 C   0  0  0  0  0  0  0  0  0  0  0  0
   18.2429   18.8964   25.7436 H   0  0  0  0  0  0  0  0  0  0  0  0
   19.2585   18.2438   27.0394 H   0  0  0  0  0  0  0  0  0  0  0  0
   19.7895   20.1973   26.4062 N   0  3  0  0  0  0  0  0  0  0  0  0
   19.2132   20.6719   27.1097 H   0  0  0  0  0  0  0  0  0  0  0  0
   19.7946   20.7918   25.5717 H   0  0  0  0  0  0  0  0  0  0  0  0
   20.7479   20.1759   26.7695 H   0  0  0  0  0  0  0  0  0  0  0  0
  1  2  1  0  0  0  0
  1  3  1  0  0  0  0
  1  4  1  0  0  0  0
  1  5  1  0  0  0  0
  5  6  1  0  0  0  0
  5  7  1  0  0  0  0
  5  8  1  0  0  0  0
  8  9  1  0  0  0  0
  8 10  1  0  0  0  0
  8 11  1  0  0  0  0
 11 12  1  0  0  0  0
 11 13  1  0  0  0  0
 11 14  1  0  0  0  0
 14 15  1  0  0  0  0
 14 16  1  0  0  0  0
 14 17  1  0  0  0  0
 17 18  1  0  0  0  0
 17 19  1  0  0  0  0
 17 20  1  0  0  0  0
 20 21  1  0  0  0  0
 20 22  1  0  0  0  0
 20 23  1  0  0  0  0
 23 24  1  0  0  0  0
 23 25  1  0  0  0  0
 23 26  1  0  0  0  0
M  END
> <VM2 Rank>
126

> <Conf_Id>
1290

> <Probability>
0.02

> <Sum Probability>
99.61

> <Delta G>
3.691

> <G>
51.953

> <E>
19.155

> <-TS>
32.798

> <U+W>
-2.307

> <U>
51.512

> <W>
-53.819

> <W(PB)>
-56.098

> <W(SA)>
2.279

> <Valence>
5.253

> <Coulomb>
45.470

> <VdW>
0.789

> <VdW6>
-7.872

> <VdW12>
8.661

> <Bond>
0.233

> <Angle>
1.235

> <Pdih>
3.785

> <Idih>
0.000

> <Tether>
0.000

$$$$
VeraChem MOL file


 26 25  0  0  0  0  0  0  0  0999 V2000     
   19.7692   20.1797   20.1830 C   0  0  0  0  0  0  0  0  0  0  0  0
   19.0049   19.7828   19.5023 H   0  0  0  0  0  0  0  0  0  0  0  0
   19.2571   20.6176   21.0466 H   0  0  0  0  0  0  0  0  0  0  0  0
   20.2911   20.9915   19.6600 H   0  0  0  0  0  0  0  0  0  0  0  0
   20.7679   19.0735   20.5965 C   0  0  0  0  0  0  0  0  0  0  0  0
   21.5649   19.4941   21.2253 H   0  0  0  0  0  0  0  0  0  0  0  0
   21.2628   18.7080   19.6858 H   0  0  0  0  0  0  0  0  0  0  0  0
   20.0969   17.8709   21.3091 C   0  0  0  0  0  0  0  0  0  0  0  0
   19.0688   17.7381   20.9450 H   0  0  0  0  0  0  0  0  0  0  0  0
   20.6340   16.9582   21.0162 H   0  0  0  0  0  0  0  0  0  0  0  0
   20.1103   17.9416   22.8579 C   0  0  0  0  0  0  0  0  0  0  0  0
   21.1513   17.9724   23.2066 H   0  0  0  0  0  0  0  0  0  0  0  0
   19.6839   17.0069   23.2475 H   0  0  0  0  0  0  0  0  0  0  0  0
   19.3236   19.1374   23.4478 C   0  0  0  0  0  0  0  0  0  0  0  0
   19.8319   20.0774   23.1963 H   0  0  0  0  0  0  0  0  0  0  0  0
   18.3275   19.1802   22.9862 H   0  0  0  0  0  0  0  0  0  0  0  0
   19.1577   19.0527   24.9832 C   0  0  0  0  0  0  0  0  0  0  0  0
   18.6178   18.1333   25.2462 H   0  0  0  0  0  0  0  0  0  0  0  0
   18.5342   19.8910   25.3215 H   0  0  0  0  0  0  0  0  0  0  0  0
   20.5049   19.0932   25.7285 C   0  0  0  0  0  0  0  0  0  0  0  0
   21.1187   18.2396   25.4295 H   0  0  0  0  0  0  0  0  0  0  0  0
   21.0409   20.0104   25.4701 H   0  0  0  0  0  0  0  0  0  0  0  0
   20.3506   19.0499   27.2350 N   0  3  0  0  0  0  0  0  0  0  0  0
   19.8047   19.8436   27.5861 H   0  0  0  0  0  0  0  0  0  0  0  0
   21.2584   19.0777   27.7121 H   0  0  0  0  0  0  0  0  0  0  0  0
   19.8759   18.1961   27.5461 H   0  0  0  0  0  0  0  0  0  0  0  0
  1  2  1  0  0  0  0
  1  3  1  0  0  0  0
  1  4  1  0  0  0  0
  1  5  1  0  0  0  0
  5  6  1  0  0  0  0
  5  7  1  0  0  0  0
  5  8  1  0  0  0  0
  8  9  1  0  0  0  0
  8 10  1  0  0  0  0
  8 11  1  0  0  0  0
 11 12  1  0  0  0  0
 11 13  1  0  0  0  0
 11 14  1  0  0  0  0
 14 15  1  0  0  0  0
 14 16  1  0  0  0  0
 14 17  1  0  0  0  0
 17 18  1  0  0  0  0
 17 19  1  0  0  0  0
 17 20  1  0  0  0  0
 20 21  1  0  0  0  0
 20 22  1  0  0  0  0
 20 23  1  0  0  0  0
 23 24  1  0  0  0  0
 23 25  1  0  0  0  0
 23 26  1  0  0  0  0
M  END
> <VM2 Rank>
127

> <Conf_Id>
149

> <Probability>
0.01

> <Sum Probability>
99.62

> <Delta G>
3.715

> <G>
51.976

> <E>
19.186

> <-TS>
32.790

> <U+W>
-2.276

> <U>
51.296

> <W>
-53.572

> <W(PB)>
-55.840

> <W(SA)>
2.268

> <Valence>
5.428

> <Coulomb>
45.117

> <VdW>
0.751

> <VdW6>
-7.913

> <VdW12>
8.664

> <Bond>
0.235

> <Angle>
1.292

> <Pdih>
3.901

> <Idih>
0.000

> <Tether>
0.000

$$$$
VeraChem MOL file


 26 25  0  0  0  0  0  0  0  0999 V2000     
   18.9771   19.1869   19.7258 C   0  0  0  0  0  0  0  0  0  0  0  0
   19.6014   18.7189   18.9535 H   0  0  0  0  0  0  0  0  0  0  0  0
   17.9402   18.8669   19.5600 H   0  0  0  0  0  0  0  0  0  0  0  0
   19.0203   20.2751   19.5875 H   0  0  0  0  0  0  0  0  0  0  0  0
   19.4508   18.7886   21.1397 C   0  0  0  0  0  0  0  0  0  0  0  0
   19.3711   17.6989   21.2571 H   0  0  0  0  0  0  0  0  0  0  0  0
   18.7795   19.2450   21.8791 H   0  0  0  0  0  0  0  0  0  0  0  0
   20.9062   19.2386   21.4013 C   0  0  0  0  0  0  0  0  0  0  0  0
   21.5445   18.8724   20.5854 H   0  0  0  0  0  0  0  0  0  0  0  0
   20.9613   20.3353   21.3628 H   0  0  0  0  0  0  0  0  0  0  0  0
   21.5005   18.7400   22.7440 C   0  0  0  0  0  0  0  0  0  0  0  0
   22.5443   19.0805   22.7892 H   0  0  0  0  0  0  0  0  0  0  0  0
   21.5477   17.6423   22.7521 H   0  0  0  0  0  0  0  0  0  0  0  0
   20.7685   19.2576   24.0097 C   0  0  0  0  0  0  0  0  0  0  0  0
   21.5210   19.4483   24.7865 H   0  0  0  0  0  0  0  0  0  0  0  0
   20.2940   20.2265   23.8012 H   0  0  0  0  0  0  0  0  0  0  0  0
   19.7270   18.2553   24.5694 C   0  0  0  0  0  0  0  0  0  0  0  0
   20.2283   17.3251   24.8684 H   0  0  0  0  0  0  0  0  0  0  0  0
   19.0079   17.9793   23.7900 H   0  0  0  0  0  0  0  0  0  0  0  0
   18.9438   18.8220   25.7692 C   0  0  0  0  0  0  0  0  0  0  0  0
   18.4467   19.7513   25.4782 H   0  0  0  0  0  0  0  0  0  0  0  0
   18.1758   18.1050   26.0722 H   0  0  0  0  0  0  0  0  0  0  0  0
   19.8071   19.1101   26.9818 N   0  3  0  0  0  0  0  0  0  0  0  0
   19.2539   19.4735   27.7654 H   0  0  0  0  0  0  0  0  0  0  0  0
   20.5298   19.8069   26.7763 H   0  0  0  0  0  0  0  0  0  0  0  0
   20.2849   18.2676   27.3179 H   0  0  0  0  0  0  0  0  0  0  0  0
  1  2  1  0  0  0  0
  1  3  1  0  0  0  0
  1  4  1  0  0  0  0
  1  5  1  0  0  0  0
  5  6  1  0  0  0  0
  5  7  1  0  0  0  0
  5  8  1  0  0  0  0
  8  9  1  0  0  0  0
  8 10  1  0  0  0  0
  8 11  1  0  0  0  0
 11 12  1  0  0  0  0
 11 13  1  0  0  0  0
 11 14  1  0  0  0  0
 14 15  1  0  0  0  0
 14 16  1  0  0  0  0
 14 17  1  0  0  0  0
 17 18  1  0  0  0  0
 17 19  1  0  0  0  0
 17 20  1  0  0  0  0
 20 21  1  0  0  0  0
 20 22  1  0  0  0  0
 20 23  1  0  0  0  0
 23 24  1  0  0  0  0
 23 25  1  0  0  0  0
 23 26  1  0  0  0  0
M  END
> <VM2 Rank>
128

> <Conf_Id>
1368

> <Probability>
0.01

> <Sum Probability>
99.64

> <Delta G>
3.725

> <G>
51.986

> <E>
19.141

> <-TS>
32.845

> <U+W>
-2.321

> <U>
51.425

> <W>
-53.746

> <W(PB)>
-56.028

> <W(SA)>
2.282

> <Valence>
5.322

> <Coulomb>
45.311

> <VdW>
0.792

> <VdW6>
-7.911

> <VdW12>
8.703

> <Bond>
0.240

> <Angle>
1.176

> <Pdih>
3.906

> <Idih>
0.000

> <Tether>
0.000

$$$$
VeraChem MOL file


 26 25  0  0  0  0  0  0  0  0999 V2000     
   20.3408   20.0865   19.7713 C   0  0  0  0  0  0  0  0  0  0  0  0
   19.3306   20.4798   19.5977 H   0  0  0  0  0  0  0  0  0  0  0  0
   21.0493   20.9180   19.6638 H   0  0  0  0  0  0  0  0  0  0  0  0
   20.5617   19.3524   18.9856 H   0  0  0  0  0  0  0  0  0  0  0  0
   20.4550   19.4511   21.1733 C   0  0  0  0  0  0  0  0  0  0  0  0
   20.2647   20.2249   21.9287 H   0  0  0  0  0  0  0  0  0  0  0  0
   21.4818   19.0914   21.3276 H   0  0  0  0  0  0  0  0  0  0  0  0
   19.4583   18.2834   21.3530 C   0  0  0  0  0  0  0  0  0  0  0  0
   18.4310   18.6660   21.2784 H   0  0  0  0  0  0  0  0  0  0  0  0
   19.5821   17.5778   20.5198 H   0  0  0  0  0  0  0  0  0  0  0  0
   19.6207   17.4998   22.6812 C   0  0  0  0  0  0  0  0  0  0  0  0
   20.6102   17.0238   22.7207 H   0  0  0  0  0  0  0  0  0  0  0  0
   18.8963   16.6737   22.6672 H   0  0  0  0  0  0  0  0  0  0  0  0
   19.3736   18.3372   23.9632 C   0  0  0  0  0  0  0  0  0  0  0  0
   18.6792   19.1610   23.7474 H   0  0  0  0  0  0  0  0  0  0  0  0
   18.8671   17.6971   24.6979 H   0  0  0  0  0  0  0  0  0  0  0  0
   20.6769   18.8821   24.6011 C   0  0  0  0  0  0  0  0  0  0  0  0
   21.2487   19.4581   23.8648 H   0  0  0  0  0  0  0  0  0  0  0  0
   21.3209   18.0461   24.9047 H   0  0  0  0  0  0  0  0  0  0  0  0
   20.4077   19.7879   25.8182 C   0  0  0  0  0  0  0  0  0  0  0  0
   21.3536   20.2018   26.1783 H   0  0  0  0  0  0  0  0  0  0  0  0
   19.7625   20.6195   25.5223 H   0  0  0  0  0  0  0  0  0  0  0  0
   19.7481   19.0709   26.9798 N   0  3  0  0  0  0  0  0  0  0  0  0
   19.5948   19.6982   27.7769 H   0  0  0  0  0  0  0  0  0  0  0  0
   20.3190   18.2899   27.3189 H   0  0  0  0  0  0  0  0  0  0  0  0
   18.8340   18.6878   26.7196 H   0  0  0  0  0  0  0  0  0  0  0  0
  1  2  1  0  0  0  0
  1  3  1  0  0  0  0
  1  4  1  0  0  0  0
  1  5  1  0  0  0  0
  5  6  1  0  0  0  0
  5  7  1  0  0  0  0
  5  8  1  0  0  0  0
  8  9  1  0  0  0  0
  8 10  1  0  0  0  0
  8 11  1  0  0  0  0
 11 12  1  0  0  0  0
 11 13  1  0  0  0  0
 11 14  1  0  0  0  0
 14 15  1  0  0  0  0
 14 16  1  0  0  0  0
 14 17  1  0  0  0  0
 17 18  1  0  0  0  0
 17 19  1  0  0  0  0
 17 20  1  0  0  0  0
 20 21  1  0  0  0  0
 20 22  1  0  0  0  0
 20 23  1  0  0  0  0
 23 24  1  0  0  0  0
 23 25  1  0  0  0  0
 23 26  1  0  0  0  0
M  END
> <VM2 Rank>
129

> <Conf_Id>
1248

> <Probability>
0.01

> <Sum Probability>
99.65

> <Delta G>
3.728

> <G>
51.989

> <E>
19.144

> <-TS>
32.845

> <U+W>
-2.317

> <U>
51.425

> <W>
-53.743

> <W(PB)>
-56.025

> <W(SA)>
2.282

> <Valence>
5.322

> <Coulomb>
45.311

> <VdW>
0.792

> <VdW6>
-7.911

> <VdW12>
8.703

> <Bond>
0.240

> <Angle>
1.177

> <Pdih>
3.905

> <Idih>
0.000

> <Tether>
0.000

$$$$
VeraChem MOL file


 26 25  0  0  0  0  0  0  0  0999 V2000     
   18.4550   19.1191   20.7498 C   0  0  0  0  0  0  0  0  0  0  0  0
   18.1939   19.3228   21.7940 H   0  0  0  0  0  0  0  0  0  0  0  0
   18.4561   20.0749   20.2099 H   0  0  0  0  0  0  0  0  0  0  0  0
   17.6578   18.4969   20.3229 H   0  0  0  0  0  0  0  0  0  0  0  0
   19.8233   18.4102   20.6183 C   0  0  0  0  0  0  0  0  0  0  0  0
   20.0050   18.2214   19.5510 H   0  0  0  0  0  0  0  0  0  0  0  0
   19.7898   17.4222   21.0982 H   0  0  0  0  0  0  0  0  0  0  0  0
   21.0044   19.2428   21.1804 C   0  0  0  0  0  0  0  0  0  0  0  0
   21.8828   19.0614   20.5457 H   0  0  0  0  0  0  0  0  0  0  0  0
   20.7903   20.3165   21.0883 H   0  0  0  0  0  0  0  0  0  0  0  0
   21.4057   18.9025   22.6391 C   0  0  0  0  0  0  0  0  0  0  0  0
   22.2892   19.5014   22.9000 H   0  0  0  0  0  0  0  0  0  0  0  0
   21.7219   17.8517   22.6945 H   0  0  0  0  0  0  0  0  0  0  0  0
   20.2951   19.1606   23.6835 C   0  0  0  0  0  0  0  0  0  0  0  0
   19.9108   20.1834   23.5671 H   0  0  0  0  0  0  0  0  0  0  0  0
   19.4590   18.4746   23.5005 H   0  0  0  0  0  0  0  0  0  0  0  0
   20.8105   18.9646   25.1290 C   0  0  0  0  0  0  0  0  0  0  0  0
   21.6687   19.6274   25.3027 H   0  0  0  0  0  0  0  0  0  0  0  0
   21.1756   17.9375   25.2625 H   0  0  0  0  0  0  0  0  0  0  0  0
   19.7366   19.2713   26.1906 C   0  0  0  0  0  0  0  0  0  0  0  0
   20.1815   19.2014   27.1869 H   0  0  0  0  0  0  0  0  0  0  0  0
   19.3646   20.2904   26.0543 H   0  0  0  0  0  0  0  0  0  0  0  0
   18.5504   18.3279   26.1502 N   0  3  0  0  0  0  0  0  0  0  0  0
   18.0614   18.3706   25.2509 H   0  0  0  0  0  0  0  0  0  0  0  0
   17.8620   18.5510   26.8774 H   0  0  0  0  0  0  0  0  0  0  0  0
   18.8341   17.3535   26.2958 H   0  0  0  0  0  0  0  0  0  0  0  0
  1  2  1  0  0  0  0
  1  3  1  0  0  0  0
  1  4  1  0  0  0  0
  1  5  1  0  0  0  0
  5  6  1  0  0  0  0
  5  7  1  0  0  0  0
  5  8  1  0  0  0  0
  8  9  1  0  0  0  0
  8 10  1  0  0  0  0
  8 11  1  0  0  0  0
 11 12  1  0  0  0  0
 11 13  1  0  0  0  0
 11 14  1  0  0  0  0
 14 15  1  0  0  0  0
 14 16  1  0  0  0  0
 14 17  1  0  0  0  0
 17 18  1  0  0  0  0
 17 19  1  0  0  0  0
 17 20  1  0  0  0  0
 20 21  1  0  0  0  0
 20 22  1  0  0  0  0
 20 23  1  0  0  0  0
 23 24  1  0  0  0  0
 23 25  1  0  0  0  0
 23 26  1  0  0  0  0
M  END
> <VM2 Rank>
130

> <Conf_Id>
1070

> <Probability>
0.01

> <Sum Probability>
99.66

> <Delta G>
3.733

> <G>
51.995

> <E>
19.192

> <-TS>
32.802

> <U+W>
-2.269

> <U>
51.677

> <W>
-53.946

> <W(PB)>
-56.189

> <W(SA)>
2.243

> <Valence>
5.252

> <Coulomb>
45.637

> <VdW>
0.787

> <VdW6>
-7.893

> <VdW12>
8.680

> <Bond>
0.235

> <Angle>
1.222

> <Pdih>
3.795

> <Idih>
0.000

> <Tether>
0.000

$$$$
VeraChem MOL file


 26 25  0  0  0  0  0  0  0  0999 V2000     
   18.9234   18.8545   19.7612 C   0  0  0  0  0  0  0  0  0  0  0  0
   18.3316   18.0237   19.3556 H   0  0  0  0  0  0  0  0  0  0  0  0
   18.2276   19.6484   20.0624 H   0  0  0  0  0  0  0  0  0  0  0  0
   19.5566   19.2432   18.9530 H   0  0  0  0  0  0  0  0  0  0  0  0
   19.7772   18.3825   20.9571 C   0  0  0  0  0  0  0  0  0  0  0  0
   20.4367   17.5662   20.6309 H   0  0  0  0  0  0  0  0  0  0  0  0
   19.1180   17.9612   21.7256 H   0  0  0  0  0  0  0  0  0  0  0  0
   20.6304   19.5355   21.5390 C   0  0  0  0  0  0  0  0  0  0  0  0
   21.3002   19.8974   20.7466 H   0  0  0  0  0  0  0  0  0  0  0  0
   19.9918   20.3882   21.8076 H   0  0  0  0  0  0  0  0  0  0  0  0
   21.4937   19.1107   22.7555 C   0  0  0  0  0  0  0  0  0  0  0  0
   22.4540   19.6413   22.6949 H   0  0  0  0  0  0  0  0  0  0  0  0
   21.7426   18.0424   22.6922 H   0  0  0  0  0  0  0  0  0  0  0  0
   20.8708   19.4316   24.1389 C   0  0  0  0  0  0  0  0  0  0  0  0
   21.6004   19.1530   24.9106 H   0  0  0  0  0  0  0  0  0  0  0  0
   20.7280   20.5172   24.2311 H   0  0  0  0  0  0  0  0  0  0  0  0
   19.5278   18.7129   24.4161 C   0  0  0  0  0  0  0  0  0  0  0  0
   19.6378   17.6316   24.2599 H   0  0  0  0  0  0  0  0  0  0  0  0
   18.7714   19.0645   23.7036 H   0  0  0  0  0  0  0  0  0  0  0  0
   18.9942   18.9763   25.8375 C   0  0  0  0  0  0  0  0  0  0  0  0
   18.9091   20.0533   26.0053 H   0  0  0  0  0  0  0  0  0  0  0  0
   17.9983   18.5362   25.9373 H   0  0  0  0  0  0  0  0  0  0  0  0
   19.8634   18.3951   26.9356 N   0  3  0  0  0  0  0  0  0  0  0  0
   19.4720   18.5755   27.8665 H   0  0  0  0  0  0  0  0  0  0  0  0
   20.8070   18.7941   26.9249 H   0  0  0  0  0  0  0  0  0  0  0  0
   19.9629   17.3788   26.8447 H   0  0  0  0  0  0  0  0  0  0  0  0
  1  2  1  0  0  0  0
  1  3  1  0  0  0  0
  1  4  1  0  0  0  0
  1  5  1  0  0  0  0
  5  6  1  0  0  0  0
  5  7  1  0  0  0  0
  5  8  1  0  0  0  0
  8  9  1  0  0  0  0
  8 10  1  0  0  0  0
  8 11  1  0  0  0  0
 11 12  1  0  0  0  0
 11 13  1  0  0  0  0
 11 14  1  0  0  0  0
 14 15  1  0  0  0  0
 14 16  1  0  0  0  0
 14 17  1  0  0  0  0
 17 18  1  0  0  0  0
 17 19  1  0  0  0  0
 17 20  1  0  0  0  0
 20 21  1  0  0  0  0
 20 22  1  0  0  0  0
 20 23  1  0  0  0  0
 23 24  1  0  0  0  0
 23 25  1  0  0  0  0
 23 26  1  0  0  0  0
M  END
> <VM2 Rank>
131

> <Conf_Id>
1091

> <Probability>
0.01

> <Sum Probability>
99.68

> <Delta G>
3.745

> <G>
52.007

> <E>
19.182

> <-TS>
32.825

> <U+W>
-2.280

> <U>
51.407

> <W>
-53.687

> <W(PB)>
-55.960

> <W(SA)>
2.273

> <Valence>
5.338

> <Coulomb>
45.268

> <VdW>
0.801

> <VdW6>
-7.902

> <VdW12>
8.703

> <Bond>
0.239

> <Angle>
1.230

> <Pdih>
3.869

> <Idih>
0.000

> <Tether>
0.000

$$$$
VeraChem MOL file


 26 25  0  0  0  0  0  0  0  0999 V2000     
   21.0613   20.1917   21.0102 C   0  0  0  0  0  0  0  0  0  0  0  0
   21.6453   19.8115   21.8574 H   0  0  0  0  0  0  0  0  0  0  0  0
   21.7682   20.6420   20.3014 H   0  0  0  0  0  0  0  0  0  0  0  0
   20.3955   20.9863   21.3710 H   0  0  0  0  0  0  0  0  0  0  0  0
   20.2611   19.0606   20.3285 C   0  0  0  0  0  0  0  0  0  0  0  0
   20.9475   18.2532   20.0374 H   0  0  0  0  0  0  0  0  0  0  0  0
   19.8323   19.4469   19.3932 H   0  0  0  0  0  0  0  0  0  0  0  0
   19.1125   18.4795   21.1922 C   0  0  0  0  0  0  0  0  0  0  0  0
   18.3658   19.2580   21.4008 H   0  0  0  0  0  0  0  0  0  0  0  0
   18.5920   17.7258   20.5852 H   0  0  0  0  0  0  0  0  0  0  0  0
   19.5704   17.8045   22.5114 C   0  0  0  0  0  0  0  0  0  0  0  0
   20.5849   17.3994   22.3943 H   0  0  0  0  0  0  0  0  0  0  0  0
   18.9189   16.9409   22.7039 H   0  0  0  0  0  0  0  0  0  0  0  0
   19.5018   18.7442   23.7402 C   0  0  0  0  0  0  0  0  0  0  0  0
   20.1074   19.6400   23.5640 H   0  0  0  0  0  0  0  0  0  0  0  0
   18.4670   19.0872   23.8781 H   0  0  0  0  0  0  0  0  0  0  0  0
   19.9822   18.0362   25.0290 C   0  0  0  0  0  0  0  0  0  0  0  0
   21.0256   17.7136   24.9143 H   0  0  0  0  0  0  0  0  0  0  0  0
   19.3885   17.1260   25.1871 H   0  0  0  0  0  0  0  0  0  0  0  0
   19.8536   18.9257   26.2807 C   0  0  0  0  0  0  0  0  0  0  0  0
   18.8172   19.2552   26.3932 H   0  0  0  0  0  0  0  0  0  0  0  0
   20.1249   18.3456   27.1669 H   0  0  0  0  0  0  0  0  0  0  0  0
   20.7382   20.1566   26.2489 N   0  3  0  0  0  0  0  0  0  0  0  0
   20.6388   20.7184   27.1014 H   0  0  0  0  0  0  0  0  0  0  0  0
   20.5103   20.7678   25.4587 H   0  0  0  0  0  0  0  0  0  0  0  0
   21.7300   19.9105   26.1667 H   0  0  0  0  0  0  0  0  0  0  0  0
  1  2  1  0  0  0  0
  1  3  1  0  0  0  0
  1  4  1  0  0  0  0
  1  5  1  0  0  0  0
  5  6  1  0  0  0  0
  5  7  1  0  0  0  0
  5  8  1  0  0  0  0
  8  9  1  0  0  0  0
  8 10  1  0  0  0  0
  8 11  1  0  0  0  0
 11 12  1  0  0  0  0
 11 13  1  0  0  0  0
 11 14  1  0  0  0  0
 14 15  1  0  0  0  0
 14 16  1  0  0  0  0
 14 17  1  0  0  0  0
 17 18  1  0  0  0  0
 17 19  1  0  0  0  0
 17 20  1  0  0  0  0
 20 21  1  0  0  0  0
 20 22  1  0  0  0  0
 20 23  1  0  0  0  0
 23 24  1  0  0  0  0
 23 25  1  0  0  0  0
 23 26  1  0  0  0  0
M  END
> <VM2 Rank>
132

> <Conf_Id>
801

> <Probability>
0.01

> <Sum Probability>
99.69

> <Delta G>
3.749

> <G>
52.010

> <E>
19.193

> <-TS>
32.817

> <U+W>
-2.269

> <U>
51.663

> <W>
-53.932

> <W(PB)>
-56.204

> <W(SA)>
2.272

> <Valence>
5.225

> <Coulomb>
45.676

> <VdW>
0.761

> <VdW6>
-7.910

> <VdW12>
8.671

> <Bond>
0.235

> <Angle>
1.177

> <Pdih>
3.813

> <Idih>
0.000

> <Tether>
0.000

$$$$
VeraChem MOL file


 26 25  0  0  0  0  0  0  0  0999 V2000     
   20.2376   20.4502   20.8265 C   0  0  0  0  0  0  0  0  0  0  0  0
   20.7250   21.1693   20.1555 H   0  0  0  0  0  0  0  0  0  0  0  0
   19.1530   20.6004   20.7492 H   0  0  0  0  0  0  0  0  0  0  0  0
   20.5529   20.6915   21.8491 H   0  0  0  0  0  0  0  0  0  0  0  0
   20.6290   19.0059   20.4453 C   0  0  0  0  0  0  0  0  0  0  0  0
   21.7088   18.8692   20.5973 H   0  0  0  0  0  0  0  0  0  0  0  0
   20.4534   18.8656   19.3695 H   0  0  0  0  0  0  0  0  0  0  0  0
   19.8527   17.9083   21.2170 C   0  0  0  0  0  0  0  0  0  0  0  0
   18.7808   17.9699   20.9842 H   0  0  0  0  0  0  0  0  0  0  0  0
   20.1839   16.9351   20.8288 H   0  0  0  0  0  0  0  0  0  0  0  0
   20.0729   17.9161   22.7523 C   0  0  0  0  0  0  0  0  0  0  0  0
   21.0729   18.3082   22.9801 H   0  0  0  0  0  0  0  0  0  0  0  0
   20.0656   16.8768   23.1088 H   0  0  0  0  0  0  0  0  0  0  0  0
   18.9805   18.6983   23.5263 C   0  0  0  0  0  0  0  0  0  0  0  0
   18.9421   19.7424   23.1936 H   0  0  0  0  0  0  0  0  0  0  0  0
   17.9977   18.2665   23.2918 H   0  0  0  0  0  0  0  0  0  0  0  0
   19.1821   18.6609   25.0592 C   0  0  0  0  0  0  0  0  0  0  0  0
   19.1976   17.6188   25.4052 H   0  0  0  0  0  0  0  0  0  0  0  0
   18.3211   19.1404   25.5436 H   0  0  0  0  0  0  0  0  0  0  0  0
   20.4718   19.3752   25.5053 C   0  0  0  0  0  0  0  0  0  0  0  0
   21.3410   18.8798   25.0652 H   0  0  0  0  0  0  0  0  0  0  0  0
   20.4554   20.4127   25.1609 H   0  0  0  0  0  0  0  0  0  0  0  0
   20.6544   19.3842   27.0092 N   0  3  0  0  0  0  0  0  0  0  0  0
   20.7043   18.4350   27.3937 H   0  0  0  0  0  0  0  0  0  0  0  0
   19.8822   19.8622   27.4850 H   0  0  0  0  0  0  0  0  0  0  0  0
   21.5179   19.8641   27.2854 H   0  0  0  0  0  0  0  0  0  0  0  0
  1  2  1  0  0  0  0
  1  3  1  0  0  0  0
  1  4  1  0  0  0  0
  1  5  1  0  0  0  0
  5  6  1  0  0  0  0
  5  7  1  0  0  0  0
  5  8  1  0  0  0  0
  8  9  1  0  0  0  0
  8 10  1  0  0  0  0
  8 11  1  0  0  0  0
 11 12  1  0  0  0  0
 11 13  1  0  0  0  0
 11 14  1  0  0  0  0
 14 15  1  0  0  0  0
 14 16  1  0  0  0  0
 14 17  1  0  0  0  0
 17 18  1  0  0  0  0
 17 19  1  0  0  0  0
 17 20  1  0  0  0  0
 20 21  1  0  0  0  0
 20 22  1  0  0  0  0
 20 23  1  0  0  0  0
 23 24  1  0  0  0  0
 23 25  1  0  0  0  0
 23 26  1  0  0  0  0
M  END
> <VM2 Rank>
133

> <Conf_Id>
159

> <Probability>
0.01

> <Sum Probability>
99.71

> <Delta G>
3.769

> <G>
52.030

> <E>
19.242

> <-TS>
32.788

> <U+W>
-2.220

> <U>
51.443

> <W>
-53.663

> <W(PB)>
-55.931

> <W(SA)>
2.268

> <Valence>
5.421

> <Coulomb>
45.330

> <VdW>
0.692

> <VdW6>
-8.007

> <VdW12>
8.699

> <Bond>
0.240

> <Angle>
1.285

> <Pdih>
3.896

> <Idih>
0.000

> <Tether>
0.000

$$$$
VeraChem MOL file


 26 25  0  0  0  0  0  0  0  0999 V2000     
   20.5605   20.5080   20.8202 C   0  0  0  0  0  0  0  0  0  0  0  0
   20.4274   20.7960   21.8687 H   0  0  0  0  0  0  0  0  0  0  0  0
   21.4648   21.0081   20.4501 H   0  0  0  0  0  0  0  0  0  0  0  0
   19.7073   20.9003   20.2518 H   0  0  0  0  0  0  0  0  0  0  0  0
   20.6806   18.9758   20.6470 C   0  0  0  0  0  0  0  0  0  0  0  0
   21.5790   18.6024   21.1578 H   0  0  0  0  0  0  0  0  0  0  0  0
   20.8323   18.7673   19.5786 H   0  0  0  0  0  0  0  0  0  0  0  0
   19.4260   18.2018   21.1277 C   0  0  0  0  0  0  0  0  0  0  0  0
   18.5281   18.8244   21.0128 H   0  0  0  0  0  0  0  0  0  0  0  0
   19.2773   17.3429   20.4586 H   0  0  0  0  0  0  0  0  0  0  0  0
   19.5133   17.6542   22.5758 C   0  0  0  0  0  0  0  0  0  0  0  0
   20.3519   16.9480   22.6486 H   0  0  0  0  0  0  0  0  0  0  0  0
   18.6042   17.0707   22.7769 H   0  0  0  0  0  0  0  0  0  0  0  0
   19.6635   18.7439   23.6624 C   0  0  0  0  0  0  0  0  0  0  0  0
   20.6303   19.2473   23.5396 H   0  0  0  0  0  0  0  0  0  0  0  0
   18.8803   19.5035   23.5329 H   0  0  0  0  0  0  0  0  0  0  0  0
   19.5742   18.1488   25.0877 C   0  0  0  0  0  0  0  0  0  0  0  0
   20.3683   17.4048   25.2354 H   0  0  0  0  0  0  0  0  0  0  0  0
   18.6206   17.6161   25.2009 H   0  0  0  0  0  0  0  0  0  0  0  0
   19.6644   19.2236   26.1883 C   0  0  0  0  0  0  0  0  0  0  0  0
   18.8805   19.9707   26.0383 H   0  0  0  0  0  0  0  0  0  0  0  0
   19.5080   18.7566   27.1645 H   0  0  0  0  0  0  0  0  0  0  0  0
   20.9984   19.9430   26.2319 N   0  3  0  0  0  0  0  0  0  0  0  0
   21.7755   19.2942   26.3938 H   0  0  0  0  0  0  0  0  0  0  0  0
   21.0296   20.6410   26.9831 H   0  0  0  0  0  0  0  0  0  0  0  0
   21.1926   20.4367   25.3554 H   0  0  0  0  0  0  0  0  0  0  0  0
  1  2  1  0  0  0  0
  1  3  1  0  0  0  0
  1  4  1  0  0  0  0
  1  5  1  0  0  0  0
  5  6  1  0  0  0  0
  5  7  1  0  0  0  0
  5  8  1  0  0  0  0
  8  9  1  0  0  0  0
  8 10  1  0  0  0  0
  8 11  1  0  0  0  0
 11 12  1  0  0  0  0
 11 13  1  0  0  0  0
 11 14  1  0  0  0  0
 14 15  1  0  0  0  0
 14 16  1  0  0  0  0
 14 17  1  0  0  0  0
 17 18  1  0  0  0  0
 17 19  1  0  0  0  0
 17 20  1  0  0  0  0
 20 21  1  0  0  0  0
 20 22  1  0  0  0  0
 20 23  1  0  0  0  0
 23 24  1  0  0  0  0
 23 25  1  0  0  0  0
 23 26  1  0  0  0  0
M  END
> <VM2 Rank>
134

> <Conf_Id>
1096

> <Probability>
0.01

> <Sum Probability>
99.72

> <Delta G>
3.788

> <G>
52.050

> <E>
19.248

> <-TS>
32.802

> <U+W>
-2.214

> <U>
51.677

> <W>
-53.891

> <W(PB)>
-56.164

> <W(SA)>
2.273

> <Valence>
5.252

> <Coulomb>
45.638

> <VdW>
0.787

> <VdW6>
-7.893

> <VdW12>
8.680

> <Bond>
0.235

> <Angle>
1.222

> <Pdih>
3.795

> <Idih>
0.000

> <Tether>
0.000

$$$$
VeraChem MOL file


 26 25  0  0  0  0  0  0  0  0999 V2000     
   21.0277   19.6706   20.2884 C   0  0  0  0  0  0  0  0  0  0  0  0
   21.6471   19.6852   19.3824 H   0  0  0  0  0  0  0  0  0  0  0  0
   20.5111   20.6366   20.3576 H   0  0  0  0  0  0  0  0  0  0  0  0
   21.7043   19.5731   21.1464 H   0  0  0  0  0  0  0  0  0  0  0  0
   20.0193   18.5023   20.2337 C   0  0  0  0  0  0  0  0  0  0  0  0
   20.5664   17.5492   20.2212 H   0  0  0  0  0  0  0  0  0  0  0  0
   19.4738   18.5521   19.2810 H   0  0  0  0  0  0  0  0  0  0  0  0
   18.9882   18.4938   21.3912 C   0  0  0  0  0  0  0  0  0  0  0  0
   18.3669   19.3990   21.3506 H   0  0  0  0  0  0  0  0  0  0  0  0
   18.3006   17.6551   21.2145 H   0  0  0  0  0  0  0  0  0  0  0  0
   19.6031   18.3252   22.8050 C   0  0  0  0  0  0  0  0  0  0  0  0
   20.5443   17.7619   22.7405 H   0  0  0  0  0  0  0  0  0  0  0  0
   18.9195   17.7082   23.4034 H   0  0  0  0  0  0  0  0  0  0  0  0
   19.8274   19.6712   23.5412 C   0  0  0  0  0  0  0  0  0  0  0  0
   20.4273   20.3457   22.9189 H   0  0  0  0  0  0  0  0  0  0  0  0
   18.8614   20.1730   23.6907 H   0  0  0  0  0  0  0  0  0  0  0  0
   20.5350   19.5038   24.9064 C   0  0  0  0  0  0  0  0  0  0  0  0
   20.7298   20.4977   25.3309 H   0  0  0  0  0  0  0  0  0  0  0  0
   21.5136   19.0280   24.7582 H   0  0  0  0  0  0  0  0  0  0  0  0
   19.7061   18.6814   25.9108 C   0  0  0  0  0  0  0  0  0  0  0  0
   18.7322   19.1554   26.0593 H   0  0  0  0  0  0  0  0  0  0  0  0
   19.5430   17.6741   25.5191 H   0  0  0  0  0  0  0  0  0  0  0  0
   20.3742   18.5509   27.2643 N   0  3  0  0  0  0  0  0  0  0  0  0
   20.5315   19.4644   27.7023 H   0  0  0  0  0  0  0  0  0  0  0  0
   21.2862   18.0873   27.1972 H   0  0  0  0  0  0  0  0  0  0  0  0
   19.8066   18.0004   27.9179 H   0  0  0  0  0  0  0  0  0  0  0  0
  1  2  1  0  0  0  0
  1  3  1  0  0  0  0
  1  4  1  0  0  0  0
  1  5  1  0  0  0  0
  5  6  1  0  0  0  0
  5  7  1  0  0  0  0
  5  8  1  0  0  0  0
  8  9  1  0  0  0  0
  8 10  1  0  0  0  0
  8 11  1  0  0  0  0
 11 12  1  0  0  0  0
 11 13  1  0  0  0  0
 11 14  1  0  0  0  0
 14 15  1  0  0  0  0
 14 16  1  0  0  0  0
 14 17  1  0  0  0  0
 17 18  1  0  0  0  0
 17 19  1  0  0  0  0
 17 20  1  0  0  0  0
 20 21  1  0  0  0  0
 20 22  1  0  0  0  0
 20 23  1  0  0  0  0
 23 24  1  0  0  0  0
 23 25  1  0  0  0  0
 23 26  1  0  0  0  0
M  END
> <VM2 Rank>
135

> <Conf_Id>
1060

> <Probability>
0.01

> <Sum Probability>
99.73

> <Delta G>
3.797

> <G>
52.059

> <E>
19.234

> <-TS>
32.824

> <U+W>
-2.227

> <U>
51.310

> <W>
-53.537

> <W(PB)>
-55.824

> <W(SA)>
2.287

> <Valence>
5.462

> <Coulomb>
45.075

> <VdW>
0.773

> <VdW6>
-7.908

> <VdW12>
8.681

> <Bond>
0.240

> <Angle>
1.238

> <Pdih>
3.984

> <Idih>
0.000

> <Tether>
0.000

$$$$
VeraChem MOL file


 26 25  0  0  0  0  0  0  0  0999 V2000     
   19.0609   20.0059   20.0213 C   0  0  0  0  0  0  0  0  0  0  0  0
   18.1180   20.2186   20.5418 H   0  0  0  0  0  0  0  0  0  0  0  0
   19.6629   20.9239   20.0152 H   0  0  0  0  0  0  0  0  0  0  0  0
   18.8213   19.7533   18.9802 H   0  0  0  0  0  0  0  0  0  0  0  0
   19.8216   18.8480   20.7016 C   0  0  0  0  0  0  0  0  0  0  0  0
   20.7412   18.6358   20.1383 H   0  0  0  0  0  0  0  0  0  0  0  0
   19.2086   17.9366   20.6628 H   0  0  0  0  0  0  0  0  0  0  0  0
   20.1720   19.1783   22.1694 C   0  0  0  0  0  0  0  0  0  0  0  0
   20.7872   20.0881   22.1988 H   0  0  0  0  0  0  0  0  0  0  0  0
   19.2467   19.4022   22.7110 H   0  0  0  0  0  0  0  0  0  0  0  0
   20.9352   18.0159   22.8509 C   0  0  0  0  0  0  0  0  0  0  0  0
   21.8284   17.7978   22.2492 H   0  0  0  0  0  0  0  0  0  0  0  0
   20.3285   17.1001   22.8346 H   0  0  0  0  0  0  0  0  0  0  0  0
   21.3962   18.3223   24.3001 C   0  0  0  0  0  0  0  0  0  0  0  0
   22.2988   17.7273   24.4967 H   0  0  0  0  0  0  0  0  0  0  0  0
   21.7141   19.3697   24.3877 H   0  0  0  0  0  0  0  0  0  0  0  0
   20.3643   17.9671   25.4038 C   0  0  0  0  0  0  0  0  0  0  0  0
   20.8356   18.1012   26.3866 H   0  0  0  0  0  0  0  0  0  0  0  0
   20.1129   16.9005   25.3336 H   0  0  0  0  0  0  0  0  0  0  0  0
   19.0586   18.7842   25.3708 C   0  0  0  0  0  0  0  0  0  0  0  0
   18.5322   18.6043   24.4309 H   0  0  0  0  0  0  0  0  0  0  0  0
   18.4082   18.4577   26.1868 H   0  0  0  0  0  0  0  0  0  0  0  0
   19.2721   20.2773   25.5232 N   0  3  0  0  0  0  0  0  0  0  0  0
   18.3860   20.7935   25.5016 H   0  0  0  0  0  0  0  0  0  0  0  0
   19.8608   20.6518   24.7731 H   0  0  0  0  0  0  0  0  0  0  0  0
   19.7302   20.5057   26.4114 H   0  0  0  0  0  0  0  0  0  0  0  0
  1  2  1  0  0  0  0
  1  3  1  0  0  0  0
  1  4  1  0  0  0  0
  1  5  1  0  0  0  0
  5  6  1  0  0  0  0
  5  7  1  0  0  0  0
  5  8  1  0  0  0  0
  8  9  1  0  0  0  0
  8 10  1  0  0  0  0
  8 11  1  0  0  0  0
 11 12  1  0  0  0  0
 11 13  1  0  0  0  0
 11 14  1  0  0  0  0
 14 15  1  0  0  0  0
 14 16  1  0  0  0  0
 14 17  1  0  0  0  0
 17 18  1  0  0  0  0
 17 19  1  0  0  0  0
 17 20  1  0  0  0  0
 20 21  1  0  0  0  0
 20 22  1  0  0  0  0
 20 23  1  0  0  0  0
 23 24  1  0  0  0  0
 23 25  1  0  0  0  0
 23 26  1  0  0  0  0
M  END
> <VM2 Rank>
136

> <Conf_Id>
1346

> <Probability>
0.01

> <Sum Probability>
99.74

> <Delta G>
3.799

> <G>
52.061

> <E>
19.192

> <-TS>
32.869

> <U+W>
-2.270

> <U>
51.830

> <W>
-54.100

> <W(PB)>
-56.379

> <W(SA)>
2.279

> <Valence>
4.864

> <Coulomb>
46.522

> <VdW>
0.444

> <VdW6>
-8.266

> <VdW12>
8.710

> <Bond>
0.239

> <Angle>
1.440

> <Pdih>
3.185

> <Idih>
0.000

> <Tether>
0.000

$$$$
VeraChem MOL file


 26 25  0  0  0  0  0  0  0  0999 V2000     
   19.7070   19.6271   19.8850 C   0  0  0  0  0  0  0  0  0  0  0  0
   19.2190   20.5450   20.2376 H   0  0  0  0  0  0  0  0  0  0  0  0
   20.0157   19.7894   18.8442 H   0  0  0  0  0  0  0  0  0  0  0  0
   18.9639   18.8199   19.8871 H   0  0  0  0  0  0  0  0  0  0  0  0
   20.9288   19.2747   20.7634 C   0  0  0  0  0  0  0  0  0  0  0  0
   21.6909   20.0572   20.6427 H   0  0  0  0  0  0  0  0  0  0  0  0
   21.3859   18.3425   20.4033 H   0  0  0  0  0  0  0  0  0  0  0  0
   20.5844   19.1425   22.2665 C   0  0  0  0  0  0  0  0  0  0  0  0
   21.5158   18.9819   22.8263 H   0  0  0  0  0  0  0  0  0  0  0  0
   20.1614   20.0929   22.6157 H   0  0  0  0  0  0  0  0  0  0  0  0
   19.5991   17.9868   22.5686 C   0  0  0  0  0  0  0  0  0  0  0  0
   19.9296   17.0885   22.0292 H   0  0  0  0  0  0  0  0  0  0  0  0
   18.6056   18.2340   22.1712 H   0  0  0  0  0  0  0  0  0  0  0  0
   19.4704   17.6255   24.0711 C   0  0  0  0  0  0  0  0  0  0  0  0
   18.8023   16.7561   24.1428 H   0  0  0  0  0  0  0  0  0  0  0  0
   20.4382   17.2827   24.4593 H   0  0  0  0  0  0  0  0  0  0  0  0
   18.8858   18.7489   24.9690 C   0  0  0  0  0  0  0  0  0  0  0  0
   18.4203   18.2911   25.8519 H   0  0  0  0  0  0  0  0  0  0  0  0
   18.0759   19.2634   24.4351 H   0  0  0  0  0  0  0  0  0  0  0  0
   19.9177   19.7875   25.4573 C   0  0  0  0  0  0  0  0  0  0  0  0
   20.4145   20.2592   24.6080 H   0  0  0  0  0  0  0  0  0  0  0  0
   19.4011   20.5685   26.0217 H   0  0  0  0  0  0  0  0  0  0  0  0
   20.9879   19.2061   26.3602 N   0  3  0  0  0  0  0  0  0  0  0  0
   21.6460   19.9240   26.6821 H   0  0  0  0  0  0  0  0  0  0  0  0
   21.5383   18.4864   25.8821 H   0  0  0  0  0  0  0  0  0  0  0  0
   20.5847   18.7729   27.1974 H   0  0  0  0  0  0  0  0  0  0  0  0
  1  2  1  0  0  0  0
  1  3  1  0  0  0  0
  1  4  1  0  0  0  0
  1  5  1  0  0  0  0
  5  6  1  0  0  0  0
  5  7  1  0  0  0  0
  5  8  1  0  0  0  0
  8  9  1  0  0  0  0
  8 10  1  0  0  0  0
  8 11  1  0  0  0  0
 11 12  1  0  0  0  0
 11 13  1  0  0  0  0
 11 14  1  0  0  0  0
 14 15  1  0  0  0  0
 14 16  1  0  0  0  0
 14 17  1  0  0  0  0
 17 18  1  0  0  0  0
 17 19  1  0  0  0  0
 17 20  1  0  0  0  0
 20 21  1  0  0  0  0
 20 22  1  0  0  0  0
 20 23  1  0  0  0  0
 23 24  1  0  0  0  0
 23 25  1  0  0  0  0
 23 26  1  0  0  0  0
M  END
> <VM2 Rank>
137

> <Conf_Id>
710

> <Probability>
0.01

> <Sum Probability>
99.76

> <Delta G>
3.802

> <G>
52.063

> <E>
19.188

> <-TS>
32.875

> <U+W>
-2.274

> <U>
51.885

> <W>
-54.159

> <W(PB)>
-56.421

> <W(SA)>
2.262

> <Valence>
5.154

> <Coulomb>
46.017

> <VdW>
0.714

> <VdW6>
-8.701

> <VdW12>
9.415

> <Bond>
0.265

> <Angle>
1.543

> <Pdih>
3.346

> <Idih>
0.000

> <Tether>
0.000

$$$$
VeraChem MOL file


 26 25  0  0  0  0  0  0  0  0999 V2000     
   19.6425   19.5847   19.8829 C   0  0  0  0  0  0  0  0  0  0  0  0
   20.6755   19.9493   19.9444 H   0  0  0  0  0  0  0  0  0  0  0  0
   19.4207   19.3969   18.8244 H   0  0  0  0  0  0  0  0  0  0  0  0
   18.9743   20.3837   20.2295 H   0  0  0  0  0  0  0  0  0  0  0  0
   19.4460   18.2965   20.7139 C   0  0  0  0  0  0  0  0  0  0  0  0
   20.1397   17.5203   20.3616 H   0  0  0  0  0  0  0  0  0  0  0  0
   18.4337   17.9084   20.5339 H   0  0  0  0  0  0  0  0  0  0  0  0
   19.6326   18.5146   22.2347 C   0  0  0  0  0  0  0  0  0  0  0  0
   18.9093   19.2668   22.5739 H   0  0  0  0  0  0  0  0  0  0  0  0
   19.3886   17.5785   22.7553 H   0  0  0  0  0  0  0  0  0  0  0  0
   21.0668   18.9551   22.6176 C   0  0  0  0  0  0  0  0  0  0  0  0
   21.2481   19.9773   22.2596 H   0  0  0  0  0  0  0  0  0  0  0  0
   21.7874   18.3141   22.0913 H   0  0  0  0  0  0  0  0  0  0  0  0
   21.3794   18.8847   24.1349 C   0  0  0  0  0  0  0  0  0  0  0  0
   21.2963   17.8488   24.4880 H   0  0  0  0  0  0  0  0  0  0  0  0
   22.4369   19.1536   24.2643 H   0  0  0  0  0  0  0  0  0  0  0  0
   20.5352   19.8368   25.0242 C   0  0  0  0  0  0  0  0  0  0  0  0
   20.4055   20.8000   24.5132 H   0  0  0  0  0  0  0  0  0  0  0  0
   21.0974   20.0567   25.9415 H   0  0  0  0  0  0  0  0  0  0  0  0
   19.1533   19.2833   25.4317 C   0  0  0  0  0  0  0  0  0  0  0  0
   18.6126   20.0484   25.9955 H   0  0  0  0  0  0  0  0  0  0  0  0
   18.5645   19.0393   24.5461 H   0  0  0  0  0  0  0  0  0  0  0  0
   19.2251   18.0433   26.3010 N   0  3  0  0  0  0  0  0  0  0  0  0
   18.2923   17.7119   26.5697 H   0  0  0  0  0  0  0  0  0  0  0  0
   19.7423   18.2169   27.1690 H   0  0  0  0  0  0  0  0  0  0  0  0
   19.6923   17.2688   25.8199 H   0  0  0  0  0  0  0  0  0  0  0  0
  1  2  1  0  0  0  0
  1  3  1  0  0  0  0
  1  4  1  0  0  0  0
  1  5  1  0  0  0  0
  5  6  1  0  0  0  0
  5  7  1  0  0  0  0
  5  8  1  0  0  0  0
  8  9  1  0  0  0  0
  8 10  1  0  0  0  0
  8 11  1  0  0  0  0
 11 12  1  0  0  0  0
 11 13  1  0  0  0  0
 11 14  1  0  0  0  0
 14 15  1  0  0  0  0
 14 16  1  0  0  0  0
 14 17  1  0  0  0  0
 17 18  1  0  0  0  0
 17 19  1  0  0  0  0
 17 20  1  0  0  0  0
 20 21  1  0  0  0  0
 20 22  1  0  0  0  0
 20 23  1  0  0  0  0
 23 24  1  0  0  0  0
 23 25  1  0  0  0  0
 23 26  1  0  0  0  0
M  END
> <VM2 Rank>
138

> <Conf_Id>
418

> <Probability>
0.01

> <Sum Probability>
99.77

> <Delta G>
3.813

> <G>
52.074

> <E>
19.200

> <-TS>
32.875

> <U+W>
-2.262

> <U>
51.886

> <W>
-54.147

> <W(PB)>
-56.399

> <W(SA)>
2.252

> <Valence>
5.154

> <Coulomb>
46.018

> <VdW>
0.714

> <VdW6>
-8.701

> <VdW12>
9.415

> <Bond>
0.265

> <Angle>
1.543

> <Pdih>
3.346

> <Idih>
0.000

> <Tether>
0.000

$$$$
VeraChem MOL file


 26 25  0  0  0  0  0  0  0  0999 V2000     
   18.8792   18.2919   20.0230 C   0  0  0  0  0  0  0  0  0  0  0  0
   18.1504   19.1070   19.9249 H   0  0  0  0  0  0  0  0  0  0  0  0
   19.5584   18.3348   19.1616 H   0  0  0  0  0  0  0  0  0  0  0  0
   18.3313   17.3420   19.9726 H   0  0  0  0  0  0  0  0  0  0  0  0
   19.6583   18.4017   21.3508 C   0  0  0  0  0  0  0  0  0  0  0  0
   20.3597   17.5598   21.4327 H   0  0  0  0  0  0  0  0  0  0  0  0
   18.9489   18.3164   22.1842 H   0  0  0  0  0  0  0  0  0  0  0  0
   20.4291   19.7378   21.4509 C   0  0  0  0  0  0  0  0  0  0  0  0
   21.0367   19.8674   20.5447 H   0  0  0  0  0  0  0  0  0  0  0  0
   19.7135   20.5715   21.4599 H   0  0  0  0  0  0  0  0  0  0  0  0
   21.3651   19.8485   22.6823 C   0  0  0  0  0  0  0  0  0  0  0  0
   21.8837   20.8150   22.6159 H   0  0  0  0  0  0  0  0  0  0  0  0
   22.1542   19.0861   22.6263 H   0  0  0  0  0  0  0  0  0  0  0  0
   20.6452   19.7807   24.0545 C   0  0  0  0  0  0  0  0  0  0  0  0
   21.1614   20.4562   24.7508 H   0  0  0  0  0  0  0  0  0  0  0  0
   19.6227   20.1688   23.9574 H   0  0  0  0  0  0  0  0  0  0  0  0
   20.6411   18.3615   24.6780 C   0  0  0  0  0  0  0  0  0  0  0  0
   21.6768   18.0129   24.7863 H   0  0  0  0  0  0  0  0  0  0  0  0
   20.1420   17.6426   24.0187 H   0  0  0  0  0  0  0  0  0  0  0  0
   19.9720   18.3269   26.0654 C   0  0  0  0  0  0  0  0  0  0  0  0
   20.0850   17.3291   26.4979 H   0  0  0  0  0  0  0  0  0  0  0  0
   20.4630   19.0438   26.7290 H   0  0  0  0  0  0  0  0  0  0  0  0
   18.4910   18.6501   26.0361 N   0  3  0  0  0  0  0  0  0  0  0  0
   17.9692   17.9927   25.4475 H   0  0  0  0  0  0  0  0  0  0  0  0
   18.3150   19.5909   25.6706 H   0  0  0  0  0  0  0  0  0  0  0  0
   18.0744   18.6092   26.9726 H   0  0  0  0  0  0  0  0  0  0  0  0
  1  2  1  0  0  0  0
  1  3  1  0  0  0  0
  1  4  1  0  0  0  0
  1  5  1  0  0  0  0
  5  6  1  0  0  0  0
  5  7  1  0  0  0  0
  5  8  1  0  0  0  0
  8  9  1  0  0  0  0
  8 10  1  0  0  0  0
  8 11  1  0  0  0  0
 11 12  1  0  0  0  0
 11 13  1  0  0  0  0
 11 14  1  0  0  0  0
 14 15  1  0  0  0  0
 14 16  1  0  0  0  0
 14 17  1  0  0  0  0
 17 18  1  0  0  0  0
 17 19  1  0  0  0  0
 17 20  1  0  0  0  0
 20 21  1  0  0  0  0
 20 22  1  0  0  0  0
 20 23  1  0  0  0  0
 23 24  1  0  0  0  0
 23 25  1  0  0  0  0
 23 26  1  0  0  0  0
M  END
> <VM2 Rank>
139

> <Conf_Id>
1068

> <Probability>
0.01

> <Sum Probability>
99.78

> <Delta G>
3.823

> <G>
52.084

> <E>
19.267

> <-TS>
32.817

> <U+W>
-2.195

> <U>
51.953

> <W>
-54.148

> <W(PB)>
-56.401

> <W(SA)>
2.253

> <Valence>
5.280

> <Coulomb>
45.974

> <VdW>
0.700

> <VdW6>
-7.998

> <VdW12>
8.698

> <Bond>
0.241

> <Angle>
1.239

> <Pdih>
3.800

> <Idih>
0.000

> <Tether>
0.000

$$$$
VeraChem MOL file


 26 25  0  0  0  0  0  0  0  0999 V2000     
   19.5409   20.3228   20.0374 C   0  0  0  0  0  0  0  0  0  0  0  0
   19.6902   21.2568   20.5946 H   0  0  0  0  0  0  0  0  0  0  0  0
   19.9155   20.4758   19.0169 H   0  0  0  0  0  0  0  0  0  0  0  0
   18.4618   20.1306   19.9748 H   0  0  0  0  0  0  0  0  0  0  0  0
   20.2753   19.1476   20.7169 C   0  0  0  0  0  0  0  0  0  0  0  0
   21.3547   19.3539   20.7350 H   0  0  0  0  0  0  0  0  0  0  0  0
   20.1367   18.2365   20.1181 H   0  0  0  0  0  0  0  0  0  0  0  0
   19.7660   18.9101   22.1558 C   0  0  0  0  0  0  0  0  0  0  0  0
   19.8972   19.8318   22.7329 H   0  0  0  0  0  0  0  0  0  0  0  0
   18.6877   18.7016   22.1283 H   0  0  0  0  0  0  0  0  0  0  0  0
   20.5034   17.7309   22.8365 C   0  0  0  0  0  0  0  0  0  0  0  0
   21.5834   17.9287   22.8767 H   0  0  0  0  0  0  0  0  0  0  0  0
   20.3821   16.8427   22.2009 H   0  0  0  0  0  0  0  0  0  0  0  0
   19.9738   17.3832   24.2525 C   0  0  0  0  0  0  0  0  0  0  0  0
   18.8828   17.5005   24.2930 H   0  0  0  0  0  0  0  0  0  0  0  0
   20.1578   16.3137   24.4251 H   0  0  0  0  0  0  0  0  0  0  0  0
   20.6531   18.1578   25.4135 C   0  0  0  0  0  0  0  0  0  0  0  0
   21.7349   17.9713   25.3879 H   0  0  0  0  0  0  0  0  0  0  0  0
   20.2995   17.7474   26.3687 H   0  0  0  0  0  0  0  0  0  0  0  0
   20.4156   19.6800   25.4160 C   0  0  0  0  0  0  0  0  0  0  0  0
   20.9324   20.1242   26.2710 H   0  0  0  0  0  0  0  0  0  0  0  0
   20.8308   20.1217   24.5076 H   0  0  0  0  0  0  0  0  0  0  0  0
   18.9529   20.0666   25.5125 N   0  3  0  0  0  0  0  0  0  0  0  0
   18.8268   21.0845   25.5162 H   0  0  0  0  0  0  0  0  0  0  0  0
   18.5222   19.7083   26.3710 H   0  0  0  0  0  0  0  0  0  0  0  0
   18.4129   19.6960   24.7247 H   0  0  0  0  0  0  0  0  0  0  0  0
  1  2  1  0  0  0  0
  1  3  1  0  0  0  0
  1  4  1  0  0  0  0
  1  5  1  0  0  0  0
  5  6  1  0  0  0  0
  5  7  1  0  0  0  0
  5  8  1  0  0  0  0
  8  9  1  0  0  0  0
  8 10  1  0  0  0  0
  8 11  1  0  0  0  0
 11 12  1  0  0  0  0
 11 13  1  0  0  0  0
 11 14  1  0  0  0  0
 14 15  1  0  0  0  0
 14 16  1  0  0  0  0
 14 17  1  0  0  0  0
 17 18  1  0  0  0  0
 17 19  1  0  0  0  0
 17 20  1  0  0  0  0
 20 21  1  0  0  0  0
 20 22  1  0  0  0  0
 20 23  1  0  0  0  0
 23 24  1  0  0  0  0
 23 25  1  0  0  0  0
 23 26  1  0  0  0  0
M  END
> <VM2 Rank>
140

> <Conf_Id>
402

> <Probability>
0.01

> <Sum Probability>
99.79

> <Delta G>
3.831

> <G>
52.092

> <E>
19.223

> <-TS>
32.869

> <U+W>
-2.239

> <U>
51.830

> <W>
-54.069

> <W(PB)>
-56.350

> <W(SA)>
2.281

> <Valence>
4.864

> <Coulomb>
46.522

> <VdW>
0.444

> <VdW6>
-8.267

> <VdW12>
8.711

> <Bond>
0.239

> <Angle>
1.440

> <Pdih>
3.185

> <Idih>
0.000

> <Tether>
0.000

$$$$
VeraChem MOL file


 26 25  0  0  0  0  0  0  0  0999 V2000     
   21.1873   19.8145   20.0996 C   0  0  0  0  0  0  0  0  0  0  0  0
   20.9212   19.2339   19.2067 H   0  0  0  0  0  0  0  0  0  0  0  0
   20.7291   20.8082   20.0105 H   0  0  0  0  0  0  0  0  0  0  0  0
   22.2772   19.9450   20.1037 H   0  0  0  0  0  0  0  0  0  0  0  0
   20.7191   19.1015   21.3859 C   0  0  0  0  0  0  0  0  0  0  0  0
   21.0373   19.6941   22.2535 H   0  0  0  0  0  0  0  0  0  0  0  0
   21.2133   18.1230   21.4609 H   0  0  0  0  0  0  0  0  0  0  0  0
   19.1846   18.9170   21.4093 C   0  0  0  0  0  0  0  0  0  0  0  0
   18.6992   19.9025   21.4262 H   0  0  0  0  0  0  0  0  0  0  0  0
   18.8690   18.4378   20.4723 H   0  0  0  0  0  0  0  0  0  0  0  0
   18.6585   18.0630   22.5919 C   0  0  0  0  0  0  0  0  0  0  0  0
   19.0518   17.0394   22.5226 H   0  0  0  0  0  0  0  0  0  0  0  0
   17.5702   17.9693   22.4720 H   0  0  0  0  0  0  0  0  0  0  0  0
   18.9396   18.6554   23.9975 C   0  0  0  0  0  0  0  0  0  0  0  0
   18.9887   19.7506   23.9364 H   0  0  0  0  0  0  0  0  0  0  0  0
   18.0842   18.4257   24.6481 H   0  0  0  0  0  0  0  0  0  0  0  0
   20.2161   18.0810   24.6636 C   0  0  0  0  0  0  0  0  0  0  0  0
   21.1030   18.2772   24.0507 H   0  0  0  0  0  0  0  0  0  0  0  0
   20.1253   16.9889   24.7337 H   0  0  0  0  0  0  0  0  0  0  0  0
   20.4456   18.6389   26.0813 C   0  0  0  0  0  0  0  0  0  0  0  0
   19.5637   18.4490   26.6990 H   0  0  0  0  0  0  0  0  0  0  0  0
   21.2981   18.1290   26.5382 H   0  0  0  0  0  0  0  0  0  0  0  0
   20.7303   20.1277   26.1118 N   0  3  0  0  0  0  0  0  0  0  0  0
   20.8875   20.4651   27.0677 H   0  0  0  0  0  0  0  0  0  0  0  0
   19.9517   20.6710   25.7265 H   0  0  0  0  0  0  0  0  0  0  0  0
   21.5662   20.3670   25.5688 H   0  0  0  0  0  0  0  0  0  0  0  0
  1  2  1  0  0  0  0
  1  3  1  0  0  0  0
  1  4  1  0  0  0  0
  1  5  1  0  0  0  0
  5  6  1  0  0  0  0
  5  7  1  0  0  0  0
  5  8  1  0  0  0  0
  8  9  1  0  0  0  0
  8 10  1  0  0  0  0
  8 11  1  0  0  0  0
 11 12  1  0  0  0  0
 11 13  1  0  0  0  0
 11 14  1  0  0  0  0
 14 15  1  0  0  0  0
 14 16  1  0  0  0  0
 14 17  1  0  0  0  0
 17 18  1  0  0  0  0
 17 19  1  0  0  0  0
 17 20  1  0  0  0  0
 20 21  1  0  0  0  0
 20 22  1  0  0  0  0
 20 23  1  0  0  0  0
 23 24  1  0  0  0  0
 23 25  1  0  0  0  0
 23 26  1  0  0  0  0
M  END
> <VM2 Rank>
141

> <Conf_Id>
560

> <Probability>
0.01

> <Sum Probability>
99.81

> <Delta G>
3.864

> <G>
52.125

> <E>
19.308

> <-TS>
32.817

> <U+W>
-2.154

> <U>
51.952

> <W>
-54.106

> <W(PB)>
-56.392

> <W(SA)>
2.286

> <Valence>
5.280

> <Coulomb>
45.973

> <VdW>
0.700

> <VdW6>
-7.998

> <VdW12>
8.698

> <Bond>
0.241

> <Angle>
1.239

> <Pdih>
3.799

> <Idih>
0.000

> <Tether>
0.000

$$$$
VeraChem MOL file


 26 25  0  0  0  0  0  0  0  0999 V2000     
   19.0653   18.3764   20.2231 C   0  0  0  0  0  0  0  0  0  0  0  0
   18.8491   17.6904   21.0513 H   0  0  0  0  0  0  0  0  0  0  0  0
   18.3778   19.2298   20.2864 H   0  0  0  0  0  0  0  0  0  0  0  0
   18.8507   17.8409   19.2893 H   0  0  0  0  0  0  0  0  0  0  0  0
   20.5370   18.8435   20.2511 C   0  0  0  0  0  0  0  0  0  0  0  0
   20.7498   19.3932   19.3236 H   0  0  0  0  0  0  0  0  0  0  0  0
   21.1979   17.9655   20.2425 H   0  0  0  0  0  0  0  0  0  0  0  0
   20.8960   19.7518   21.4548 C   0  0  0  0  0  0  0  0  0  0  0  0
   21.9446   20.0579   21.3361 H   0  0  0  0  0  0  0  0  0  0  0  0
   20.3105   20.6807   21.4153 H   0  0  0  0  0  0  0  0  0  0  0  0
   20.7435   19.0773   22.8432 C   0  0  0  0  0  0  0  0  0  0  0  0
   21.5509   19.4436   23.4913 H   0  0  0  0  0  0  0  0  0  0  0  0
   20.8941   17.9928   22.7524 H   0  0  0  0  0  0  0  0  0  0  0  0
   19.3850   19.3797   23.5264 C   0  0  0  0  0  0  0  0  0  0  0  0
   19.2967   20.4603   23.7054 H   0  0  0  0  0  0  0  0  0  0  0  0
   18.5587   19.1140   22.8565 H   0  0  0  0  0  0  0  0  0  0  0  0
   19.1970   18.6218   24.8616 C   0  0  0  0  0  0  0  0  0  0  0  0
   19.2563   17.5400   24.6826 H   0  0  0  0  0  0  0  0  0  0  0  0
   18.1880   18.8221   25.2460 H   0  0  0  0  0  0  0  0  0  0  0  0
   20.2314   19.0275   25.9283 C   0  0  0  0  0  0  0  0  0  0  0  0
   21.2388   18.7918   25.5756 H   0  0  0  0  0  0  0  0  0  0  0  0
   20.1720   20.1044   26.1074 H   0  0  0  0  0  0  0  0  0  0  0  0
   20.0257   18.3209   27.2525 N   0  3  0  0  0  0  0  0  0  0  0  0
   20.0960   17.3025   27.1572 H   0  0  0  0  0  0  0  0  0  0  0  0
   19.1046   18.5234   27.6546 H   0  0  0  0  0  0  0  0  0  0  0  0
   20.7240   18.6046   27.9484 H   0  0  0  0  0  0  0  0  0  0  0  0
  1  2  1  0  0  0  0
  1  3  1  0  0  0  0
  1  4  1  0  0  0  0
  1  5  1  0  0  0  0
  5  6  1  0  0  0  0
  5  7  1  0  0  0  0
  5  8  1  0  0  0  0
  8  9  1  0  0  0  0
  8 10  1  0  0  0  0
  8 11  1  0  0  0  0
 11 12  1  0  0  0  0
 11 13  1  0  0  0  0
 11 14  1  0  0  0  0
 14 15  1  0  0  0  0
 14 16  1  0  0  0  0
 14 17  1  0  0  0  0
 17 18  1  0  0  0  0
 17 19  1  0  0  0  0
 17 20  1  0  0  0  0
 20 21  1  0  0  0  0
 20 22  1  0  0  0  0
 20 23  1  0  0  0  0
 23 24  1  0  0  0  0
 23 25  1  0  0  0  0
 23 26  1  0  0  0  0
M  END
> <VM2 Rank>
142

> <Conf_Id>
173

> <Probability>
0.01

> <Sum Probability>
99.82

> <Delta G>
3.923

> <G>
52.185

> <E>
19.360

> <-TS>
32.824

> <U+W>
-2.101

> <U>
51.310

> <W>
-53.412

> <W(PB)>
-55.695

> <W(SA)>
2.284

> <Valence>
5.462

> <Coulomb>
45.075

> <VdW>
0.773

> <VdW6>
-7.908

> <VdW12>
8.681

> <Bond>
0.240

> <Angle>
1.238

> <Pdih>
3.984

> <Idih>
0.000

> <Tether>
0.000

$$$$
VeraChem MOL file


 26 25  0  0  0  0  0  0  0  0999 V2000     
   18.6248   19.3116   20.6798 C   0  0  0  0  0  0  0  0  0  0  0  0
   18.2748   19.5992   21.6790 H   0  0  0  0  0  0  0  0  0  0  0  0
   18.2519   20.0620   19.9708 H   0  0  0  0  0  0  0  0  0  0  0  0
   18.1692   18.3475   20.4192 H   0  0  0  0  0  0  0  0  0  0  0  0
   20.1671   19.2311   20.6212 C   0  0  0  0  0  0  0  0  0  0  0  0
   20.5996   20.1993   20.9072 H   0  0  0  0  0  0  0  0  0  0  0  0
   20.4729   19.0612   19.5795 H   0  0  0  0  0  0  0  0  0  0  0  0
   20.7594   18.0997   21.4997 C   0  0  0  0  0  0  0  0  0  0  0  0
   20.4007   17.1320   21.1227 H   0  0  0  0  0  0  0  0  0  0  0  0
   21.8504   18.0861   21.3710 H   0  0  0  0  0  0  0  0  0  0  0  0
   20.4310   18.1983   23.0117 C   0  0  0  0  0  0  0  0  0  0  0  0
   20.8944   17.3430   23.5224 H   0  0  0  0  0  0  0  0  0  0  0  0
   19.3485   18.0973   23.1512 H   0  0  0  0  0  0  0  0  0  0  0  0
   20.9314   19.5118   23.6625 C   0  0  0  0  0  0  0  0  0  0  0  0
   21.9738   19.6827   23.3600 H   0  0  0  0  0  0  0  0  0  0  0  0
   20.3548   20.3623   23.2749 H   0  0  0  0  0  0  0  0  0  0  0  0
   20.8694   19.5219   25.2112 C   0  0  0  0  0  0  0  0  0  0  0  0
   21.3328   20.4542   25.5602 H   0  0  0  0  0  0  0  0  0  0  0  0
   21.4806   18.7086   25.6245 H   0  0  0  0  0  0  0  0  0  0  0  0
   19.4422   19.4606   25.7940 C   0  0  0  0  0  0  0  0  0  0  0  0
   19.4585   19.8484   26.8162 H   0  0  0  0  0  0  0  0  0  0  0  0
   18.7726   20.0912   25.2029 H   0  0  0  0  0  0  0  0  0  0  0  0
   18.8558   18.0640   25.8610 N   0  3  0  0  0  0  0  0  0  0  0  0
   17.9080   18.0682   26.2536 H   0  0  0  0  0  0  0  0  0  0  0  0
   19.4203   17.4439   26.4508 H   0  0  0  0  0  0  0  0  0  0  0  0
   18.7980   17.6314   24.9351 H   0  0  0  0  0  0  0  0  0  0  0  0
  1  2  1  0  0  0  0
  1  3  1  0  0  0  0
  1  4  1  0  0  0  0
  1  5  1  0  0  0  0
  5  6  1  0  0  0  0
  5  7  1  0  0  0  0
  5  8  1  0  0  0  0
  8  9  1  0  0  0  0
  8 10  1  0  0  0  0
  8 11  1  0  0  0  0
 11 12  1  0  0  0  0
 11 13  1  0  0  0  0
 11 14  1  0  0  0  0
 14 15  1  0  0  0  0
 14 16  1  0  0  0  0
 14 17  1  0  0  0  0
 17 18  1  0  0  0  0
 17 19  1  0  0  0  0
 17 20  1  0  0  0  0
 20 21  1  0  0  0  0
 20 22  1  0  0  0  0
 20 23  1  0  0  0  0
 23 24  1  0  0  0  0
 23 25  1  0  0  0  0
 23 26  1  0  0  0  0
M  END
> <VM2 Rank>
143

> <Conf_Id>
447

> <Probability>
0.01

> <Sum Probability>
99.83

> <Delta G>
3.944

> <G>
52.205

> <E>
19.260

> <-TS>
32.945

> <U+W>
-2.202

> <U>
51.945

> <W>
-54.147

> <W(PB)>
-56.366

> <W(SA)>
2.219

> <Valence>
4.646

> <Coulomb>
46.716

> <VdW>
0.583

> <VdW6>
-8.945

> <VdW12>
9.528

> <Bond>
0.266

> <Angle>
1.504

> <Pdih>
2.877

> <Idih>
0.000

> <Tether>
0.000

$$$$
VeraChem MOL file


 26 25  0  0  0  0  0  0  0  0999 V2000     
   19.9356   17.4999   20.3298 C   0  0  0  0  0  0  0  0  0  0  0  0
   20.3160   16.4702   20.3165 H   0  0  0  0  0  0  0  0  0  0  0  0
   18.8390   17.4544   20.3051 H   0  0  0  0  0  0  0  0  0  0  0  0
   20.2779   17.9972   19.4129 H   0  0  0  0  0  0  0  0  0  0  0  0
   20.4311   18.2478   21.5855 C   0  0  0  0  0  0  0  0  0  0  0  0
   21.5300   18.2474   21.5965 H   0  0  0  0  0  0  0  0  0  0  0  0
   20.1083   17.6975   22.4764 H   0  0  0  0  0  0  0  0  0  0  0  0
   19.9111   19.7051   21.6223 C   0  0  0  0  0  0  0  0  0  0  0  0
   20.2483   20.2085   20.7056 H   0  0  0  0  0  0  0  0  0  0  0  0
   18.8131   19.7202   21.5887 H   0  0  0  0  0  0  0  0  0  0  0  0
   20.4194   20.5222   22.8392 C   0  0  0  0  0  0  0  0  0  0  0  0
   20.5536   21.5626   22.5121 H   0  0  0  0  0  0  0  0  0  0  0  0
   21.4197   20.1826   23.1397 H   0  0  0  0  0  0  0  0  0  0  0  0
   19.4574   20.5460   24.0576 C   0  0  0  0  0  0  0  0  0  0  0  0
   19.8647   21.2359   24.8097 H   0  0  0  0  0  0  0  0  0  0  0  0
   18.4960   20.9777   23.7467 H   0  0  0  0  0  0  0  0  0  0  0  0
   19.1967   19.1788   24.7332 C   0  0  0  0  0  0  0  0  0  0  0  0
   18.6749   18.5103   24.0375 H   0  0  0  0  0  0  0  0  0  0  0  0
   18.5143   19.3289   25.5804 H   0  0  0  0  0  0  0  0  0  0  0  0
   20.4884   18.5140   25.2445 C   0  0  0  0  0  0  0  0  0  0  0  0
   21.1708   18.3400   24.4086 H   0  0  0  0  0  0  0  0  0  0  0  0
   20.9837   19.1757   25.9601 H   0  0  0  0  0  0  0  0  0  0  0  0
   20.2413   17.1852   25.9289 N   0  3  0  0  0  0  0  0  0  0  0  0
   21.1137   16.7600   26.2613 H   0  0  0  0  0  0  0  0  0  0  0  0
   19.7984   16.5071   25.3006 H   0  0  0  0  0  0  0  0  0  0  0  0
   19.6290   17.2850   26.7451 H   0  0  0  0  0  0  0  0  0  0  0  0
  1  2  1  0  0  0  0
  1  3  1  0  0  0  0
  1  4  1  0  0  0  0
  1  5  1  0  0  0  0
  5  6  1  0  0  0  0
  5  7  1  0  0  0  0
  5  8  1  0  0  0  0
  8  9  1  0  0  0  0
  8 10  1  0  0  0  0
  8 11  1  0  0  0  0
 11 12  1  0  0  0  0
 11 13  1  0  0  0  0
 11 14  1  0  0  0  0
 14 15  1  0  0  0  0
 14 16  1  0  0  0  0
 14 17  1  0  0  0  0
 17 18  1  0  0  0  0
 17 19  1  0  0  0  0
 17 20  1  0  0  0  0
 20 21  1  0  0  0  0
 20 22  1  0  0  0  0
 20 23  1  0  0  0  0
 23 24  1  0  0  0  0
 23 25  1  0  0  0  0
 23 26  1  0  0  0  0
M  END
> <VM2 Rank>
144

> <Conf_Id>
1084

> <Probability>
0.01

> <Sum Probability>
99.83

> <Delta G>
4.015

> <G>
52.276

> <E>
19.190

> <-TS>
33.086

> <U+W>
-2.272

> <U>
52.111

> <W>
-54.383

> <W(PB)>
-56.638

> <W(SA)>
2.255

> <Valence>
5.498

> <Coulomb>
46.317

> <VdW>
0.296

> <VdW6>
-8.628

> <VdW12>
8.924

> <Bond>
0.245

> <Angle>
1.578

> <Pdih>
3.676

> <Idih>
0.000

> <Tether>
0.000

$$$$
VeraChem MOL file


 26 25  0  0  0  0  0  0  0  0999 V2000     
   18.4308   19.3574   21.2860 C   0  0  0  0  0  0  0  0  0  0  0  0
   17.8721   18.4199   21.4030 H   0  0  0  0  0  0  0  0  0  0  0  0
   18.5106   19.8308   22.2701 H   0  0  0  0  0  0  0  0  0  0  0  0
   17.8339   20.0228   20.6490 H   0  0  0  0  0  0  0  0  0  0  0  0
   19.8158   19.1010   20.6477 C   0  0  0  0  0  0  0  0  0  0  0  0
   20.3549   20.0490   20.5134 H   0  0  0  0  0  0  0  0  0  0  0  0
   19.6503   18.7027   19.6368 H   0  0  0  0  0  0  0  0  0  0  0  0
   20.6910   18.0898   21.4332 C   0  0  0  0  0  0  0  0  0  0  0  0
   20.0618   17.3330   21.9197 H   0  0  0  0  0  0  0  0  0  0  0  0
   21.2960   17.5345   20.7033 H   0  0  0  0  0  0  0  0  0  0  0  0
   21.6762   18.7269   22.4506 C   0  0  0  0  0  0  0  0  0  0  0  0
   22.3511   19.4056   21.9112 H   0  0  0  0  0  0  0  0  0  0  0  0
   22.3179   17.9338   22.8585 H   0  0  0  0  0  0  0  0  0  0  0  0
   21.0355   19.4995   23.6302 C   0  0  0  0  0  0  0  0  0  0  0  0
   21.8428   19.9256   24.2418 H   0  0  0  0  0  0  0  0  0  0  0  0
   20.4662   20.3574   23.2512 H   0  0  0  0  0  0  0  0  0  0  0  0
   20.1424   18.6169   24.5337 C   0  0  0  0  0  0  0  0  0  0  0  0
   20.7254   17.7652   24.9082 H   0  0  0  0  0  0  0  0  0  0  0  0
   19.3063   18.2045   23.9559 H   0  0  0  0  0  0  0  0  0  0  0  0
   19.5847   19.4180   25.7230 C   0  0  0  0  0  0  0  0  0  0  0  0
   20.4107   19.8151   26.3191 H   0  0  0  0  0  0  0  0  0  0  0  0
   18.9911   20.2589   25.3542 H   0  0  0  0  0  0  0  0  0  0  0  0
   18.7047   18.5895   26.6366 N   0  3  0  0  0  0  0  0  0  0  0  0
   19.2130   17.7952   27.0390 H   0  0  0  0  0  0  0  0  0  0  0  0
   17.8915   18.2086   26.1420 H   0  0  0  0  0  0  0  0  0  0  0  0
   18.3446   19.1422   27.4222 H   0  0  0  0  0  0  0  0  0  0  0  0
  1  2  1  0  0  0  0
  1  3  1  0  0  0  0
  1  4  1  0  0  0  0
  1  5  1  0  0  0  0
  5  6  1  0  0  0  0
  5  7  1  0  0  0  0
  5  8  1  0  0  0  0
  8  9  1  0  0  0  0
  8 10  1  0  0  0  0
  8 11  1  0  0  0  0
 11 12  1  0  0  0  0
 11 13  1  0  0  0  0
 11 14  1  0  0  0  0
 14 15  1  0  0  0  0
 14 16  1  0  0  0  0
 14 17  1  0  0  0  0
 17 18  1  0  0  0  0
 17 19  1  0  0  0  0
 17 20  1  0  0  0  0
 20 21  1  0  0  0  0
 20 22  1  0  0  0  0
 20 23  1  0  0  0  0
 23 24  1  0  0  0  0
 23 25  1  0  0  0  0
 23 26  1  0  0  0  0
M  END
> <VM2 Rank>
145

> <Conf_Id>
459

> <Probability>
0.01

> <Sum Probability>
99.84

> <Delta G>
4.050

> <G>
52.312

> <E>
19.140

> <-TS>
33.172

> <U+W>
-2.322

> <U>
51.692

> <W>
-54.014

> <W(PB)>
-56.248

> <W(SA)>
2.234

> <Valence>
5.738

> <Coulomb>
45.543

> <VdW>
0.411

> <VdW6>
-8.566

> <VdW12>
8.977

> <Bond>
0.261

> <Angle>
1.836

> <Pdih>
3.641

> <Idih>
0.000

> <Tether>
0.000

$$$$
VeraChem MOL file


 26 25  0  0  0  0  0  0  0  0999 V2000     
   19.6947   19.7057   19.8158 C   0  0  0  0  0  0  0  0  0  0  0  0
   20.7606   19.9618   19.8503 H   0  0  0  0  0  0  0  0  0  0  0  0
   19.4386   19.5064   18.7672 H   0  0  0  0  0  0  0  0  0  0  0  0
   19.1193   20.5824   20.1404 H   0  0  0  0  0  0  0  0  0  0  0  0
   19.3740   18.4742   20.6933 C   0  0  0  0  0  0  0  0  0  0  0  0
   19.9856   17.6195   20.3719 H   0  0  0  0  0  0  0  0  0  0  0  0
   18.3277   18.1846   20.5217 H   0  0  0  0  0  0  0  0  0  0  0  0
   19.5751   18.7238   22.2078 C   0  0  0  0  0  0  0  0  0  0  0  0
   18.9813   19.5942   22.5189 H   0  0  0  0  0  0  0  0  0  0  0  0
   19.1721   17.8557   22.7439 H   0  0  0  0  0  0  0  0  0  0  0  0
   21.0576   18.9229   22.6096 C   0  0  0  0  0  0  0  0  0  0  0  0
   21.5014   19.7140   21.9922 H   0  0  0  0  0  0  0  0  0  0  0  0
   21.6216   18.0076   22.3838 H   0  0  0  0  0  0  0  0  0  0  0  0
   21.2761   19.3106   24.0954 C   0  0  0  0  0  0  0  0  0  0  0  0
   22.3546   19.4644   24.2385 H   0  0  0  0  0  0  0  0  0  0  0  0
   20.8124   20.2842   24.2998 H   0  0  0  0  0  0  0  0  0  0  0  0
   20.8048   18.2516   25.1279 C   0  0  0  0  0  0  0  0  0  0  0  0
   21.4105   18.3485   26.0388 H   0  0  0  0  0  0  0  0  0  0  0  0
   21.0041   17.2436   24.7408 H   0  0  0  0  0  0  0  0  0  0  0  0
   19.3182   18.3640   25.5278 C   0  0  0  0  0  0  0  0  0  0  0  0
   18.6806   18.3065   24.6441 H   0  0  0  0  0  0  0  0  0  0  0  0
   19.0594   17.5303   26.1862 H   0  0  0  0  0  0  0  0  0  0  0  0
   18.9806   19.6461   26.2634 N   0  3  0  0  0  0  0  0  0  0  0  0
   19.1671   20.4739   25.6893 H   0  0  0  0  0  0  0  0  0  0  0  0
   19.5272   19.7455   27.1249 H   0  0  0  0  0  0  0  0  0  0  0  0
   17.9910   19.6824   26.5310 H   0  0  0  0  0  0  0  0  0  0  0  0
  1  2  1  0  0  0  0
  1  3  1  0  0  0  0
  1  4  1  0  0  0  0
  1  5  1  0  0  0  0
  5  6  1  0  0  0  0
  5  7  1  0  0  0  0
  5  8  1  0  0  0  0
  8  9  1  0  0  0  0
  8 10  1  0  0  0  0
  8 11  1  0  0  0  0
 11 12  1  0  0  0  0
 11 13  1  0  0  0  0
 11 14  1  0  0  0  0
 14 15  1  0  0  0  0
 14 16  1  0  0  0  0
 14 17  1  0  0  0  0
 17 18  1  0  0  0  0
 17 19  1  0  0  0  0
 17 20  1  0  0  0  0
 20 21  1  0  0  0  0
 20 22  1  0  0  0  0
 20 23  1  0  0  0  0
 23 24  1  0  0  0  0
 23 25  1  0  0  0  0
 23 26  1  0  0  0  0
M  END
> <VM2 Rank>
146

> <Conf_Id>
216

> <Probability>
0.01

> <Sum Probability>
99.85

> <Delta G>
4.093

> <G>
52.355

> <E>
19.548

> <-TS>
32.807

> <U+W>
-1.914

> <U>
52.150

> <W>
-54.064

> <W(PB)>
-56.339

> <W(SA)>
2.275

> <Valence>
5.368

> <Coulomb>
45.965

> <VdW>
0.817

> <VdW6>
-8.546

> <VdW12>
9.364

> <Bond>
0.273

> <Angle>
1.632

> <Pdih>
3.464

> <Idih>
0.000

> <Tether>
0.000

$$$$
VeraChem MOL file


 26 25  0  0  0  0  0  0  0  0999 V2000     
   20.0199   19.9476   20.2947 C   0  0  0  0  0  0  0  0  0  0  0  0
   20.2232   20.9688   19.9473 H   0  0  0  0  0  0  0  0  0  0  0  0
   20.2591   19.2593   19.4737 H   0  0  0  0  0  0  0  0  0  0  0  0
   18.9447   19.8765   20.5010 H   0  0  0  0  0  0  0  0  0  0  0  0
   20.8593   19.6259   21.5516 C   0  0  0  0  0  0  0  0  0  0  0  0
   20.5907   20.3189   22.3590 H   0  0  0  0  0  0  0  0  0  0  0  0
   21.9180   19.8182   21.3284 H   0  0  0  0  0  0  0  0  0  0  0  0
   20.7134   18.1575   22.0267 C   0  0  0  0  0  0  0  0  0  0  0  0
   21.0681   17.4945   21.2256 H   0  0  0  0  0  0  0  0  0  0  0  0
   21.3904   17.9756   22.8705 H   0  0  0  0  0  0  0  0  0  0  0  0
   19.2739   17.7282   22.4145 C   0  0  0  0  0  0  0  0  0  0  0  0
   19.2962   16.6770   22.7331 H   0  0  0  0  0  0  0  0  0  0  0  0
   18.6447   17.7440   21.5147 H   0  0  0  0  0  0  0  0  0  0  0  0
   18.5785   18.5708   23.5179 C   0  0  0  0  0  0  0  0  0  0  0  0
   18.4843   19.6193   23.2056 H   0  0  0  0  0  0  0  0  0  0  0  0
   17.5479   18.2006   23.6086 H   0  0  0  0  0  0  0  0  0  0  0  0
   19.2360   18.4826   24.9187 C   0  0  0  0  0  0  0  0  0  0  0  0
   19.5775   17.4567   25.1102 H   0  0  0  0  0  0  0  0  0  0  0  0
   18.4709   18.7004   25.6757 H   0  0  0  0  0  0  0  0  0  0  0  0
   20.3971   19.4756   25.1150 C   0  0  0  0  0  0  0  0  0  0  0  0
   21.1923   19.2746   24.3952 H   0  0  0  0  0  0  0  0  0  0  0  0
   20.0380   20.4954   24.9523 H   0  0  0  0  0  0  0  0  0  0  0  0
   21.0029   19.4108   26.5020 N   0  3  0  0  0  0  0  0  0  0  0  0
   20.3131   19.6230   27.2302 H   0  0  0  0  0  0  0  0  0  0  0  0
   21.7712   20.0811   26.6144 H   0  0  0  0  0  0  0  0  0  0  0  0
   21.3841   18.4820   26.7093 H   0  0  0  0  0  0  0  0  0  0  0  0
  1  2  1  0  0  0  0
  1  3  1  0  0  0  0
  1  4  1  0  0  0  0
  1  5  1  0  0  0  0
  5  6  1  0  0  0  0
  5  7  1  0  0  0  0
  5  8  1  0  0  0  0
  8  9  1  0  0  0  0
  8 10  1  0  0  0  0
  8 11  1  0  0  0  0
 11 12  1  0  0  0  0
 11 13  1  0  0  0  0
 11 14  1  0  0  0  0
 14 15  1  0  0  0  0
 14 16  1  0  0  0  0
 14 17  1  0  0  0  0
 17 18  1  0  0  0  0
 17 19  1  0  0  0  0
 17 20  1  0  0  0  0
 20 21  1  0  0  0  0
 20 22  1  0  0  0  0
 20 23  1  0  0  0  0
 23 24  1  0  0  0  0
 23 25  1  0  0  0  0
 23 26  1  0  0  0  0
M  END
> <VM2 Rank>
147

> <Conf_Id>
1082

> <Probability>
0.01

> <Sum Probability>
99.86

> <Delta G>
4.112

> <G>
52.373

> <E>
18.962

> <-TS>
33.411

> <U+W>
-2.499

> <U>
51.820

> <W>
-54.320

> <W(PB)>
-56.541

> <W(SA)>
2.221

> <Valence>
5.497

> <Coulomb>
46.010

> <VdW>
0.313

> <VdW6>
-9.491

> <VdW12>
9.804

> <Bond>
0.285

> <Angle>
2.062

> <Pdih>
3.150

> <Idih>
0.000

> <Tether>
0.000

$$$$
VeraChem MOL file


 26 25  0  0  0  0  0  0  0  0999 V2000     
   20.8633   17.6275   20.9625 C   0  0  0  0  0  0  0  0  0  0  0  0
   21.4939   17.8215   21.8384 H   0  0  0  0  0  0  0  0  0  0  0  0
   20.7712   16.5391   20.8543 H   0  0  0  0  0  0  0  0  0  0  0  0
   21.3852   18.0097   20.0757 H   0  0  0  0  0  0  0  0  0  0  0  0
   19.4682   18.2777   21.1056 C   0  0  0  0  0  0  0  0  0  0  0  0
   18.9467   17.8739   21.9825 H   0  0  0  0  0  0  0  0  0  0  0  0
   18.8577   17.9881   20.2390 H   0  0  0  0  0  0  0  0  0  0  0  0
   19.5162   19.8236   21.1755 C   0  0  0  0  0  0  0  0  0  0  0  0
   19.9606   20.2013   20.2443 H   0  0  0  0  0  0  0  0  0  0  0  0
   18.4872   20.2084   21.1899 H   0  0  0  0  0  0  0  0  0  0  0  0
   20.2951   20.4295   22.3744 C   0  0  0  0  0  0  0  0  0  0  0  0
   20.3018   21.5196   22.2368 H   0  0  0  0  0  0  0  0  0  0  0  0
   21.3507   20.1290   22.3448 H   0  0  0  0  0  0  0  0  0  0  0  0
   19.6814   20.1333   23.7683 C   0  0  0  0  0  0  0  0  0  0  0  0
   19.8441   21.0111   24.4093 H   0  0  0  0  0  0  0  0  0  0  0  0
   18.5919   20.0178   23.6848 H   0  0  0  0  0  0  0  0  0  0  0  0
   20.2997   18.9043   24.4763 C   0  0  0  0  0  0  0  0  0  0  0  0
   21.3846   19.0435   24.5741 H   0  0  0  0  0  0  0  0  0  0  0  0
   20.1468   17.9980   23.8810 H   0  0  0  0  0  0  0  0  0  0  0  0
   19.6865   18.6964   25.8722 C   0  0  0  0  0  0  0  0  0  0  0  0
   19.8548   19.5864   26.4845 H   0  0  0  0  0  0  0  0  0  0  0  0
   18.6082   18.5405   25.7808 H   0  0  0  0  0  0  0  0  0  0  0  0
   20.2706   17.5066   26.6063 N   0  3  0  0  0  0  0  0  0  0  0  0
   21.2811   17.6043   26.7492 H   0  0  0  0  0  0  0  0  0  0  0  0
   20.1209   16.6307   26.0950 H   0  0  0  0  0  0  0  0  0  0  0  0
   19.8484   17.3869   27.5336 H   0  0  0  0  0  0  0  0  0  0  0  0
  1  2  1  0  0  0  0
  1  3  1  0  0  0  0
  1  4  1  0  0  0  0
  1  5  1  0  0  0  0
  5  6  1  0  0  0  0
  5  7  1  0  0  0  0
  5  8  1  0  0  0  0
  8  9  1  0  0  0  0
  8 10  1  0  0  0  0
  8 11  1  0  0  0  0
 11 12  1  0  0  0  0
 11 13  1  0  0  0  0
 11 14  1  0  0  0  0
 14 15  1  0  0  0  0
 14 16  1  0  0  0  0
 14 17  1  0  0  0  0
 17 18  1  0  0  0  0
 17 19  1  0  0  0  0
 17 20  1  0  0  0  0
 20 21  1  0  0  0  0
 20 22  1  0  0  0  0
 20 23  1  0  0  0  0
 23 24  1  0  0  0  0
 23 25  1  0  0  0  0
 23 26  1  0  0  0  0
M  END
> <VM2 Rank>
148

> <Conf_Id>
1257

> <Probability>
0.01

> <Sum Probability>
99.87

> <Delta G>
4.124

> <G>
52.386

> <E>
19.224

> <-TS>
33.161

> <U+W>
-2.237

> <U>
51.714

> <W>
-53.952

> <W(PB)>
-56.214

> <W(SA)>
2.262

> <Valence>
5.770

> <Coulomb>
45.469

> <VdW>
0.475

> <VdW6>
-8.435

> <VdW12>
8.910

> <Bond>
0.260

> <Angle>
1.770

> <Pdih>
3.740

> <Idih>
0.000

> <Tether>
0.000

$$$$
VeraChem MOL file


 26 25  0  0  0  0  0  0  0  0999 V2000     
   21.2095   18.9527   20.2678 C   0  0  0  0  0  0  0  0  0  0  0  0
   21.5440   19.5444   19.4060 H   0  0  0  0  0  0  0  0  0  0  0  0
   21.7996   19.2716   21.1361 H   0  0  0  0  0  0  0  0  0  0  0  0
   21.4398   17.8993   20.0623 H   0  0  0  0  0  0  0  0  0  0  0  0
   19.6962   19.1538   20.5080 C   0  0  0  0  0  0  0  0  0  0  0  0
   19.1589   18.9407   19.5733 H   0  0  0  0  0  0  0  0  0  0  0  0
   19.4937   20.2090   20.7340 H   0  0  0  0  0  0  0  0  0  0  0  0
   19.1210   18.2439   21.6238 C   0  0  0  0  0  0  0  0  0  0  0  0
   18.0443   18.4403   21.7208 H   0  0  0  0  0  0  0  0  0  0  0  0
   19.2066   17.1969   21.3019 H   0  0  0  0  0  0  0  0  0  0  0  0
   19.7880   18.3879   23.0167 C   0  0  0  0  0  0  0  0  0  0  0  0
   20.8476   18.1068   22.9551 H   0  0  0  0  0  0  0  0  0  0  0  0
   19.3111   17.6604   23.6841 H   0  0  0  0  0  0  0  0  0  0  0  0
   19.6515   19.8054   23.6270 C   0  0  0  0  0  0  0  0  0  0  0  0
   20.0556   20.5453   22.9246 H   0  0  0  0  0  0  0  0  0  0  0  0
   18.5875   20.0491   23.7525 H   0  0  0  0  0  0  0  0  0  0  0  0
   20.3872   19.9943   24.9784 C   0  0  0  0  0  0  0  0  0  0  0  0
   20.2886   21.0486   25.2693 H   0  0  0  0  0  0  0  0  0  0  0  0
   21.4637   19.8155   24.8559 H   0  0  0  0  0  0  0  0  0  0  0  0
   19.8364   19.1357   26.1359 C   0  0  0  0  0  0  0  0  0  0  0  0
   20.0960   19.6111   27.0857 H   0  0  0  0  0  0  0  0  0  0  0  0
   18.7464   19.0802   26.0715 H   0  0  0  0  0  0  0  0  0  0  0  0
   20.3913   17.7252   26.1833 N   0  3  0  0  0  0  0  0  0  0  0  0
   21.4097   17.7223   26.3008 H   0  0  0  0  0  0  0  0  0  0  0  0
   20.1843   17.2054   25.3261 H   0  0  0  0  0  0  0  0  0  0  0  0
   19.9992   17.1888   26.9650 H   0  0  0  0  0  0  0  0  0  0  0  0
  1  2  1  0  0  0  0
  1  3  1  0  0  0  0
  1  4  1  0  0  0  0
  1  5  1  0  0  0  0
  5  6  1  0  0  0  0
  5  7  1  0  0  0  0
  5  8  1  0  0  0  0
  8  9  1  0  0  0  0
  8 10  1  0  0  0  0
  8 11  1  0  0  0  0
 11 12  1  0  0  0  0
 11 13  1  0  0  0  0
 11 14  1  0  0  0  0
 14 15  1  0  0  0  0
 14 16  1  0  0  0  0
 14 17  1  0  0  0  0
 17 18  1  0  0  0  0
 17 19  1  0  0  0  0
 17 20  1  0  0  0  0
 20 21  1  0  0  0  0
 20 22  1  0  0  0  0
 20 23  1  0  0  0  0
 23 24  1  0  0  0  0
 23 25  1  0  0  0  0
 23 26  1  0  0  0  0
M  END
> <VM2 Rank>
149

> <Conf_Id>
812

> <Probability>
0.01

> <Sum Probability>
99.87

> <Delta G>
4.158

> <G>
52.419

> <E>
19.574

> <-TS>
32.845

> <U+W>
-1.888

> <U>
52.060

> <W>
-53.948

> <W(PB)>
-56.191

> <W(SA)>
2.243

> <Valence>
4.855

> <Coulomb>
46.488

> <VdW>
0.717

> <VdW6>
-8.768

> <VdW12>
9.485

> <Bond>
0.277

> <Angle>
1.731

> <Pdih>
2.847

> <Idih>
0.000

> <Tether>
0.000

$$$$
VeraChem MOL file


 26 25  0  0  0  0  0  0  0  0999 V2000     
   19.6533   17.9275   20.2158 C   0  0  0  0  0  0  0  0  0  0  0  0
   20.5393   17.3061   20.0321 H   0  0  0  0  0  0  0  0  0  0  0  0
   19.0879   17.4851   21.0455 H   0  0  0  0  0  0  0  0  0  0  0  0
   19.0184   17.8806   19.3216 H   0  0  0  0  0  0  0  0  0  0  0  0
   20.0531   19.3889   20.5199 C   0  0  0  0  0  0  0  0  0  0  0  0
   19.1535   19.9849   20.7227 H   0  0  0  0  0  0  0  0  0  0  0  0
   20.5037   19.8267   19.6182 H   0  0  0  0  0  0  0  0  0  0  0  0
   21.0629   19.5233   21.6886 C   0  0  0  0  0  0  0  0  0  0  0  0
   22.0054   19.0407   21.3954 H   0  0  0  0  0  0  0  0  0  0  0  0
   21.3019   20.5864   21.8296 H   0  0  0  0  0  0  0  0  0  0  0  0
   20.6033   18.9251   23.0440 C   0  0  0  0  0  0  0  0  0  0  0  0
   21.4279   19.0549   23.7548 H   0  0  0  0  0  0  0  0  0  0  0  0
   20.4473   17.8431   22.9417 H   0  0  0  0  0  0  0  0  0  0  0  0
   19.3273   19.5918   23.6162 C   0  0  0  0  0  0  0  0  0  0  0  0
   19.5165   20.6611   23.7836 H   0  0  0  0  0  0  0  0  0  0  0  0
   18.5217   19.5347   22.8733 H   0  0  0  0  0  0  0  0  0  0  0  0
   18.8014   18.9496   24.9255 C   0  0  0  0  0  0  0  0  0  0  0  0
   18.5475   17.8943   24.7585 H   0  0  0  0  0  0  0  0  0  0  0  0
   17.8588   19.4478   25.1882 H   0  0  0  0  0  0  0  0  0  0  0  0
   19.7526   19.0806   26.1331 C   0  0  0  0  0  0  0  0  0  0  0  0
   20.2357   20.0613   26.1212 H   0  0  0  0  0  0  0  0  0  0  0  0
   19.1698   19.0011   27.0548 H   0  0  0  0  0  0  0  0  0  0  0  0
   20.8270   18.0123   26.1979 N   0  3  0  0  0  0  0  0  0  0  0  0
   21.4255   18.0231   25.3675 H   0  0  0  0  0  0  0  0  0  0  0  0
   20.4233   17.0725   26.2680 H   0  0  0  0  0  0  0  0  0  0  0  0
   21.4374   18.1363   27.0130 H   0  0  0  0  0  0  0  0  0  0  0  0
  1  2  1  0  0  0  0
  1  3  1  0  0  0  0
  1  4  1  0  0  0  0
  1  5  1  0  0  0  0
  5  6  1  0  0  0  0
  5  7  1  0  0  0  0
  5  8  1  0  0  0  0
  8  9  1  0  0  0  0
  8 10  1  0  0  0  0
  8 11  1  0  0  0  0
 11 12  1  0  0  0  0
 11 13  1  0  0  0  0
 11 14  1  0  0  0  0
 14 15  1  0  0  0  0
 14 16  1  0  0  0  0
 14 17  1  0  0  0  0
 17 18  1  0  0  0  0
 17 19  1  0  0  0  0
 17 20  1  0  0  0  0
 20 21  1  0  0  0  0
 20 22  1  0  0  0  0
 20 23  1  0  0  0  0
 23 24  1  0  0  0  0
 23 25  1  0  0  0  0
 23 26  1  0  0  0  0
M  END
> <VM2 Rank>
150

> <Conf_Id>
147

> <Probability>
0.01

> <Sum Probability>
99.88

> <Delta G>
4.177

> <G>
52.438

> <E>
19.593

> <-TS>
32.846

> <U+W>
-1.869

> <U>
52.060

> <W>
-53.929

> <W(PB)>
-56.174

> <W(SA)>
2.245

> <Valence>
4.855

> <Coulomb>
46.488

> <VdW>
0.717

> <VdW6>
-8.768

> <VdW12>
9.485

> <Bond>
0.277

> <Angle>
1.730

> <Pdih>
2.847

> <Idih>
0.000

> <Tether>
0.000

$$$$
VeraChem MOL file


 26 25  0  0  0  0  0  0  0  0999 V2000     
   21.2132   18.5743   20.1491 C   0  0  0  0  0  0  0  0  0  0  0  0
   21.7768   19.4126   20.5760 H   0  0  0  0  0  0  0  0  0  0  0  0
   21.9375   17.7986   19.8689 H   0  0  0  0  0  0  0  0  0  0  0  0
   20.7248   18.9231   19.2299 H   0  0  0  0  0  0  0  0  0  0  0  0
   20.1774   18.0106   21.1489 C   0  0  0  0  0  0  0  0  0  0  0  0
   20.6926   17.6653   22.0533 H   0  0  0  0  0  0  0  0  0  0  0  0
   19.7140   17.1191   20.7037 H   0  0  0  0  0  0  0  0  0  0  0  0
   19.0572   19.0224   21.5039 C   0  0  0  0  0  0  0  0  0  0  0  0
   18.6287   19.4017   20.5659 H   0  0  0  0  0  0  0  0  0  0  0  0
   18.2350   18.4982   22.0100 H   0  0  0  0  0  0  0  0  0  0  0  0
   19.5121   20.2293   22.3692 C   0  0  0  0  0  0  0  0  0  0  0  0
   18.9321   21.1086   22.0568 H   0  0  0  0  0  0  0  0  0  0  0  0
   20.5600   20.4837   22.1678 H   0  0  0  0  0  0  0  0  0  0  0  0
   19.2984   20.0502   23.8945 C   0  0  0  0  0  0  0  0  0  0  0  0
   19.5810   20.9874   24.3941 H   0  0  0  0  0  0  0  0  0  0  0  0
   18.2286   19.9056   24.0998 H   0  0  0  0  0  0  0  0  0  0  0  0
   20.1031   18.8879   24.5187 C   0  0  0  0  0  0  0  0  0  0  0  0
   21.1618   18.9791   24.2421 H   0  0  0  0  0  0  0  0  0  0  0  0
   19.7403   17.9303   24.1250 H   0  0  0  0  0  0  0  0  0  0  0  0
   19.9735   18.8762   26.0520 C   0  0  0  0  0  0  0  0  0  0  0  0
   20.3453   19.8199   26.4601 H   0  0  0  0  0  0  0  0  0  0  0  0
   18.9217   18.7711   26.3317 H   0  0  0  0  0  0  0  0  0  0  0  0
   20.7461   17.7481   26.7046 N   0  3  0  0  0  0  0  0  0  0  0  0
   20.4248   16.8289   26.3838 H   0  0  0  0  0  0  0  0  0  0  0  0
   20.6466   17.7594   27.7256 H   0  0  0  0  0  0  0  0  0  0  0  0
   21.7496   17.8051   26.5022 H   0  0  0  0  0  0  0  0  0  0  0  0
  1  2  1  0  0  0  0
  1  3  1  0  0  0  0
  1  4  1  0  0  0  0
  1  5  1  0  0  0  0
  5  6  1  0  0  0  0
  5  7  1  0  0  0  0
  5  8  1  0  0  0  0
  8  9  1  0  0  0  0
  8 10  1  0  0  0  0
  8 11  1  0  0  0  0
 11 12  1  0  0  0  0
 11 13  1  0  0  0  0
 11 14  1  0  0  0  0
 14 15  1  0  0  0  0
 14 16  1  0  0  0  0
 14 17  1  0  0  0  0
 17 18  1  0  0  0  0
 17 19  1  0  0  0  0
 17 20  1  0  0  0  0
 20 21  1  0  0  0  0
 20 22  1  0  0  0  0
 20 23  1  0  0  0  0
 23 24  1  0  0  0  0
 23 25  1  0  0  0  0
 23 26  1  0  0  0  0
M  END
> <VM2 Rank>
151

> <Conf_Id>
825

> <Probability>
0.01

> <Sum Probability>
99.89

> <Delta G>
4.183

> <G>
52.444

> <E>
19.682

> <-TS>
32.762

> <U+W>
-1.780

> <U>
51.960

> <W>
-53.740

> <W(PB)>
-56.030

> <W(SA)>
2.290

> <Valence>
5.882

> <Coulomb>
45.296

> <VdW>
0.781

> <VdW6>
-7.930

> <VdW12>
8.711

> <Bond>
0.264

> <Angle>
1.488

> <Pdih>
4.131

> <Idih>
0.000

> <Tether>
0.000

$$$$
VeraChem MOL file


 26 25  0  0  0  0  0  0  0  0999 V2000     
   19.8943   20.0128   20.2693 C   0  0  0  0  0  0  0  0  0  0  0  0
   18.8199   20.1691   20.4305 H   0  0  0  0  0  0  0  0  0  0  0  0
   20.4488   20.5951   21.0155 H   0  0  0  0  0  0  0  0  0  0  0  0
   20.1483   20.4191   19.2817 H   0  0  0  0  0  0  0  0  0  0  0  0
   20.2568   18.5136   20.3453 C   0  0  0  0  0  0  0  0  0  0  0  0
   21.3440   18.3958   20.2364 H   0  0  0  0  0  0  0  0  0  0  0  0
   19.8075   17.9985   19.4847 H   0  0  0  0  0  0  0  0  0  0  0  0
   19.7855   17.8075   21.6422 C   0  0  0  0  0  0  0  0  0  0  0  0
   18.6891   17.8321   21.7087 H   0  0  0  0  0  0  0  0  0  0  0  0
   20.0528   16.7453   21.5555 H   0  0  0  0  0  0  0  0  0  0  0  0
   20.4173   18.3600   22.9465 C   0  0  0  0  0  0  0  0  0  0  0  0
   21.4093   18.7816   22.7342 H   0  0  0  0  0  0  0  0  0  0  0  0
   20.5852   17.5160   23.6286 H   0  0  0  0  0  0  0  0  0  0  0  0
   19.5272   19.4074   23.6638 C   0  0  0  0  0  0  0  0  0  0  0  0
   19.2670   20.2164   22.9712 H   0  0  0  0  0  0  0  0  0  0  0  0
   18.5747   18.9442   23.9536 H   0  0  0  0  0  0  0  0  0  0  0  0
   20.2069   20.0318   24.9083 C   0  0  0  0  0  0  0  0  0  0  0  0
   19.5408   20.7877   25.3448 H   0  0  0  0  0  0  0  0  0  0  0  0
   21.1128   20.5671   24.5944 H   0  0  0  0  0  0  0  0  0  0  0  0
   20.5895   19.0080   25.9963 C   0  0  0  0  0  0  0  0  0  0  0  0
   21.2881   18.2747   25.5851 H   0  0  0  0  0  0  0  0  0  0  0  0
   21.0870   19.5245   26.8217 H   0  0  0  0  0  0  0  0  0  0  0  0
   19.4034   18.2579   26.5693 N   0  3  0  0  0  0  0  0  0  0  0  0
   18.9088   17.7257   25.8468 H   0  0  0  0  0  0  0  0  0  0  0  0
   18.7227   18.8934   26.9979 H   0  0  0  0  0  0  0  0  0  0  0  0
   19.6884   17.5904   27.2941 H   0  0  0  0  0  0  0  0  0  0  0  0
  1  2  1  0  0  0  0
  1  3  1  0  0  0  0
  1  4  1  0  0  0  0
  1  5  1  0  0  0  0
  5  6  1  0  0  0  0
  5  7  1  0  0  0  0
  5  8  1  0  0  0  0
  8  9  1  0  0  0  0
  8 10  1  0  0  0  0
  8 11  1  0  0  0  0
 11 12  1  0  0  0  0
 11 13  1  0  0  0  0
 11 14  1  0  0  0  0
 14 15  1  0  0  0  0
 14 16  1  0  0  0  0
 14 17  1  0  0  0  0
 17 18  1  0  0  0  0
 17 19  1  0  0  0  0
 17 20  1  0  0  0  0
 20 21  1  0  0  0  0
 20 22  1  0  0  0  0
 20 23  1  0  0  0  0
 23 24  1  0  0  0  0
 23 25  1  0  0  0  0
 23 26  1  0  0  0  0
M  END
> <VM2 Rank>
152

> <Conf_Id>
441

> <Probability>
0.01

> <Sum Probability>
99.89

> <Delta G>
4.225

> <G>
52.487

> <E>
19.468

> <-TS>
33.018

> <U+W>
-1.993

> <U>
51.894

> <W>
-53.888

> <W(PB)>
-56.122

> <W(SA)>
2.234

> <Valence>
5.549

> <Coulomb>
45.566

> <VdW>
0.779

> <VdW6>
-8.637

> <VdW12>
9.416

> <Bond>
0.264

> <Angle>
1.348

> <Pdih>
3.937

> <Idih>
0.000

> <Tether>
0.000

$$$$
VeraChem MOL file


 26 25  0  0  0  0  0  0  0  0999 V2000     
   18.9560   18.6671   20.0125 C   0  0  0  0  0  0  0  0  0  0  0  0
   19.6941   18.4246   19.2369 H   0  0  0  0  0  0  0  0  0  0  0  0
   18.0651   18.0513   19.8337 H   0  0  0  0  0  0  0  0  0  0  0  0
   18.6678   19.7196   19.8932 H   0  0  0  0  0  0  0  0  0  0  0  0
   19.5256   18.4049   21.4228 C   0  0  0  0  0  0  0  0  0  0  0  0
   19.7744   17.3389   21.5198 H   0  0  0  0  0  0  0  0  0  0  0  0
   18.7463   18.6148   22.1638 H   0  0  0  0  0  0  0  0  0  0  0  0
   20.7863   19.2604   21.6952 C   0  0  0  0  0  0  0  0  0  0  0  0
   21.5243   19.0341   20.9132 H   0  0  0  0  0  0  0  0  0  0  0  0
   20.5528   20.3288   21.5899 H   0  0  0  0  0  0  0  0  0  0  0  0
   21.4450   18.9910   23.0737 C   0  0  0  0  0  0  0  0  0  0  0  0
   22.5295   19.1235   22.9569 H   0  0  0  0  0  0  0  0  0  0  0  0
   21.3117   17.9406   23.3646 H   0  0  0  0  0  0  0  0  0  0  0  0
   20.9890   19.9421   24.2132 C   0  0  0  0  0  0  0  0  0  0  0  0
   21.6161   19.7563   25.0954 H   0  0  0  0  0  0  0  0  0  0  0  0
   21.1993   20.9793   23.9183 H   0  0  0  0  0  0  0  0  0  0  0  0
   19.4990   19.8335   24.6247 C   0  0  0  0  0  0  0  0  0  0  0  0
   18.8630   20.1785   23.8004 H   0  0  0  0  0  0  0  0  0  0  0  0
   19.3056   20.5239   25.4564 H   0  0  0  0  0  0  0  0  0  0  0  0
   19.0687   18.4131   25.0435 C   0  0  0  0  0  0  0  0  0  0  0  0
   18.0013   18.4114   25.2802 H   0  0  0  0  0  0  0  0  0  0  0  0
   19.2354   17.7177   24.2170 H   0  0  0  0  0  0  0  0  0  0  0  0
   19.8114   17.8869   26.2554 N   0  3  0  0  0  0  0  0  0  0  0  0
   20.8209   17.8383   26.0871 H   0  0  0  0  0  0  0  0  0  0  0  0
   19.5021   16.9434   26.5128 H   0  0  0  0  0  0  0  0  0  0  0  0
   19.6693   18.4835   27.0768 H   0  0  0  0  0  0  0  0  0  0  0  0
  1  2  1  0  0  0  0
  1  3  1  0  0  0  0
  1  4  1  0  0  0  0
  1  5  1  0  0  0  0
  5  6  1  0  0  0  0
  5  7  1  0  0  0  0
  5  8  1  0  0  0  0
  8  9  1  0  0  0  0
  8 10  1  0  0  0  0
  8 11  1  0  0  0  0
 11 12  1  0  0  0  0
 11 13  1  0  0  0  0
 11 14  1  0  0  0  0
 14 15  1  0  0  0  0
 14 16  1  0  0  0  0
 14 17  1  0  0  0  0
 17 18  1  0  0  0  0
 17 19  1  0  0  0  0
 17 20  1  0  0  0  0
 20 21  1  0  0  0  0
 20 22  1  0  0  0  0
 20 23  1  0  0  0  0
 23 24  1  0  0  0  0
 23 25  1  0  0  0  0
 23 26  1  0  0  0  0
M  END
> <VM2 Rank>
153

> <Conf_Id>
245

> <Probability>
0.01

> <Sum Probability>
99.90

> <Delta G>
4.280

> <G>
52.541

> <E>
19.312

> <-TS>
33.230

> <U+W>
-2.150

> <U>
52.069

> <W>
-54.219

> <W(PB)>
-56.444

> <W(SA)>
2.225

> <Valence>
5.586

> <Coulomb>
46.106

> <VdW>
0.377

> <VdW6>
-9.203

> <VdW12>
9.580

> <Bond>
0.268

> <Angle>
1.680

> <Pdih>
3.637

> <Idih>
0.000

> <Tether>
0.000

$$$$
VeraChem MOL file


 26 25  0  0  0  0  0  0  0  0999 V2000     
   19.6432   20.0592   20.2801 C   0  0  0  0  0  0  0  0  0  0  0  0
   19.7701   20.3413   19.2269 H   0  0  0  0  0  0  0  0  0  0  0  0
   18.6889   19.5249   20.3655 H   0  0  0  0  0  0  0  0  0  0  0  0
   19.5745   20.9829   20.8692 H   0  0  0  0  0  0  0  0  0  0  0  0
   20.8273   19.1854   20.7524 C   0  0  0  0  0  0  0  0  0  0  0  0
   21.7659   19.7152   20.5377 H   0  0  0  0  0  0  0  0  0  0  0  0
   20.8583   18.2562   20.1664 H   0  0  0  0  0  0  0  0  0  0  0  0
   20.7790   18.8523   22.2630 C   0  0  0  0  0  0  0  0  0  0  0  0
   21.7066   18.3281   22.5306 H   0  0  0  0  0  0  0  0  0  0  0  0
   20.7771   19.7894   22.8302 H   0  0  0  0  0  0  0  0  0  0  0  0
   19.5665   17.9689   22.6555 C   0  0  0  0  0  0  0  0  0  0  0  0
   19.5587   17.0910   21.9948 H   0  0  0  0  0  0  0  0  0  0  0  0
   18.6236   18.4988   22.4678 H   0  0  0  0  0  0  0  0  0  0  0  0
   19.5977   17.4649   24.1224 C   0  0  0  0  0  0  0  0  0  0  0  0
   19.0457   16.5156   24.1615 H   0  0  0  0  0  0  0  0  0  0  0  0
   20.6247   17.2158   24.4209 H   0  0  0  0  0  0  0  0  0  0  0  0
   18.9416   18.4190   25.1561 C   0  0  0  0  0  0  0  0  0  0  0  0
   18.9074   17.9158   26.1316 H   0  0  0  0  0  0  0  0  0  0  0  0
   17.8959   18.5957   24.8717 H   0  0  0  0  0  0  0  0  0  0  0  0
   19.6411   19.7804   25.3309 C   0  0  0  0  0  0  0  0  0  0  0  0
   19.6138   20.3348   24.3904 H   0  0  0  0  0  0  0  0  0  0  0  0
   19.1049   20.3676   26.0814 H   0  0  0  0  0  0  0  0  0  0  0  0
   21.0845   19.6689   25.7806 N   0  3  0  0  0  0  0  0  0  0  0  0
   21.1642   19.1884   26.6827 H   0  0  0  0  0  0  0  0  0  0  0  0
   21.5218   20.5900   25.8919 H   0  0  0  0  0  0  0  0  0  0  0  0
   21.6489   19.1435   25.1062 H   0  0  0  0  0  0  0  0  0  0  0  0
  1  2  1  0  0  0  0
  1  3  1  0  0  0  0
  1  4  1  0  0  0  0
  1  5  1  0  0  0  0
  5  6  1  0  0  0  0
  5  7  1  0  0  0  0
  5  8  1  0  0  0  0
  8  9  1  0  0  0  0
  8 10  1  0  0  0  0
  8 11  1  0  0  0  0
 11 12  1  0  0  0  0
 11 13  1  0  0  0  0
 11 14  1  0  0  0  0
 14 15  1  0  0  0  0
 14 16  1  0  0  0  0
 14 17  1  0  0  0  0
 17 18  1  0  0  0  0
 17 19  1  0  0  0  0
 17 20  1  0  0  0  0
 20 21  1  0  0  0  0
 20 22  1  0  0  0  0
 20 23  1  0  0  0  0
 23 24  1  0  0  0  0
 23 25  1  0  0  0  0
 23 26  1  0  0  0  0
M  END
> <VM2 Rank>
154

> <Conf_Id>
843

> <Probability>
0.01

> <Sum Probability>
99.90

> <Delta G>
4.288

> <G>
52.550

> <E>
19.600

> <-TS>
32.950

> <U+W>
-1.862

> <U>
52.361

> <W>
-54.223

> <W(PB)>
-56.456

> <W(SA)>
2.233

> <Valence>
5.335

> <Coulomb>
46.481

> <VdW>
0.546

> <VdW6>
-8.933

> <VdW12>
9.479

> <Bond>
0.278

> <Angle>
1.663

> <Pdih>
3.394

> <Idih>
0.000

> <Tether>
0.000

$$$$
VeraChem MOL file


 26 25  0  0  0  0  0  0  0  0999 V2000     
   19.2522   19.8016   20.2674 C   0  0  0  0  0  0  0  0  0  0  0  0
   18.4032   20.2103   20.8306 H   0  0  0  0  0  0  0  0  0  0  0  0
   20.1134   20.4651   20.4135 H   0  0  0  0  0  0  0  0  0  0  0  0
   18.9921   19.8287   19.2013 H   0  0  0  0  0  0  0  0  0  0  0  0
   19.5683   18.3550   20.7102 C   0  0  0  0  0  0  0  0  0  0  0  0
   20.4371   17.9787   20.1522 H   0  0  0  0  0  0  0  0  0  0  0  0
   18.7233   17.7081   20.4358 H   0  0  0  0  0  0  0  0  0  0  0  0
   19.8231   18.2214   22.2309 C   0  0  0  0  0  0  0  0  0  0  0  0
   18.9366   18.5748   22.7687 H   0  0  0  0  0  0  0  0  0  0  0  0
   19.9283   17.1546   22.4708 H   0  0  0  0  0  0  0  0  0  0  0  0
   21.0921   18.9751   22.7065 C   0  0  0  0  0  0  0  0  0  0  0  0
   20.9840   20.0558   22.5467 H   0  0  0  0  0  0  0  0  0  0  0  0
   21.9324   18.6568   22.0741 H   0  0  0  0  0  0  0  0  0  0  0  0
   21.4744   18.7027   24.1851 C   0  0  0  0  0  0  0  0  0  0  0  0
   21.2862   17.6521   24.4430 H   0  0  0  0  0  0  0  0  0  0  0  0
   22.5613   18.8344   24.2791 H   0  0  0  0  0  0  0  0  0  0  0  0
   20.8076   19.6497   25.2184 C   0  0  0  0  0  0  0  0  0  0  0  0
   21.0691   20.6886   24.9777 H   0  0  0  0  0  0  0  0  0  0  0  0
   21.2377   19.4529   26.2094 H   0  0  0  0  0  0  0  0  0  0  0  0
   19.2743   19.5385   25.3185 C   0  0  0  0  0  0  0  0  0  0  0  0
   18.9104   20.2396   26.0746 H   0  0  0  0  0  0  0  0  0  0  0  0
   18.8197   19.8108   24.3636 H   0  0  0  0  0  0  0  0  0  0  0  0
   18.7891   18.1550   25.7040 N   0  3  0  0  0  0  0  0  0  0  0  0
   19.1570   17.8650   26.6158 H   0  0  0  0  0  0  0  0  0  0  0  0
   19.0816   17.4500   25.0207 H   0  0  0  0  0  0  0  0  0  0  0  0
   17.7661   18.1130   25.7664 H   0  0  0  0  0  0  0  0  0  0  0  0
  1  2  1  0  0  0  0
  1  3  1  0  0  0  0
  1  4  1  0  0  0  0
  1  5  1  0  0  0  0
  5  6  1  0  0  0  0
  5  7  1  0  0  0  0
  5  8  1  0  0  0  0
  8  9  1  0  0  0  0
  8 10  1  0  0  0  0
  8 11  1  0  0  0  0
 11 12  1  0  0  0  0
 11 13  1  0  0  0  0
 11 14  1  0  0  0  0
 14 15  1  0  0  0  0
 14 16  1  0  0  0  0
 14 17  1  0  0  0  0
 17 18  1  0  0  0  0
 17 19  1  0  0  0  0
 17 20  1  0  0  0  0
 20 21  1  0  0  0  0
 20 22  1  0  0  0  0
 20 23  1  0  0  0  0
 23 24  1  0  0  0  0
 23 25  1  0  0  0  0
 23 26  1  0  0  0  0
M  END
> <VM2 Rank>
155

> <Conf_Id>
239

> <Probability>
0.00

> <Sum Probability>
99.91

> <Delta G>
4.373

> <G>
52.634

> <E>
19.685

> <-TS>
32.949

> <U+W>
-1.777

> <U>
52.361

> <W>
-54.138

> <W(PB)>
-56.379

> <W(SA)>
2.241

> <Valence>
5.335

> <Coulomb>
46.481

> <VdW>
0.546

> <VdW6>
-8.933

> <VdW12>
9.479

> <Bond>
0.278

> <Angle>
1.662

> <Pdih>
3.395

> <Idih>
0.000

> <Tether>
0.000

$$$$
VeraChem MOL file


 26 25  0  0  0  0  0  0  0  0999 V2000     
   19.0315   19.6860   20.2678 C   0  0  0  0  0  0  0  0  0  0  0  0
   18.4429   19.3425   19.4073 H   0  0  0  0  0  0  0  0  0  0  0  0
   18.3684   19.6990   21.1398 H   0  0  0  0  0  0  0  0  0  0  0  0
   19.3439   20.7189   20.0662 H   0  0  0  0  0  0  0  0  0  0  0  0
   20.2595   18.7708   20.4832 C   0  0  0  0  0  0  0  0  0  0  0  0
   20.8640   18.7944   19.5656 H   0  0  0  0  0  0  0  0  0  0  0  0
   19.9410   17.7265   20.6079 H   0  0  0  0  0  0  0  0  0  0  0  0
   21.1510   19.2089   21.6737 C   0  0  0  0  0  0  0  0  0  0  0  0
   22.1990   19.0193   21.4032 H   0  0  0  0  0  0  0  0  0  0  0  0
   21.0772   20.2947   21.8244 H   0  0  0  0  0  0  0  0  0  0  0  0
   20.8725   18.4658   23.0059 C   0  0  0  0  0  0  0  0  0  0  0  0
   21.6108   18.8096   23.7419 H   0  0  0  0  0  0  0  0  0  0  0  0
   21.0555   17.3912   22.8685 H   0  0  0  0  0  0  0  0  0  0  0  0
   19.4440   18.6754   23.5661 C   0  0  0  0  0  0  0  0  0  0  0  0
   19.2210   19.7487   23.6283 H   0  0  0  0  0  0  0  0  0  0  0  0
   18.7160   18.2461   22.8662 H   0  0  0  0  0  0  0  0  0  0  0  0
   19.2247   18.0081   24.9475 C   0  0  0  0  0  0  0  0  0  0  0  0
   19.3847   16.9256   24.8561 H   0  0  0  0  0  0  0  0  0  0  0  0
   18.1768   18.1377   25.2489 H   0  0  0  0  0  0  0  0  0  0  0  0
   20.1385   18.5513   26.0651 C   0  0  0  0  0  0  0  0  0  0  0  0
   19.9282   18.0180   26.9962 H   0  0  0  0  0  0  0  0  0  0  0  0
   21.1857   18.3779   25.8053 H   0  0  0  0  0  0  0  0  0  0  0  0
   19.9594   20.0327   26.3316 N   0  3  0  0  0  0  0  0  0  0  0  0
   18.9981   20.2557   26.6090 H   0  0  0  0  0  0  0  0  0  0  0  0
   20.1739   20.5936   25.5012 H   0  0  0  0  0  0  0  0  0  0  0  0
   20.5732   20.3615   27.0848 H   0  0  0  0  0  0  0  0  0  0  0  0
  1  2  1  0  0  0  0
  1  3  1  0  0  0  0
  1  4  1  0  0  0  0
  1  5  1  0  0  0  0
  5  6  1  0  0  0  0
  5  7  1  0  0  0  0
  5  8  1  0  0  0  0
  8  9  1  0  0  0  0
  8 10  1  0  0  0  0
  8 11  1  0  0  0  0
 11 12  1  0  0  0  0
 11 13  1  0  0  0  0
 11 14  1  0  0  0  0
 14 15  1  0  0  0  0
 14 16  1  0  0  0  0
 14 17  1  0  0  0  0
 17 18  1  0  0  0  0
 17 19  1  0  0  0  0
 17 20  1  0  0  0  0
 20 21  1  0  0  0  0
 20 22  1  0  0  0  0
 20 23  1  0  0  0  0
 23 24  1  0  0  0  0
 23 25  1  0  0  0  0
 23 26  1  0  0  0  0
M  END
> <VM2 Rank>
156

> <Conf_Id>
847

> <Probability>
0.00

> <Sum Probability>
99.91

> <Delta G>
4.373

> <G>
52.635

> <E>
19.670

> <-TS>
32.965

> <U+W>
-1.792

> <U>
52.090

> <W>
-53.882

> <W(PB)>
-56.145

> <W(SA)>
2.264

> <Valence>
5.620

> <Coulomb>
45.629

> <VdW>
0.842

> <VdW6>
-8.591

> <VdW12>
9.433

> <Bond>
0.266

> <Angle>
1.473

> <Pdih>
3.881

> <Idih>
0.000

> <Tether>
0.000

$$$$
VeraChem MOL file


 26 25  0  0  0  0  0  0  0  0999 V2000     
   20.4608   17.9745   19.9972 C   0  0  0  0  0  0  0  0  0  0  0  0
   20.1402   17.0308   19.5372 H   0  0  0  0  0  0  0  0  0  0  0  0
   20.6704   18.6862   19.1882 H   0  0  0  0  0  0  0  0  0  0  0  0
   21.3983   17.7790   20.5316 H   0  0  0  0  0  0  0  0  0  0  0  0
   19.3633   18.5153   20.9423 C   0  0  0  0  0  0  0  0  0  0  0  0
   19.1686   17.7819   21.7341 H   0  0  0  0  0  0  0  0  0  0  0  0
   18.4275   18.6052   20.3732 H   0  0  0  0  0  0  0  0  0  0  0  0
   19.7076   19.9009   21.5472 C   0  0  0  0  0  0  0  0  0  0  0  0
   19.9845   20.5750   20.7249 H   0  0  0  0  0  0  0  0  0  0  0  0
   18.8062   20.3412   21.9951 H   0  0  0  0  0  0  0  0  0  0  0  0
   20.8549   19.8909   22.5942 C   0  0  0  0  0  0  0  0  0  0  0  0
   21.4307   20.8191   22.4759 H   0  0  0  0  0  0  0  0  0  0  0  0
   21.5639   19.0788   22.3912 H   0  0  0  0  0  0  0  0  0  0  0  0
   20.3849   19.8202   24.0701 C   0  0  0  0  0  0  0  0  0  0  0  0
   21.2724   19.9013   24.7113 H   0  0  0  0  0  0  0  0  0  0  0  0
   19.7623   20.6965   24.2977 H   0  0  0  0  0  0  0  0  0  0  0  0
   19.6068   18.5306   24.4284 C   0  0  0  0  0  0  0  0  0  0  0  0
   20.1888   17.6452   24.1402 H   0  0  0  0  0  0  0  0  0  0  0  0
   18.6707   18.4983   23.8575 H   0  0  0  0  0  0  0  0  0  0  0  0
   19.2490   18.4476   25.9250 C   0  0  0  0  0  0  0  0  0  0  0  0
   18.6925   19.3411   26.2207 H   0  0  0  0  0  0  0  0  0  0  0  0
   18.6109   17.5765   26.0965 H   0  0  0  0  0  0  0  0  0  0  0  0
   20.4537   18.3191   26.8366 N   0  3  0  0  0  0  0  0  0  0  0  0
   20.1793   18.2513   27.8227 H   0  0  0  0  0  0  0  0  0  0  0  0
   21.0803   19.1256   26.7547 H   0  0  0  0  0  0  0  0  0  0  0  0
   21.0063   17.4828   26.6216 H   0  0  0  0  0  0  0  0  0  0  0  0
  1  2  1  0  0  0  0
  1  3  1  0  0  0  0
  1  4  1  0  0  0  0
  1  5  1  0  0  0  0
  5  6  1  0  0  0  0
  5  7  1  0  0  0  0
  5  8  1  0  0  0  0
  8  9  1  0  0  0  0
  8 10  1  0  0  0  0
  8 11  1  0  0  0  0
 11 12  1  0  0  0  0
 11 13  1  0  0  0  0
 11 14  1  0  0  0  0
 14 15  1  0  0  0  0
 14 16  1  0  0  0  0
 14 17  1  0  0  0  0
 17 18  1  0  0  0  0
 17 19  1  0  0  0  0
 17 20  1  0  0  0  0
 20 21  1  0  0  0  0
 20 22  1  0  0  0  0
 20 23  1  0  0  0  0
 23 24  1  0  0  0  0
 23 25  1  0  0  0  0
 23 26  1  0  0  0  0
M  END
> <VM2 Rank>
157

> <Conf_Id>
1369

> <Probability>
0.00

> <Sum Probability>
99.92

> <Delta G>
4.418

> <G>
52.679

> <E>
19.809

> <-TS>
32.870

> <U+W>
-1.653

> <U>
52.213

> <W>
-53.866

> <W(PB)>
-56.128

> <W(SA)>
2.262

> <Valence>
6.034

> <Coulomb>
45.240

> <VdW>
0.939

> <VdW6>
-8.400

> <VdW12>
9.339

> <Bond>
0.287

> <Angle>
1.514

> <Pdih>
4.234

> <Idih>
0.000

> <Tether>
0.000

$$$$
VeraChem MOL file


 26 25  0  0  0  0  0  0  0  0999 V2000     
   21.1008   19.7191   19.9737 C   0  0  0  0  0  0  0  0  0  0  0  0
   20.2547   20.2735   19.5471 H   0  0  0  0  0  0  0  0  0  0  0  0
   21.7345   20.4297   20.5203 H   0  0  0  0  0  0  0  0  0  0  0  0
   21.6907   19.3125   19.1420 H   0  0  0  0  0  0  0  0  0  0  0  0
   20.6110   18.5857   20.8996 C   0  0  0  0  0  0  0  0  0  0  0  0
   21.4775   18.0291   21.2833 H   0  0  0  0  0  0  0  0  0  0  0  0
   20.0102   17.8734   20.3168 H   0  0  0  0  0  0  0  0  0  0  0  0
   19.7750   19.1315   22.0781 C   0  0  0  0  0  0  0  0  0  0  0  0
   20.3767   19.8566   22.6397 H   0  0  0  0  0  0  0  0  0  0  0  0
   18.9066   19.6794   21.6869 H   0  0  0  0  0  0  0  0  0  0  0  0
   19.2877   17.9964   23.0107 C   0  0  0  0  0  0  0  0  0  0  0  0
   20.1405   17.4272   23.4004 H   0  0  0  0  0  0  0  0  0  0  0  0
   18.7034   17.2801   22.4165 H   0  0  0  0  0  0  0  0  0  0  0  0
   18.3984   18.4914   24.1796 C   0  0  0  0  0  0  0  0  0  0  0  0
   17.4902   18.9471   23.7614 H   0  0  0  0  0  0  0  0  0  0  0  0
   18.0564   17.6187   24.7530 H   0  0  0  0  0  0  0  0  0  0  0  0
   19.0528   19.5039   25.1577 C   0  0  0  0  0  0  0  0  0  0  0  0
   18.2976   19.7790   25.9059 H   0  0  0  0  0  0  0  0  0  0  0  0
   19.3101   20.4379   24.6423 H   0  0  0  0  0  0  0  0  0  0  0  0
   20.2806   18.9560   25.9146 C   0  0  0  0  0  0  0  0  0  0  0  0
   20.4326   19.5444   26.8235 H   0  0  0  0  0  0  0  0  0  0  0  0
   20.1002   17.9186   26.2086 H   0  0  0  0  0  0  0  0  0  0  0  0
   21.5747   19.0150   25.1271 N   0  3  0  0  0  0  0  0  0  0  0  0
   21.8360   19.9801   24.9009 H   0  0  0  0  0  0  0  0  0  0  0  0
   21.5001   18.5048   24.2421 H   0  0  0  0  0  0  0  0  0  0  0  0
   22.3574   18.6082   25.6509 H   0  0  0  0  0  0  0  0  0  0  0  0
  1  2  1  0  0  0  0
  1  3  1  0  0  0  0
  1  4  1  0  0  0  0
  1  5  1  0  0  0  0
  5  6  1  0  0  0  0
  5  7  1  0  0  0  0
  5  8  1  0  0  0  0
  8  9  1  0  0  0  0
  8 10  1  0  0  0  0
  8 11  1  0  0  0  0
 11 12  1  0  0  0  0
 11 13  1  0  0  0  0
 11 14  1  0  0  0  0
 14 15  1  0  0  0  0
 14 16  1  0  0  0  0
 14 17  1  0  0  0  0
 17 18  1  0  0  0  0
 17 19  1  0  0  0  0
 17 20  1  0  0  0  0
 20 21  1  0  0  0  0
 20 22  1  0  0  0  0
 20 23  1  0  0  0  0
 23 24  1  0  0  0  0
 23 25  1  0  0  0  0
 23 26  1  0  0  0  0
M  END
> <VM2 Rank>
158

> <Conf_Id>
557

> <Probability>
0.00

> <Sum Probability>
99.92

> <Delta G>
4.445

> <G>
52.706

> <E>
19.592

> <-TS>
33.114

> <U+W>
-1.870

> <U>
51.717

> <W>
-53.587

> <W(PB)>
-55.826

> <W(SA)>
2.239

> <Valence>
4.225

> <Coulomb>
47.188

> <VdW>
0.304

> <VdW6>
-8.652

> <VdW12>
8.956

> <Bond>
0.232

> <Angle>
1.463

> <Pdih>
2.531

> <Idih>
0.000

> <Tether>
0.000

$$$$
VeraChem MOL file


 26 25  0  0  0  0  0  0  0  0999 V2000     
   19.9310   20.3955   20.6866 C   0  0  0  0  0  0  0  0  0  0  0  0
   19.0287   20.6541   21.2556 H   0  0  0  0  0  0  0  0  0  0  0  0
   20.8106   20.6577   21.2872 H   0  0  0  0  0  0  0  0  0  0  0  0
   19.9511   21.0217   19.7854 H   0  0  0  0  0  0  0  0  0  0  0  0
   19.9389   18.8993   20.3043 C   0  0  0  0  0  0  0  0  0  0  0  0
   20.8809   18.6583   19.7922 H   0  0  0  0  0  0  0  0  0  0  0  0
   19.1398   18.7190   19.5717 H   0  0  0  0  0  0  0  0  0  0  0  0
   19.7352   17.9356   21.5011 C   0  0  0  0  0  0  0  0  0  0  0  0
   18.7489   18.1059   21.9497 H   0  0  0  0  0  0  0  0  0  0  0  0
   19.7031   16.9135   21.0991 H   0  0  0  0  0  0  0  0  0  0  0  0
   20.8551   17.9945   22.5760 C   0  0  0  0  0  0  0  0  0  0  0  0
   21.8005   18.2885   22.0998 H   0  0  0  0  0  0  0  0  0  0  0  0
   21.0268   16.9820   22.9666 H   0  0  0  0  0  0  0  0  0  0  0  0
   20.5649   18.9363   23.7738 C   0  0  0  0  0  0  0  0  0  0  0  0
   21.5002   19.0741   24.3320 H   0  0  0  0  0  0  0  0  0  0  0  0
   20.2713   19.9310   23.4178 H   0  0  0  0  0  0  0  0  0  0  0  0
   19.4793   18.3870   24.7339 C   0  0  0  0  0  0  0  0  0  0  0  0
   19.7806   17.4036   25.1185 H   0  0  0  0  0  0  0  0  0  0  0  0
   18.5392   18.2339   24.1903 H   0  0  0  0  0  0  0  0  0  0  0  0
   19.1980   19.3350   25.9157 C   0  0  0  0  0  0  0  0  0  0  0  0
   18.9103   20.3196   25.5374 H   0  0  0  0  0  0  0  0  0  0  0  0
   18.3666   18.9406   26.5063 H   0  0  0  0  0  0  0  0  0  0  0  0
   20.3786   19.5159   26.8497 N   0  3  0  0  0  0  0  0  0  0  0  0
   20.6824   18.6250   27.2561 H   0  0  0  0  0  0  0  0  0  0  0  0
   20.1532   20.1404   27.6316 H   0  0  0  0  0  0  0  0  0  0  0  0
   21.1868   19.9200   26.3665 H   0  0  0  0  0  0  0  0  0  0  0  0
  1  2  1  0  0  0  0
  1  3  1  0  0  0  0
  1  4  1  0  0  0  0
  1  5  1  0  0  0  0
  5  6  1  0  0  0  0
  5  7  1  0  0  0  0
  5  8  1  0  0  0  0
  8  9  1  0  0  0  0
  8 10  1  0  0  0  0
  8 11  1  0  0  0  0
 11 12  1  0  0  0  0
 11 13  1  0  0  0  0
 11 14  1  0  0  0  0
 14 15  1  0  0  0  0
 14 16  1  0  0  0  0
 14 17  1  0  0  0  0
 17 18  1  0  0  0  0
 17 19  1  0  0  0  0
 17 20  1  0  0  0  0
 20 21  1  0  0  0  0
 20 22  1  0  0  0  0
 20 23  1  0  0  0  0
 23 24  1  0  0  0  0
 23 25  1  0  0  0  0
 23 26  1  0  0  0  0
M  END
> <VM2 Rank>
159

> <Conf_Id>
559

> <Probability>
0.00

> <Sum Probability>
99.93

> <Delta G>
4.458

> <G>
52.719

> <E>
19.851

> <-TS>
32.868

> <U+W>
-1.610

> <U>
52.210

> <W>
-53.820

> <W(PB)>
-56.081

> <W(SA)>
2.260

> <Valence>
6.007

> <Coulomb>
45.272

> <VdW>
0.931

> <VdW6>
-8.392

> <VdW12>
9.322

> <Bond>
0.291

> <Angle>
1.470

> <Pdih>
4.246

> <Idih>
0.000

> <Tether>
0.000

$$$$
VeraChem MOL file


 26 25  0  0  0  0  0  0  0  0999 V2000     
   19.0063   18.3385   19.9038 C   0  0  0  0  0  0  0  0  0  0  0  0
   18.8499   19.3474   19.5003 H   0  0  0  0  0  0  0  0  0  0  0  0
   19.1865   17.6618   19.0585 H   0  0  0  0  0  0  0  0  0  0  0  0
   18.0792   18.0205   20.3983 H   0  0  0  0  0  0  0  0  0  0  0  0
   20.1967   18.3125   20.8858 C   0  0  0  0  0  0  0  0  0  0  0  0
   21.1141   18.6010   20.3537 H   0  0  0  0  0  0  0  0  0  0  0  0
   20.3492   17.2855   21.2458 H   0  0  0  0  0  0  0  0  0  0  0  0
   19.9694   19.2597   22.0846 C   0  0  0  0  0  0  0  0  0  0  0  0
   19.8259   20.2854   21.7175 H   0  0  0  0  0  0  0  0  0  0  0  0
   19.0407   18.9762   22.5951 H   0  0  0  0  0  0  0  0  0  0  0  0
   21.1599   19.2305   23.0733 C   0  0  0  0  0  0  0  0  0  0  0  0
   22.0750   19.5026   22.5291 H   0  0  0  0  0  0  0  0  0  0  0  0
   21.3292   18.2108   23.4401 H   0  0  0  0  0  0  0  0  0  0  0  0
   21.0006   20.2067   24.2665 C   0  0  0  0  0  0  0  0  0  0  0  0
   21.9098   20.1588   24.8817 H   0  0  0  0  0  0  0  0  0  0  0  0
   20.9586   21.2334   23.8773 H   0  0  0  0  0  0  0  0  0  0  0  0
   19.7681   19.9753   25.1817 C   0  0  0  0  0  0  0  0  0  0  0  0
   18.8332   20.1236   24.6265 H   0  0  0  0  0  0  0  0  0  0  0  0
   19.7776   20.7543   25.9555 H   0  0  0  0  0  0  0  0  0  0  0  0
   19.7533   18.6082   25.8968 C   0  0  0  0  0  0  0  0  0  0  0  0
   20.7632   18.3552   26.2304 H   0  0  0  0  0  0  0  0  0  0  0  0
   19.1110   18.6729   26.7793 H   0  0  0  0  0  0  0  0  0  0  0  0
   19.2267   17.4675   25.0484 N   0  3  0  0  0  0  0  0  0  0  0  0
   19.7657   17.3618   24.1838 H   0  0  0  0  0  0  0  0  0  0  0  0
   18.2483   17.6155   24.7809 H   0  0  0  0  0  0  0  0  0  0  0  0
   19.2682   16.5720   25.5473 H   0  0  0  0  0  0  0  0  0  0  0  0
  1  2  1  0  0  0  0
  1  3  1  0  0  0  0
  1  4  1  0  0  0  0
  1  5  1  0  0  0  0
  5  6  1  0  0  0  0
  5  7  1  0  0  0  0
  5  8  1  0  0  0  0
  8  9  1  0  0  0  0
  8 10  1  0  0  0  0
  8 11  1  0  0  0  0
 11 12  1  0  0  0  0
 11 13  1  0  0  0  0
 11 14  1  0  0  0  0
 14 15  1  0  0  0  0
 14 16  1  0  0  0  0
 14 17  1  0  0  0  0
 17 18  1  0  0  0  0
 17 19  1  0  0  0  0
 17 20  1  0  0  0  0
 20 21  1  0  0  0  0
 20 22  1  0  0  0  0
 20 23  1  0  0  0  0
 23 24  1  0  0  0  0
 23 25  1  0  0  0  0
 23 26  1  0  0  0  0
M  END
> <VM2 Rank>
160

> <Conf_Id>
258

> <Probability>
0.00

> <Sum Probability>
99.93

> <Delta G>
4.466

> <G>
52.727

> <E>
19.612

> <-TS>
33.115

> <U+W>
-1.850

> <U>
51.718

> <W>
-53.567

> <W(PB)>
-55.822

> <W(SA)>
2.254

> <Valence>
4.225

> <Coulomb>
47.188

> <VdW>
0.304

> <VdW6>
-8.653

> <VdW12>
8.957

> <Bond>
0.232

> <Angle>
1.462

> <Pdih>
2.531

> <Idih>
0.000

> <Tether>
0.000

$$$$
VeraChem MOL file


 26 25  0  0  0  0  0  0  0  0999 V2000     
   19.8642   18.9880   19.7040 C   0  0  0  0  0  0  0  0  0  0  0  0
   20.6828   19.7119   19.8001 H   0  0  0  0  0  0  0  0  0  0  0  0
   20.0077   18.4531   18.7563 H   0  0  0  0  0  0  0  0  0  0  0  0
   18.9194   19.5428   19.6363 H   0  0  0  0  0  0  0  0  0  0  0  0
   19.8419   17.9940   20.8874 C   0  0  0  0  0  0  0  0  0  0  0  0
   20.8096   17.4776   20.9548 H   0  0  0  0  0  0  0  0  0  0  0  0
   19.0929   17.2167   20.6810 H   0  0  0  0  0  0  0  0  0  0  0  0
   19.5067   18.6566   22.2457 C   0  0  0  0  0  0  0  0  0  0  0  0
   18.5329   19.1600   22.1741 H   0  0  0  0  0  0  0  0  0  0  0  0
   19.3870   17.8602   22.9877 H   0  0  0  0  0  0  0  0  0  0  0  0
   20.5824   19.6684   22.7184 C   0  0  0  0  0  0  0  0  0  0  0  0
   20.6400   20.4821   21.9838 H   0  0  0  0  0  0  0  0  0  0  0  0
   21.5738   19.1952   22.7263 H   0  0  0  0  0  0  0  0  0  0  0  0
   20.2856   20.3036   24.1022 C   0  0  0  0  0  0  0  0  0  0  0  0
   20.7234   21.3115   24.1093 H   0  0  0  0  0  0  0  0  0  0  0  0
   19.2056   20.4546   24.2312 H   0  0  0  0  0  0  0  0  0  0  0  0
   20.8828   19.5363   25.3120 C   0  0  0  0  0  0  0  0  0  0  0  0
   20.7314   20.1323   26.2218 H   0  0  0  0  0  0  0  0  0  0  0  0
   21.9702   19.4522   25.1847 H   0  0  0  0  0  0  0  0  0  0  0  0
   20.3035   18.1280   25.5447 C   0  0  0  0  0  0  0  0  0  0  0  0
   20.4921   17.5003   24.6708 H   0  0  0  0  0  0  0  0  0  0  0  0
   20.8035   17.6692   26.4020 H   0  0  0  0  0  0  0  0  0  0  0  0
   18.8139   18.1241   25.8266 N   0  3  0  0  0  0  0  0  0  0  0  0
   18.5857   18.6678   26.6653 H   0  0  0  0  0  0  0  0  0  0  0  0
   18.4568   17.1746   25.9790 H   0  0  0  0  0  0  0  0  0  0  0  0
   18.2821   18.5281   25.0498 H   0  0  0  0  0  0  0  0  0  0  0  0
  1  2  1  0  0  0  0
  1  3  1  0  0  0  0
  1  4  1  0  0  0  0
  1  5  1  0  0  0  0
  5  6  1  0  0  0  0
  5  7  1  0  0  0  0
  5  8  1  0  0  0  0
  8  9  1  0  0  0  0
  8 10  1  0  0  0  0
  8 11  1  0  0  0  0
 11 12  1  0  0  0  0
 11 13  1  0  0  0  0
 11 14  1  0  0  0  0
 14 15  1  0  0  0  0
 14 16  1  0  0  0  0
 14 17  1  0  0  0  0
 17 18  1  0  0  0  0
 17 19  1  0  0  0  0
 17 20  1  0  0  0  0
 20 21  1  0  0  0  0
 20 22  1  0  0  0  0
 20 23  1  0  0  0  0
 23 24  1  0  0  0  0
 23 25  1  0  0  0  0
 23 26  1  0  0  0  0
M  END
> <VM2 Rank>
161

> <Conf_Id>
1117

> <Probability>
0.00

> <Sum Probability>
99.93

> <Delta G>
4.485

> <G>
52.746

> <E>
19.756

> <-TS>
32.990

> <U+W>
-1.706

> <U>
52.488

> <W>
-54.194

> <W(PB)>
-56.463

> <W(SA)>
2.269

> <Valence>
5.467

> <Coulomb>
46.392

> <VdW>
0.629

> <VdW6>
-8.780

> <VdW12>
9.409

> <Bond>
0.279

> <Angle>
1.628

> <Pdih>
3.560

> <Idih>
0.000

> <Tether>
0.000

$$$$
VeraChem MOL file


 26 25  0  0  0  0  0  0  0  0999 V2000     
   18.5830   19.1136   20.8808 C   0  0  0  0  0  0  0  0  0  0  0  0
   18.4938   19.9321   21.6023 H   0  0  0  0  0  0  0  0  0  0  0  0
   18.1415   19.4596   19.9373 H   0  0  0  0  0  0  0  0  0  0  0  0
   17.9783   18.2716   21.2417 H   0  0  0  0  0  0  0  0  0  0  0  0
   20.0529   18.6871   20.6617 C   0  0  0  0  0  0  0  0  0  0  0  0
   20.6444   19.5364   20.2926 H   0  0  0  0  0  0  0  0  0  0  0  0
   20.0673   17.9381   19.8576 H   0  0  0  0  0  0  0  0  0  0  0  0
   20.7243   18.0671   21.9149 C   0  0  0  0  0  0  0  0  0  0  0  0
   19.9938   17.4927   22.4993 H   0  0  0  0  0  0  0  0  0  0  0  0
   21.4586   17.3280   21.5657 H   0  0  0  0  0  0  0  0  0  0  0  0
   21.4879   19.0739   22.8174 C   0  0  0  0  0  0  0  0  0  0  0  0
   22.2432   19.5912   22.2100 H   0  0  0  0  0  0  0  0  0  0  0  0
   22.0573   18.5078   23.5667 H   0  0  0  0  0  0  0  0  0  0  0  0
   20.6221   20.1372   23.5420 C   0  0  0  0  0  0  0  0  0  0  0  0
   21.2851   20.7701   24.1480 H   0  0  0  0  0  0  0  0  0  0  0  0
   20.1730   20.8120   22.8028 H   0  0  0  0  0  0  0  0  0  0  0  0
   19.5167   19.5584   24.4601 C   0  0  0  0  0  0  0  0  0  0  0  0
   18.7842   18.9995   23.8651 H   0  0  0  0  0  0  0  0  0  0  0  0
   18.9690   20.3901   24.9227 H   0  0  0  0  0  0  0  0  0  0  0  0
   20.0814   18.6495   25.5673 C   0  0  0  0  0  0  0  0  0  0  0  0
   20.5952   17.7961   25.1172 H   0  0  0  0  0  0  0  0  0  0  0  0
   20.8032   19.2081   26.1693 H   0  0  0  0  0  0  0  0  0  0  0  0
   19.0126   18.1121   26.4968 N   0  3  0  0  0  0  0  0  0  0  0  0
   19.4098   17.5097   27.2259 H   0  0  0  0  0  0  0  0  0  0  0  0
   18.3152   17.5530   25.9946 H   0  0  0  0  0  0  0  0  0  0  0  0
   18.5082   18.8659   26.9748 H   0  0  0  0  0  0  0  0  0  0  0  0
  1  2  1  0  0  0  0
  1  3  1  0  0  0  0
  1  4  1  0  0  0  0
  1  5  1  0  0  0  0
  5  6  1  0  0  0  0
  5  7  1  0  0  0  0
  5  8  1  0  0  0  0
  8  9  1  0  0  0  0
  8 10  1  0  0  0  0
  8 11  1  0  0  0  0
 11 12  1  0  0  0  0
 11 13  1  0  0  0  0
 11 14  1  0  0  0  0
 14 15  1  0  0  0  0
 14 16  1  0  0  0  0
 14 17  1  0  0  0  0
 17 18  1  0  0  0  0
 17 19  1  0  0  0  0
 17 20  1  0  0  0  0
 20 21  1  0  0  0  0
 20 22  1  0  0  0  0
 20 23  1  0  0  0  0
 23 24  1  0  0  0  0
 23 25  1  0  0  0  0
 23 26  1  0  0  0  0
M  END
> <VM2 Rank>
162

> <Conf_Id>
1370

> <Probability>
0.00

> <Sum Probability>
99.94

> <Delta G>
4.485

> <G>
52.747

> <E>
19.426

> <-TS>
33.320

> <U+W>
-2.036

> <U>
52.153

> <W>
-54.188

> <W(PB)>
-56.391

> <W(SA)>
2.203

> <Valence>
5.986

> <Coulomb>
45.782

> <VdW>
0.385

> <VdW6>
-9.288

> <VdW12>
9.673

> <Bond>
0.289

> <Angle>
2.080

> <Pdih>
3.617

> <Idih>
0.000

> <Tether>
0.000

$$$$
VeraChem MOL file


 26 25  0  0  0  0  0  0  0  0999 V2000     
   18.4296   19.3488   20.6481 C   0  0  0  0  0  0  0  0  0  0  0  0
   18.8921   19.6908   19.7131 H   0  0  0  0  0  0  0  0  0  0  0  0
   17.5676   18.7211   20.3876 H   0  0  0  0  0  0  0  0  0  0  0  0
   18.0550   20.2292   21.1864 H   0  0  0  0  0  0  0  0  0  0  0  0
   19.4376   18.5597   21.5097 C   0  0  0  0  0  0  0  0  0  0  0  0
   19.7697   17.6687   20.9589 H   0  0  0  0  0  0  0  0  0  0  0  0
   18.9293   18.2008   22.4129 H   0  0  0  0  0  0  0  0  0  0  0  0
   20.6637   19.4239   21.8873 C   0  0  0  0  0  0  0  0  0  0  0  0
   21.1369   19.7844   20.9635 H   0  0  0  0  0  0  0  0  0  0  0  0
   20.3451   20.3249   22.4260 H   0  0  0  0  0  0  0  0  0  0  0  0
   21.7305   18.6606   22.7115 C   0  0  0  0  0  0  0  0  0  0  0  0
   22.5926   19.3237   22.8672 H   0  0  0  0  0  0  0  0  0  0  0  0
   22.1068   17.8231   22.1081 H   0  0  0  0  0  0  0  0  0  0  0  0
   21.2704   18.1095   24.0885 C   0  0  0  0  0  0  0  0  0  0  0  0
   20.4889   17.3505   23.9595 H   0  0  0  0  0  0  0  0  0  0  0  0
   22.1240   17.5716   24.5237 H   0  0  0  0  0  0  0  0  0  0  0  0
   20.8267   19.1933   25.1074 C   0  0  0  0  0  0  0  0  0  0  0  0
   21.4596   20.0837   24.9967 H   0  0  0  0  0  0  0  0  0  0  0  0
   21.0067   18.8225   26.1253 H   0  0  0  0  0  0  0  0  0  0  0  0
   19.3434   19.6038   25.0007 C   0  0  0  0  0  0  0  0  0  0  0  0
   19.1556   20.4506   25.6663 H   0  0  0  0  0  0  0  0  0  0  0  0
   19.1086   19.9161   23.9815 H   0  0  0  0  0  0  0  0  0  0  0  0
   18.3790   18.4995   25.3877 N   0  3  0  0  0  0  0  0  0  0  0  0
   17.4023   18.8036   25.3123 H   0  0  0  0  0  0  0  0  0  0  0  0
   18.5223   18.1935   26.3556 H   0  0  0  0  0  0  0  0  0  0  0  0
   18.4857   17.6739   24.7911 H   0  0  0  0  0  0  0  0  0  0  0  0
  1  2  1  0  0  0  0
  1  3  1  0  0  0  0
  1  4  1  0  0  0  0
  1  5  1  0  0  0  0
  5  6  1  0  0  0  0
  5  7  1  0  0  0  0
  5  8  1  0  0  0  0
  8  9  1  0  0  0  0
  8 10  1  0  0  0  0
  8 11  1  0  0  0  0
 11 12  1  0  0  0  0
 11 13  1  0  0  0  0
 11 14  1  0  0  0  0
 14 15  1  0  0  0  0
 14 16  1  0  0  0  0
 14 17  1  0  0  0  0
 17 18  1  0  0  0  0
 17 19  1  0  0  0  0
 17 20  1  0  0  0  0
 20 21  1  0  0  0  0
 20 22  1  0  0  0  0
 20 23  1  0  0  0  0
 23 24  1  0  0  0  0
 23 25  1  0  0  0  0
 23 26  1  0  0  0  0
M  END
> <VM2 Rank>
163

> <Conf_Id>
701

> <Probability>
0.00

> <Sum Probability>
99.94

> <Delta G>
4.495

> <G>
52.757

> <E>
19.305

> <-TS>
33.452

> <U+W>
-2.157

> <U>
52.359

> <W>
-54.516

> <W(PB)>
-56.739

> <W(SA)>
2.223

> <Valence>
5.321

> <Coulomb>
46.894

> <VdW>
0.144

> <VdW6>
-9.549

> <VdW12>
9.694

> <Bond>
0.274

> <Angle>
1.814

> <Pdih>
3.233

> <Idih>
0.000

> <Tether>
0.000

$$$$
VeraChem MOL file


 26 25  0  0  0  0  0  0  0  0999 V2000     
   20.1765   19.1948   19.7144 C   0  0  0  0  0  0  0  0  0  0  0  0
   19.1854   18.7258   19.7499 H   0  0  0  0  0  0  0  0  0  0  0  0
   20.0416   20.2834   19.6743 H   0  0  0  0  0  0  0  0  0  0  0  0
   20.6554   18.8813   18.7778 H   0  0  0  0  0  0  0  0  0  0  0  0
   21.0429   18.7861   20.9274 C   0  0  0  0  0  0  0  0  0  0  0  0
   22.0608   19.1736   20.7801 H   0  0  0  0  0  0  0  0  0  0  0  0
   21.1337   17.6916   20.9650 H   0  0  0  0  0  0  0  0  0  0  0  0
   20.5030   19.3132   22.2790 C   0  0  0  0  0  0  0  0  0  0  0  0
   21.2470   19.0861   23.0498 H   0  0  0  0  0  0  0  0  0  0  0  0
   20.4264   20.4083   22.2378 H   0  0  0  0  0  0  0  0  0  0  0  0
   19.1293   18.7095   22.6698 C   0  0  0  0  0  0  0  0  0  0  0  0
   19.1742   17.6121   22.6461 H   0  0  0  0  0  0  0  0  0  0  0  0
   18.3935   18.9999   21.9087 H   0  0  0  0  0  0  0  0  0  0  0  0
   18.5979   19.1901   24.0458 C   0  0  0  0  0  0  0  0  0  0  0  0
   18.8771   20.2377   24.2201 H   0  0  0  0  0  0  0  0  0  0  0  0
   17.4999   19.1849   24.0016 H   0  0  0  0  0  0  0  0  0  0  0  0
   19.0120   18.3023   25.2496 C   0  0  0  0  0  0  0  0  0  0  0  0
   18.6686   17.2741   25.0745 H   0  0  0  0  0  0  0  0  0  0  0  0
   18.4816   18.6483   26.1466 H   0  0  0  0  0  0  0  0  0  0  0  0
   20.5222   18.2724   25.5522 C   0  0  0  0  0  0  0  0  0  0  0  0
   20.7075   17.6062   26.3992 H   0  0  0  0  0  0  0  0  0  0  0  0
   21.0655   17.8785   24.6903 H   0  0  0  0  0  0  0  0  0  0  0  0
   21.0973   19.6307   25.9028 N   0  3  0  0  0  0  0  0  0  0  0  0
   20.6483   20.0289   26.7340 H   0  0  0  0  0  0  0  0  0  0  0  0
   20.9710   20.3020   25.1394 H   0  0  0  0  0  0  0  0  0  0  0  0
   22.1024   19.5799   26.1008 H   0  0  0  0  0  0  0  0  0  0  0  0
  1  2  1  0  0  0  0
  1  3  1  0  0  0  0
  1  4  1  0  0  0  0
  1  5  1  0  0  0  0
  5  6  1  0  0  0  0
  5  7  1  0  0  0  0
  5  8  1  0  0  0  0
  8  9  1  0  0  0  0
  8 10  1  0  0  0  0
  8 11  1  0  0  0  0
 11 12  1  0  0  0  0
 11 13  1  0  0  0  0
 11 14  1  0  0  0  0
 14 15  1  0  0  0  0
 14 16  1  0  0  0  0
 14 17  1  0  0  0  0
 17 18  1  0  0  0  0
 17 19  1  0  0  0  0
 17 20  1  0  0  0  0
 20 21  1  0  0  0  0
 20 22  1  0  0  0  0
 20 23  1  0  0  0  0
 23 24  1  0  0  0  0
 23 25  1  0  0  0  0
 23 26  1  0  0  0  0
M  END
> <VM2 Rank>
164

> <Conf_Id>
814

> <Probability>
0.00

> <Sum Probability>
99.95

> <Delta G>
4.497

> <G>
52.758

> <E>
19.769

> <-TS>
32.989

> <U+W>
-1.693

> <U>
52.488

> <W>
-54.181

> <W(PB)>
-56.436

> <W(SA)>
2.255

> <Valence>
5.467

> <Coulomb>
46.392

> <VdW>
0.629

> <VdW6>
-8.780

> <VdW12>
9.409

> <Bond>
0.279

> <Angle>
1.629

> <Pdih>
3.559

> <Idih>
0.000

> <Tether>
0.000

$$$$
VeraChem MOL file


 26 25  0  0  0  0  0  0  0  0999 V2000     
   20.5098   20.3840   20.9451 C   0  0  0  0  0  0  0  0  0  0  0  0
   19.7596   20.7667   21.6447 H   0  0  0  0  0  0  0  0  0  0  0  0
   21.5039   20.5961   21.3593 H   0  0  0  0  0  0  0  0  0  0  0  0
   20.4093   20.9549   20.0130 H   0  0  0  0  0  0  0  0  0  0  0  0
   20.3340   18.8725   20.6711 C   0  0  0  0  0  0  0  0  0  0  0  0
   21.0536   18.5886   19.8904 H   0  0  0  0  0  0  0  0  0  0  0  0
   19.3387   18.6757   20.2491 H   0  0  0  0  0  0  0  0  0  0  0  0
   20.5814   17.9729   21.9101 C   0  0  0  0  0  0  0  0  0  0  0  0
   20.9880   17.0178   21.5499 H   0  0  0  0  0  0  0  0  0  0  0  0
   21.3688   18.3994   22.5452 H   0  0  0  0  0  0  0  0  0  0  0  0
   19.3148   17.6410   22.7448 C   0  0  0  0  0  0  0  0  0  0  0  0
   19.5762   16.8718   23.4838 H   0  0  0  0  0  0  0  0  0  0  0  0
   18.5712   17.1700   22.0873 H   0  0  0  0  0  0  0  0  0  0  0  0
   18.6447   18.8333   23.4759 C   0  0  0  0  0  0  0  0  0  0  0  0
   18.2359   19.5347   22.7381 H   0  0  0  0  0  0  0  0  0  0  0  0
   17.7748   18.4555   24.0308 H   0  0  0  0  0  0  0  0  0  0  0  0
   19.5679   19.5921   24.4618 C   0  0  0  0  0  0  0  0  0  0  0  0
   18.9977   20.4090   24.9237 H   0  0  0  0  0  0  0  0  0  0  0  0
   20.3967   20.0626   23.9190 H   0  0  0  0  0  0  0  0  0  0  0  0
   20.1291   18.6810   25.5689 C   0  0  0  0  0  0  0  0  0  0  0  0
   19.3045   18.2200   26.1192 H   0  0  0  0  0  0  0  0  0  0  0  0
   20.7321   17.8863   25.1219 H   0  0  0  0  0  0  0  0  0  0  0  0
   20.9993   19.4221   26.5633 N   0  3  0  0  0  0  0  0  0  0  0  0
   20.4829   20.1680   27.0408 H   0  0  0  0  0  0  0  0  0  0  0  0
   21.8102   19.8574   26.1116 H   0  0  0  0  0  0  0  0  0  0  0  0
   21.3624   18.7973   27.2914 H   0  0  0  0  0  0  0  0  0  0  0  0
  1  2  1  0  0  0  0
  1  3  1  0  0  0  0
  1  4  1  0  0  0  0
  1  5  1  0  0  0  0
  5  6  1  0  0  0  0
  5  7  1  0  0  0  0
  5  8  1  0  0  0  0
  8  9  1  0  0  0  0
  8 10  1  0  0  0  0
  8 11  1  0  0  0  0
 11 12  1  0  0  0  0
 11 13  1  0  0  0  0
 11 14  1  0  0  0  0
 14 15  1  0  0  0  0
 14 16  1  0  0  0  0
 14 17  1  0  0  0  0
 17 18  1  0  0  0  0
 17 19  1  0  0  0  0
 17 20  1  0  0  0  0
 20 21  1  0  0  0  0
 20 22  1  0  0  0  0
 20 23  1  0  0  0  0
 23 24  1  0  0  0  0
 23 25  1  0  0  0  0
 23 26  1  0  0  0  0
M  END
> <VM2 Rank>
165

> <Conf_Id>
282

> <Probability>
0.00

> <Sum Probability>
99.95

> <Delta G>
4.498

> <G>
52.759

> <E>
19.438

> <-TS>
33.321

> <U+W>
-2.023

> <U>
52.153

> <W>
-54.176

> <W(PB)>
-56.402

> <W(SA)>
2.226

> <Valence>
5.986

> <Coulomb>
45.781

> <VdW>
0.385

> <VdW6>
-9.288

> <VdW12>
9.673

> <Bond>
0.289

> <Angle>
2.079

> <Pdih>
3.617

> <Idih>
0.000

> <Tether>
0.000

$$$$
VeraChem MOL file


 26 25  0  0  0  0  0  0  0  0999 V2000     
   20.8589   18.2368   20.0105 C   0  0  0  0  0  0  0  0  0  0  0  0
   21.8730   18.1729   19.5950 H   0  0  0  0  0  0  0  0  0  0  0  0
   20.6451   17.2825   20.5066 H   0  0  0  0  0  0  0  0  0  0  0  0
   20.1605   18.3500   19.1713 H   0  0  0  0  0  0  0  0  0  0  0  0
   20.7500   19.4292   20.9886 C   0  0  0  0  0  0  0  0  0  0  0  0
   21.0618   20.3414   20.4611 H   0  0  0  0  0  0  0  0  0  0  0  0
   21.4632   19.2943   21.8107 H   0  0  0  0  0  0  0  0  0  0  0  0
   19.3141   19.6416   21.5341 C   0  0  0  0  0  0  0  0  0  0  0  0
   19.2434   20.6294   22.0097 H   0  0  0  0  0  0  0  0  0  0  0  0
   18.6245   19.6787   20.6795 H   0  0  0  0  0  0  0  0  0  0  0  0
   18.8234   18.5520   22.5263 C   0  0  0  0  0  0  0  0  0  0  0  0
   19.2998   17.5865   22.3155 H   0  0  0  0  0  0  0  0  0  0  0  0
   17.7501   18.3933   22.3529 H   0  0  0  0  0  0  0  0  0  0  0  0
   19.0045   18.9104   24.0240 C   0  0  0  0  0  0  0  0  0  0  0  0
   18.4340   19.8211   24.2533 H   0  0  0  0  0  0  0  0  0  0  0  0
   18.5511   18.1078   24.6204 H   0  0  0  0  0  0  0  0  0  0  0  0
   20.4780   19.1047   24.4575 C   0  0  0  0  0  0  0  0  0  0  0  0
   20.9023   19.9690   23.9320 H   0  0  0  0  0  0  0  0  0  0  0  0
   21.0755   18.2295   24.1699 H   0  0  0  0  0  0  0  0  0  0  0  0
   20.6252   19.3546   25.9709 C   0  0  0  0  0  0  0  0  0  0  0  0
   21.6682   19.5912   26.1986 H   0  0  0  0  0  0  0  0  0  0  0  0
   20.0100   20.2094   26.2647 H   0  0  0  0  0  0  0  0  0  0  0  0
   20.2269   18.1697   26.8291 N   0  3  0  0  0  0  0  0  0  0  0  0
   20.7874   17.3386   26.6144 H   0  0  0  0  0  0  0  0  0  0  0  0
   19.2437   17.9155   26.6934 H   0  0  0  0  0  0  0  0  0  0  0  0
   20.3512   18.3648   27.8285 H   0  0  0  0  0  0  0  0  0  0  0  0
  1  2  1  0  0  0  0
  1  3  1  0  0  0  0
  1  4  1  0  0  0  0
  1  5  1  0  0  0  0
  5  6  1  0  0  0  0
  5  7  1  0  0  0  0
  5  8  1  0  0  0  0
  8  9  1  0  0  0  0
  8 10  1  0  0  0  0
  8 11  1  0  0  0  0
 11 12  1  0  0  0  0
 11 13  1  0  0  0  0
 11 14  1  0  0  0  0
 14 15  1  0  0  0  0
 14 16  1  0  0  0  0
 14 17  1  0  0  0  0
 17 18  1  0  0  0  0
 17 19  1  0  0  0  0
 17 20  1  0  0  0  0
 20 21  1  0  0  0  0
 20 22  1  0  0  0  0
 20 23  1  0  0  0  0
 23 24  1  0  0  0  0
 23 25  1  0  0  0  0
 23 26  1  0  0  0  0
M  END
> <VM2 Rank>
166

> <Conf_Id>
240

> <Probability>
0.00

> <Sum Probability>
99.95

> <Delta G>
4.508

> <G>
52.769

> <E>
19.899

> <-TS>
32.870

> <U+W>
-1.563

> <U>
52.213

> <W>
-53.776

> <W(PB)>
-56.014

> <W(SA)>
2.238

> <Valence>
6.034

> <Coulomb>
45.240

> <VdW>
0.939

> <VdW6>
-8.400

> <VdW12>
9.339

> <Bond>
0.287

> <Angle>
1.514

> <Pdih>
4.234

> <Idih>
0.000

> <Tether>
0.000

$$$$
VeraChem MOL file


 26 25  0  0  0  0  0  0  0  0999 V2000     
   18.9628   20.1022   21.0872 C   0  0  0  0  0  0  0  0  0  0  0  0
   19.5673   21.0173   21.0401 H   0  0  0  0  0  0  0  0  0  0  0  0
   18.0896   20.2470   20.4381 H   0  0  0  0  0  0  0  0  0  0  0  0
   18.5944   19.9906   22.1123 H   0  0  0  0  0  0  0  0  0  0  0  0
   19.7803   18.8741   20.6239 C   0  0  0  0  0  0  0  0  0  0  0  0
   20.0466   19.0273   19.5686 H   0  0  0  0  0  0  0  0  0  0  0  0
   19.1568   17.9696   20.6490 H   0  0  0  0  0  0  0  0  0  0  0  0
   21.0866   18.6508   21.4296 C   0  0  0  0  0  0  0  0  0  0  0  0
   21.8353   18.2327   20.7427 H   0  0  0  0  0  0  0  0  0  0  0  0
   21.5043   19.6110   21.7590 H   0  0  0  0  0  0  0  0  0  0  0  0
   20.9610   17.6635   22.6218 C   0  0  0  0  0  0  0  0  0  0  0  0
   21.9608   17.5007   23.0473 H   0  0  0  0  0  0  0  0  0  0  0  0
   20.6404   16.6857   22.2368 H   0  0  0  0  0  0  0  0  0  0  0  0
   20.0011   18.0845   23.7622 C   0  0  0  0  0  0  0  0  0  0  0  0
   18.9768   18.1673   23.3777 H   0  0  0  0  0  0  0  0  0  0  0  0
   19.9774   17.2720   24.5003 H   0  0  0  0  0  0  0  0  0  0  0  0
   20.4198   19.3990   24.4676 C   0  0  0  0  0  0  0  0  0  0  0  0
   20.4544   20.2195   23.7408 H   0  0  0  0  0  0  0  0  0  0  0  0
   21.4349   19.2994   24.8742 H   0  0  0  0  0  0  0  0  0  0  0  0
   19.4508   19.8019   25.5957 C   0  0  0  0  0  0  0  0  0  0  0  0
   19.7447   20.7765   25.9948 H   0  0  0  0  0  0  0  0  0  0  0  0
   18.4368   19.8889   25.1962 H   0  0  0  0  0  0  0  0  0  0  0  0
   19.4186   18.8230   26.7530 N   0  3  0  0  0  0  0  0  0  0  0  0
   18.7752   19.1276   27.4916 H   0  0  0  0  0  0  0  0  0  0  0  0
   20.3416   18.7151   27.1858 H   0  0  0  0  0  0  0  0  0  0  0  0
   19.1131   17.8917   26.4544 H   0  0  0  0  0  0  0  0  0  0  0  0
  1  2  1  0  0  0  0
  1  3  1  0  0  0  0
  1  4  1  0  0  0  0
  1  5  1  0  0  0  0
  5  6  1  0  0  0  0
  5  7  1  0  0  0  0
  5  8  1  0  0  0  0
  8  9  1  0  0  0  0
  8 10  1  0  0  0  0
  8 11  1  0  0  0  0
 11 12  1  0  0  0  0
 11 13  1  0  0  0  0
 11 14  1  0  0  0  0
 14 15  1  0  0  0  0
 14 16  1  0  0  0  0
 14 17  1  0  0  0  0
 17 18  1  0  0  0  0
 17 19  1  0  0  0  0
 17 20  1  0  0  0  0
 20 21  1  0  0  0  0
 20 22  1  0  0  0  0
 20 23  1  0  0  0  0
 23 24  1  0  0  0  0
 23 25  1  0  0  0  0
 23 26  1  0  0  0  0
M  END
> <VM2 Rank>
167

> <Conf_Id>
1008

> <Probability>
0.00

> <Sum Probability>
99.96

> <Delta G>
4.513

> <G>
52.774

> <E>
19.499

> <-TS>
33.275

> <U+W>
-1.963

> <U>
51.929

> <W>
-53.892

> <W(PB)>
-56.114

> <W(SA)>
2.222

> <Valence>
5.867

> <Coulomb>
45.498

> <VdW>
0.563

> <VdW6>
-9.057

> <VdW12>
9.621

> <Bond>
0.287

> <Angle>
1.896

> <Pdih>
3.684

> <Idih>
0.000

> <Tether>
0.000

$$$$
VeraChem MOL file


 26 25  0  0  0  0  0  0  0  0999 V2000     
   18.7062   18.7900   20.6076 C   0  0  0  0  0  0  0  0  0  0  0  0
   18.4379   18.1228   21.4354 H   0  0  0  0  0  0  0  0  0  0  0  0
   17.8031   19.3445   20.3219 H   0  0  0  0  0  0  0  0  0  0  0  0
   19.0029   18.1690   19.7524 H   0  0  0  0  0  0  0  0  0  0  0  0
   19.8390   19.7654   21.0015 C   0  0  0  0  0  0  0  0  0  0  0  0
   19.5240   20.3975   21.8414 H   0  0  0  0  0  0  0  0  0  0  0  0
   20.0144   20.4532   20.1625 H   0  0  0  0  0  0  0  0  0  0  0  0
   21.1718   19.0527   21.3371 C   0  0  0  0  0  0  0  0  0  0  0  0
   21.5005   18.4916   20.4515 H   0  0  0  0  0  0  0  0  0  0  0  0
   21.9453   19.8136   21.5097 H   0  0  0  0  0  0  0  0  0  0  0  0
   21.1407   18.0852   22.5512 C   0  0  0  0  0  0  0  0  0  0  0  0
   22.1269   17.6037   22.6053 H   0  0  0  0  0  0  0  0  0  0  0  0
   20.4295   17.2666   22.3793 H   0  0  0  0  0  0  0  0  0  0  0  0
   20.8709   18.7654   23.9193 C   0  0  0  0  0  0  0  0  0  0  0  0
   21.4687   18.2453   24.6795 H   0  0  0  0  0  0  0  0  0  0  0  0
   21.2349   19.8019   23.9035 H   0  0  0  0  0  0  0  0  0  0  0  0
   19.3836   18.7246   24.3530 C   0  0  0  0  0  0  0  0  0  0  0  0
   19.0433   17.6831   24.4249 H   0  0  0  0  0  0  0  0  0  0  0  0
   18.7543   19.2037   23.5956 H   0  0  0  0  0  0  0  0  0  0  0  0
   19.1380   19.4369   25.6971 C   0  0  0  0  0  0  0  0  0  0  0  0
   19.4852   20.4717   25.6339 H   0  0  0  0  0  0  0  0  0  0  0  0
   18.0655   19.4498   25.9095 H   0  0  0  0  0  0  0  0  0  0  0  0
   19.8309   18.7789   26.8742 N   0  3  0  0  0  0  0  0  0  0  0  0
   20.8488   18.7669   26.7573 H   0  0  0  0  0  0  0  0  0  0  0  0
   19.5284   17.8075   26.9997 H   0  0  0  0  0  0  0  0  0  0  0  0
   19.6356   19.2695   27.7537 H   0  0  0  0  0  0  0  0  0  0  0  0
  1  2  1  0  0  0  0
  1  3  1  0  0  0  0
  1  4  1  0  0  0  0
  1  5  1  0  0  0  0
  5  6  1  0  0  0  0
  5  7  1  0  0  0  0
  5  8  1  0  0  0  0
  8  9  1  0  0  0  0
  8 10  1  0  0  0  0
  8 11  1  0  0  0  0
 11 12  1  0  0  0  0
 11 13  1  0  0  0  0
 11 14  1  0  0  0  0
 14 15  1  0  0  0  0
 14 16  1  0  0  0  0
 14 17  1  0  0  0  0
 17 18  1  0  0  0  0
 17 19  1  0  0  0  0
 17 20  1  0  0  0  0
 20 21  1  0  0  0  0
 20 22  1  0  0  0  0
 20 23  1  0  0  0  0
 23 24  1  0  0  0  0
 23 25  1  0  0  0  0
 23 26  1  0  0  0  0
M  END
> <VM2 Rank>
168

> <Conf_Id>
1373

> <Probability>
0.00

> <Sum Probability>
99.96

> <Delta G>
4.520

> <G>
52.781

> <E>
19.516

> <-TS>
33.265

> <U+W>
-1.946

> <U>
51.907

> <W>
-53.852

> <W(PB)>
-56.076

> <W(SA)>
2.224

> <Valence>
5.914

> <Coulomb>
45.360

> <VdW>
0.633

> <VdW6>
-8.891

> <VdW12>
9.524

> <Bond>
0.284

> <Angle>
1.759

> <Pdih>
3.870

> <Idih>
0.000

> <Tether>
0.000

$$$$
VeraChem MOL file


 26 25  0  0  0  0  0  0  0  0999 V2000     
   19.7074   20.4744   20.9915 C   0  0  0  0  0  0  0  0  0  0  0  0
   18.7203   20.2776   21.4272 H   0  0  0  0  0  0  0  0  0  0  0  0
   20.3352   20.9608   21.7491 H   0  0  0  0  0  0  0  0  0  0  0  0
   19.5649   21.1846   20.1667 H   0  0  0  0  0  0  0  0  0  0  0  0
   20.3617   19.1741   20.4763 C   0  0  0  0  0  0  0  0  0  0  0  0
   21.2547   19.4374   19.8924 H   0  0  0  0  0  0  0  0  0  0  0  0
   19.6778   18.6738   19.7765 H   0  0  0  0  0  0  0  0  0  0  0  0
   20.7804   18.1842   21.5932 C   0  0  0  0  0  0  0  0  0  0  0  0
   21.2801   17.3344   21.1080 H   0  0  0  0  0  0  0  0  0  0  0  0
   21.5431   18.6462   22.2317 H   0  0  0  0  0  0  0  0  0  0  0  0
   19.6044   17.6275   22.4417 C   0  0  0  0  0  0  0  0  0  0  0  0
   19.8221   16.5836   22.7063 H   0  0  0  0  0  0  0  0  0  0  0  0
   18.6965   17.5892   21.8243 H   0  0  0  0  0  0  0  0  0  0  0  0
   19.3083   18.4086   23.7488 C   0  0  0  0  0  0  0  0  0  0  0  0
   19.1616   19.4719   23.5302 H   0  0  0  0  0  0  0  0  0  0  0  0
   18.3554   18.0460   24.1587 H   0  0  0  0  0  0  0  0  0  0  0  0
   20.4071   18.2369   24.8281 C   0  0  0  0  0  0  0  0  0  0  0  0
   21.3598   18.6565   24.4826 H   0  0  0  0  0  0  0  0  0  0  0  0
   20.5811   17.1670   25.0029 H   0  0  0  0  0  0  0  0  0  0  0  0
   20.0255   18.8927   26.1691 C   0  0  0  0  0  0  0  0  0  0  0  0
   19.0763   18.4817   26.5232 H   0  0  0  0  0  0  0  0  0  0  0  0
   20.7935   18.6682   26.9143 H   0  0  0  0  0  0  0  0  0  0  0  0
   19.8862   20.4006   26.0923 N   0  3  0  0  0  0  0  0  0  0  0  0
   20.7564   20.8480   25.7866 H   0  0  0  0  0  0  0  0  0  0  0  0
   19.6440   20.8069   27.0025 H   0  0  0  0  0  0  0  0  0  0  0  0
   19.1530   20.6807   25.4338 H   0  0  0  0  0  0  0  0  0  0  0  0
  1  2  1  0  0  0  0
  1  3  1  0  0  0  0
  1  4  1  0  0  0  0
  1  5  1  0  0  0  0
  5  6  1  0  0  0  0
  5  7  1  0  0  0  0
  5  8  1  0  0  0  0
  8  9  1  0  0  0  0
  8 10  1  0  0  0  0
  8 11  1  0  0  0  0
 11 12  1  0  0  0  0
 11 13  1  0  0  0  0
 11 14  1  0  0  0  0
 14 15  1  0  0  0  0
 14 16  1  0  0  0  0
 14 17  1  0  0  0  0
 17 18  1  0  0  0  0
 17 19  1  0  0  0  0
 17 20  1  0  0  0  0
 20 21  1  0  0  0  0
 20 22  1  0  0  0  0
 20 23  1  0  0  0  0
 23 24  1  0  0  0  0
 23 25  1  0  0  0  0
 23 26  1  0  0  0  0
M  END
> <VM2 Rank>
169

> <Conf_Id>
799

> <Probability>
0.00

> <Sum Probability>
99.97

> <Delta G>
4.524

> <G>
52.785

> <E>
19.969

> <-TS>
32.816

> <U+W>
-1.493

> <U>
52.644

> <W>
-54.137

> <W(PB)>
-56.384

> <W(SA)>
2.247

> <Valence>
5.947

> <Coulomb>
45.853

> <VdW>
0.845

> <VdW6>
-8.494

> <VdW12>
9.339

> <Bond>
0.292

> <Angle>
1.527

> <Pdih>
4.127

> <Idih>
0.000

> <Tether>
0.000

$$$$
VeraChem MOL file


 26 25  0  0  0  0  0  0  0  0999 V2000     
   20.3633   20.6250   20.7127 C   0  0  0  0  0  0  0  0  0  0  0  0
   19.6763   21.2992   21.2405 H   0  0  0  0  0  0  0  0  0  0  0  0
   21.2901   21.1780   20.5119 H   0  0  0  0  0  0  0  0  0  0  0  0
   19.9113   20.3634   19.7471 H   0  0  0  0  0  0  0  0  0  0  0  0
   20.6531   19.3619   21.5503 C   0  0  0  0  0  0  0  0  0  0  0  0
   21.1401   19.6600   22.4867 H   0  0  0  0  0  0  0  0  0  0  0  0
   21.3671   18.7229   21.0122 H   0  0  0  0  0  0  0  0  0  0  0  0
   19.3608   18.5640   21.8437 C   0  0  0  0  0  0  0  0  0  0  0  0
   18.6329   19.1948   22.3689 H   0  0  0  0  0  0  0  0  0  0  0  0
   18.8871   18.2995   20.8883 H   0  0  0  0  0  0  0  0  0  0  0  0
   19.6055   17.2581   22.6405 C   0  0  0  0  0  0  0  0  0  0  0  0
   20.2556   16.6013   22.0462 H   0  0  0  0  0  0  0  0  0  0  0  0
   18.6510   16.7223   22.7355 H   0  0  0  0  0  0  0  0  0  0  0  0
   20.2282   17.4216   24.0537 C   0  0  0  0  0  0  0  0  0  0  0  0
   20.3675   16.4123   24.4649 H   0  0  0  0  0  0  0  0  0  0  0  0
   21.2379   17.8449   23.9845 H   0  0  0  0  0  0  0  0  0  0  0  0
   19.3589   18.2245   25.0584 C   0  0  0  0  0  0  0  0  0  0  0  0
   19.5818   17.8819   26.0777 H   0  0  0  0  0  0  0  0  0  0  0  0
   18.2979   17.9968   24.8911 H   0  0  0  0  0  0  0  0  0  0  0  0
   19.5682   19.7521   25.0083 C   0  0  0  0  0  0  0  0  0  0  0  0
   19.4206   20.1222   23.9921 H   0  0  0  0  0  0  0  0  0  0  0  0
   18.8329   20.2375   25.6557 H   0  0  0  0  0  0  0  0  0  0  0  0
   20.9429   20.1917   25.4733 N   0  3  0  0  0  0  0  0  0  0  0  0
   21.0499   21.2111   25.4341 H   0  0  0  0  0  0  0  0  0  0  0  0
   21.6874   19.7871   24.8979 H   0  0  0  0  0  0  0  0  0  0  0  0
   21.1231   19.9099   26.4424 H   0  0  0  0  0  0  0  0  0  0  0  0
  1  2  1  0  0  0  0
  1  3  1  0  0  0  0
  1  4  1  0  0  0  0
  1  5  1  0  0  0  0
  5  6  1  0  0  0  0
  5  7  1  0  0  0  0
  5  8  1  0  0  0  0
  8  9  1  0  0  0  0
  8 10  1  0  0  0  0
  8 11  1  0  0  0  0
 11 12  1  0  0  0  0
 11 13  1  0  0  0  0
 11 14  1  0  0  0  0
 14 15  1  0  0  0  0
 14 16  1  0  0  0  0
 14 17  1  0  0  0  0
 17 18  1  0  0  0  0
 17 19  1  0  0  0  0
 17 20  1  0  0  0  0
 20 21  1  0  0  0  0
 20 22  1  0  0  0  0
 20 23  1  0  0  0  0
 23 24  1  0  0  0  0
 23 25  1  0  0  0  0
 23 26  1  0  0  0  0
M  END
> <VM2 Rank>
170

> <Conf_Id>
413

> <Probability>
0.00

> <Sum Probability>
99.97

> <Delta G>
4.533

> <G>
52.795

> <E>
19.343

> <-TS>
33.452

> <U+W>
-2.119

> <U>
52.359

> <W>
-54.478

> <W(PB)>
-56.700

> <W(SA)>
2.222

> <Valence>
5.321

> <Coulomb>
46.894

> <VdW>
0.144

> <VdW6>
-9.549

> <VdW12>
9.693

> <Bond>
0.274

> <Angle>
1.814

> <Pdih>
3.233

> <Idih>
0.000

> <Tether>
0.000

$$$$
VeraChem MOL file


 26 25  0  0  0  0  0  0  0  0999 V2000     
   18.8090   18.3579   20.7530 C   0  0  0  0  0  0  0  0  0  0  0  0
   18.8385   18.9265   19.8145 H   0  0  0  0  0  0  0  0  0  0  0  0
   18.2350   17.4402   20.5712 H   0  0  0  0  0  0  0  0  0  0  0  0
   18.2598   18.9515   21.4935 H   0  0  0  0  0  0  0  0  0  0  0  0
   20.2368   18.0168   21.2375 C   0  0  0  0  0  0  0  0  0  0  0  0
   20.7101   17.3604   20.4940 H   0  0  0  0  0  0  0  0  0  0  0  0
   20.1957   17.4316   22.1646 H   0  0  0  0  0  0  0  0  0  0  0  0
   21.1334   19.2641   21.4304 C   0  0  0  0  0  0  0  0  0  0  0  0
   22.1475   18.9325   21.6926 H   0  0  0  0  0  0  0  0  0  0  0  0
   21.2302   19.7770   20.4636 H   0  0  0  0  0  0  0  0  0  0  0  0
   20.6530   20.2939   22.4884 C   0  0  0  0  0  0  0  0  0  0  0  0
   19.6753   20.7095   22.2111 H   0  0  0  0  0  0  0  0  0  0  0  0
   21.3485   21.1437   22.4503 H   0  0  0  0  0  0  0  0  0  0  0  0
   20.6299   19.7679   23.9479 C   0  0  0  0  0  0  0  0  0  0  0  0
   21.4093   19.0061   24.0809 H   0  0  0  0  0  0  0  0  0  0  0  0
   20.8994   20.5977   24.6161 H   0  0  0  0  0  0  0  0  0  0  0  0
   19.2489   19.2249   24.3951 C   0  0  0  0  0  0  0  0  0  0  0  0
   18.9474   18.3666   23.7853 H   0  0  0  0  0  0  0  0  0  0  0  0
   18.4874   20.0003   24.2385 H   0  0  0  0  0  0  0  0  0  0  0  0
   19.2274   18.8186   25.8810 C   0  0  0  0  0  0  0  0  0  0  0  0
   19.5258   19.6692   26.4997 H   0  0  0  0  0  0  0  0  0  0  0  0
   18.2111   18.5309   26.1640 H   0  0  0  0  0  0  0  0  0  0  0  0
   20.1426   17.6549   26.2077 N   0  3  0  0  0  0  0  0  0  0  0  0
   20.0981   17.4032   27.2011 H   0  0  0  0  0  0  0  0  0  0  0  0
   21.1216   17.8717   25.9968 H   0  0  0  0  0  0  0  0  0  0  0  0
   19.8957   16.8149   25.6745 H   0  0  0  0  0  0  0  0  0  0  0  0
  1  2  1  0  0  0  0
  1  3  1  0  0  0  0
  1  4  1  0  0  0  0
  1  5  1  0  0  0  0
  5  6  1  0  0  0  0
  5  7  1  0  0  0  0
  5  8  1  0  0  0  0
  8  9  1  0  0  0  0
  8 10  1  0  0  0  0
  8 11  1  0  0  0  0
 11 12  1  0  0  0  0
 11 13  1  0  0  0  0
 11 14  1  0  0  0  0
 14 15  1  0  0  0  0
 14 16  1  0  0  0  0
 14 17  1  0  0  0  0
 17 18  1  0  0  0  0
 17 19  1  0  0  0  0
 17 20  1  0  0  0  0
 20 21  1  0  0  0  0
 20 22  1  0  0  0  0
 20 23  1  0  0  0  0
 23 24  1  0  0  0  0
 23 25  1  0  0  0  0
 23 26  1  0  0  0  0
M  END
> <VM2 Rank>
171

> <Conf_Id>
1232

> <Probability>
0.00

> <Sum Probability>
99.97

> <Delta G>
4.537

> <G>
52.798

> <E>
19.536

> <-TS>
33.262

> <U+W>
-1.926

> <U>
52.271

> <W>
-54.197

> <W(PB)>
-56.414

> <W(SA)>
2.217

> <Valence>
5.855

> <Coulomb>
45.879

> <VdW>
0.537

> <VdW6>
-9.012

> <VdW12>
9.549

> <Bond>
0.284

> <Angle>
1.818

> <Pdih>
3.753

> <Idih>
0.000

> <Tether>
0.000

$$$$
VeraChem MOL file


 26 25  0  0  0  0  0  0  0  0999 V2000     
   18.8122   19.8839   20.9620 C   0  0  0  0  0  0  0  0  0  0  0  0
   18.0840   19.4750   21.6743 H   0  0  0  0  0  0  0  0  0  0  0  0
   19.3598   20.6999   21.4492 H   0  0  0  0  0  0  0  0  0  0  0  0
   18.2539   20.3198   20.1235 H   0  0  0  0  0  0  0  0  0  0  0  0
   19.7744   18.7869   20.4568 C   0  0  0  0  0  0  0  0  0  0  0  0
   20.5348   19.2401   19.8054 H   0  0  0  0  0  0  0  0  0  0  0  0
   19.2095   18.0883   19.8238 H   0  0  0  0  0  0  0  0  0  0  0  0
   20.4677   17.9778   21.5825 C   0  0  0  0  0  0  0  0  0  0  0  0
   19.7144   17.4391   22.1702 H   0  0  0  0  0  0  0  0  0  0  0  0
   21.0750   17.1992   21.1006 H   0  0  0  0  0  0  0  0  0  0  0  0
   21.4010   18.8126   22.5018 C   0  0  0  0  0  0  0  0  0  0  0  0
   21.8212   19.6506   21.9289 H   0  0  0  0  0  0  0  0  0  0  0  0
   22.2621   18.1931   22.7879 H   0  0  0  0  0  0  0  0  0  0  0  0
   20.7387   19.3520   23.7967 C   0  0  0  0  0  0  0  0  0  0  0  0
   21.4268   20.0714   24.2618 H   0  0  0  0  0  0  0  0  0  0  0  0
   19.8299   19.9129   23.5526 H   0  0  0  0  0  0  0  0  0  0  0  0
   20.4142   18.2417   24.8280 C   0  0  0  0  0  0  0  0  0  0  0  0
   21.3203   17.6543   25.0271 H   0  0  0  0  0  0  0  0  0  0  0  0
   19.6706   17.5431   24.4256 H   0  0  0  0  0  0  0  0  0  0  0  0
   19.8995   18.8092   26.1648 C   0  0  0  0  0  0  0  0  0  0  0  0
   19.7689   17.9921   26.8795 H   0  0  0  0  0  0  0  0  0  0  0  0
   20.6337   19.5075   26.5755 H   0  0  0  0  0  0  0  0  0  0  0  0
   18.5733   19.5349   26.0485 N   0  3  0  0  0  0  0  0  0  0  0  0
   17.8345   18.9220   25.6886 H   0  0  0  0  0  0  0  0  0  0  0  0
   18.6352   20.3393   25.4170 H   0  0  0  0  0  0  0  0  0  0  0  0
   18.2529   19.8893   26.9563 H   0  0  0  0  0  0  0  0  0  0  0  0
  1  2  1  0  0  0  0
  1  3  1  0  0  0  0
  1  4  1  0  0  0  0
  1  5  1  0  0  0  0
  5  6  1  0  0  0  0
  5  7  1  0  0  0  0
  5  8  1  0  0  0  0
  8  9  1  0  0  0  0
  8 10  1  0  0  0  0
  8 11  1  0  0  0  0
 11 12  1  0  0  0  0
 11 13  1  0  0  0  0
 11 14  1  0  0  0  0
 14 15  1  0  0  0  0
 14 16  1  0  0  0  0
 14 17  1  0  0  0  0
 17 18  1  0  0  0  0
 17 19  1  0  0  0  0
 17 20  1  0  0  0  0
 20 21  1  0  0  0  0
 20 22  1  0  0  0  0
 20 23  1  0  0  0  0
 23 24  1  0  0  0  0
 23 25  1  0  0  0  0
 23 26  1  0  0  0  0
M  END
> <VM2 Rank>
172

> <Conf_Id>
445

> <Probability>
0.00

> <Sum Probability>
99.98

> <Delta G>
4.571

> <G>
52.832

> <E>
20.017

> <-TS>
32.815

> <U+W>
-1.445

> <U>
52.644

> <W>
-54.089

> <W(PB)>
-56.310

> <W(SA)>
2.220

> <Valence>
5.946

> <Coulomb>
45.853

> <VdW>
0.845

> <VdW6>
-8.494

> <VdW12>
9.339

> <Bond>
0.292

> <Angle>
1.529

> <Pdih>
4.125

> <Idih>
0.000

> <Tether>
0.000

$$$$
VeraChem MOL file


 26 25  0  0  0  0  0  0  0  0999 V2000     
   19.0193   19.4848   20.0012 C   0  0  0  0  0  0  0  0  0  0  0  0
   18.6935   18.5545   19.5179 H   0  0  0  0  0  0  0  0  0  0  0  0
   18.1480   19.9394   20.4905 H   0  0  0  0  0  0  0  0  0  0  0  0
   19.3605   20.1709   19.2152 H   0  0  0  0  0  0  0  0  0  0  0  0
   20.1489   19.2163   21.0181 C   0  0  0  0  0  0  0  0  0  0  0  0
   20.4741   20.1720   21.4503 H   0  0  0  0  0  0  0  0  0  0  0  0
   21.0168   18.7909   20.4952 H   0  0  0  0  0  0  0  0  0  0  0  0
   19.6905   18.2536   22.1384 C   0  0  0  0  0  0  0  0  0  0  0  0
   18.8454   18.6974   22.6790 H   0  0  0  0  0  0  0  0  0  0  0  0
   19.3065   17.3319   21.6798 H   0  0  0  0  0  0  0  0  0  0  0  0
   20.8237   17.8725   23.1264 C   0  0  0  0  0  0  0  0  0  0  0  0
   21.6175   17.3592   22.5663 H   0  0  0  0  0  0  0  0  0  0  0  0
   20.4514   17.1284   23.8411 H   0  0  0  0  0  0  0  0  0  0  0  0
   21.4600   19.0602   23.8969 C   0  0  0  0  0  0  0  0  0  0  0  0
   22.2330   18.6659   24.5708 H   0  0  0  0  0  0  0  0  0  0  0  0
   21.9963   19.7012   23.1847 H   0  0  0  0  0  0  0  0  0  0  0  0
   20.4844   19.9428   24.7205 C   0  0  0  0  0  0  0  0  0  0  0  0
   19.7214   20.3950   24.0743 H   0  0  0  0  0  0  0  0  0  0  0  0
   21.0610   20.7833   25.1288 H   0  0  0  0  0  0  0  0  0  0  0  0
   19.8195   19.2174   25.9089 C   0  0  0  0  0  0  0  0  0  0  0  0
   20.5570   18.5913   26.4180 H   0  0  0  0  0  0  0  0  0  0  0  0
   19.4563   19.9613   26.6232 H   0  0  0  0  0  0  0  0  0  0  0  0
   18.6348   18.3513   25.5307 N   0  3  0  0  0  0  0  0  0  0  0  0
   18.2410   17.8690   26.3460 H   0  0  0  0  0  0  0  0  0  0  0  0
   18.8960   17.6336   24.8487 H   0  0  0  0  0  0  0  0  0  0  0  0
   17.8781   18.9049   25.1164 H   0  0  0  0  0  0  0  0  0  0  0  0
  1  2  1  0  0  0  0
  1  3  1  0  0  0  0
  1  4  1  0  0  0  0
  1  5  1  0  0  0  0
  5  6  1  0  0  0  0
  5  7  1  0  0  0  0
  5  8  1  0  0  0  0
  8  9  1  0  0  0  0
  8 10  1  0  0  0  0
  8 11  1  0  0  0  0
 11 12  1  0  0  0  0
 11 13  1  0  0  0  0
 11 14  1  0  0  0  0
 14 15  1  0  0  0  0
 14 16  1  0  0  0  0
 14 17  1  0  0  0  0
 17 18  1  0  0  0  0
 17 19  1  0  0  0  0
 17 20  1  0  0  0  0
 20 21  1  0  0  0  0
 20 22  1  0  0  0  0
 20 23  1  0  0  0  0
 23 24  1  0  0  0  0
 23 25  1  0  0  0  0
 23 26  1  0  0  0  0
M  END
> <VM2 Rank>
173

> <Conf_Id>
547

> <Probability>
0.00

> <Sum Probability>
99.98

> <Delta G>
4.590

> <G>
52.851

> <E>
19.529

> <-TS>
33.322

> <U+W>
-1.932

> <U>
52.118

> <W>
-54.051

> <W(PB)>
-56.271

> <W(SA)>
2.220

> <Valence>
4.669

> <Coulomb>
47.148

> <VdW>
0.301

> <VdW6>
-9.413

> <VdW12>
9.714

> <Bond>
0.278

> <Angle>
1.801

> <Pdih>
2.590

> <Idih>
0.000

> <Tether>
0.000

$$$$
VeraChem MOL file


 26 25  0  0  0  0  0  0  0  0999 V2000     
   21.0104   20.2223   21.1863 C   0  0  0  0  0  0  0  0  0  0  0  0
   21.3608   20.1805   22.2239 H   0  0  0  0  0  0  0  0  0  0  0  0
   21.8195   20.6572   20.5854 H   0  0  0  0  0  0  0  0  0  0  0  0
   20.1497   20.9014   21.1325 H   0  0  0  0  0  0  0  0  0  0  0  0
   20.6456   18.8167   20.6616 C   0  0  0  0  0  0  0  0  0  0  0  0
   21.5019   18.1420   20.8002 H   0  0  0  0  0  0  0  0  0  0  0  0
   20.4802   18.8787   19.5769 H   0  0  0  0  0  0  0  0  0  0  0  0
   19.3837   18.1973   21.3148 C   0  0  0  0  0  0  0  0  0  0  0  0
   18.5024   18.8147   21.0934 H   0  0  0  0  0  0  0  0  0  0  0  0
   19.1988   17.2321   20.8231 H   0  0  0  0  0  0  0  0  0  0  0  0
   19.4971   17.9457   22.8411 C   0  0  0  0  0  0  0  0  0  0  0  0
   20.5429   17.7417   23.1059 H   0  0  0  0  0  0  0  0  0  0  0  0
   18.9386   17.0308   23.0825 H   0  0  0  0  0  0  0  0  0  0  0  0
   18.9220   19.1006   23.7012 C   0  0  0  0  0  0  0  0  0  0  0  0
   19.4538   20.0370   23.4990 H   0  0  0  0  0  0  0  0  0  0  0  0
   17.8785   19.2788   23.4072 H   0  0  0  0  0  0  0  0  0  0  0  0
   18.9556   18.8002   25.2207 C   0  0  0  0  0  0  0  0  0  0  0  0
   18.3408   17.9142   25.4282 H   0  0  0  0  0  0  0  0  0  0  0  0
   18.4879   19.6310   25.7656 H   0  0  0  0  0  0  0  0  0  0  0  0
   20.3717   18.5618   25.7831 C   0  0  0  0  0  0  0  0  0  0  0  0
   20.3037   18.3269   26.8488 H   0  0  0  0  0  0  0  0  0  0  0  0
   20.8326   17.7097   25.2771 H   0  0  0  0  0  0  0  0  0  0  0  0
   21.2950   19.7544   25.6321 N   0  3  0  0  0  0  0  0  0  0  0  0
   22.2249   19.5675   26.0228 H   0  0  0  0  0  0  0  0  0  0  0  0
   20.9284   20.5816   26.1142 H   0  0  0  0  0  0  0  0  0  0  0  0
   21.4251   20.0076   24.6482 H   0  0  0  0  0  0  0  0  0  0  0  0
  1  2  1  0  0  0  0
  1  3  1  0  0  0  0
  1  4  1  0  0  0  0
  1  5  1  0  0  0  0
  5  6  1  0  0  0  0
  5  7  1  0  0  0  0
  5  8  1  0  0  0  0
  8  9  1  0  0  0  0
  8 10  1  0  0  0  0
  8 11  1  0  0  0  0
 11 12  1  0  0  0  0
 11 13  1  0  0  0  0
 11 14  1  0  0  0  0
 14 15  1  0  0  0  0
 14 16  1  0  0  0  0
 14 17  1  0  0  0  0
 17 18  1  0  0  0  0
 17 19  1  0  0  0  0
 17 20  1  0  0  0  0
 20 21  1  0  0  0  0
 20 22  1  0  0  0  0
 20 23  1  0  0  0  0
 23 24  1  0  0  0  0
 23 25  1  0  0  0  0
 23 26  1  0  0  0  0
M  END
> <VM2 Rank>
174

> <Conf_Id>
567

> <Probability>
0.00

> <Sum Probability>
99.98

> <Delta G>
4.769

> <G>
53.030

> <E>
20.114

> <-TS>
32.916

> <U+W>
-1.348

> <U>
52.694

> <W>
-54.042

> <W(PB)>
-56.249

> <W(SA)>
2.207

> <Valence>
5.523

> <Coulomb>
46.642

> <VdW>
0.528

> <VdW6>
-8.872

> <VdW12>
9.400

> <Bond>
0.267

> <Angle>
1.435

> <Pdih>
3.821

> <Idih>
0.000

> <Tether>
0.000

$$$$
VeraChem MOL file


 26 25  0  0  0  0  0  0  0  0999 V2000     
   18.5232   18.5831   21.1039 C   0  0  0  0  0  0  0  0  0  0  0  0
   18.3761   18.2128   22.1250 H   0  0  0  0  0  0  0  0  0  0  0  0
   18.2403   19.6432   21.0698 H   0  0  0  0  0  0  0  0  0  0  0  0
   17.8334   18.0302   20.4533 H   0  0  0  0  0  0  0  0  0  0  0  0
   19.9816   18.3797   20.6394 C   0  0  0  0  0  0  0  0  0  0  0  0
   20.0397   18.5897   19.5622 H   0  0  0  0  0  0  0  0  0  0  0  0
   20.2582   17.3228   20.7581 H   0  0  0  0  0  0  0  0  0  0  0  0
   21.0164   19.2737   21.3691 C   0  0  0  0  0  0  0  0  0  0  0  0
   21.9981   19.0777   20.9161 H   0  0  0  0  0  0  0  0  0  0  0  0
   20.8062   20.3336   21.1704 H   0  0  0  0  0  0  0  0  0  0  0  0
   21.1323   19.0231   22.8954 C   0  0  0  0  0  0  0  0  0  0  0  0
   22.1809   19.1670   23.1902 H   0  0  0  0  0  0  0  0  0  0  0  0
   20.8957   17.9741   23.1172 H   0  0  0  0  0  0  0  0  0  0  0  0
   20.2584   19.9809   23.7460 C   0  0  0  0  0  0  0  0  0  0  0  0
   20.5194   21.0184   23.4959 H   0  0  0  0  0  0  0  0  0  0  0  0
   19.1988   19.8691   23.4907 H   0  0  0  0  0  0  0  0  0  0  0  0
   20.4505   19.7841   25.2707 C   0  0  0  0  0  0  0  0  0  0  0  0
   19.8469   20.5252   25.8113 H   0  0  0  0  0  0  0  0  0  0  0  0
   21.4963   19.9915   25.5335 H   0  0  0  0  0  0  0  0  0  0  0  0
   20.0851   18.3726   25.7731 C   0  0  0  0  0  0  0  0  0  0  0  0
   20.7089   17.6280   25.2721 H   0  0  0  0  0  0  0  0  0  0  0  0
   20.2783   18.3090   26.8474 H   0  0  0  0  0  0  0  0  0  0  0  0
   18.6335   18.0018   25.5433 N   0  3  0  0  0  0  0  0  0  0  0  0
   18.3953   18.0131   24.5472 H   0  0  0  0  0  0  0  0  0  0  0  0
   17.9965   18.6507   26.0168 H   0  0  0  0  0  0  0  0  0  0  0  0
   18.4204   17.0621   25.8955 H   0  0  0  0  0  0  0  0  0  0  0  0
  1  2  1  0  0  0  0
  1  3  1  0  0  0  0
  1  4  1  0  0  0  0
  1  5  1  0  0  0  0
  5  6  1  0  0  0  0
  5  7  1  0  0  0  0
  5  8  1  0  0  0  0
  8  9  1  0  0  0  0
  8 10  1  0  0  0  0
  8 11  1  0  0  0  0
 11 12  1  0  0  0  0
 11 13  1  0  0  0  0
 11 14  1  0  0  0  0
 14 15  1  0  0  0  0
 14 16  1  0  0  0  0
 14 17  1  0  0  0  0
 17 18  1  0  0  0  0
 17 19  1  0  0  0  0
 17 20  1  0  0  0  0
 20 21  1  0  0  0  0
 20 22  1  0  0  0  0
 20 23  1  0  0  0  0
 23 24  1  0  0  0  0
 23 25  1  0  0  0  0
 23 26  1  0  0  0  0
M  END
> <VM2 Rank>
175

> <Conf_Id>
735

> <Probability>
0.00

> <Sum Probability>
99.98

> <Delta G>
4.791

> <G>
53.053

> <E>
20.136

> <-TS>
32.916

> <U+W>
-1.325

> <U>
52.694

> <W>
-54.019

> <W(PB)>
-56.229

> <W(SA)>
2.210

> <Valence>
5.523

> <Coulomb>
46.643

> <VdW>
0.528

> <VdW6>
-8.872

> <VdW12>
9.400

> <Bond>
0.267

> <Angle>
1.434

> <Pdih>
3.822

> <Idih>
0.000

> <Tether>
0.000

$$$$
VeraChem MOL file


 26 25  0  0  0  0  0  0  0  0999 V2000     
   20.3034   20.6305   21.5476 C   0  0  0  0  0  0  0  0  0  0  0  0
   19.2802   21.0247   21.4976 H   0  0  0  0  0  0  0  0  0  0  0  0
   20.5922   20.5661   22.6013 H   0  0  0  0  0  0  0  0  0  0  0  0
   20.9660   21.3635   21.0694 H   0  0  0  0  0  0  0  0  0  0  0  0
   20.4063   19.2641   20.8311 C   0  0  0  0  0  0  0  0  0  0  0  0
   21.4393   18.8914   20.8678 H   0  0  0  0  0  0  0  0  0  0  0  0
   20.1819   19.4259   19.7675 H   0  0  0  0  0  0  0  0  0  0  0  0
   19.4271   18.1933   21.3787 C   0  0  0  0  0  0  0  0  0  0  0  0
   18.4971   18.6631   21.7245 H   0  0  0  0  0  0  0  0  0  0  0  0
   19.1299   17.5519   20.5374 H   0  0  0  0  0  0  0  0  0  0  0  0
   20.0170   17.2635   22.4736 C   0  0  0  0  0  0  0  0  0  0  0  0
   20.8945   16.7455   22.0629 H   0  0  0  0  0  0  0  0  0  0  0  0
   19.2841   16.4751   22.6936 H   0  0  0  0  0  0  0  0  0  0  0  0
   20.4213   17.9465   23.8035 C   0  0  0  0  0  0  0  0  0  0  0  0
   20.8493   17.1818   24.4665 H   0  0  0  0  0  0  0  0  0  0  0  0
   21.2279   18.6657   23.6187 H   0  0  0  0  0  0  0  0  0  0  0  0
   19.2342   18.6259   24.5312 C   0  0  0  0  0  0  0  0  0  0  0  0
   18.4257   17.8951   24.6645 H   0  0  0  0  0  0  0  0  0  0  0  0
   18.8217   19.4399   23.9225 H   0  0  0  0  0  0  0  0  0  0  0  0
   19.6259   19.1774   25.9154 C   0  0  0  0  0  0  0  0  0  0  0  0
   18.7349   19.5645   26.4172 H   0  0  0  0  0  0  0  0  0  0  0  0
   20.0396   18.3721   26.5284 H   0  0  0  0  0  0  0  0  0  0  0  0
   20.6458   20.2977   25.8598 N   0  3  0  0  0  0  0  0  0  0  0  0
   20.3024   21.0988   25.3204 H   0  0  0  0  0  0  0  0  0  0  0  0
   21.5226   19.9910   25.4275 H   0  0  0  0  0  0  0  0  0  0  0  0
   20.8787   20.6453   26.7965 H   0  0  0  0  0  0  0  0  0  0  0  0
  1  2  1  0  0  0  0
  1  3  1  0  0  0  0
  1  4  1  0  0  0  0
  1  5  1  0  0  0  0
  5  6  1  0  0  0  0
  5  7  1  0  0  0  0
  5  8  1  0  0  0  0
  8  9  1  0  0  0  0
  8 10  1  0  0  0  0
  8 11  1  0  0  0  0
 11 12  1  0  0  0  0
 11 13  1  0  0  0  0
 11 14  1  0  0  0  0
 14 15  1  0  0  0  0
 14 16  1  0  0  0  0
 14 17  1  0  0  0  0
 17 18  1  0  0  0  0
 17 19  1  0  0  0  0
 17 20  1  0  0  0  0
 20 21  1  0  0  0  0
 20 22  1  0  0  0  0
 20 23  1  0  0  0  0
 23 24  1  0  0  0  0
 23 25  1  0  0  0  0
 23 26  1  0  0  0  0
M  END
> <VM2 Rank>
176

> <Conf_Id>
809

> <Probability>
0.00

> <Sum Probability>
99.99

> <Delta G>
4.818

> <G>
53.079

> <E>
19.768

> <-TS>
33.311

> <U+W>
-1.694

> <U>
52.676

> <W>
-54.369

> <W(PB)>
-56.548

> <W(SA)>
2.179

> <Valence>
5.835

> <Coulomb>
46.483

> <VdW>
0.357

> <VdW6>
-9.272

> <VdW12>
9.629

> <Bond>
0.284

> <Angle>
1.858

> <Pdih>
3.694

> <Idih>
0.000

> <Tether>
0.000

$$$$
VeraChem MOL file


 26 25  0  0  0  0  0  0  0  0999 V2000     
   18.4089   19.3790   21.4846 C   0  0  0  0  0  0  0  0  0  0  0  0
   17.4981   19.0726   20.9540 H   0  0  0  0  0  0  0  0  0  0  0  0
   18.3062   19.0563   22.5252 H   0  0  0  0  0  0  0  0  0  0  0  0
   18.4492   20.4759   21.4697 H   0  0  0  0  0  0  0  0  0  0  0  0
   19.6576   18.7695   20.8064 C   0  0  0  0  0  0  0  0  0  0  0  0
   19.6461   19.0717   19.7497 H   0  0  0  0  0  0  0  0  0  0  0  0
   19.5942   17.6725   20.8067 H   0  0  0  0  0  0  0  0  0  0  0  0
   20.9996   19.2321   21.4312 C   0  0  0  0  0  0  0  0  0  0  0  0
   21.7443   19.2791   20.6247 H   0  0  0  0  0  0  0  0  0  0  0  0
   20.9156   20.2609   21.8052 H   0  0  0  0  0  0  0  0  0  0  0  0
   21.5726   18.2912   22.5256 C   0  0  0  0  0  0  0  0  0  0  0  0
   22.5737   18.6485   22.8035 H   0  0  0  0  0  0  0  0  0  0  0  0
   21.7247   17.2938   22.0906 H   0  0  0  0  0  0  0  0  0  0  0  0
   20.7249   18.1470   23.8137 C   0  0  0  0  0  0  0  0  0  0  0  0
   19.7569   17.6938   23.5695 H   0  0  0  0  0  0  0  0  0  0  0  0
   21.2295   17.4328   24.4791 H   0  0  0  0  0  0  0  0  0  0  0  0
   20.5311   19.4825   24.5746 C   0  0  0  0  0  0  0  0  0  0  0  0
   19.9728   20.2002   23.9610 H   0  0  0  0  0  0  0  0  0  0  0  0
   21.5129   19.9343   24.7679 H   0  0  0  0  0  0  0  0  0  0  0  0
   19.8063   19.2966   25.9213 C   0  0  0  0  0  0  0  0  0  0  0  0
   20.3558   18.5811   26.5390 H   0  0  0  0  0  0  0  0  0  0  0  0
   19.7757   20.2521   26.4520 H   0  0  0  0  0  0  0  0  0  0  0  0
   18.3800   18.8011   25.7837 N   0  3  0  0  0  0  0  0  0  0  0  0
   18.3390   17.8881   25.3206 H   0  0  0  0  0  0  0  0  0  0  0  0
   17.8035   19.4481   25.2364 H   0  0  0  0  0  0  0  0  0  0  0  0
   17.9257   18.6948   26.6973 H   0  0  0  0  0  0  0  0  0  0  0  0
  1  2  1  0  0  0  0
  1  3  1  0  0  0  0
  1  4  1  0  0  0  0
  1  5  1  0  0  0  0
  5  6  1  0  0  0  0
  5  7  1  0  0  0  0
  5  8  1  0  0  0  0
  8  9  1  0  0  0  0
  8 10  1  0  0  0  0
  8 11  1  0  0  0  0
 11 12  1  0  0  0  0
 11 13  1  0  0  0  0
 11 14  1  0  0  0  0
 14 15  1  0  0  0  0
 14 16  1  0  0  0  0
 14 17  1  0  0  0  0
 17 18  1  0  0  0  0
 17 19  1  0  0  0  0
 17 20  1  0  0  0  0
 20 21  1  0  0  0  0
 20 22  1  0  0  0  0
 20 23  1  0  0  0  0
 23 24  1  0  0  0  0
 23 25  1  0  0  0  0
 23 26  1  0  0  0  0
M  END
> <VM2 Rank>
177

> <Conf_Id>
862

> <Probability>
0.00

> <Sum Probability>
99.99

> <Delta G>
4.904

> <G>
53.165

> <E>
19.854

> <-TS>
33.312

> <U+W>
-1.608

> <U>
52.676

> <W>
-54.284

> <W(PB)>
-56.466

> <W(SA)>
2.182

> <Valence>
5.835

> <Coulomb>
46.484

> <VdW>
0.357

> <VdW6>
-9.273

> <VdW12>
9.630

> <Bond>
0.284

> <Angle>
1.857

> <Pdih>
3.694

> <Idih>
0.000

> <Tether>
0.000

$$$$
VeraChem MOL file


 26 25  0  0  0  0  0  0  0  0999 V2000     
   19.0602   17.6041   21.4083 C   0  0  0  0  0  0  0  0  0  0  0  0
   18.7687   17.7265   22.4580 H   0  0  0  0  0  0  0  0  0  0  0  0
   18.2449   17.9870   20.7810 H   0  0  0  0  0  0  0  0  0  0  0  0
   19.1560   16.5281   21.2140 H   0  0  0  0  0  0  0  0  0  0  0  0
   20.3875   18.3315   21.0942 C   0  0  0  0  0  0  0  0  0  0  0  0
   20.6716   18.1070   20.0567 H   0  0  0  0  0  0  0  0  0  0  0  0
   21.1988   17.9310   21.7146 H   0  0  0  0  0  0  0  0  0  0  0  0
   20.2995   19.8689   21.2547 C   0  0  0  0  0  0  0  0  0  0  0  0
   21.2591   20.3109   20.9535 H   0  0  0  0  0  0  0  0  0  0  0  0
   19.5597   20.2510   20.5379 H   0  0  0  0  0  0  0  0  0  0  0  0
   19.9270   20.3910   22.6689 C   0  0  0  0  0  0  0  0  0  0  0  0
   18.9306   20.0372   22.9597 H   0  0  0  0  0  0  0  0  0  0  0  0
   19.8292   21.4826   22.5905 H   0  0  0  0  0  0  0  0  0  0  0  0
   20.9771   20.0949   23.7756 C   0  0  0  0  0  0  0  0  0  0  0  0
   21.9842   20.0926   23.3368 H   0  0  0  0  0  0  0  0  0  0  0  0
   20.9700   20.9281   24.4921 H   0  0  0  0  0  0  0  0  0  0  0  0
   20.7531   18.7840   24.5713 C   0  0  0  0  0  0  0  0  0  0  0  0
   21.5899   18.6520   25.2700 H   0  0  0  0  0  0  0  0  0  0  0  0
   20.7729   17.9162   23.9039 H   0  0  0  0  0  0  0  0  0  0  0  0
   19.4369   18.7899   25.3715 C   0  0  0  0  0  0  0  0  0  0  0  0
   19.4238   19.6461   26.0513 H   0  0  0  0  0  0  0  0  0  0  0  0
   18.5873   18.8785   24.6900 H   0  0  0  0  0  0  0  0  0  0  0  0
   19.2397   17.5346   26.1966 N   0  3  0  0  0  0  0  0  0  0  0  0
   19.9914   17.4066   26.8819 H   0  0  0  0  0  0  0  0  0  0  0  0
   19.2168   16.6925   25.6125 H   0  0  0  0  0  0  0  0  0  0  0  0
   18.3587   17.5586   26.7216 H   0  0  0  0  0  0  0  0  0  0  0  0
  1  2  1  0  0  0  0
  1  3  1  0  0  0  0
  1  4  1  0  0  0  0
  1  5  1  0  0  0  0
  5  6  1  0  0  0  0
  5  7  1  0  0  0  0
  5  8  1  0  0  0  0
  8  9  1  0  0  0  0
  8 10  1  0  0  0  0
  8 11  1  0  0  0  0
 11 12  1  0  0  0  0
 11 13  1  0  0  0  0
 11 14  1  0  0  0  0
 14 15  1  0  0  0  0
 14 16  1  0  0  0  0
 14 17  1  0  0  0  0
 17 18  1  0  0  0  0
 17 19  1  0  0  0  0
 17 20  1  0  0  0  0
 20 21  1  0  0  0  0
 20 22  1  0  0  0  0
 20 23  1  0  0  0  0
 23 24  1  0  0  0  0
 23 25  1  0  0  0  0
 23 26  1  0  0  0  0
M  END
> <VM2 Rank>
178

> <Conf_Id>
153

> <Probability>
0.00

> <Sum Probability>
99.99

> <Delta G>
4.940

> <G>
53.202

> <E>
19.814

> <-TS>
33.388

> <U+W>
-1.648

> <U>
52.670

> <W>
-54.319

> <W(PB)>
-56.514

> <W(SA)>
2.195

> <Valence>
6.157

> <Coulomb>
46.163

> <VdW>
0.351

> <VdW6>
-9.327

> <VdW12>
9.678

> <Bond>
0.300

> <Angle>
2.157

> <Pdih>
3.700

> <Idih>
0.000

> <Tether>
0.000

$$$$
VeraChem MOL file


 26 25  0  0  0  0  0  0  0  0999 V2000     
   18.9523   19.6107   20.6352 C   0  0  0  0  0  0  0  0  0  0  0  0
   18.4835   19.4970   19.6492 H   0  0  0  0  0  0  0  0  0  0  0  0
   18.2748   19.1669   21.3717 H   0  0  0  0  0  0  0  0  0  0  0  0
   19.0292   20.6855   20.8446 H   0  0  0  0  0  0  0  0  0  0  0  0
   20.3462   18.9420   20.6478 C   0  0  0  0  0  0  0  0  0  0  0  0
   20.9298   19.3703   19.8208 H   0  0  0  0  0  0  0  0  0  0  0  0
   20.2555   17.8692   20.4282 H   0  0  0  0  0  0  0  0  0  0  0  0
   21.1383   19.1576   21.9638 C   0  0  0  0  0  0  0  0  0  0  0  0
   22.2063   19.1841   21.7070 H   0  0  0  0  0  0  0  0  0  0  0  0
   20.9196   20.1463   22.3878 H   0  0  0  0  0  0  0  0  0  0  0  0
   20.9556   18.0442   23.0305 C   0  0  0  0  0  0  0  0  0  0  0  0
   21.6873   18.2078   23.8328 H   0  0  0  0  0  0  0  0  0  0  0  0
   21.2267   17.0779   22.5836 H   0  0  0  0  0  0  0  0  0  0  0  0
   19.5417   17.9223   23.6557 C   0  0  0  0  0  0  0  0  0  0  0  0
   18.8262   17.6093   22.8854 H   0  0  0  0  0  0  0  0  0  0  0  0
   19.5522   17.1014   24.3851 H   0  0  0  0  0  0  0  0  0  0  0  0
   19.0254   19.2097   24.3510 C   0  0  0  0  0  0  0  0  0  0  0  0
   18.0349   19.0148   24.7828 H   0  0  0  0  0  0  0  0  0  0  0  0
   18.8779   20.0011   23.6060 H   0  0  0  0  0  0  0  0  0  0  0  0
   19.9614   19.7414   25.4548 C   0  0  0  0  0  0  0  0  0  0  0  0
   20.9420   19.9685   25.0286 H   0  0  0  0  0  0  0  0  0  0  0  0
   19.5479   20.6654   25.8680 H   0  0  0  0  0  0  0  0  0  0  0  0
   20.1600   18.7710   26.6022 N   0  3  0  0  0  0  0  0  0  0  0  0
   20.7833   19.1533   27.3215 H   0  0  0  0  0  0  0  0  0  0  0  0
   20.5724   17.8891   26.2829 H   0  0  0  0  0  0  0  0  0  0  0  0
   19.2739   18.5419   27.0638 H   0  0  0  0  0  0  0  0  0  0  0  0
  1  2  1  0  0  0  0
  1  3  1  0  0  0  0
  1  4  1  0  0  0  0
  1  5  1  0  0  0  0
  5  6  1  0  0  0  0
  5  7  1  0  0  0  0
  5  8  1  0  0  0  0
  8  9  1  0  0  0  0
  8 10  1  0  0  0  0
  8 11  1  0  0  0  0
 11 12  1  0  0  0  0
 11 13  1  0  0  0  0
 11 14  1  0  0  0  0
 14 15  1  0  0  0  0
 14 16  1  0  0  0  0
 14 17  1  0  0  0  0
 17 18  1  0  0  0  0
 17 19  1  0  0  0  0
 17 20  1  0  0  0  0
 20 21  1  0  0  0  0
 20 22  1  0  0  0  0
 20 23  1  0  0  0  0
 23 24  1  0  0  0  0
 23 25  1  0  0  0  0
 23 26  1  0  0  0  0
M  END
> <VM2 Rank>
179

> <Conf_Id>
854

> <Probability>
0.00

> <Sum Probability>
99.99

> <Delta G>
4.943

> <G>
53.204

> <E>
19.686

> <-TS>
33.518

> <U+W>
-1.776

> <U>
52.331

> <W>
-54.106

> <W(PB)>
-56.300

> <W(SA)>
2.194

> <Valence>
6.095

> <Coulomb>
45.826

> <VdW>
0.409

> <VdW6>
-9.964

> <VdW12>
10.373

> <Bond>
0.316

> <Angle>
2.141

> <Pdih>
3.638

> <Idih>
0.000

> <Tether>
0.000

$$$$
VeraChem MOL file


 26 25  0  0  0  0  0  0  0  0999 V2000     
   19.8098   18.5060   19.8270 C   0  0  0  0  0  0  0  0  0  0  0  0
   18.7444   18.5014   20.0881 H   0  0  0  0  0  0  0  0  0  0  0  0
   20.0677   19.5036   19.4485 H   0  0  0  0  0  0  0  0  0  0  0  0
   19.9509   17.7895   19.0075 H   0  0  0  0  0  0  0  0  0  0  0  0
   20.6935   18.1247   21.0363 C   0  0  0  0  0  0  0  0  0  0  0  0
   21.7326   18.0189   20.6941 H   0  0  0  0  0  0  0  0  0  0  0  0
   20.3934   17.1381   21.4158 H   0  0  0  0  0  0  0  0  0  0  0  0
   20.6530   19.1643   22.1824 C   0  0  0  0  0  0  0  0  0  0  0  0
   21.3996   18.8742   22.9316 H   0  0  0  0  0  0  0  0  0  0  0  0
   20.9700   20.1439   21.7990 H   0  0  0  0  0  0  0  0  0  0  0  0
   19.2586   19.2950   22.8469 C   0  0  0  0  0  0  0  0  0  0  0  0
   18.8944   18.3128   23.1716 H   0  0  0  0  0  0  0  0  0  0  0  0
   18.5365   19.6440   22.0973 H   0  0  0  0  0  0  0  0  0  0  0  0
   19.2255   20.2948   24.0313 C   0  0  0  0  0  0  0  0  0  0  0  0
   19.4813   21.2947   23.6546 H   0  0  0  0  0  0  0  0  0  0  0  0
   18.1913   20.3698   24.3948 H   0  0  0  0  0  0  0  0  0  0  0  0
   20.1507   19.9686   25.2348 C   0  0  0  0  0  0  0  0  0  0  0  0
   20.0226   20.7666   25.9781 H   0  0  0  0  0  0  0  0  0  0  0  0
   21.2071   20.0084   24.9409 H   0  0  0  0  0  0  0  0  0  0  0  0
   19.8409   18.6277   25.9320 C   0  0  0  0  0  0  0  0  0  0  0  0
   20.2375   18.6536   26.9506 H   0  0  0  0  0  0  0  0  0  0  0  0
   18.7588   18.4846   25.9930 H   0  0  0  0  0  0  0  0  0  0  0  0
   20.4489   17.4179   25.2502 N   0  3  0  0  0  0  0  0  0  0  0  0
   21.4731   17.4611   25.2461 H   0  0  0  0  0  0  0  0  0  0  0  0
   20.1438   17.3434   24.2752 H   0  0  0  0  0  0  0  0  0  0  0  0
   20.1883   16.5446   25.7214 H   0  0  0  0  0  0  0  0  0  0  0  0
  1  2  1  0  0  0  0
  1  3  1  0  0  0  0
  1  4  1  0  0  0  0
  1  5  1  0  0  0  0
  5  6  1  0  0  0  0
  5  7  1  0  0  0  0
  5  8  1  0  0  0  0
  8  9  1  0  0  0  0
  8 10  1  0  0  0  0
  8 11  1  0  0  0  0
 11 12  1  0  0  0  0
 11 13  1  0  0  0  0
 11 14  1  0  0  0  0
 14 15  1  0  0  0  0
 14 16  1  0  0  0  0
 14 17  1  0  0  0  0
 17 18  1  0  0  0  0
 17 19  1  0  0  0  0
 17 20  1  0  0  0  0
 20 21  1  0  0  0  0
 20 22  1  0  0  0  0
 20 23  1  0  0  0  0
 23 24  1  0  0  0  0
 23 25  1  0  0  0  0
 23 26  1  0  0  0  0
M  END
> <VM2 Rank>
180

> <Conf_Id>
1316

> <Probability>
0.00

> <Sum Probability>
99.99

> <Delta G>
5.220

> <G>
53.482

> <E>
20.252

> <-TS>
33.230

> <U+W>
-1.210

> <U>
52.436

> <W>
-53.646

> <W(PB)>
-55.879

> <W(SA)>
2.233

> <Valence>
4.797

> <Coulomb>
47.142

> <VdW>
0.497

> <VdW6>
-9.252

> <VdW12>
9.749

> <Bond>
0.276

> <Angle>
1.763

> <Pdih>
2.758

> <Idih>
0.000

> <Tether>
0.000

$$$$
VeraChem MOL file


 26 25  0  0  0  0  0  0  0  0999 V2000     
   19.6478   20.5312   21.0374 C   0  0  0  0  0  0  0  0  0  0  0  0
   19.0119   20.7261   21.9089 H   0  0  0  0  0  0  0  0  0  0  0  0
   20.1475   21.4736   20.7785 H   0  0  0  0  0  0  0  0  0  0  0  0
   19.0004   20.2540   20.1954 H   0  0  0  0  0  0  0  0  0  0  0  0
   20.6923   19.4273   21.3216 C   0  0  0  0  0  0  0  0  0  0  0  0
   21.3176   19.7219   22.1713 H   0  0  0  0  0  0  0  0  0  0  0  0
   21.3719   19.3648   20.4603 H   0  0  0  0  0  0  0  0  0  0  0  0
   20.0670   18.0261   21.5488 C   0  0  0  0  0  0  0  0  0  0  0  0
   19.4658   17.7799   20.6626 H   0  0  0  0  0  0  0  0  0  0  0  0
   20.8641   17.2709   21.5800 H   0  0  0  0  0  0  0  0  0  0  0  0
   19.1668   17.8778   22.8066 C   0  0  0  0  0  0  0  0  0  0  0  0
   18.4141   17.1093   22.5827 H   0  0  0  0  0  0  0  0  0  0  0  0
   18.5910   18.7918   22.9924 H   0  0  0  0  0  0  0  0  0  0  0  0
   19.9054   17.4238   24.0950 C   0  0  0  0  0  0  0  0  0  0  0  0
   19.1557   17.2152   24.8700 H   0  0  0  0  0  0  0  0  0  0  0  0
   20.4024   16.4630   23.9032 H   0  0  0  0  0  0  0  0  0  0  0  0
   20.9477   18.4190   24.6643 C   0  0  0  0  0  0  0  0  0  0  0  0
   21.8034   18.4862   23.9818 H   0  0  0  0  0  0  0  0  0  0  0  0
   21.3508   18.0174   25.6034 H   0  0  0  0  0  0  0  0  0  0  0  0
   20.3874   19.8319   24.9237 C   0  0  0  0  0  0  0  0  0  0  0  0
   21.1886   20.4798   25.2893 H   0  0  0  0  0  0  0  0  0  0  0  0
   20.0068   20.2545   23.9904 H   0  0  0  0  0  0  0  0  0  0  0  0
   19.2667   19.8618   25.9437 N   0  3  0  0  0  0  0  0  0  0  0  0
   19.5726   19.5044   26.8545 H   0  0  0  0  0  0  0  0  0  0  0  0
   18.4706   19.2898   25.6456 H   0  0  0  0  0  0  0  0  0  0  0  0
   18.9154   20.8132   26.0973 H   0  0  0  0  0  0  0  0  0  0  0  0
  1  2  1  0  0  0  0
  1  3  1  0  0  0  0
  1  4  1  0  0  0  0
  1  5  1  0  0  0  0
  5  6  1  0  0  0  0
  5  7  1  0  0  0  0
  5  8  1  0  0  0  0
  8  9  1  0  0  0  0
  8 10  1  0  0  0  0
  8 11  1  0  0  0  0
 11 12  1  0  0  0  0
 11 13  1  0  0  0  0
 11 14  1  0  0  0  0
 14 15  1  0  0  0  0
 14 16  1  0  0  0  0
 14 17  1  0  0  0  0
 17 18  1  0  0  0  0
 17 19  1  0  0  0  0
 17 20  1  0  0  0  0
 20 21  1  0  0  0  0
 20 22  1  0  0  0  0
 20 23  1  0  0  0  0
 23 24  1  0  0  0  0
 23 25  1  0  0  0  0
 23 26  1  0  0  0  0
M  END
> <VM2 Rank>
181

> <Conf_Id>
1263

> <Probability>
0.00

> <Sum Probability>
99.99

> <Delta G>
5.252

> <G>
53.513

> <E>
19.930

> <-TS>
33.583

> <U+W>
-1.532

> <U>
52.808

> <W>
-54.340

> <W(PB)>
-56.522

> <W(SA)>
2.182

> <Valence>
6.265

> <Coulomb>
46.221

> <VdW>
0.323

> <VdW6>
-10.155

> <VdW12>
10.478

> <Bond>
0.329

> <Angle>
2.314

> <Pdih>
3.622

> <Idih>
0.000

> <Tether>
0.000

$$$$
VeraChem MOL file


 26 25  0  0  0  0  0  0  0  0999 V2000     
   18.8391   19.9354   21.1297 C   0  0  0  0  0  0  0  0  0  0  0  0
   18.7157   20.1732   22.1926 H   0  0  0  0  0  0  0  0  0  0  0  0
   19.3266   20.7901   20.6430 H   0  0  0  0  0  0  0  0  0  0  0  0
   17.8369   19.8287   20.6952 H   0  0  0  0  0  0  0  0  0  0  0  0
   19.6588   18.6411   20.9249 C   0  0  0  0  0  0  0  0  0  0  0  0
   19.6775   18.4058   19.8516 H   0  0  0  0  0  0  0  0  0  0  0  0
   19.1566   17.7916   21.4041 H   0  0  0  0  0  0  0  0  0  0  0  0
   21.1194   18.7523   21.4262 C   0  0  0  0  0  0  0  0  0  0  0  0
   21.6474   17.8198   21.1840 H   0  0  0  0  0  0  0  0  0  0  0  0
   21.6263   19.5379   20.8491 H   0  0  0  0  0  0  0  0  0  0  0  0
   21.3042   19.0566   22.9375 C   0  0  0  0  0  0  0  0  0  0  0  0
   20.8682   20.0305   23.1897 H   0  0  0  0  0  0  0  0  0  0  0  0
   22.3829   19.1753   23.1094 H   0  0  0  0  0  0  0  0  0  0  0  0
   20.7977   17.9436   23.8964 C   0  0  0  0  0  0  0  0  0  0  0  0
   20.9061   16.9640   23.4111 H   0  0  0  0  0  0  0  0  0  0  0  0
   21.4631   17.9069   24.7692 H   0  0  0  0  0  0  0  0  0  0  0  0
   19.3390   18.1101   24.4017 C   0  0  0  0  0  0  0  0  0  0  0  0
   19.0860   17.2561   25.0439 H   0  0  0  0  0  0  0  0  0  0  0  0
   18.6380   18.0670   23.5615 H   0  0  0  0  0  0  0  0  0  0  0  0
   19.0859   19.4125   25.1887 C   0  0  0  0  0  0  0  0  0  0  0  0
   19.2820   20.2774   24.5504 H   0  0  0  0  0  0  0  0  0  0  0  0
   18.0375   19.4508   25.4966 H   0  0  0  0  0  0  0  0  0  0  0  0
   19.9368   19.5474   26.4359 N   0  3  0  0  0  0  0  0  0  0  0  0
   20.9365   19.5527   26.2113 H   0  0  0  0  0  0  0  0  0  0  0  0
   19.7768   18.7752   27.0908 H   0  0  0  0  0  0  0  0  0  0  0  0
   19.7366   20.4167   26.9421 H   0  0  0  0  0  0  0  0  0  0  0  0
  1  2  1  0  0  0  0
  1  3  1  0  0  0  0
  1  4  1  0  0  0  0
  1  5  1  0  0  0  0
  5  6  1  0  0  0  0
  5  7  1  0  0  0  0
  5  8  1  0  0  0  0
  8  9  1  0  0  0  0
  8 10  1  0  0  0  0
  8 11  1  0  0  0  0
 11 12  1  0  0  0  0
 11 13  1  0  0  0  0
 11 14  1  0  0  0  0
 14 15  1  0  0  0  0
 14 16  1  0  0  0  0
 14 17  1  0  0  0  0
 17 18  1  0  0  0  0
 17 19  1  0  0  0  0
 17 20  1  0  0  0  0
 20 21  1  0  0  0  0
 20 22  1  0  0  0  0
 20 23  1  0  0  0  0
 23 24  1  0  0  0  0
 23 25  1  0  0  0  0
 23 26  1  0  0  0  0
M  END
> <VM2 Rank>
182

> <Conf_Id>
566

> <Probability>
0.00

> <Sum Probability>
100.00

> <Delta G>
5.270

> <G>
53.531

> <E>
19.959

> <-TS>
33.572

> <U+W>
-1.503

> <U>
52.748

> <W>
-54.251

> <W(PB)>
-56.426

> <W(SA)>
2.175

> <Valence>
6.294

> <Coulomb>
46.014

> <VdW>
0.441

> <VdW6>
-9.946

> <VdW12>
10.387

> <Bond>
0.331

> <Angle>
2.251

> <Pdih>
3.712

> <Idih>
0.000

> <Tether>
0.000

$$$$
VeraChem MOL file


 26 25  0  0  0  0  0  0  0  0999 V2000     
   20.3749   20.5088   20.4734 C   0  0  0  0  0  0  0  0  0  0  0  0
   21.2987   20.7868   19.9494 H   0  0  0  0  0  0  0  0  0  0  0  0
   19.5890   20.3717   19.7192 H   0  0  0  0  0  0  0  0  0  0  0  0
   20.0868   21.3496   21.1177 H   0  0  0  0  0  0  0  0  0  0  0  0
   20.5828   19.2213   21.2986 C   0  0  0  0  0  0  0  0  0  0  0  0
   21.4053   19.3834   22.0056 H   0  0  0  0  0  0  0  0  0  0  0  0
   20.8977   18.4081   20.6298 H   0  0  0  0  0  0  0  0  0  0  0  0
   19.2909   18.8097   22.0446 C   0  0  0  0  0  0  0  0  0  0  0  0
   18.9654   19.6212   22.7034 H   0  0  0  0  0  0  0  0  0  0  0  0
   18.4867   18.6924   21.3051 H   0  0  0  0  0  0  0  0  0  0  0  0
   19.4175   17.4759   22.8278 C   0  0  0  0  0  0  0  0  0  0  0  0
   19.7121   16.6940   22.1143 H   0  0  0  0  0  0  0  0  0  0  0  0
   18.4269   17.1766   23.1967 H   0  0  0  0  0  0  0  0  0  0  0  0
   20.4271   17.4627   24.0092 C   0  0  0  0  0  0  0  0  0  0  0  0
   20.7180   16.4170   24.1800 H   0  0  0  0  0  0  0  0  0  0  0  0
   21.3591   17.9737   23.7415 H   0  0  0  0  0  0  0  0  0  0  0  0
   19.8763   18.0036   25.3562 C   0  0  0  0  0  0  0  0  0  0  0  0
   20.6295   17.8351   26.1372 H   0  0  0  0  0  0  0  0  0  0  0  0
   18.9993   17.4128   25.6520 H   0  0  0  0  0  0  0  0  0  0  0  0
   19.4902   19.4952   25.3657 C   0  0  0  0  0  0  0  0  0  0  0  0
   18.6505   19.6648   24.6886 H   0  0  0  0  0  0  0  0  0  0  0  0
   19.1697   19.7777   26.3722 H   0  0  0  0  0  0  0  0  0  0  0  0
   20.6212   20.4216   24.9656 N   0  3  0  0  0  0  0  0  0  0  0  0
   20.9398   20.2289   24.0111 H   0  0  0  0  0  0  0  0  0  0  0  0
   21.4310   20.3209   25.5863 H   0  0  0  0  0  0  0  0  0  0  0  0
   20.3368   21.4066   25.0000 H   0  0  0  0  0  0  0  0  0  0  0  0
  1  2  1  0  0  0  0
  1  3  1  0  0  0  0
  1  4  1  0  0  0  0
  1  5  1  0  0  0  0
  5  6  1  0  0  0  0
  5  7  1  0  0  0  0
  5  8  1  0  0  0  0
  8  9  1  0  0  0  0
  8 10  1  0  0  0  0
  8 11  1  0  0  0  0
 11 12  1  0  0  0  0
 11 13  1  0  0  0  0
 11 14  1  0  0  0  0
 14 15  1  0  0  0  0
 14 16  1  0  0  0  0
 14 17  1  0  0  0  0
 17 18  1  0  0  0  0
 17 19  1  0  0  0  0
 17 20  1  0  0  0  0
 20 21  1  0  0  0  0
 20 22  1  0  0  0  0
 20 23  1  0  0  0  0
 23 24  1  0  0  0  0
 23 25  1  0  0  0  0
 23 26  1  0  0  0  0
M  END
> <VM2 Rank>
183

> <Conf_Id>
551

> <Probability>
0.00

> <Sum Probability>
100.00

> <Delta G>
5.669

> <G>
53.930

> <E>
20.676

> <-TS>
33.254

> <U+W>
-0.786

> <U>
52.899

> <W>
-53.685

> <W(PB)>
-55.876

> <W(SA)>
2.192

> <Valence>
5.554

> <Coulomb>
47.030

> <VdW>
0.315

> <VdW6>
-9.413

> <VdW12>
9.728

> <Bond>
0.306

> <Angle>
2.197

> <Pdih>
3.051

> <Idih>
0.000

> <Tether>
0.000

$$$$
VeraChem MOL file


 26 25  0  0  0  0  0  0  0  0999 V2000     
   18.5429   19.2995   20.4120 C   0  0  0  0  0  0  0  0  0  0  0  0
   17.8533   19.8751   21.0430 H   0  0  0  0  0  0  0  0  0  0  0  0
   19.0120   19.9909   19.6999 H   0  0  0  0  0  0  0  0  0  0  0  0
   17.9500   18.5762   19.8373 H   0  0  0  0  0  0  0  0  0  0  0  0
   19.6061   18.5766   21.2658 C   0  0  0  0  0  0  0  0  0  0  0  0
   20.2611   17.9879   20.6083 H   0  0  0  0  0  0  0  0  0  0  0  0
   19.1020   17.8628   21.9284 H   0  0  0  0  0  0  0  0  0  0  0  0
   20.4558   19.5788   22.0835 C   0  0  0  0  0  0  0  0  0  0  0  0
   20.9132   20.2943   21.3862 H   0  0  0  0  0  0  0  0  0  0  0  0
   19.8071   20.1768   22.7316 H   0  0  0  0  0  0  0  0  0  0  0  0
   21.5953   18.9135   22.9006 C   0  0  0  0  0  0  0  0  0  0  0  0
   22.2414   19.6946   23.3242 H   0  0  0  0  0  0  0  0  0  0  0  0
   22.2315   18.3571   22.1985 H   0  0  0  0  0  0  0  0  0  0  0  0
   21.1568   17.9444   24.0335 C   0  0  0  0  0  0  0  0  0  0  0  0
   20.3344   17.2975   23.7072 H   0  0  0  0  0  0  0  0  0  0  0  0
   21.9956   17.2605   24.2227 H   0  0  0  0  0  0  0  0  0  0  0  0
   20.8131   18.6221   25.3875 C   0  0  0  0  0  0  0  0  0  0  0  0
   21.6859   19.1864   25.7417 H   0  0  0  0  0  0  0  0  0  0  0  0
   20.6366   17.8397   26.1375 H   0  0  0  0  0  0  0  0  0  0  0  0
   19.5934   19.5633   25.3693 C   0  0  0  0  0  0  0  0  0  0  0  0
   19.4126   19.9381   26.3804 H   0  0  0  0  0  0  0  0  0  0  0  0
   19.7981   20.4224   24.7270 H   0  0  0  0  0  0  0  0  0  0  0  0
   18.3176   18.9008   24.8888 N   0  3  0  0  0  0  0  0  0  0  0  0
   18.4141   18.5616   23.9269 H   0  0  0  0  0  0  0  0  0  0  0  0
   17.5223   19.5486   24.9063 H   0  0  0  0  0  0  0  0  0  0  0  0
   18.0640   18.0980   25.4740 H   0  0  0  0  0  0  0  0  0  0  0  0
  1  2  1  0  0  0  0
  1  3  1  0  0  0  0
  1  4  1  0  0  0  0
  1  5  1  0  0  0  0
  5  6  1  0  0  0  0
  5  7  1  0  0  0  0
  5  8  1  0  0  0  0
  8  9  1  0  0  0  0
  8 10  1  0  0  0  0
  8 11  1  0  0  0  0
 11 12  1  0  0  0  0
 11 13  1  0  0  0  0
 11 14  1  0  0  0  0
 14 15  1  0  0  0  0
 14 16  1  0  0  0  0
 14 17  1  0  0  0  0
 17 18  1  0  0  0  0
 17 19  1  0  0  0  0
 17 20  1  0  0  0  0
 20 21  1  0  0  0  0
 20 22  1  0  0  0  0
 20 23  1  0  0  0  0
 23 24  1  0  0  0  0
 23 25  1  0  0  0  0
 23 26  1  0  0  0  0
M  END
> <VM2 Rank>
184

> <Conf_Id>
219

> <Probability>
0.00

> <Sum Probability>
100.00

> <Delta G>
5.675

> <G>
53.936

> <E>
20.682

> <-TS>
33.254

> <U+W>
-0.779

> <U>
52.899

> <W>
-53.678

> <W(PB)>
-55.862

> <W(SA)>
2.184

> <Valence>
5.554

> <Coulomb>
47.030

> <VdW>
0.315

> <VdW6>
-9.412

> <VdW12>
9.727

> <Bond>
0.306

> <Angle>
2.197

> <Pdih>
3.052

> <Idih>
0.000

> <Tether>
0.000

$$$$
VeraChem MOL file


 26 25  0  0  0  0  0  0  0  0999 V2000     
   18.3616   18.3860   20.8125 C   0  0  0  0  0  0  0  0  0  0  0  0
   17.6400   18.9276   21.4379 H   0  0  0  0  0  0  0  0  0  0  0  0
   18.4540   18.9191   19.8572 H   0  0  0  0  0  0  0  0  0  0  0  0
   17.9471   17.3911   20.6045 H   0  0  0  0  0  0  0  0  0  0  0  0
   19.7294   18.2700   21.5174 C   0  0  0  0  0  0  0  0  0  0  0  0
   20.4162   17.6919   20.8835 H   0  0  0  0  0  0  0  0  0  0  0  0
   19.6108   17.6967   22.4444 H   0  0  0  0  0  0  0  0  0  0  0  0
   20.3432   19.6614   21.8057 C   0  0  0  0  0  0  0  0  0  0  0  0
   20.5364   20.1520   20.8416 H   0  0  0  0  0  0  0  0  0  0  0  0
   19.6249   20.3064   22.3289 H   0  0  0  0  0  0  0  0  0  0  0  0
   21.6743   19.5907   22.5968 C   0  0  0  0  0  0  0  0  0  0  0  0
   22.3380   20.3766   22.2103 H   0  0  0  0  0  0  0  0  0  0  0  0
   22.1908   18.6439   22.3872 H   0  0  0  0  0  0  0  0  0  0  0  0
   21.5541   19.8024   24.1306 C   0  0  0  0  0  0  0  0  0  0  0  0
   22.5734   19.8136   24.5408 H   0  0  0  0  0  0  0  0  0  0  0  0
   21.1412   20.7988   24.3408 H   0  0  0  0  0  0  0  0  0  0  0  0
   20.7458   18.7252   24.8957 C   0  0  0  0  0  0  0  0  0  0  0  0
   21.0971   18.6997   25.9359 H   0  0  0  0  0  0  0  0  0  0  0  0
   20.9507   17.7313   24.4771 H   0  0  0  0  0  0  0  0  0  0  0  0
   19.2305   19.0057   24.9121 C   0  0  0  0  0  0  0  0  0  0  0  0
   19.0426   19.9742   25.3832 H   0  0  0  0  0  0  0  0  0  0  0  0
   18.8428   19.0421   23.8922 H   0  0  0  0  0  0  0  0  0  0  0  0
   18.4421   17.9575   25.6703 N   0  3  0  0  0  0  0  0  0  0  0  0
   17.4373   18.1643   25.6724 H   0  0  0  0  0  0  0  0  0  0  0  0
   18.7354   17.8950   26.6507 H   0  0  0  0  0  0  0  0  0  0  0  0
   18.5545   17.0241   25.2617 H   0  0  0  0  0  0  0  0  0  0  0  0
  1  2  1  0  0  0  0
  1  3  1  0  0  0  0
  1  4  1  0  0  0  0
  1  5  1  0  0  0  0
  5  6  1  0  0  0  0
  5  7  1  0  0  0  0
  5  8  1  0  0  0  0
  8  9  1  0  0  0  0
  8 10  1  0  0  0  0
  8 11  1  0  0  0  0
 11 12  1  0  0  0  0
 11 13  1  0  0  0  0
 11 14  1  0  0  0  0
 14 15  1  0  0  0  0
 14 16  1  0  0  0  0
 14 17  1  0  0  0  0
 17 18  1  0  0  0  0
 17 19  1  0  0  0  0
 17 20  1  0  0  0  0
 20 21  1  0  0  0  0
 20 22  1  0  0  0  0
 20 23  1  0  0  0  0
 23 24  1  0  0  0  0
 23 25  1  0  0  0  0
 23 26  1  0  0  0  0
M  END
> <VM2 Rank>
185

> <Conf_Id>
1307

> <Probability>
0.00

> <Sum Probability>
100.00

> <Delta G>
5.823

> <G>
54.085

> <E>
20.802

> <-TS>
33.283

> <U+W>
-0.660

> <U>
53.727

> <W>
-54.387

> <W(PB)>
-56.587

> <W(SA)>
2.200

> <Valence>
7.057

> <Coulomb>
46.464

> <VdW>
0.207

> <VdW6>
-9.122

> <VdW12>
9.328

> <Bond>
0.248

> <Angle>
1.758

> <Pdih>
5.050

> <Idih>
0.000

> <Tether>
0.000

$$$$
VeraChem MOL file


 26 25  0  0  0  0  0  0  0  0999 V2000     
   21.2676   20.3028   20.9095 C   0  0  0  0  0  0  0  0  0  0  0  0
   22.3540   20.2978   20.7517 H   0  0  0  0  0  0  0  0  0  0  0  0
   20.7862   20.4573   19.9350 H   0  0  0  0  0  0  0  0  0  0  0  0
   21.0244   21.1600   21.5508 H   0  0  0  0  0  0  0  0  0  0  0  0
   20.8044   18.9792   21.5533 C   0  0  0  0  0  0  0  0  0  0  0  0
   21.3345   18.8337   22.5020 H   0  0  0  0  0  0  0  0  0  0  0  0
   21.0953   18.1398   20.9063 H   0  0  0  0  0  0  0  0  0  0  0  0
   19.2720   18.9549   21.7699 C   0  0  0  0  0  0  0  0  0  0  0  0
   18.9372   19.8529   22.3060 H   0  0  0  0  0  0  0  0  0  0  0  0
   18.7904   19.0005   20.7833 H   0  0  0  0  0  0  0  0  0  0  0  0
   18.7775   17.6801   22.5000 C   0  0  0  0  0  0  0  0  0  0  0  0
   19.4542   16.8389   22.2957 H   0  0  0  0  0  0  0  0  0  0  0  0
   17.8131   17.3921   22.0592 H   0  0  0  0  0  0  0  0  0  0  0  0
   18.5590   17.8268   24.0305 C   0  0  0  0  0  0  0  0  0  0  0  0
   17.7961   18.5922   24.2291 H   0  0  0  0  0  0  0  0  0  0  0  0
   18.1295   16.8823   24.3923 H   0  0  0  0  0  0  0  0  0  0  0  0
   19.8302   18.1212   24.8651 C   0  0  0  0  0  0  0  0  0  0  0  0
   20.6821   17.5541   24.4681 H   0  0  0  0  0  0  0  0  0  0  0  0
   19.6673   17.7565   25.8881 H   0  0  0  0  0  0  0  0  0  0  0  0
   20.1666   19.6231   24.9434 C   0  0  0  0  0  0  0  0  0  0  0  0
   20.3328   20.0249   23.9420 H   0  0  0  0  0  0  0  0  0  0  0  0
   19.3288   20.1629   25.3928 H   0  0  0  0  0  0  0  0  0  0  0  0
   21.4036   19.9110   25.7692 N   0  3  0  0  0  0  0  0  0  0  0  0
   22.2359   19.4524   25.3848 H   0  0  0  0  0  0  0  0  0  0  0  0
   21.3002   19.5869   26.7364 H   0  0  0  0  0  0  0  0  0  0  0  0
   21.6079   20.9153   25.8118 H   0  0  0  0  0  0  0  0  0  0  0  0
  1  2  1  0  0  0  0
  1  3  1  0  0  0  0
  1  4  1  0  0  0  0
  1  5  1  0  0  0  0
  5  6  1  0  0  0  0
  5  7  1  0  0  0  0
  5  8  1  0  0  0  0
  8  9  1  0  0  0  0
  8 10  1  0  0  0  0
  8 11  1  0  0  0  0
 11 12  1  0  0  0  0
 11 13  1  0  0  0  0
 11 14  1  0  0  0  0
 14 15  1  0  0  0  0
 14 16  1  0  0  0  0
 14 17  1  0  0  0  0
 17 18  1  0  0  0  0
 17 19  1  0  0  0  0
 17 20  1  0  0  0  0
 20 21  1  0  0  0  0
 20 22  1  0  0  0  0
 20 23  1  0  0  0  0
 23 24  1  0  0  0  0
 23 25  1  0  0  0  0
 23 26  1  0  0  0  0
M  END
> <VM2 Rank>
186

> <Conf_Id>
1330

> <Probability>
0.00

> <Sum Probability>
100.00

> <Delta G>
5.894

> <G>
54.155

> <E>
20.872

> <-TS>
33.283

> <U+W>
-0.590

> <U>
53.727

> <W>
-54.316

> <W(PB)>
-56.544

> <W(SA)>
2.228

> <Valence>
7.056

> <Coulomb>
46.464

> <VdW>
0.207

> <VdW6>
-9.122

> <VdW12>
9.329

> <Bond>
0.248

> <Angle>
1.758

> <Pdih>
5.050

> <Idih>
0.000

> <Tether>
0.000

$$$$
VeraChem MOL file


 26 25  0  0  0  0  0  0  0  0999 V2000     
   18.5126   18.5813   20.7932 C   0  0  0  0  0  0  0  0  0  0  0  0
   18.1469   17.7382   21.3931 H   0  0  0  0  0  0  0  0  0  0  0  0
   18.1400   19.5124   21.2375 H   0  0  0  0  0  0  0  0  0  0  0  0
   18.0682   18.4953   19.7931 H   0  0  0  0  0  0  0  0  0  0  0  0
   20.0555   18.5710   20.6981 C   0  0  0  0  0  0  0  0  0  0  0  0
   20.3961   19.4304   20.1038 H   0  0  0  0  0  0  0  0  0  0  0  0
   20.3691   17.6733   20.1470 H   0  0  0  0  0  0  0  0  0  0  0  0
   20.7561   18.5765   22.0775 C   0  0  0  0  0  0  0  0  0  0  0  0
   20.4111   17.7121   22.6579 H   0  0  0  0  0  0  0  0  0  0  0  0
   21.8340   18.4294   21.9230 H   0  0  0  0  0  0  0  0  0  0  0  0
   20.5409   19.8918   22.8687 C   0  0  0  0  0  0  0  0  0  0  0  0
   19.4751   20.0752   23.0449 H   0  0  0  0  0  0  0  0  0  0  0  0
   20.8855   20.7326   22.2510 H   0  0  0  0  0  0  0  0  0  0  0  0
   21.3062   19.9344   24.2156 C   0  0  0  0  0  0  0  0  0  0  0  0
   22.3842   19.8765   24.0113 H   0  0  0  0  0  0  0  0  0  0  0  0
   21.1434   20.9173   24.6789 H   0  0  0  0  0  0  0  0  0  0  0  0
   20.9373   18.8324   25.2450 C   0  0  0  0  0  0  0  0  0  0  0  0
   21.5615   18.9857   26.1353 H   0  0  0  0  0  0  0  0  0  0  0  0
   21.2036   17.8374   24.8664 H   0  0  0  0  0  0  0  0  0  0  0  0
   19.4625   18.8529   25.6983 C   0  0  0  0  0  0  0  0  0  0  0  0
   19.3764   18.3451   26.6628 H   0  0  0  0  0  0  0  0  0  0  0  0
   19.1313   19.8866   25.8286 H   0  0  0  0  0  0  0  0  0  0  0  0
   18.5099   18.1587   24.7446 N   0  3  0  0  0  0  0  0  0  0  0  0
   18.7187   17.1581   24.6652 H   0  0  0  0  0  0  0  0  0  0  0  0
   18.5663   18.5577   23.8024 H   0  0  0  0  0  0  0  0  0  0  0  0
   17.5356   18.2372   25.0563 H   0  0  0  0  0  0  0  0  0  0  0  0
  1  2  1  0  0  0  0
  1  3  1  0  0  0  0
  1  4  1  0  0  0  0
  1  5  1  0  0  0  0
  5  6  1  0  0  0  0
  5  7  1  0  0  0  0
  5  8  1  0  0  0  0
  8  9  1  0  0  0  0
  8 10  1  0  0  0  0
  8 11  1  0  0  0  0
 11 12  1  0  0  0  0
 11 13  1  0  0  0  0
 11 14  1  0  0  0  0
 14 15  1  0  0  0  0
 14 16  1  0  0  0  0
 14 17  1  0  0  0  0
 17 18  1  0  0  0  0
 17 19  1  0  0  0  0
 17 20  1  0  0  0  0
 20 21  1  0  0  0  0
 20 22  1  0  0  0  0
 20 23  1  0  0  0  0
 23 24  1  0  0  0  0
 23 25  1  0  0  0  0
 23 26  1  0  0  0  0
M  END
> <VM2 Rank>
187

> <Conf_Id>
188

> <Probability>
0.00

> <Sum Probability>
100.00

> <Delta G>
6.010

> <G>
54.272

> <E>
20.895

> <-TS>
33.377

> <U+W>
-0.567

> <U>
52.431

> <W>
-52.998

> <W(PB)>
-55.182

> <W(SA)>
2.184

> <Valence>
4.698

> <Coulomb>
47.456

> <VdW>
0.276

> <VdW6>
-9.682

> <VdW12>
9.958

> <Bond>
0.267

> <Angle>
1.656

> <Pdih>
2.775

> <Idih>
0.000

> <Tether>
0.000

$$$$
VeraChem MOL file


 26 25  0  0  0  0  0  0  0  0999 V2000     
   20.0716   18.2250   20.2190 C   0  0  0  0  0  0  0  0  0  0  0  0
   20.1753   19.0789   19.5371 H   0  0  0  0  0  0  0  0  0  0  0  0
   20.3712   17.3209   19.6733 H   0  0  0  0  0  0  0  0  0  0  0  0
   19.0110   18.1174   20.4783 H   0  0  0  0  0  0  0  0  0  0  0  0
   20.9457   18.4110   21.4796 C   0  0  0  0  0  0  0  0  0  0  0  0
   22.0031   18.3857   21.1808 H   0  0  0  0  0  0  0  0  0  0  0  0
   20.8049   17.5555   22.1513 H   0  0  0  0  0  0  0  0  0  0  0  0
   20.6787   19.7442   22.2257 C   0  0  0  0  0  0  0  0  0  0  0  0
   21.3697   19.8250   23.0717 H   0  0  0  0  0  0  0  0  0  0  0  0
   20.9479   20.5725   21.5559 H   0  0  0  0  0  0  0  0  0  0  0  0
   19.2161   19.9664   22.7020 C   0  0  0  0  0  0  0  0  0  0  0  0
   18.5665   19.9990   21.8175 H   0  0  0  0  0  0  0  0  0  0  0  0
   19.1322   20.9647   23.1529 H   0  0  0  0  0  0  0  0  0  0  0  0
   18.6471   18.9108   23.6897 C   0  0  0  0  0  0  0  0  0  0  0  0
   17.5536   18.9149   23.5822 H   0  0  0  0  0  0  0  0  0  0  0  0
   18.9546   17.8972   23.4074 H   0  0  0  0  0  0  0  0  0  0  0  0
   18.9552   19.1802   25.1871 C   0  0  0  0  0  0  0  0  0  0  0  0
   18.4170   18.4431   25.7975 H   0  0  0  0  0  0  0  0  0  0  0  0
   18.5466   20.1597   25.4688 H   0  0  0  0  0  0  0  0  0  0  0  0
   20.4461   19.1415   25.5729 C   0  0  0  0  0  0  0  0  0  0  0  0
   20.9851   19.9340   25.0496 H   0  0  0  0  0  0  0  0  0  0  0  0
   20.5453   19.3220   26.6467 H   0  0  0  0  0  0  0  0  0  0  0  0
   21.1205   17.8199   25.2650 N   0  3  0  0  0  0  0  0  0  0  0  0
   22.1082   17.8226   25.5420 H   0  0  0  0  0  0  0  0  0  0  0  0
   21.0842   17.6084   24.2637 H   0  0  0  0  0  0  0  0  0  0  0  0
   20.6720   17.0416   25.7593 H   0  0  0  0  0  0  0  0  0  0  0  0
  1  2  1  0  0  0  0
  1  3  1  0  0  0  0
  1  4  1  0  0  0  0
  1  5  1  0  0  0  0
  5  6  1  0  0  0  0
  5  7  1  0  0  0  0
  5  8  1  0  0  0  0
  8  9  1  0  0  0  0
  8 10  1  0  0  0  0
  8 11  1  0  0  0  0
 11 12  1  0  0  0  0
 11 13  1  0  0  0  0
 11 14  1  0  0  0  0
 14 15  1  0  0  0  0
 14 16  1  0  0  0  0
 14 17  1  0  0  0  0
 17 18  1  0  0  0  0
 17 19  1  0  0  0  0
 17 20  1  0  0  0  0
 20 21  1  0  0  0  0
 20 22  1  0  0  0  0
 20 23  1  0  0  0  0
 23 24  1  0  0  0  0
 23 25  1  0  0  0  0
 23 26  1  0  0  0  0
M  END
> <VM2 Rank>
188

> <Conf_Id>
804

> <Probability>
0.00

> <Sum Probability>
100.00

> <Delta G>
6.092

> <G>
54.354

> <E>
20.888

> <-TS>
33.466

> <U+W>
-0.574

> <U>
53.513

> <W>
-54.087

> <W(PB)>
-56.257

> <W(SA)>
2.170

> <Valence>
6.042

> <Coulomb>
47.146

> <VdW>
0.325

> <VdW6>
-10.117

> <VdW12>
10.442

> <Bond>
0.350

> <Angle>
2.481

> <Pdih>
3.211

> <Idih>
0.000

> <Tether>
0.000

$$$$
VeraChem MOL file


 26 25  0  0  0  0  0  0  0  0999 V2000     
   18.4164   18.5603   21.3572 C   0  0  0  0  0  0  0  0  0  0  0  0
   18.3119   18.9502   22.3751 H   0  0  0  0  0  0  0  0  0  0  0  0
   18.0303   19.3200   20.6653 H   0  0  0  0  0  0  0  0  0  0  0  0
   17.7731   17.6750   21.2718 H   0  0  0  0  0  0  0  0  0  0  0  0
   19.8814   18.1997   21.0166 C   0  0  0  0  0  0  0  0  0  0  0  0
   19.9001   17.8129   19.9880 H   0  0  0  0  0  0  0  0  0  0  0  0
   20.2372   17.3765   21.6505 H   0  0  0  0  0  0  0  0  0  0  0  0
   20.8497   19.4065   21.1035 C   0  0  0  0  0  0  0  0  0  0  0  0
   21.6143   19.2782   20.3249 H   0  0  0  0  0  0  0  0  0  0  0  0
   20.3224   20.3348   20.8442 H   0  0  0  0  0  0  0  0  0  0  0  0
   21.5960   19.5773   22.4547 C   0  0  0  0  0  0  0  0  0  0  0  0
   22.3226   20.3910   22.3232 H   0  0  0  0  0  0  0  0  0  0  0  0
   22.1962   18.6824   22.6695 H   0  0  0  0  0  0  0  0  0  0  0  0
   20.7050   19.9320   23.6723 C   0  0  0  0  0  0  0  0  0  0  0  0
   21.2659   20.6149   24.3256 H   0  0  0  0  0  0  0  0  0  0  0  0
   19.8202   20.4930   23.3428 H   0  0  0  0  0  0  0  0  0  0  0  0
   20.2936   18.6997   24.5131 C   0  0  0  0  0  0  0  0  0  0  0  0
   21.1934   18.2084   24.9065 H   0  0  0  0  0  0  0  0  0  0  0  0
   19.7785   17.9608   23.8895 H   0  0  0  0  0  0  0  0  0  0  0  0
   19.3798   19.1006   25.6842 C   0  0  0  0  0  0  0  0  0  0  0  0
   19.8985   19.8166   26.3275 H   0  0  0  0  0  0  0  0  0  0  0  0
   18.4749   19.5775   25.2982 H   0  0  0  0  0  0  0  0  0  0  0  0
   18.9591   17.9228   26.5393 N   0  3  0  0  0  0  0  0  0  0  0  0
   19.7656   17.4457   26.9556 H   0  0  0  0  0  0  0  0  0  0  0  0
   18.4404   17.2234   25.9983 H   0  0  0  0  0  0  0  0  0  0  0  0
   18.3516   18.2123   27.3136 H   0  0  0  0  0  0  0  0  0  0  0  0
  1  2  1  0  0  0  0
  1  3  1  0  0  0  0
  1  4  1  0  0  0  0
  1  5  1  0  0  0  0
  5  6  1  0  0  0  0
  5  7  1  0  0  0  0
  5  8  1  0  0  0  0
  8  9  1  0  0  0  0
  8 10  1  0  0  0  0
  8 11  1  0  0  0  0
 11 12  1  0  0  0  0
 11 13  1  0  0  0  0
 11 14  1  0  0  0  0
 14 15  1  0  0  0  0
 14 16  1  0  0  0  0
 14 17  1  0  0  0  0
 17 18  1  0  0  0  0
 17 19  1  0  0  0  0
 17 20  1  0  0  0  0
 20 21  1  0  0  0  0
 20 22  1  0  0  0  0
 20 23  1  0  0  0  0
 23 24  1  0  0  0  0
 23 25  1  0  0  0  0
 23 26  1  0  0  0  0
M  END
> <VM2 Rank>
189

> <Conf_Id>
24

> <Probability>
0.00

> <Sum Probability>
100.00

> <Delta G>
6.216

> <G>
54.478

> <E>
21.258

> <-TS>
33.220

> <U+W>
-0.204

> <U>
53.883

> <W>
-54.087

> <W(PB)>
-56.324

> <W(SA)>
2.237

> <Valence>
7.743

> <Coulomb>
45.678

> <VdW>
0.462

> <VdW6>
-8.645

> <VdW12>
9.106

> <Bond>
0.266

> <Angle>
1.932

> <Pdih>
5.545

> <Idih>
0.000

> <Tether>
0.000

$$$$
VeraChem MOL file


 26 25  0  0  0  0  0  0  0  0999 V2000     
   20.0233   20.6485   20.7085 C   0  0  0  0  0  0  0  0  0  0  0  0
   19.3227   20.4450   19.8882 H   0  0  0  0  0  0  0  0  0  0  0  0
   19.5161   21.2914   21.4397 H   0  0  0  0  0  0  0  0  0  0  0  0
   20.8709   21.2110   20.2960 H   0  0  0  0  0  0  0  0  0  0  0  0
   20.5063   19.3374   21.3633 C   0  0  0  0  0  0  0  0  0  0  0  0
   21.2359   19.5712   22.1480 H   0  0  0  0  0  0  0  0  0  0  0  0
   21.0408   18.7342   20.6161 H   0  0  0  0  0  0  0  0  0  0  0  0
   19.3261   18.5172   21.9376 C   0  0  0  0  0  0  0  0  0  0  0  0
   18.6957   19.1386   22.5872 H   0  0  0  0  0  0  0  0  0  0  0  0
   18.6831   18.2163   21.0988 H   0  0  0  0  0  0  0  0  0  0  0  0
   19.7805   17.2420   22.6921 C   0  0  0  0  0  0  0  0  0  0  0  0
   20.7452   16.8917   22.2999 H   0  0  0  0  0  0  0  0  0  0  0  0
   19.0644   16.4409   22.4622 H   0  0  0  0  0  0  0  0  0  0  0  0
   19.8503   17.3684   24.2381 C   0  0  0  0  0  0  0  0  0  0  0  0
   18.8545   17.5974   24.6389 H   0  0  0  0  0  0  0  0  0  0  0  0
   20.1008   16.3747   24.6346 H   0  0  0  0  0  0  0  0  0  0  0  0
   20.9006   18.3715   24.7846 C   0  0  0  0  0  0  0  0  0  0  0  0
   21.8211   18.3018   24.1906 H   0  0  0  0  0  0  0  0  0  0  0  0
   21.1794   18.0727   25.8038 H   0  0  0  0  0  0  0  0  0  0  0  0
   20.4237   19.8385   24.8309 C   0  0  0  0  0  0  0  0  0  0  0  0
   21.2521   20.4761   25.1515 H   0  0  0  0  0  0  0  0  0  0  0  0
   20.1106   20.1656   23.8376 H   0  0  0  0  0  0  0  0  0  0  0  0
   19.2702   20.0756   25.7858 N   0  3  0  0  0  0  0  0  0  0  0  0
   18.4428   19.5311   25.5246 H   0  0  0  0  0  0  0  0  0  0  0  0
   18.9883   21.0616   25.8054 H   0  0  0  0  0  0  0  0  0  0  0  0
   19.5132   19.8150   26.7471 H   0  0  0  0  0  0  0  0  0  0  0  0
  1  2  1  0  0  0  0
  1  3  1  0  0  0  0
  1  4  1  0  0  0  0
  1  5  1  0  0  0  0
  5  6  1  0  0  0  0
  5  7  1  0  0  0  0
  5  8  1  0  0  0  0
  8  9  1  0  0  0  0
  8 10  1  0  0  0  0
  8 11  1  0  0  0  0
 11 12  1  0  0  0  0
 11 13  1  0  0  0  0
 11 14  1  0  0  0  0
 14 15  1  0  0  0  0
 14 16  1  0  0  0  0
 14 17  1  0  0  0  0
 17 18  1  0  0  0  0
 17 19  1  0  0  0  0
 17 20  1  0  0  0  0
 20 21  1  0  0  0  0
 20 22  1  0  0  0  0
 20 23  1  0  0  0  0
 23 24  1  0  0  0  0
 23 25  1  0  0  0  0
 23 26  1  0  0  0  0
M  END
> <VM2 Rank>
190

> <Conf_Id>
522

> <Probability>
0.00

> <Sum Probability>
100.00

> <Delta G>
6.241

> <G>
54.502

> <E>
21.135

> <-TS>
33.367

> <U+W>
-0.327

> <U>
54.016

> <W>
-54.343

> <W(PB)>
-56.552

> <W(SA)>
2.209

> <Valence>
7.241

> <Coulomb>
46.463

> <VdW>
0.312

> <VdW6>
-9.614

> <VdW12>
9.926

> <Bond>
0.277

> <Angle>
1.893

> <Pdih>
5.071

> <Idih>
0.000

> <Tether>
0.000

$$$$
VeraChem MOL file


 26 25  0  0  0  0  0  0  0  0999 V2000     
   18.5413   19.6699   20.6589 C   0  0  0  0  0  0  0  0  0  0  0  0
   19.0409   20.2589   19.8787 H   0  0  0  0  0  0  0  0  0  0  0  0
   17.7116   19.1249   20.1904 H   0  0  0  0  0  0  0  0  0  0  0  0
   18.1152   20.3664   21.3928 H   0  0  0  0  0  0  0  0  0  0  0  0
   19.5265   18.6904   21.3306 C   0  0  0  0  0  0  0  0  0  0  0  0
   19.9062   17.9850   20.5782 H   0  0  0  0  0  0  0  0  0  0  0  0
   18.9894   18.0878   22.0729 H   0  0  0  0  0  0  0  0  0  0  0  0
   20.7157   19.4348   21.9840 C   0  0  0  0  0  0  0  0  0  0  0  0
   21.2830   19.9331   21.1857 H   0  0  0  0  0  0  0  0  0  0  0  0
   20.3613   20.2384   22.6429 H   0  0  0  0  0  0  0  0  0  0  0  0
   21.6745   18.4926   22.7555 C   0  0  0  0  0  0  0  0  0  0  0  0
   22.7018   18.8427   22.5838 H   0  0  0  0  0  0  0  0  0  0  0  0
   21.6368   17.4804   22.3297 H   0  0  0  0  0  0  0  0  0  0  0  0
   21.4590   18.4307   24.2919 C   0  0  0  0  0  0  0  0  0  0  0  0
   22.2557   17.7976   24.7066 H   0  0  0  0  0  0  0  0  0  0  0  0
   21.6199   19.4236   24.7313 H   0  0  0  0  0  0  0  0  0  0  0  0
   20.1005   17.8432   24.7578 C   0  0  0  0  0  0  0  0  0  0  0  0
   20.2185   17.4381   25.7717 H   0  0  0  0  0  0  0  0  0  0  0  0
   19.8316   16.9882   24.1240 H   0  0  0  0  0  0  0  0  0  0  0  0
   18.9370   18.8568   24.7812 C   0  0  0  0  0  0  0  0  0  0  0  0
   18.8053   19.3037   23.7940 H   0  0  0  0  0  0  0  0  0  0  0  0
   18.0117   18.3364   25.0431 H   0  0  0  0  0  0  0  0  0  0  0  0
   19.1264   19.9806   25.7811 N   0  3  0  0  0  0  0  0  0  0  0  0
   18.3299   20.6268   25.7834 H   0  0  0  0  0  0  0  0  0  0  0  0
   19.9631   20.5349   25.5756 H   0  0  0  0  0  0  0  0  0  0  0  0
   19.2260   19.6253   26.7375 H   0  0  0  0  0  0  0  0  0  0  0  0
  1  2  1  0  0  0  0
  1  3  1  0  0  0  0
  1  4  1  0  0  0  0
  1  5  1  0  0  0  0
  5  6  1  0  0  0  0
  5  7  1  0  0  0  0
  5  8  1  0  0  0  0
  8  9  1  0  0  0  0
  8 10  1  0  0  0  0
  8 11  1  0  0  0  0
 11 12  1  0  0  0  0
 11 13  1  0  0  0  0
 11 14  1  0  0  0  0
 14 15  1  0  0  0  0
 14 16  1  0  0  0  0
 14 17  1  0  0  0  0
 17 18  1  0  0  0  0
 17 19  1  0  0  0  0
 17 20  1  0  0  0  0
 20 21  1  0  0  0  0
 20 22  1  0  0  0  0
 20 23  1  0  0  0  0
 23 24  1  0  0  0  0
 23 25  1  0  0  0  0
 23 26  1  0  0  0  0
M  END
> <VM2 Rank>
191

> <Conf_Id>
824

> <Probability>
0.00

> <Sum Probability>
100.00

> <Delta G>
6.314

> <G>
54.575

> <E>
21.208

> <-TS>
33.367

> <U+W>
-0.254

> <U>
54.016

> <W>
-54.269

> <W(PB)>
-56.488

> <W(SA)>
2.219

> <Valence>
7.241

> <Coulomb>
46.463

> <VdW>
0.312

> <VdW6>
-9.614

> <VdW12>
9.926

> <Bond>
0.277

> <Angle>
1.893

> <Pdih>
5.071

> <Idih>
0.000

> <Tether>
0.000

$$$$
VeraChem MOL file


 26 25  0  0  0  0  0  0  0  0999 V2000     
   21.0608   20.3044   21.4458 C   0  0  0  0  0  0  0  0  0  0  0  0
   22.1305   20.5490   21.4175 H   0  0  0  0  0  0  0  0  0  0  0  0
   20.5466   20.9799   20.7498 H   0  0  0  0  0  0  0  0  0  0  0  0
   20.6965   20.5226   22.4552 H   0  0  0  0  0  0  0  0  0  0  0  0
   20.8326   18.8272   21.0484 C   0  0  0  0  0  0  0  0  0  0  0  0
   21.4196   18.1563   21.6899 H   0  0  0  0  0  0  0  0  0  0  0  0
   21.2284   18.6893   20.0324 H   0  0  0  0  0  0  0  0  0  0  0  0
   19.3400   18.4108   21.0531 C   0  0  0  0  0  0  0  0  0  0  0  0
   18.7064   19.2690   20.7902 H   0  0  0  0  0  0  0  0  0  0  0  0
   19.1938   17.6818   20.2439 H   0  0  0  0  0  0  0  0  0  0  0  0
   18.8272   17.7511   22.3621 C   0  0  0  0  0  0  0  0  0  0  0  0
   19.4035   16.8405   22.5761 H   0  0  0  0  0  0  0  0  0  0  0  0
   17.8006   17.4085   22.1720 H   0  0  0  0  0  0  0  0  0  0  0  0
   18.7945   18.6720   23.6085 C   0  0  0  0  0  0  0  0  0  0  0  0
   18.6421   19.7159   23.3034 H   0  0  0  0  0  0  0  0  0  0  0  0
   17.9166   18.4059   24.2135 H   0  0  0  0  0  0  0  0  0  0  0  0
   20.0487   18.5381   24.5050 C   0  0  0  0  0  0  0  0  0  0  0  0
   20.9588   18.7387   23.9290 H   0  0  0  0  0  0  0  0  0  0  0  0
   20.1281   17.5059   24.8712 H   0  0  0  0  0  0  0  0  0  0  0  0
   19.9850   19.4998   25.7043 C   0  0  0  0  0  0  0  0  0  0  0  0
   19.9205   20.5308   25.3461 H   0  0  0  0  0  0  0  0  0  0  0  0
   19.0936   19.2863   26.3004 H   0  0  0  0  0  0  0  0  0  0  0  0
   21.1921   19.3956   26.6139 N   0  3  0  0  0  0  0  0  0  0  0  0
   21.1289   20.0443   27.4061 H   0  0  0  0  0  0  0  0  0  0  0  0
   22.0635   19.6125   26.1193 H   0  0  0  0  0  0  0  0  0  0  0  0
   21.2940   18.4541   27.0069 H   0  0  0  0  0  0  0  0  0  0  0  0
  1  2  1  0  0  0  0
  1  3  1  0  0  0  0
  1  4  1  0  0  0  0
  1  5  1  0  0  0  0
  5  6  1  0  0  0  0
  5  7  1  0  0  0  0
  5  8  1  0  0  0  0
  8  9  1  0  0  0  0
  8 10  1  0  0  0  0
  8 11  1  0  0  0  0
 11 12  1  0  0  0  0
 11 13  1  0  0  0  0
 11 14  1  0  0  0  0
 14 15  1  0  0  0  0
 14 16  1  0  0  0  0
 14 17  1  0  0  0  0
 17 18  1  0  0  0  0
 17 19  1  0  0  0  0
 17 20  1  0  0  0  0
 20 21  1  0  0  0  0
 20 22  1  0  0  0  0
 20 23  1  0  0  0  0
 23 24  1  0  0  0  0
 23 25  1  0  0  0  0
 23 26  1  0  0  0  0
M  END
> <VM2 Rank>
192

> <Conf_Id>
685

> <Probability>
0.00

> <Sum Probability>
100.00

> <Delta G>
6.319

> <G>
54.581

> <E>
21.360

> <-TS>
33.220

> <U+W>
-0.101

> <U>
53.883

> <W>
-53.985

> <W(PB)>
-56.249

> <W(SA)>
2.264

> <Valence>
7.744

> <Coulomb>
45.678

> <VdW>
0.462

> <VdW6>
-8.645

> <VdW12>
9.107

> <Bond>
0.266

> <Angle>
1.932

> <Pdih>
5.545

> <Idih>
0.000

> <Tether>
0.000

$$$$
VeraChem MOL file


 26 25  0  0  0  0  0  0  0  0999 V2000     
   18.5887   19.5980   21.1538 C   0  0  0  0  0  0  0  0  0  0  0  0
   18.5295   19.8209   22.2242 H   0  0  0  0  0  0  0  0  0  0  0  0
   18.7819   20.5399   20.6243 H   0  0  0  0  0  0  0  0  0  0  0  0
   17.6037   19.2333   20.8350 H   0  0  0  0  0  0  0  0  0  0  0  0
   19.6822   18.5521   20.8337 C   0  0  0  0  0  0  0  0  0  0  0  0
   19.6671   18.3742   19.7493 H   0  0  0  0  0  0  0  0  0  0  0  0
   19.4438   17.5854   21.2972 H   0  0  0  0  0  0  0  0  0  0  0  0
   21.1086   19.0066   21.2346 C   0  0  0  0  0  0  0  0  0  0  0  0
   21.8110   18.5865   20.5014 H   0  0  0  0  0  0  0  0  0  0  0  0
   21.2007   20.0969   21.1352 H   0  0  0  0  0  0  0  0  0  0  0  0
   21.5911   18.5567   22.6405 C   0  0  0  0  0  0  0  0  0  0  0  0
   22.6486   18.8426   22.7270 H   0  0  0  0  0  0  0  0  0  0  0  0
   21.5791   17.4603   22.7106 H   0  0  0  0  0  0  0  0  0  0  0  0
   20.8337   19.1806   23.8403 C   0  0  0  0  0  0  0  0  0  0  0  0
   21.5583   19.3585   24.6462 H   0  0  0  0  0  0  0  0  0  0  0  0
   20.4406   20.1686   23.5659 H   0  0  0  0  0  0  0  0  0  0  0  0
   19.7052   18.2722   24.3911 C   0  0  0  0  0  0  0  0  0  0  0  0
   20.1345   17.3380   24.7767 H   0  0  0  0  0  0  0  0  0  0  0  0
   19.0217   17.9842   23.5848 H   0  0  0  0  0  0  0  0  0  0  0  0
   18.8835   18.9545   25.5016 C   0  0  0  0  0  0  0  0  0  0  0  0
   18.4553   19.8863   25.1225 H   0  0  0  0  0  0  0  0  0  0  0  0
   18.0616   18.2980   25.8000 H   0  0  0  0  0  0  0  0  0  0  0  0
   19.6880   19.2783   26.7452 N   0  3  0  0  0  0  0  0  0  0  0  0
   20.0986   18.4368   27.1627 H   0  0  0  0  0  0  0  0  0  0  0  0
   19.1099   19.7200   27.4684 H   0  0  0  0  0  0  0  0  0  0  0  0
   20.4583   19.9226   26.5417 H   0  0  0  0  0  0  0  0  0  0  0  0
  1  2  1  0  0  0  0
  1  3  1  0  0  0  0
  1  4  1  0  0  0  0
  1  5  1  0  0  0  0
  5  6  1  0  0  0  0
  5  7  1  0  0  0  0
  5  8  1  0  0  0  0
  8  9  1  0  0  0  0
  8 10  1  0  0  0  0
  8 11  1  0  0  0  0
 11 12  1  0  0  0  0
 11 13  1  0  0  0  0
 11 14  1  0  0  0  0
 14 15  1  0  0  0  0
 14 16  1  0  0  0  0
 14 17  1  0  0  0  0
 17 18  1  0  0  0  0
 17 19  1  0  0  0  0
 17 20  1  0  0  0  0
 20 21  1  0  0  0  0
 20 22  1  0  0  0  0
 20 23  1  0  0  0  0
 23 24  1  0  0  0  0
 23 25  1  0  0  0  0
 23 26  1  0  0  0  0
M  END
> <VM2 Rank>
193

> <Conf_Id>
504

> <Probability>
0.00

> <Sum Probability>
100.00

> <Delta G>
6.539

> <G>
54.800

> <E>
21.464

> <-TS>
33.336

> <U+W>
0.002

> <U>
54.063

> <W>
-54.061

> <W(PB)>
-56.253

> <W(SA)>
2.192

> <Valence>
7.875

> <Coulomb>
45.591

> <VdW>
0.597

> <VdW6>
-9.142

> <VdW12>
9.739

> <Bond>
0.290

> <Angle>
1.959

> <Pdih>
5.626

> <Idih>
0.000

> <Tether>
0.000

$$$$
VeraChem MOL file


 26 25  0  0  0  0  0  0  0  0999 V2000     
   20.3268   17.8008   20.4082 C   0  0  0  0  0  0  0  0  0  0  0  0
   19.8812   18.2673   19.5200 H   0  0  0  0  0  0  0  0  0  0  0  0
   21.3511   18.1782   20.5142 H   0  0  0  0  0  0  0  0  0  0  0  0
   20.3898   16.7208   20.2224 H   0  0  0  0  0  0  0  0  0  0  0  0
   19.4784   18.0840   21.6690 C   0  0  0  0  0  0  0  0  0  0  0  0
   19.9390   17.5926   22.5344 H   0  0  0  0  0  0  0  0  0  0  0  0
   18.4924   17.6166   21.5384 H   0  0  0  0  0  0  0  0  0  0  0  0
   19.2781   19.5977   21.9387 C   0  0  0  0  0  0  0  0  0  0  0  0
   18.9402   20.0695   21.0057 H   0  0  0  0  0  0  0  0  0  0  0  0
   18.4560   19.7471   22.6512 H   0  0  0  0  0  0  0  0  0  0  0  0
   20.5461   20.3380   22.4423 C   0  0  0  0  0  0  0  0  0  0  0  0
   20.5459   21.3429   21.9979 H   0  0  0  0  0  0  0  0  0  0  0  0
   21.4555   19.8545   22.0643 H   0  0  0  0  0  0  0  0  0  0  0  0
   20.6495   20.5156   23.9813 C   0  0  0  0  0  0  0  0  0  0  0  0
   21.5351   21.1348   24.1809 H   0  0  0  0  0  0  0  0  0  0  0  0
   19.7940   21.0973   24.3518 H   0  0  0  0  0  0  0  0  0  0  0  0
   20.7917   19.2066   24.7967 C   0  0  0  0  0  0  0  0  0  0  0  0
   21.3125   19.4358   25.7360 H   0  0  0  0  0  0  0  0  0  0  0  0
   21.4284   18.4932   24.2573 H   0  0  0  0  0  0  0  0  0  0  0  0
   19.4356   18.5651   25.1484 C   0  0  0  0  0  0  0  0  0  0  0  0
   18.8377   19.2702   25.7323 H   0  0  0  0  0  0  0  0  0  0  0  0
   18.8850   18.3249   24.2370 H   0  0  0  0  0  0  0  0  0  0  0  0
   19.5747   17.2911   25.9563 N   0  3  0  0  0  0  0  0  0  0  0  0
   20.0561   17.4549   26.8466 H   0  0  0  0  0  0  0  0  0  0  0  0
   20.1075   16.5746   25.4529 H   0  0  0  0  0  0  0  0  0  0  0  0
   18.6617   16.8817   26.1824 H   0  0  0  0  0  0  0  0  0  0  0  0
  1  2  1  0  0  0  0
  1  3  1  0  0  0  0
  1  4  1  0  0  0  0
  1  5  1  0  0  0  0
  5  6  1  0  0  0  0
  5  7  1  0  0  0  0
  5  8  1  0  0  0  0
  8  9  1  0  0  0  0
  8 10  1  0  0  0  0
  8 11  1  0  0  0  0
 11 12  1  0  0  0  0
 11 13  1  0  0  0  0
 11 14  1  0  0  0  0
 14 15  1  0  0  0  0
 14 16  1  0  0  0  0
 14 17  1  0  0  0  0
 17 18  1  0  0  0  0
 17 19  1  0  0  0  0
 17 20  1  0  0  0  0
 20 21  1  0  0  0  0
 20 22  1  0  0  0  0
 20 23  1  0  0  0  0
 23 24  1  0  0  0  0
 23 25  1  0  0  0  0
 23 26  1  0  0  0  0
M  END
> <VM2 Rank>
194

> <Conf_Id>
1071

> <Probability>
0.00

> <Sum Probability>
100.00

> <Delta G>
6.639

> <G>
54.901

> <E>
21.593

> <-TS>
33.307

> <U+W>
0.132

> <U>
54.604

> <W>
-54.473

> <W(PB)>
-56.712

> <W(SA)>
2.239

> <Valence>
7.775

> <Coulomb>
46.392

> <VdW>
0.438

> <VdW6>
-9.390

> <VdW12>
9.827

> <Bond>
0.291

> <Angle>
1.965

> <Pdih>
5.519

> <Idih>
0.000

> <Tether>
0.000

$$$$
VeraChem MOL file


 26 25  0  0  0  0  0  0  0  0999 V2000     
   19.7076   20.4946   21.3356 C   0  0  0  0  0  0  0  0  0  0  0  0
   19.7073   21.3027   20.5927 H   0  0  0  0  0  0  0  0  0  0  0  0
   18.6718   20.1523   21.4368 H   0  0  0  0  0  0  0  0  0  0  0  0
   20.0365   20.9206   22.2913 H   0  0  0  0  0  0  0  0  0  0  0  0
   20.6367   19.3494   20.8791 C   0  0  0  0  0  0  0  0  0  0  0  0
   21.5938   19.7868   20.5624 H   0  0  0  0  0  0  0  0  0  0  0  0
   20.2135   18.8710   19.9849 H   0  0  0  0  0  0  0  0  0  0  0  0
   20.9320   18.2732   21.9560 C   0  0  0  0  0  0  0  0  0  0  0  0
   21.6730   17.5877   21.5222 H   0  0  0  0  0  0  0  0  0  0  0  0
   21.4374   18.7196   22.8188 H   0  0  0  0  0  0  0  0  0  0  0  0
   19.7164   17.4138   22.3986 C   0  0  0  0  0  0  0  0  0  0  0  0
   20.0982   16.4436   22.7454 H   0  0  0  0  0  0  0  0  0  0  0  0
   19.0985   17.1845   21.5197 H   0  0  0  0  0  0  0  0  0  0  0  0
   18.8109   17.9876   23.5239 C   0  0  0  0  0  0  0  0  0  0  0  0
   18.2901   18.8940   23.1967 H   0  0  0  0  0  0  0  0  0  0  0  0
   18.0150   17.2514   23.7023 H   0  0  0  0  0  0  0  0  0  0  0  0
   19.5283   18.2430   24.8739 C   0  0  0  0  0  0  0  0  0  0  0  0
   20.3571   17.5346   25.0042 H   0  0  0  0  0  0  0  0  0  0  0  0
   18.8204   18.0436   25.6894 H   0  0  0  0  0  0  0  0  0  0  0  0
   20.0310   19.6919   25.0239 C   0  0  0  0  0  0  0  0  0  0  0  0
   20.7398   19.9316   24.2294 H   0  0  0  0  0  0  0  0  0  0  0  0
   19.1862   20.3815   24.9459 H   0  0  0  0  0  0  0  0  0  0  0  0
   20.7183   19.9455   26.3499 N   0  3  0  0  0  0  0  0  0  0  0  0
   21.0410   20.9157   26.4328 H   0  0  0  0  0  0  0  0  0  0  0  0
   21.5400   19.3455   26.4753 H   0  0  0  0  0  0  0  0  0  0  0  0
   20.0932   19.7704   27.1434 H   0  0  0  0  0  0  0  0  0  0  0  0
  1  2  1  0  0  0  0
  1  3  1  0  0  0  0
  1  4  1  0  0  0  0
  1  5  1  0  0  0  0
  5  6  1  0  0  0  0
  5  7  1  0  0  0  0
  5  8  1  0  0  0  0
  8  9  1  0  0  0  0
  8 10  1  0  0  0  0
  8 11  1  0  0  0  0
 11 12  1  0  0  0  0
 11 13  1  0  0  0  0
 11 14  1  0  0  0  0
 14 15  1  0  0  0  0
 14 16  1  0  0  0  0
 14 17  1  0  0  0  0
 17 18  1  0  0  0  0
 17 19  1  0  0  0  0
 17 20  1  0  0  0  0
 20 21  1  0  0  0  0
 20 22  1  0  0  0  0
 20 23  1  0  0  0  0
 23 24  1  0  0  0  0
 23 25  1  0  0  0  0
 23 26  1  0  0  0  0
M  END
> <VM2 Rank>
195

> <Conf_Id>
527

> <Probability>
0.00

> <Sum Probability>
100.00

> <Delta G>
6.713

> <G>
54.975

> <E>
21.943

> <-TS>
33.031

> <U+W>
0.482

> <U>
54.806

> <W>
-54.324

> <W(PB)>
-56.549

> <W(SA)>
2.225

> <Valence>
8.228

> <Coulomb>
46.248

> <VdW>
0.329

> <VdW6>
-9.307

> <VdW12>
9.637

> <Bond>
0.318

> <Angle>
2.922

> <Pdih>
4.988

> <Idih>
0.000

> <Tether>
0.000

$$$$
VeraChem MOL file


 26 25  0  0  0  0  0  0  0  0999 V2000     
   18.7392   18.6864   20.0341 C   0  0  0  0  0  0  0  0  0  0  0  0
   17.7930   18.6840   20.5908 H   0  0  0  0  0  0  0  0  0  0  0  0
   18.8718   19.6814   19.5896 H   0  0  0  0  0  0  0  0  0  0  0  0
   18.6499   17.9609   19.2150 H   0  0  0  0  0  0  0  0  0  0  0  0
   19.9258   18.3270   20.9531 C   0  0  0  0  0  0  0  0  0  0  0  0
   20.8515   18.3036   20.3610 H   0  0  0  0  0  0  0  0  0  0  0  0
   19.7815   17.3139   21.3535 H   0  0  0  0  0  0  0  0  0  0  0  0
   20.0755   19.3357   22.1132 C   0  0  0  0  0  0  0  0  0  0  0  0
   20.2317   20.3421   21.7005 H   0  0  0  0  0  0  0  0  0  0  0  0
   19.1392   19.3838   22.6811 H   0  0  0  0  0  0  0  0  0  0  0  0
   21.2652   18.9781   23.0380 C   0  0  0  0  0  0  0  0  0  0  0  0
   22.1905   19.0862   22.4550 H   0  0  0  0  0  0  0  0  0  0  0  0
   21.2284   17.9235   23.3417 H   0  0  0  0  0  0  0  0  0  0  0  0
   21.3617   19.8907   24.2873 C   0  0  0  0  0  0  0  0  0  0  0  0
   22.4258   20.0623   24.5016 H   0  0  0  0  0  0  0  0  0  0  0  0
   20.9435   20.8823   24.0651 H   0  0  0  0  0  0  0  0  0  0  0  0
   20.7150   19.3202   25.5780 C   0  0  0  0  0  0  0  0  0  0  0  0
   20.9011   20.0354   26.3902 H   0  0  0  0  0  0  0  0  0  0  0  0
   21.2207   18.3920   25.8759 H   0  0  0  0  0  0  0  0  0  0  0  0
   19.1930   19.0833   25.5020 C   0  0  0  0  0  0  0  0  0  0  0  0
   18.7847   19.0573   26.5160 H   0  0  0  0  0  0  0  0  0  0  0  0
   18.7151   19.9065   24.9645 H   0  0  0  0  0  0  0  0  0  0  0  0
   18.8055   17.7778   24.8352 N   0  3  0  0  0  0  0  0  0  0  0  0
   19.1826   16.9685   25.3393 H   0  0  0  0  0  0  0  0  0  0  0  0
   19.1588   17.7319   23.8740 H   0  0  0  0  0  0  0  0  0  0  0  0
   17.7873   17.6581   24.7954 H   0  0  0  0  0  0  0  0  0  0  0  0
  1  2  1  0  0  0  0
  1  3  1  0  0  0  0
  1  4  1  0  0  0  0
  1  5  1  0  0  0  0
  5  6  1  0  0  0  0
  5  7  1  0  0  0  0
  5  8  1  0  0  0  0
  8  9  1  0  0  0  0
  8 10  1  0  0  0  0
  8 11  1  0  0  0  0
 11 12  1  0  0  0  0
 11 13  1  0  0  0  0
 11 14  1  0  0  0  0
 14 15  1  0  0  0  0
 14 16  1  0  0  0  0
 14 17  1  0  0  0  0
 17 18  1  0  0  0  0
 17 19  1  0  0  0  0
 17 20  1  0  0  0  0
 20 21  1  0  0  0  0
 20 22  1  0  0  0  0
 20 23  1  0  0  0  0
 23 24  1  0  0  0  0
 23 25  1  0  0  0  0
 23 26  1  0  0  0  0
M  END
> <VM2 Rank>
196

> <Conf_Id>
807

> <Probability>
0.00

> <Sum Probability>
100.00

> <Delta G>
6.832

> <G>
55.094

> <E>
21.961

> <-TS>
33.133

> <U+W>
0.499

> <U>
53.726

> <W>
-53.227

> <W(PB)>
-55.472

> <W(SA)>
2.244

> <Valence>
6.198

> <Coulomb>
47.155

> <VdW>
0.373

> <VdW6>
-8.927

> <VdW12>
9.300

> <Bond>
0.233

> <Angle>
1.462

> <Pdih>
4.503

> <Idih>
0.000

> <Tether>
0.000

$$$$
VeraChem MOL file


 26 25  0  0  0  0  0  0  0  0999 V2000     
   20.8798   20.0982   20.1055 C   0  0  0  0  0  0  0  0  0  0  0  0
   21.2277   20.9492   20.7055 H   0  0  0  0  0  0  0  0  0  0  0  0
   21.6192   19.9193   19.3141 H   0  0  0  0  0  0  0  0  0  0  0  0
   19.9345   20.3823   19.6251 H   0  0  0  0  0  0  0  0  0  0  0  0
   20.7012   18.8384   20.9790 C   0  0  0  0  0  0  0  0  0  0  0  0
   21.6698   18.5593   21.4165 H   0  0  0  0  0  0  0  0  0  0  0  0
   20.3867   17.9971   20.3455 H   0  0  0  0  0  0  0  0  0  0  0  0
   19.6621   19.0629   22.0994 C   0  0  0  0  0  0  0  0  0  0  0  0
   19.9591   19.9245   22.7085 H   0  0  0  0  0  0  0  0  0  0  0  0
   18.6955   19.3290   21.6493 H   0  0  0  0  0  0  0  0  0  0  0  0
   19.4803   17.8008   22.9784 C   0  0  0  0  0  0  0  0  0  0  0  0
   20.4493   17.4096   23.3157 H   0  0  0  0  0  0  0  0  0  0  0  0
   19.0448   17.0116   22.3499 H   0  0  0  0  0  0  0  0  0  0  0  0
   18.5460   18.0336   24.1932 C   0  0  0  0  0  0  0  0  0  0  0  0
   17.8098   18.8155   23.9604 H   0  0  0  0  0  0  0  0  0  0  0  0
   17.9606   17.1174   24.3524 H   0  0  0  0  0  0  0  0  0  0  0  0
   19.2639   18.3631   25.5295 C   0  0  0  0  0  0  0  0  0  0  0  0
   19.9040   17.5236   25.8319 H   0  0  0  0  0  0  0  0  0  0  0  0
   18.4961   18.4492   26.3098 H   0  0  0  0  0  0  0  0  0  0  0  0
   20.0827   19.6700   25.5318 C   0  0  0  0  0  0  0  0  0  0  0  0
   19.5392   20.4500   24.9920 H   0  0  0  0  0  0  0  0  0  0  0  0
   20.2197   20.0037   26.5639 H   0  0  0  0  0  0  0  0  0  0  0  0
   21.4650   19.5318   24.9241 N   0  3  0  0  0  0  0  0  0  0  0  0
   21.9766   20.4210   24.9354 H   0  0  0  0  0  0  0  0  0  0  0  0
   21.4132   19.2186   23.9494 H   0  0  0  0  0  0  0  0  0  0  0  0
   22.0368   18.8509   25.4348 H   0  0  0  0  0  0  0  0  0  0  0  0
  1  2  1  0  0  0  0
  1  3  1  0  0  0  0
  1  4  1  0  0  0  0
  1  5  1  0  0  0  0
  5  6  1  0  0  0  0
  5  7  1  0  0  0  0
  5  8  1  0  0  0  0
  8  9  1  0  0  0  0
  8 10  1  0  0  0  0
  8 11  1  0  0  0  0
 11 12  1  0  0  0  0
 11 13  1  0  0  0  0
 11 14  1  0  0  0  0
 14 15  1  0  0  0  0
 14 16  1  0  0  0  0
 14 17  1  0  0  0  0
 17 18  1  0  0  0  0
 17 19  1  0  0  0  0
 17 20  1  0  0  0  0
 20 21  1  0  0  0  0
 20 22  1  0  0  0  0
 20 23  1  0  0  0  0
 23 24  1  0  0  0  0
 23 25  1  0  0  0  0
 23 26  1  0  0  0  0
M  END
> <VM2 Rank>
197

> <Conf_Id>
498

> <Probability>
0.00

> <Sum Probability>
100.00

> <Delta G>
6.834

> <G>
55.095

> <E>
21.962

> <-TS>
33.133

> <U+W>
0.500

> <U>
53.726

> <W>
-53.226

> <W(PB)>
-55.465

> <W(SA)>
2.239

> <Valence>
6.198

> <Coulomb>
47.155

> <VdW>
0.373

> <VdW6>
-8.927

> <VdW12>
9.300

> <Bond>
0.233

> <Angle>
1.462

> <Pdih>
4.503

> <Idih>
0.000

> <Tether>
0.000

$$$$
VeraChem MOL file


 26 25  0  0  0  0  0  0  0  0999 V2000     
   21.4076   19.6037   20.9679 C   0  0  0  0  0  0  0  0  0  0  0  0
   22.4837   19.4039   20.8851 H   0  0  0  0  0  0  0  0  0  0  0  0
   21.0905   20.1063   20.0449 H   0  0  0  0  0  0  0  0  0  0  0  0
   21.2611   20.3037   21.7974 H   0  0  0  0  0  0  0  0  0  0  0  0
   20.6258   18.2852   21.1723 C   0  0  0  0  0  0  0  0  0  0  0  0
   21.0121   17.7338   22.0400 H   0  0  0  0  0  0  0  0  0  0  0  0
   20.8182   17.6429   20.3015 H   0  0  0  0  0  0  0  0  0  0  0  0
   19.0957   18.4927   21.3011 C   0  0  0  0  0  0  0  0  0  0  0  0
   18.7826   19.3752   20.7263 H   0  0  0  0  0  0  0  0  0  0  0  0
   18.6002   17.6393   20.8178 H   0  0  0  0  0  0  0  0  0  0  0  0
   18.5487   18.5795   22.7517 C   0  0  0  0  0  0  0  0  0  0  0  0
   18.7791   17.6524   23.2919 H   0  0  0  0  0  0  0  0  0  0  0  0
   17.4525   18.6088   22.6819 H   0  0  0  0  0  0  0  0  0  0  0  0
   19.0009   19.8217   23.5654 C   0  0  0  0  0  0  0  0  0  0  0  0
   19.1726   20.6671   22.8860 H   0  0  0  0  0  0  0  0  0  0  0  0
   18.1726   20.1345   24.2164 H   0  0  0  0  0  0  0  0  0  0  0  0
   20.2479   19.5937   24.4568 C   0  0  0  0  0  0  0  0  0  0  0  0
   20.5582   20.5574   24.8818 H   0  0  0  0  0  0  0  0  0  0  0  0
   21.0908   19.2324   23.8576 H   0  0  0  0  0  0  0  0  0  0  0  0
   19.9787   18.6068   25.6085 C   0  0  0  0  0  0  0  0  0  0  0  0
   19.1475   18.9714   26.2181 H   0  0  0  0  0  0  0  0  0  0  0  0
   19.7057   17.6288   25.2046 H   0  0  0  0  0  0  0  0  0  0  0  0
   21.1757   18.4156   26.5173 N   0  3  0  0  0  0  0  0  0  0  0  0
   21.4675   19.2958   26.9548 H   0  0  0  0  0  0  0  0  0  0  0  0
   21.9865   18.0475   26.0092 H   0  0  0  0  0  0  0  0  0  0  0  0
   20.9752   17.7568   27.2776 H   0  0  0  0  0  0  0  0  0  0  0  0
  1  2  1  0  0  0  0
  1  3  1  0  0  0  0
  1  4  1  0  0  0  0
  1  5  1  0  0  0  0
  5  6  1  0  0  0  0
  5  7  1  0  0  0  0
  5  8  1  0  0  0  0
  8  9  1  0  0  0  0
  8 10  1  0  0  0  0
  8 11  1  0  0  0  0
 11 12  1  0  0  0  0
 11 13  1  0  0  0  0
 11 14  1  0  0  0  0
 14 15  1  0  0  0  0
 14 16  1  0  0  0  0
 14 17  1  0  0  0  0
 17 18  1  0  0  0  0
 17 19  1  0  0  0  0
 17 20  1  0  0  0  0
 20 21  1  0  0  0  0
 20 22  1  0  0  0  0
 20 23  1  0  0  0  0
 23 24  1  0  0  0  0
 23 25  1  0  0  0  0
 23 26  1  0  0  0  0
M  END
> <VM2 Rank>
198

> <Conf_Id>
537

> <Probability>
0.00

> <Sum Probability>
100.00

> <Delta G>
6.861

> <G>
55.123

> <E>
21.852

> <-TS>
33.270

> <U+W>
0.391

> <U>
54.562

> <W>
-54.171

> <W(PB)>
-56.394

> <W(SA)>
2.223

> <Valence>
8.177

> <Coulomb>
45.812

> <VdW>
0.572

> <VdW6>
-9.082

> <VdW12>
9.655

> <Bond>
0.296

> <Angle>
2.094

> <Pdih>
5.787

> <Idih>
0.000

> <Tether>
0.000

$$$$
VeraChem MOL file


 26 25  0  0  0  0  0  0  0  0999 V2000     
   18.9284   19.5729   20.0308 C   0  0  0  0  0  0  0  0  0  0  0  0
   18.3728   18.6905   19.6877 H   0  0  0  0  0  0  0  0  0  0  0  0
   18.2326   20.2252   20.5745 H   0  0  0  0  0  0  0  0  0  0  0  0
   19.2769   20.1173   19.1435 H   0  0  0  0  0  0  0  0  0  0  0  0
   20.1201   19.1665   20.9234 C   0  0  0  0  0  0  0  0  0  0  0  0
   20.6746   20.0686   21.2131 H   0  0  0  0  0  0  0  0  0  0  0  0
   20.8133   18.5434   20.3412 H   0  0  0  0  0  0  0  0  0  0  0  0
   19.6532   18.3936   22.1799 C   0  0  0  0  0  0  0  0  0  0  0  0
   18.9557   19.0193   22.7494 H   0  0  0  0  0  0  0  0  0  0  0  0
   19.0871   17.5092   21.8563 H   0  0  0  0  0  0  0  0  0  0  0  0
   20.8295   17.9273   23.0774 C   0  0  0  0  0  0  0  0  0  0  0  0
   21.5869   17.4570   22.4349 H   0  0  0  0  0  0  0  0  0  0  0  0
   20.4957   17.1309   23.7556 H   0  0  0  0  0  0  0  0  0  0  0  0
   21.5022   19.0619   23.8959 C   0  0  0  0  0  0  0  0  0  0  0  0
   22.5790   18.8493   23.9473 H   0  0  0  0  0  0  0  0  0  0  0  0
   21.4189   20.0218   23.3709 H   0  0  0  0  0  0  0  0  0  0  0  0
   20.9916   19.2204   25.3529 C   0  0  0  0  0  0  0  0  0  0  0  0
   21.5892   20.0065   25.8332 H   0  0  0  0  0  0  0  0  0  0  0  0
   21.1874   18.3043   25.9258 H   0  0  0  0  0  0  0  0  0  0  0  0
   19.5067   19.6141   25.4861 C   0  0  0  0  0  0  0  0  0  0  0  0
   19.3471   20.0812   26.4617 H   0  0  0  0  0  0  0  0  0  0  0  0
   19.2446   20.3421   24.7138 H   0  0  0  0  0  0  0  0  0  0  0  0
   18.5492   18.4423   25.3946 N   0  3  0  0  0  0  0  0  0  0  0  0
   17.5713   18.7420   25.4746 H   0  0  0  0  0  0  0  0  0  0  0  0
   18.7146   17.7590   26.1409 H   0  0  0  0  0  0  0  0  0  0  0  0
   18.6475   17.9487   24.5021 H   0  0  0  0  0  0  0  0  0  0  0  0
  1  2  1  0  0  0  0
  1  3  1  0  0  0  0
  1  4  1  0  0  0  0
  1  5  1  0  0  0  0
  5  6  1  0  0  0  0
  5  7  1  0  0  0  0
  5  8  1  0  0  0  0
  8  9  1  0  0  0  0
  8 10  1  0  0  0  0
  8 11  1  0  0  0  0
 11 12  1  0  0  0  0
 11 13  1  0  0  0  0
 11 14  1  0  0  0  0
 14 15  1  0  0  0  0
 14 16  1  0  0  0  0
 14 17  1  0  0  0  0
 17 18  1  0  0  0  0
 17 19  1  0  0  0  0
 17 20  1  0  0  0  0
 20 21  1  0  0  0  0
 20 22  1  0  0  0  0
 20 23  1  0  0  0  0
 23 24  1  0  0  0  0
 23 25  1  0  0  0  0
 23 26  1  0  0  0  0
M  END
> <VM2 Rank>
199

> <Conf_Id>
561

> <Probability>
0.00

> <Sum Probability>
100.00

> <Delta G>
6.957

> <G>
55.218

> <E>
22.066

> <-TS>
33.153

> <U+W>
0.604

> <U>
54.574

> <W>
-53.970

> <W(PB)>
-56.207

> <W(SA)>
2.236

> <Valence>
6.966

> <Coulomb>
47.041

> <VdW>
0.567

> <VdW6>
-9.190

> <VdW12>
9.757

> <Bond>
0.281

> <Angle>
1.616

> <Pdih>
5.069

> <Idih>
0.000

> <Tether>
0.000

$$$$
VeraChem MOL file


 26 25  0  0  0  0  0  0  0  0999 V2000     
   18.3478   18.7984   21.5307 C   0  0  0  0  0  0  0  0  0  0  0  0
   17.6299   17.9857   21.3604 H   0  0  0  0  0  0  0  0  0  0  0  0
   18.3420   19.0307   22.6002 H   0  0  0  0  0  0  0  0  0  0  0  0
   17.9830   19.6831   20.9930 H   0  0  0  0  0  0  0  0  0  0  0  0
   19.7540   18.3928   21.0313 C   0  0  0  0  0  0  0  0  0  0  0  0
   19.6801   18.1839   19.9548 H   0  0  0  0  0  0  0  0  0  0  0  0
   20.0757   17.4511   21.4958 H   0  0  0  0  0  0  0  0  0  0  0  0
   20.8227   19.4941   21.2458 C   0  0  0  0  0  0  0  0  0  0  0  0
   21.5184   19.4552   20.3961 H   0  0  0  0  0  0  0  0  0  0  0  0
   20.3578   20.4883   21.1966 H   0  0  0  0  0  0  0  0  0  0  0  0
   21.6717   19.3662   22.5397 C   0  0  0  0  0  0  0  0  0  0  0  0
   22.4500   20.1405   22.4942 H   0  0  0  0  0  0  0  0  0  0  0  0
   22.2124   18.4098   22.5420 H   0  0  0  0  0  0  0  0  0  0  0  0
   20.8996   19.5510   23.8712 C   0  0  0  0  0  0  0  0  0  0  0  0
   21.5646   20.0523   24.5883 H   0  0  0  0  0  0  0  0  0  0  0  0
   20.0533   20.2331   23.7200 H   0  0  0  0  0  0  0  0  0  0  0  0
   20.4381   18.2142   24.5059 C   0  0  0  0  0  0  0  0  0  0  0  0
   21.3141   17.5724   24.6684 H   0  0  0  0  0  0  0  0  0  0  0  0
   19.7764   17.6637   23.8282 H   0  0  0  0  0  0  0  0  0  0  0  0
   19.7295   18.4145   25.8593 C   0  0  0  0  0  0  0  0  0  0  0  0
   19.5175   17.4392   26.3056 H   0  0  0  0  0  0  0  0  0  0  0  0
   20.3848   18.9653   26.5394 H   0  0  0  0  0  0  0  0  0  0  0  0
   18.4176   19.1678   25.7572 N   0  3  0  0  0  0  0  0  0  0  0  0
   17.9720   19.2788   26.6745 H   0  0  0  0  0  0  0  0  0  0  0  0
   17.7454   18.6818   25.1551 H   0  0  0  0  0  0  0  0  0  0  0  0
   18.5492   20.1082   25.3724 H   0  0  0  0  0  0  0  0  0  0  0  0
  1  2  1  0  0  0  0
  1  3  1  0  0  0  0
  1  4  1  0  0  0  0
  1  5  1  0  0  0  0
  5  6  1  0  0  0  0
  5  7  1  0  0  0  0
  5  8  1  0  0  0  0
  8  9  1  0  0  0  0
  8 10  1  0  0  0  0
  8 11  1  0  0  0  0
 11 12  1  0  0  0  0
 11 13  1  0  0  0  0
 11 14  1  0  0  0  0
 14 15  1  0  0  0  0
 14 16  1  0  0  0  0
 14 17  1  0  0  0  0
 17 18  1  0  0  0  0
 17 19  1  0  0  0  0
 17 20  1  0  0  0  0
 20 21  1  0  0  0  0
 20 22  1  0  0  0  0
 20 23  1  0  0  0  0
 23 24  1  0  0  0  0
 23 25  1  0  0  0  0
 23 26  1  0  0  0  0
M  END
> <VM2 Rank>
200

> <Conf_Id>
262

> <Probability>
0.00

> <Sum Probability>
100.00

> <Delta G>
7.104

> <G>
55.365

> <E>
21.953

> <-TS>
33.412

> <U+W>
0.491

> <U>
54.899

> <W>
-54.407

> <W(PB)>
-56.569

> <W(SA)>
2.162

> <Valence>
7.854

> <Coulomb>
46.638

> <VdW>
0.407

> <VdW6>
-9.363

> <VdW12>
9.770

> <Bond>
0.292

> <Angle>
1.989

> <Pdih>
5.573

> <Idih>
0.000

> <Tether>
0.000

$$$$
VeraChem MOL file


 26 25  0  0  0  0  0  0  0  0999 V2000     
   20.8597   20.4567   21.6143 C   0  0  0  0  0  0  0  0  0  0  0  0
   20.5986   20.5208   22.6752 H   0  0  0  0  0  0  0  0  0  0  0  0
   21.8956   20.8017   21.5027 H   0  0  0  0  0  0  0  0  0  0  0  0
   20.2148   21.1564   21.0670 H   0  0  0  0  0  0  0  0  0  0  0  0
   20.7045   19.0203   21.0629 C   0  0  0  0  0  0  0  0  0  0  0  0
   21.4221   18.3400   21.5408 H   0  0  0  0  0  0  0  0  0  0  0  0
   20.9755   19.0388   19.9980 H   0  0  0  0  0  0  0  0  0  0  0  0
   19.2639   18.4650   21.1937 C   0  0  0  0  0  0  0  0  0  0  0  0
   18.5348   19.2848   21.1358 H   0  0  0  0  0  0  0  0  0  0  0  0
   19.0663   17.8365   20.3142 H   0  0  0  0  0  0  0  0  0  0  0  0
   18.9886   17.5949   22.4501 C   0  0  0  0  0  0  0  0  0  0  0  0
   19.6553   16.7217   22.4566 H   0  0  0  0  0  0  0  0  0  0  0  0
   17.9742   17.1858   22.3447 H   0  0  0  0  0  0  0  0  0  0  0  0
   19.0595   18.3362   23.8098 C   0  0  0  0  0  0  0  0  0  0  0  0
   18.7713   19.3868   23.6772 H   0  0  0  0  0  0  0  0  0  0  0  0
   18.3051   17.9002   24.4795 H   0  0  0  0  0  0  0  0  0  0  0  0
   20.4392   18.2150   24.5058 C   0  0  0  0  0  0  0  0  0  0  0  0
   21.2357   18.6276   23.8769 H   0  0  0  0  0  0  0  0  0  0  0  0
   20.6784   17.1527   24.6467 H   0  0  0  0  0  0  0  0  0  0  0  0
   20.4698   18.9031   25.8840 C   0  0  0  0  0  0  0  0  0  0  0  0
   19.6756   18.4963   26.5158 H   0  0  0  0  0  0  0  0  0  0  0  0
   21.4285   18.7007   26.3693 H   0  0  0  0  0  0  0  0  0  0  0  0
   20.2959   20.4079   25.8204 N   0  3  0  0  0  0  0  0  0  0  0  0
   19.3980   20.6685   25.4014 H   0  0  0  0  0  0  0  0  0  0  0  0
   21.0336   20.8532   25.2653 H   0  0  0  0  0  0  0  0  0  0  0  0
   20.3259   20.8327   26.7537 H   0  0  0  0  0  0  0  0  0  0  0  0
  1  2  1  0  0  0  0
  1  3  1  0  0  0  0
  1  4  1  0  0  0  0
  1  5  1  0  0  0  0
  5  6  1  0  0  0  0
  5  7  1  0  0  0  0
  5  8  1  0  0  0  0
  8  9  1  0  0  0  0
  8 10  1  0  0  0  0
  8 11  1  0  0  0  0
 11 12  1  0  0  0  0
 11 13  1  0  0  0  0
 11 14  1  0  0  0  0
 14 15  1  0  0  0  0
 14 16  1  0  0  0  0
 14 17  1  0  0  0  0
 17 18  1  0  0  0  0
 17 19  1  0  0  0  0
 17 20  1  0  0  0  0
 20 21  1  0  0  0  0
 20 22  1  0  0  0  0
 20 23  1  0  0  0  0
 23 24  1  0  0  0  0
 23 25  1  0  0  0  0
 23 26  1  0  0  0  0
M  END
> <VM2 Rank>
201

> <Conf_Id>
513

> <Probability>
0.00

> <Sum Probability>
100.00

> <Delta G>
7.124

> <G>
55.386

> <E>
21.974

> <-TS>
33.412

> <U+W>
0.512

> <U>
54.898

> <W>
-54.386

> <W(PB)>
-56.583

> <W(SA)>
2.198

> <Valence>
7.854

> <Coulomb>
46.637

> <VdW>
0.407

> <VdW6>
-9.363

> <VdW12>
9.769

> <Bond>
0.292

> <Angle>
1.989

> <Pdih>
5.573

> <Idih>
0.000

> <Tether>
0.000

$$$$
VeraChem MOL file


 26 25  0  0  0  0  0  0  0  0999 V2000     
   20.0721   19.0959   19.9169 C   0  0  0  0  0  0  0  0  0  0  0  0
   20.6373   18.2220   19.5681 H   0  0  0  0  0  0  0  0  0  0  0  0
   19.4791   19.4711   19.0728 H   0  0  0  0  0  0  0  0  0  0  0  0
   20.7858   19.8823   20.1917 H   0  0  0  0  0  0  0  0  0  0  0  0
   19.1514   18.7268   21.1020 C   0  0  0  0  0  0  0  0  0  0  0  0
   18.3669   18.0489   20.7377 H   0  0  0  0  0  0  0  0  0  0  0  0
   18.6278   19.6245   21.4551 H   0  0  0  0  0  0  0  0  0  0  0  0
   19.8914   18.0311   22.2745 C   0  0  0  0  0  0  0  0  0  0  0  0
   19.1488   17.7572   23.0324 H   0  0  0  0  0  0  0  0  0  0  0  0
   20.3085   17.0835   21.9067 H   0  0  0  0  0  0  0  0  0  0  0  0
   21.0392   18.8559   22.9222 C   0  0  0  0  0  0  0  0  0  0  0  0
   21.7572   19.1339   22.1400 H   0  0  0  0  0  0  0  0  0  0  0  0
   21.6122   18.2203   23.6100 H   0  0  0  0  0  0  0  0  0  0  0  0
   20.5861   20.1431   23.6627 C   0  0  0  0  0  0  0  0  0  0  0  0
   21.3652   20.9048   23.5212 H   0  0  0  0  0  0  0  0  0  0  0  0
   19.6849   20.5630   23.2001 H   0  0  0  0  0  0  0  0  0  0  0  0
   20.3640   19.9901   25.1910 C   0  0  0  0  0  0  0  0  0  0  0  0
   20.0915   20.9764   25.5894 H   0  0  0  0  0  0  0  0  0  0  0  0
   21.3059   19.7184   25.6859 H   0  0  0  0  0  0  0  0  0  0  0  0
   19.2552   18.9983   25.5952 C   0  0  0  0  0  0  0  0  0  0  0  0
   18.8784   19.2677   26.5856 H   0  0  0  0  0  0  0  0  0  0  0  0
   18.4247   19.0597   24.8869 H   0  0  0  0  0  0  0  0  0  0  0  0
   19.7215   17.5579   25.6765 N   0  3  0  0  0  0  0  0  0  0  0  0
   20.0988   17.2354   24.7802 H   0  0  0  0  0  0  0  0  0  0  0  0
   18.9573   16.9239   25.9346 H   0  0  0  0  0  0  0  0  0  0  0  0
   20.4593   17.4378   26.3783 H   0  0  0  0  0  0  0  0  0  0  0  0
  1  2  1  0  0  0  0
  1  3  1  0  0  0  0
  1  4  1  0  0  0  0
  1  5  1  0  0  0  0
  5  6  1  0  0  0  0
  5  7  1  0  0  0  0
  5  8  1  0  0  0  0
  8  9  1  0  0  0  0
  8 10  1  0  0  0  0
  8 11  1  0  0  0  0
 11 12  1  0  0  0  0
 11 13  1  0  0  0  0
 11 14  1  0  0  0  0
 14 15  1  0  0  0  0
 14 16  1  0  0  0  0
 14 17  1  0  0  0  0
 17 18  1  0  0  0  0
 17 19  1  0  0  0  0
 17 20  1  0  0  0  0
 20 21  1  0  0  0  0
 20 22  1  0  0  0  0
 20 23  1  0  0  0  0
 23 24  1  0  0  0  0
 23 25  1  0  0  0  0
 23 26  1  0  0  0  0
M  END
> <VM2 Rank>
202

> <Conf_Id>
448

> <Probability>
0.00

> <Sum Probability>
100.00

> <Delta G>
7.348

> <G>
55.609

> <E>
22.528

> <-TS>
33.082

> <U+W>
1.066

> <U>
55.284

> <W>
-54.218

> <W(PB)>
-56.421

> <W(SA)>
2.203

> <Valence>
7.530

> <Coulomb>
47.065

> <VdW>
0.689

> <VdW6>
-9.873

> <VdW12>
10.561

> <Bond>
0.348

> <Angle>
2.261

> <Pdih>
4.921

> <Idih>
0.000

> <Tether>
0.000

$$$$
VeraChem MOL file


 26 25  0  0  0  0  0  0  0  0999 V2000     
   20.3935   18.5148   19.9044 C   0  0  0  0  0  0  0  0  0  0  0  0
   19.6875   17.7056   20.1292 H   0  0  0  0  0  0  0  0  0  0  0  0
   19.8337   19.3449   19.4543 H   0  0  0  0  0  0  0  0  0  0  0  0
   21.0986   18.1385   19.1520 H   0  0  0  0  0  0  0  0  0  0  0  0
   21.1490   18.9763   21.1710 C   0  0  0  0  0  0  0  0  0  0  0  0
   21.9207   19.7023   20.8787 H   0  0  0  0  0  0  0  0  0  0  0  0
   21.6815   18.1225   21.6121 H   0  0  0  0  0  0  0  0  0  0  0  0
   20.2277   19.6286   22.2299 C   0  0  0  0  0  0  0  0  0  0  0  0
   20.8492   20.0262   23.0408 H   0  0  0  0  0  0  0  0  0  0  0  0
   19.7281   20.5014   21.7870 H   0  0  0  0  0  0  0  0  0  0  0  0
   19.1556   18.6602   22.7935 C   0  0  0  0  0  0  0  0  0  0  0  0
   19.5946   17.6857   23.0447 H   0  0  0  0  0  0  0  0  0  0  0  0
   18.4229   18.4609   21.9998 H   0  0  0  0  0  0  0  0  0  0  0  0
   18.3972   19.2373   24.0162 C   0  0  0  0  0  0  0  0  0  0  0  0
   18.3667   20.3343   23.9596 H   0  0  0  0  0  0  0  0  0  0  0  0
   17.3499   18.9111   23.9514 H   0  0  0  0  0  0  0  0  0  0  0  0
   18.9359   18.7924   25.4025 C   0  0  0  0  0  0  0  0  0  0  0  0
   18.8508   17.7028   25.5093 H   0  0  0  0  0  0  0  0  0  0  0  0
   18.2781   19.2201   26.1707 H   0  0  0  0  0  0  0  0  0  0  0  0
   20.3781   19.2361   25.7209 C   0  0  0  0  0  0  0  0  0  0  0  0
   20.5342   20.2634   25.3810 H   0  0  0  0  0  0  0  0  0  0  0  0
   20.5295   19.2098   26.8035 H   0  0  0  0  0  0  0  0  0  0  0  0
   21.4440   18.3531   25.1026 N   0  3  0  0  0  0  0  0  0  0  0  0
   22.3893   18.6852   25.3234 H   0  0  0  0  0  0  0  0  0  0  0  0
   21.3566   18.3262   24.0816 H   0  0  0  0  0  0  0  0  0  0  0  0
   21.3789   17.3875   25.4413 H   0  0  0  0  0  0  0  0  0  0  0  0
  1  2  1  0  0  0  0
  1  3  1  0  0  0  0
  1  4  1  0  0  0  0
  1  5  1  0  0  0  0
  5  6  1  0  0  0  0
  5  7  1  0  0  0  0
  5  8  1  0  0  0  0
  8  9  1  0  0  0  0
  8 10  1  0  0  0  0
  8 11  1  0  0  0  0
 11 12  1  0  0  0  0
 11 13  1  0  0  0  0
 11 14  1  0  0  0  0
 14 15  1  0  0  0  0
 14 16  1  0  0  0  0
 14 17  1  0  0  0  0
 17 18  1  0  0  0  0
 17 19  1  0  0  0  0
 17 20  1  0  0  0  0
 20 21  1  0  0  0  0
 20 22  1  0  0  0  0
 20 23  1  0  0  0  0
 23 24  1  0  0  0  0
 23 25  1  0  0  0  0
 23 26  1  0  0  0  0
M  END
> <VM2 Rank>
203

> <Conf_Id>
792

> <Probability>
0.00

> <Sum Probability>
100.00

> <Delta G>
7.414

> <G>
55.675

> <E>
22.372

> <-TS>
33.304

> <U+W>
0.910

> <U>
54.367

> <W>
-53.457

> <W(PB)>
-55.665

> <W(SA)>
2.207

> <Valence>
6.710

> <Coulomb>
47.139

> <VdW>
0.519

> <VdW6>
-9.576

> <VdW12>
10.095

> <Bond>
0.272

> <Angle>
1.653

> <Pdih>
4.785

> <Idih>
0.000

> <Tether>
0.000

$$$$
VeraChem MOL file


 26 25  0  0  0  0  0  0  0  0999 V2000     
   20.3937   18.5147   19.9045 C   0  0  0  0  0  0  0  0  0  0  0  0
   19.8726   19.3703   19.4556 H   0  0  0  0  0  0  0  0  0  0  0  0
   21.4039   18.8366   20.1868 H   0  0  0  0  0  0  0  0  0  0  0  0
   20.4971   17.7417   19.1321 H   0  0  0  0  0  0  0  0  0  0  0  0
   19.6137   17.9645   21.1198 C   0  0  0  0  0  0  0  0  0  0  0  0
   20.1677   17.1249   21.5617 H   0  0  0  0  0  0  0  0  0  0  0  0
   18.6572   17.5516   20.7697 H   0  0  0  0  0  0  0  0  0  0  0  0
   19.3277   19.0356   22.1998 C   0  0  0  0  0  0  0  0  0  0  0  0
   18.7434   19.8525   21.7540 H   0  0  0  0  0  0  0  0  0  0  0  0
   18.6804   18.5970   22.9683 H   0  0  0  0  0  0  0  0  0  0  0  0
   20.6123   19.6205   22.8421 C   0  0  0  0  0  0  0  0  0  0  0  0
   21.1204   20.2389   22.0899 H   0  0  0  0  0  0  0  0  0  0  0  0
   21.3229   18.8249   23.1024 H   0  0  0  0  0  0  0  0  0  0  0  0
   20.3238   20.5071   24.0806 C   0  0  0  0  0  0  0  0  0  0  0  0
   21.0382   21.3420   24.0746 H   0  0  0  0  0  0  0  0  0  0  0  0
   19.3311   20.9700   23.9919 H   0  0  0  0  0  0  0  0  0  0  0  0
   20.4560   19.7942   25.4533 C   0  0  0  0  0  0  0  0  0  0  0  0
   20.2863   20.5435   26.2378 H   0  0  0  0  0  0  0  0  0  0  0  0
   21.4851   19.4390   25.5972 H   0  0  0  0  0  0  0  0  0  0  0  0
   19.4667   18.6353   25.6905 C   0  0  0  0  0  0  0  0  0  0  0  0
   19.3810   18.4526   26.7651 H   0  0  0  0  0  0  0  0  0  0  0  0
   18.4778   18.9080   25.3124 H   0  0  0  0  0  0  0  0  0  0  0  0
   19.8871   17.3270   25.0504 N   0  3  0  0  0  0  0  0  0  0  0  0
   20.7837   16.9951   25.4211 H   0  0  0  0  0  0  0  0  0  0  0  0
   19.9935   17.4281   24.0359 H   0  0  0  0  0  0  0  0  0  0  0  0
   19.2001   16.5833   25.2167 H   0  0  0  0  0  0  0  0  0  0  0  0
  1  2  1  0  0  0  0
  1  3  1  0  0  0  0
  1  4  1  0  0  0  0
  1  5  1  0  0  0  0
  5  6  1  0  0  0  0
  5  7  1  0  0  0  0
  5  8  1  0  0  0  0
  8  9  1  0  0  0  0
  8 10  1  0  0  0  0
  8 11  1  0  0  0  0
 11 12  1  0  0  0  0
 11 13  1  0  0  0  0
 11 14  1  0  0  0  0
 14 15  1  0  0  0  0
 14 16  1  0  0  0  0
 14 17  1  0  0  0  0
 17 18  1  0  0  0  0
 17 19  1  0  0  0  0
 17 20  1  0  0  0  0
 20 21  1  0  0  0  0
 20 22  1  0  0  0  0
 20 23  1  0  0  0  0
 23 24  1  0  0  0  0
 23 25  1  0  0  0  0
 23 26  1  0  0  0  0
M  END
> <VM2 Rank>
204

> <Conf_Id>
570

> <Probability>
0.00

> <Sum Probability>
100.00

> <Delta G>
7.445

> <G>
55.706

> <E>
22.403

> <-TS>
33.303

> <U+W>
0.941

> <U>
54.367

> <W>
-53.426

> <W(PB)>
-55.654

> <W(SA)>
2.227

> <Valence>
6.710

> <Coulomb>
47.139

> <VdW>
0.519

> <VdW6>
-9.577

> <VdW12>
10.096

> <Bond>
0.272

> <Angle>
1.652

> <Pdih>
4.785

> <Idih>
0.000

> <Tether>
0.000

$$$$
VeraChem MOL file


 26 25  0  0  0  0  0  0  0  0999 V2000     
   18.8603   17.8534   20.9307 C   0  0  0  0  0  0  0  0  0  0  0  0
   17.9571   18.0288   21.5286 H   0  0  0  0  0  0  0  0  0  0  0  0
   18.5385   17.4781   19.9505 H   0  0  0  0  0  0  0  0  0  0  0  0
   19.4477   17.0588   21.4067 H   0  0  0  0  0  0  0  0  0  0  0  0
   19.6804   19.1530   20.7620 C   0  0  0  0  0  0  0  0  0  0  0  0
   19.0732   19.8816   20.2068 H   0  0  0  0  0  0  0  0  0  0  0  0
   20.5655   18.9557   20.1409 H   0  0  0  0  0  0  0  0  0  0  0  0
   20.1143   19.7884   22.1042 C   0  0  0  0  0  0  0  0  0  0  0  0
   20.5242   20.7868   21.8973 H   0  0  0  0  0  0  0  0  0  0  0  0
   19.2324   19.9581   22.7327 H   0  0  0  0  0  0  0  0  0  0  0  0
   21.1929   18.9641   22.8547 C   0  0  0  0  0  0  0  0  0  0  0  0
   22.0987   18.9512   22.2326 H   0  0  0  0  0  0  0  0  0  0  0  0
   20.8989   17.9136   22.9669 H   0  0  0  0  0  0  0  0  0  0  0  0
   21.5568   19.5594   24.2390 C   0  0  0  0  0  0  0  0  0  0  0  0
   22.6346   19.4164   24.3985 H   0  0  0  0  0  0  0  0  0  0  0  0
   21.4025   20.6474   24.2363 H   0  0  0  0  0  0  0  0  0  0  0  0
   20.8202   18.9234   25.4484 C   0  0  0  0  0  0  0  0  0  0  0  0
   21.2009   19.3998   26.3616 H   0  0  0  0  0  0  0  0  0  0  0  0
   21.0828   17.8606   25.5342 H   0  0  0  0  0  0  0  0  0  0  0  0
   19.2863   19.0815   25.4408 C   0  0  0  0  0  0  0  0  0  0  0  0
   18.9076   18.9448   26.4573 H   0  0  0  0  0  0  0  0  0  0  0  0
   19.0184   20.0887   25.1108 H   0  0  0  0  0  0  0  0  0  0  0  0
   18.5696   18.0758   24.5613 N   0  3  0  0  0  0  0  0  0  0  0  0
   18.8846   18.1468   23.5874 H   0  0  0  0  0  0  0  0  0  0  0  0
   17.5535   18.2183   24.5714 H   0  0  0  0  0  0  0  0  0  0  0  0
   18.7405   17.1134   24.8715 H   0  0  0  0  0  0  0  0  0  0  0  0
  1  2  1  0  0  0  0
  1  3  1  0  0  0  0
  1  4  1  0  0  0  0
  1  5  1  0  0  0  0
  5  6  1  0  0  0  0
  5  7  1  0  0  0  0
  5  8  1  0  0  0  0
  8  9  1  0  0  0  0
  8 10  1  0  0  0  0
  8 11  1  0  0  0  0
 11 12  1  0  0  0  0
 11 13  1  0  0  0  0
 11 14  1  0  0  0  0
 14 15  1  0  0  0  0
 14 16  1  0  0  0  0
 14 17  1  0  0  0  0
 17 18  1  0  0  0  0
 17 19  1  0  0  0  0
 17 20  1  0  0  0  0
 20 21  1  0  0  0  0
 20 22  1  0  0  0  0
 20 23  1  0  0  0  0
 23 24  1  0  0  0  0
 23 25  1  0  0  0  0
 23 26  1  0  0  0  0
M  END
> <VM2 Rank>
205

> <Conf_Id>
555

> <Probability>
0.00

> <Sum Probability>
100.00

> <Delta G>
8.481

> <G>
56.742

> <E>
23.151

> <-TS>
33.591

> <U+W>
1.689

> <U>
54.447

> <W>
-52.757

> <W(PB)>
-54.934

> <W(SA)>
2.177

> <Valence>
6.776

> <Coulomb>
47.396

> <VdW>
0.275

> <VdW6>
-10.114

> <VdW12>
10.389

> <Bond>
0.270

> <Angle>
1.774

> <Pdih>
4.731

> <Idih>
0.000

> <Tether>
0.000

$$$$
