@<TRIPOS>MOLECULE
guest-s14_vm2.mol2 : vm2 ligand conformer 1
          26          25           1
SMALL
USER_CHARGES
 
@<TRIPOS>ATOM
       1    C1      19.905242   19.310654   18.816232 C.3        1 MOL1        -0.2400
       2    H1      20.294539   20.336914   18.794256 H          1 MOL1         0.0971
       3    H2      20.278689   18.789459   17.925198 H          1 MOL1         0.0971
       4    H3      18.810784   19.358496   18.744701 H          1 MOL1         0.0971
       5    C2      20.345723   18.577600   20.101041 C.3        1 MOL1        -0.1385
       6    H4      21.442719   18.515742   20.127544 H          1 MOL1         0.0960
       7    H5      19.970431   17.544851   20.078356 H          1 MOL1         0.0960
       8    C3      19.832668   19.291246   21.371390 C.3        1 MOL1        -0.1409
       9    H6      20.208340   20.323732   21.388345 H          1 MOL1         0.0960
      10    H7      18.736016   19.352628   21.339244 H          1 MOL1         0.0960
      11    C4      20.271902   18.560157   22.660169 C.3        1 MOL1        -0.1409
      12    H8      21.368624   18.498931   22.691308 H          1 MOL1         0.0960
      13    H9      19.896194   17.527667   22.642165 H          1 MOL1         0.0960
      14    C5      19.758287   19.274504   23.930780 C.3        1 MOL1        -0.1409
      15    H10     20.133955   20.307134   23.949228 H          1 MOL1         0.0960
      16    H11     18.661443   19.335945   23.900008 H          1 MOL1         0.0960
      17    C6      20.196808   18.544302   25.219269 C.3        1 MOL1        -0.1450
      18    H12     21.292832   18.485485   25.256417 H          1 MOL1         0.0960
      19    H13     19.818753   17.513265   25.207123 H          1 MOL1         0.0960
      20    C7      19.680239   19.263714   26.477703 C.3        1 MOL1         0.0172
      21    H14     20.067622   20.285865   26.502603 H          1 MOL1         0.0934
      22    H15     18.588125   19.310181   26.453059 H          1 MOL1         0.0934
      23    N1      20.090131   18.576824   27.764415 N.4        1 MOL1        -0.5956
      24    H16     19.735945   19.071996   28.590141 H          1 MOL1         0.3624
      25    H17     21.109456   18.525017   27.862158 H          1 MOL1         0.3624
      26    H18     19.732799   17.617184   27.816069 H          1 MOL1         0.3624
@<TRIPOS>BOND
    1     1     2    1
    2     1     3    1
    3     1     4    1
    4     1     5    1
    5     5     6    1
    6     5     7    1
    7     5     8    1
    8     8     9    1
    9     8    10    1
   10     8    11    1
   11    11    12    1
   12    11    13    1
   13    11    14    1
   14    14    15    1
   15    14    16    1
   16    14    17    1
   17    17    18    1
   18    17    19    1
   19    17    20    1
   20    20    21    1
   21    20    22    1
   22    20    23    1
   23    23    24    1
   24    23    25    1
   25    23    26    1
@<TRIPOS>SUBSTRUCTURE
       1 MOL1            1 RESIDUE      1      MOL     
@<SCITEGIC>MOL_PROPERTY
VM2 Rank
SciTegic.value.IntegerValue
1

@<SCITEGIC>MOL_PROPERTY
Conf_Id
SciTegic.value.IntegerValue
316

@<SCITEGIC>MOL_PROPERTY
Probability
SciTegic.value.DoubleValue
7.45

@<SCITEGIC>MOL_PROPERTY
Sum Probability
SciTegic.value.DoubleValue
7.45

@<SCITEGIC>MOL_PROPERTY
Delta G
SciTegic.value.DoubleValue
0.000

@<SCITEGIC>MOL_PROPERTY
G
SciTegic.value.DoubleValue
48.261

@<SCITEGIC>MOL_PROPERTY
E
SciTegic.value.DoubleValue
15.909

@<SCITEGIC>MOL_PROPERTY
-TS
SciTegic.value.DoubleValue
32.352

@<SCITEGIC>MOL_PROPERTY
U+W
SciTegic.value.DoubleValue
-5.553

@<SCITEGIC>MOL_PROPERTY
U
SciTegic.value.DoubleValue
47.192

@<SCITEGIC>MOL_PROPERTY
W
SciTegic.value.DoubleValue
-52.744

@<SCITEGIC>MOL_PROPERTY
W(PB)
SciTegic.value.DoubleValue
-55.135

@<SCITEGIC>MOL_PROPERTY
W(SA)
SciTegic.value.DoubleValue
2.391

@<SCITEGIC>MOL_PROPERTY
Valence
SciTegic.value.DoubleValue
2.156

@<SCITEGIC>MOL_PROPERTY
Coulomb
SciTegic.value.DoubleValue
44.449

@<SCITEGIC>MOL_PROPERTY
VdW
SciTegic.value.DoubleValue
0.587

@<SCITEGIC>MOL_PROPERTY
VdW6
SciTegic.value.DoubleValue
-5.761

@<SCITEGIC>MOL_PROPERTY
VdW12
SciTegic.value.DoubleValue
6.348

@<SCITEGIC>MOL_PROPERTY
Bond
SciTegic.value.DoubleValue
0.129

@<SCITEGIC>MOL_PROPERTY
Angle
SciTegic.value.DoubleValue
0.393

@<SCITEGIC>MOL_PROPERTY
Pdih
SciTegic.value.DoubleValue
1.634

@<SCITEGIC>MOL_PROPERTY
Idih
SciTegic.value.DoubleValue
0.000

@<SCITEGIC>MOL_PROPERTY
Tether
SciTegic.value.DoubleValue
0.000

@<TRIPOS>MOLECULE
guest-s14_vm2.mol2 : vm2 ligand conformer 2
          26          25           1
SMALL
USER_CHARGES
 
@<TRIPOS>ATOM
       1    C1      20.140804   19.649892   19.000844 C.3        1 MOL1        -0.2400
       2    H1      19.134736   20.085336   18.942032 H          1 MOL1         0.0971
       3    H2      20.862085   20.469640   19.114896 H          1 MOL1         0.0971
       4    H3      20.347700   19.149431   18.045971 H          1 MOL1         0.0971
       5    C2      20.245561   18.651602   20.173266 C.3        1 MOL1        -0.1385
       6    H4      21.251011   18.207932   20.185546 H          1 MOL1         0.0960
       7    H5      19.536981   17.826685   20.014040 H          1 MOL1         0.0960
       8    C3      19.958635   19.331014   21.530603 C.3        1 MOL1        -0.1409
       9    H6      20.667835   20.156176   21.684106 H          1 MOL1         0.0960
      10    H7      18.953625   19.774944   21.512662 H          1 MOL1         0.0960
      11    C4      20.062481   18.334331   22.707151 C.3        1 MOL1        -0.1409
      12    H8      21.067770   17.890930   22.724541 H          1 MOL1         0.0960
      13    H9      19.353638   17.509142   22.551933 H          1 MOL1         0.0960
      14    C5      19.774803   19.014235   24.064872 C.3        1 MOL1        -0.1409
      15    H10     20.482642   19.840815   24.212421 H          1 MOL1         0.0960
      16    H11     18.768302   19.455098   24.048376 H          1 MOL1         0.0960
      17    C6      19.880080   18.015076   25.241275 C.3        1 MOL1        -0.1450
      18    H12     20.892248   17.591403   25.286104 H          1 MOL1         0.0960
      19    H13     19.195874   17.174075   25.066460 H          1 MOL1         0.0960
      20    C7      19.529509   18.654435   26.598733 C.3        1 MOL1         0.0172
      21    H14     18.524421   19.082609   26.555380 H          1 MOL1         0.0934
      22    H15     19.538967   17.884757   27.375312 H          1 MOL1         0.0934
      23    N1      20.489129   19.748416   27.024255 N.4        1 MOL1        -0.5956
      24    H16     20.235504   20.143698   27.936270 H          1 MOL1         0.3624
      25    H17     20.502127   20.523822   26.354544 H          1 MOL1         0.3624
      26    H18     21.450398   19.401395   27.105354 H          1 MOL1         0.3624
@<TRIPOS>BOND
    1     1     2    1
    2     1     3    1
    3     1     4    1
    4     1     5    1
    5     5     6    1
    6     5     7    1
    7     5     8    1
    8     8     9    1
    9     8    10    1
   10     8    11    1
   11    11    12    1
   12    11    13    1
   13    11    14    1
   14    14    15    1
   15    14    16    1
   16    14    17    1
   17    17    18    1
   18    17    19    1
   19    17    20    1
   20    20    21    1
   21    20    22    1
   22    20    23    1
   23    23    24    1
   24    23    25    1
   25    23    26    1
@<TRIPOS>SUBSTRUCTURE
       1 MOL1            1 RESIDUE      1      MOL     
@<SCITEGIC>MOL_PROPERTY
VM2 Rank
SciTegic.value.IntegerValue
2

@<SCITEGIC>MOL_PROPERTY
Conf_Id
SciTegic.value.IntegerValue
307

@<SCITEGIC>MOL_PROPERTY
Probability
SciTegic.value.DoubleValue
4.91

@<SCITEGIC>MOL_PROPERTY
Sum Probability
SciTegic.value.DoubleValue
12.36

@<SCITEGIC>MOL_PROPERTY
Delta G
SciTegic.value.DoubleValue
0.248

@<SCITEGIC>MOL_PROPERTY
G
SciTegic.value.DoubleValue
48.509

@<SCITEGIC>MOL_PROPERTY
E
SciTegic.value.DoubleValue
16.054

@<SCITEGIC>MOL_PROPERTY
-TS
SciTegic.value.DoubleValue
32.455

@<SCITEGIC>MOL_PROPERTY
U+W
SciTegic.value.DoubleValue
-5.408

@<SCITEGIC>MOL_PROPERTY
U
SciTegic.value.DoubleValue
47.845

@<SCITEGIC>MOL_PROPERTY
W
SciTegic.value.DoubleValue
-53.253

@<SCITEGIC>MOL_PROPERTY
W(PB)
SciTegic.value.DoubleValue
-55.604

@<SCITEGIC>MOL_PROPERTY
W(SA)
SciTegic.value.DoubleValue
2.351

@<SCITEGIC>MOL_PROPERTY
Valence
SciTegic.value.DoubleValue
2.258

@<SCITEGIC>MOL_PROPERTY
Coulomb
SciTegic.value.DoubleValue
44.894

@<SCITEGIC>MOL_PROPERTY
VdW
SciTegic.value.DoubleValue
0.694

@<SCITEGIC>MOL_PROPERTY
VdW6
SciTegic.value.DoubleValue
-6.285

@<SCITEGIC>MOL_PROPERTY
VdW12
SciTegic.value.DoubleValue
6.979

@<SCITEGIC>MOL_PROPERTY
Bond
SciTegic.value.DoubleValue
0.149

@<SCITEGIC>MOL_PROPERTY
Angle
SciTegic.value.DoubleValue
0.434

@<SCITEGIC>MOL_PROPERTY
Pdih
SciTegic.value.DoubleValue
1.675

@<SCITEGIC>MOL_PROPERTY
Idih
SciTegic.value.DoubleValue
0.000

@<SCITEGIC>MOL_PROPERTY
Tether
SciTegic.value.DoubleValue
0.000

@<TRIPOS>MOLECULE
guest-s14_vm2.mol2 : vm2 ligand conformer 3
          26          25           1
SMALL
USER_CHARGES
 
@<TRIPOS>ATOM
       1    C1      19.492599   19.222356   18.979170 C.3        1 MOL1        -0.2400
       2    H1      18.451232   18.879194   19.034250 H          1 MOL1         0.0971
       3    H2      19.490091   20.319900   18.953989 H          1 MOL1         0.0971
       4    H3      19.915620   18.864538   18.031505 H          1 MOL1         0.0971
       5    C2      20.313944   18.696763   20.175529 C.3        1 MOL1        -0.1385
       6    H4      21.357191   19.027574   20.074898 H          1 MOL1         0.0960
       7    H5      20.326379   17.597976   20.154553 H          1 MOL1         0.0960
       8    C3      19.739220   19.186252   21.523262 C.3        1 MOL1        -0.1409
       9    H6      19.726674   20.284909   21.538563 H          1 MOL1         0.0960
      10    H7      18.695758   18.855180   21.618124 H          1 MOL1         0.0960
      11    C4      20.559214   18.661958   22.723742 C.3        1 MOL1        -0.1409
      12    H8      21.602657   18.992677   22.627104 H          1 MOL1         0.0960
      13    H9      20.571119   17.563267   22.707906 H          1 MOL1         0.0960
      14    C5      19.984395   19.152423   24.071876 C.3        1 MOL1        -0.1409
      15    H10     19.975210   20.251199   24.088713 H          1 MOL1         0.0960
      16    H11     18.940441   18.823370   24.160897 H          1 MOL1         0.0960
      17    C6      20.806170   18.625912   25.272208 C.3        1 MOL1        -0.1450
      18    H12     21.855385   18.928312   25.155241 H          1 MOL1         0.0960
      19    H13     20.795930   17.527835   25.282936 H          1 MOL1         0.0960
      20    C7      20.293416   19.158326   26.624240 C.3        1 MOL1         0.0172
      21    H14     20.960587   18.822496   27.422780 H          1 MOL1         0.0934
      22    H15     20.296712   20.251627   26.614519 H          1 MOL1         0.0934
      23    N1      18.892042   18.695010   26.970974 N.4        1 MOL1        -0.5956
      24    H16     18.829645   17.672785   27.017898 H          1 MOL1         0.3624
      25    H17     18.205813   19.009230   26.277943 H          1 MOL1         0.3624
      26    H18     18.586155   19.055801   27.881253 H          1 MOL1         0.3624
@<TRIPOS>BOND
    1     1     2    1
    2     1     3    1
    3     1     4    1
    4     1     5    1
    5     5     6    1
    6     5     7    1
    7     5     8    1
    8     8     9    1
    9     8    10    1
   10     8    11    1
   11    11    12    1
   12    11    13    1
   13    11    14    1
   14    14    15    1
   15    14    16    1
   16    14    17    1
   17    17    18    1
   18    17    19    1
   19    17    20    1
   20    20    21    1
   21    20    22    1
   22    20    23    1
   23    23    24    1
   24    23    25    1
   25    23    26    1
@<TRIPOS>SUBSTRUCTURE
       1 MOL1            1 RESIDUE      1      MOL     
@<SCITEGIC>MOL_PROPERTY
VM2 Rank
SciTegic.value.IntegerValue
3

@<SCITEGIC>MOL_PROPERTY
Conf_Id
SciTegic.value.IntegerValue
1319

@<SCITEGIC>MOL_PROPERTY
Probability
SciTegic.value.DoubleValue
4.78

@<SCITEGIC>MOL_PROPERTY
Sum Probability
SciTegic.value.DoubleValue
17.14

@<SCITEGIC>MOL_PROPERTY
Delta G
SciTegic.value.DoubleValue
0.265

@<SCITEGIC>MOL_PROPERTY
G
SciTegic.value.DoubleValue
48.526

@<SCITEGIC>MOL_PROPERTY
E
SciTegic.value.DoubleValue
16.071

@<SCITEGIC>MOL_PROPERTY
-TS
SciTegic.value.DoubleValue
32.455

@<SCITEGIC>MOL_PROPERTY
U+W
SciTegic.value.DoubleValue
-5.391

@<SCITEGIC>MOL_PROPERTY
U
SciTegic.value.DoubleValue
47.845

@<SCITEGIC>MOL_PROPERTY
W
SciTegic.value.DoubleValue
-53.236

@<SCITEGIC>MOL_PROPERTY
W(PB)
SciTegic.value.DoubleValue
-55.585

@<SCITEGIC>MOL_PROPERTY
W(SA)
SciTegic.value.DoubleValue
2.349

@<SCITEGIC>MOL_PROPERTY
Valence
SciTegic.value.DoubleValue
2.258

@<SCITEGIC>MOL_PROPERTY
Coulomb
SciTegic.value.DoubleValue
44.893

@<SCITEGIC>MOL_PROPERTY
VdW
SciTegic.value.DoubleValue
0.694

@<SCITEGIC>MOL_PROPERTY
VdW6
SciTegic.value.DoubleValue
-6.285

@<SCITEGIC>MOL_PROPERTY
VdW12
SciTegic.value.DoubleValue
6.979

@<SCITEGIC>MOL_PROPERTY
Bond
SciTegic.value.DoubleValue
0.149

@<SCITEGIC>MOL_PROPERTY
Angle
SciTegic.value.DoubleValue
0.434

@<SCITEGIC>MOL_PROPERTY
Pdih
SciTegic.value.DoubleValue
1.675

@<SCITEGIC>MOL_PROPERTY
Idih
SciTegic.value.DoubleValue
0.000

@<SCITEGIC>MOL_PROPERTY
Tether
SciTegic.value.DoubleValue
0.000

@<TRIPOS>MOLECULE
guest-s14_vm2.mol2 : vm2 ligand conformer 4
          26          25           1
SMALL
USER_CHARGES
 
@<TRIPOS>ATOM
       1    C1      19.768724   18.853296   18.989688 C.3        1 MOL1        -0.2400
       2    H1      20.547479   19.574913   18.710306 H          1 MOL1         0.0971
       3    H2      19.777757   18.043858   18.248221 H          1 MOL1         0.0971
       4    H3      18.795940   19.358108   18.925666 H          1 MOL1         0.0971
       5    C2      20.012141   18.295770   20.408146 C.3        1 MOL1        -0.1385
       6    H4      20.975916   17.768042   20.431968 H          1 MOL1         0.0960
       7    H5      19.237887   17.552730   20.645510 H          1 MOL1         0.0960
       8    C3      20.004245   19.415662   21.472170 C.3        1 MOL1        -0.1409
       9    H6      20.777793   20.157131   21.228697 H          1 MOL1         0.0960
      10    H7      19.039795   19.941453   21.443329 H          1 MOL1         0.0960
      11    C4      20.248111   18.861356   22.894017 C.3        1 MOL1        -0.1409
      12    H8      21.214053   18.338306   22.922151 H          1 MOL1         0.0960
      13    H9      19.475533   18.116688   23.127815 H          1 MOL1         0.0960
      14    C5      20.238074   19.985319   23.957795 C.3        1 MOL1        -0.1409
      15    H10     20.981208   20.747432   23.685086 H          1 MOL1         0.0960
      16    H11     19.261455   20.489154   23.955853 H          1 MOL1         0.0960
      17    C6      20.552014   19.474712   25.383736 C.3        1 MOL1        -0.1450
      18    H12     20.614435   20.334306   26.064288 H          1 MOL1         0.0960
      19    H13     21.538842   18.992985   25.394342 H          1 MOL1         0.0960
      20    C7      19.490079   18.491597   25.911128 C.3        1 MOL1         0.0172
      21    H14     18.507701   18.971428   25.901833 H          1 MOL1         0.0934
      22    H15     19.449043   17.609854   25.266521 H          1 MOL1         0.0934
      23    N1      19.767613   18.021287   27.324320 N.4        1 MOL1        -0.5956
      24    H16     19.791414   18.801593   27.988985 H          1 MOL1         0.3624
      25    H17     20.668185   17.536453   27.395826 H          1 MOL1         0.3624
      26    H18     19.049643   17.368175   27.656532 H          1 MOL1         0.3624
@<TRIPOS>BOND
    1     1     2    1
    2     1     3    1
    3     1     4    1
    4     1     5    1
    5     5     6    1
    6     5     7    1
    7     5     8    1
    8     8     9    1
    9     8    10    1
   10     8    11    1
   11    11    12    1
   12    11    13    1
   13    11    14    1
   14    14    15    1
   15    14    16    1
   16    14    17    1
   17    17    18    1
   18    17    19    1
   19    17    20    1
   20    20    21    1
   21    20    22    1
   22    20    23    1
   23    23    24    1
   24    23    25    1
   25    23    26    1
@<TRIPOS>SUBSTRUCTURE
       1 MOL1            1 RESIDUE      1      MOL     
@<SCITEGIC>MOL_PROPERTY
VM2 Rank
SciTegic.value.IntegerValue
4

@<SCITEGIC>MOL_PROPERTY
Conf_Id
SciTegic.value.IntegerValue
1012

@<SCITEGIC>MOL_PROPERTY
Probability
SciTegic.value.DoubleValue
3.39

@<SCITEGIC>MOL_PROPERTY
Sum Probability
SciTegic.value.DoubleValue
20.53

@<SCITEGIC>MOL_PROPERTY
Delta G
SciTegic.value.DoubleValue
0.469

@<SCITEGIC>MOL_PROPERTY
G
SciTegic.value.DoubleValue
48.731

@<SCITEGIC>MOL_PROPERTY
E
SciTegic.value.DoubleValue
16.280

@<SCITEGIC>MOL_PROPERTY
-TS
SciTegic.value.DoubleValue
32.451

@<SCITEGIC>MOL_PROPERTY
U+W
SciTegic.value.DoubleValue
-5.182

@<SCITEGIC>MOL_PROPERTY
U
SciTegic.value.DoubleValue
48.002

@<SCITEGIC>MOL_PROPERTY
W
SciTegic.value.DoubleValue
-53.184

@<SCITEGIC>MOL_PROPERTY
W(PB)
SciTegic.value.DoubleValue
-55.534

@<SCITEGIC>MOL_PROPERTY
W(SA)
SciTegic.value.DoubleValue
2.350

@<SCITEGIC>MOL_PROPERTY
Valence
SciTegic.value.DoubleValue
2.459

@<SCITEGIC>MOL_PROPERTY
Coulomb
SciTegic.value.DoubleValue
44.901

@<SCITEGIC>MOL_PROPERTY
VdW
SciTegic.value.DoubleValue
0.643

@<SCITEGIC>MOL_PROPERTY
VdW6
SciTegic.value.DoubleValue
-6.362

@<SCITEGIC>MOL_PROPERTY
VdW12
SciTegic.value.DoubleValue
7.005

@<SCITEGIC>MOL_PROPERTY
Bond
SciTegic.value.DoubleValue
0.151

@<SCITEGIC>MOL_PROPERTY
Angle
SciTegic.value.DoubleValue
0.519

@<SCITEGIC>MOL_PROPERTY
Pdih
SciTegic.value.DoubleValue
1.789

@<SCITEGIC>MOL_PROPERTY
Idih
SciTegic.value.DoubleValue
0.000

@<SCITEGIC>MOL_PROPERTY
Tether
SciTegic.value.DoubleValue
0.000

@<TRIPOS>MOLECULE
guest-s14_vm2.mol2 : vm2 ligand conformer 5
          26          25           1
SMALL
USER_CHARGES
 
@<TRIPOS>ATOM
       1    C1      20.370998   19.251000   19.009883 C.3        1 MOL1        -0.2400
       2    H1      20.293054   20.345545   18.976122 H          1 MOL1         0.0971
       3    H2      21.145181   18.946068   18.293850 H          1 MOL1         0.0971
       4    H3      19.415088   18.829555   18.672445 H          1 MOL1         0.0971
       5    C2      20.721219   18.763360   20.431734 C.3        1 MOL1        -0.1385
       6    H4      21.696932   19.173609   20.727706 H          1 MOL1         0.0960
       7    H5      20.825725   17.669296   20.426464 H          1 MOL1         0.0960
       8    C3      19.646431   19.179701   21.460257 C.3        1 MOL1        -0.1409
       9    H6      19.544026   20.273760   21.460450 H          1 MOL1         0.0960
      10    H7      18.672775   18.769468   21.158374 H          1 MOL1         0.0960
      11    C4      19.993512   18.693110   22.885438 C.3        1 MOL1        -0.1409
      12    H8      20.970046   19.101730   23.177800 H          1 MOL1         0.0960
      13    H9      20.093129   17.598809   22.884366 H          1 MOL1         0.0960
      14    C5      18.915619   19.112702   23.913596 C.3        1 MOL1        -0.1409
      15    H10     18.836280   20.208402   23.941588 H          1 MOL1         0.0960
      16    H11     17.936529   18.738798   23.583425 H          1 MOL1         0.0960
      17    C6      19.195154   18.579424   25.338395 C.3        1 MOL1        -0.1450
      18    H12     19.249980   17.482803   25.317900 H          1 MOL1         0.0960
      19    H13     18.349355   18.839838   25.988593 H          1 MOL1         0.0960
      20    C7      20.490407   19.151512   25.944529 C.3        1 MOL1         0.0172
      21    H14     21.346518   18.861476   25.330017 H          1 MOL1         0.0934
      22    H15     20.435583   20.243266   25.966003 H          1 MOL1         0.0934
      23    N1      20.747660   18.668191   27.357167 N.4        1 MOL1        -0.5956
      24    H16     20.836269   17.647717   27.401766 H          1 MOL1         0.3624
      25    H17     19.990559   18.933505   27.995625 H          1 MOL1         0.3624
      26    H18     21.613885   19.060276   27.742298 H          1 MOL1         0.3624
@<TRIPOS>BOND
    1     1     2    1
    2     1     3    1
    3     1     4    1
    4     1     5    1
    5     5     6    1
    6     5     7    1
    7     5     8    1
    8     8     9    1
    9     8    10    1
   10     8    11    1
   11    11    12    1
   12    11    13    1
   13    11    14    1
   14    14    15    1
   15    14    16    1
   16    14    17    1
   17    17    18    1
   18    17    19    1
   19    17    20    1
   20    20    21    1
   21    20    22    1
   22    20    23    1
   23    23    24    1
   24    23    25    1
   25    23    26    1
@<TRIPOS>SUBSTRUCTURE
       1 MOL1            1 RESIDUE      1      MOL     
@<SCITEGIC>MOL_PROPERTY
VM2 Rank
SciTegic.value.IntegerValue
5

@<SCITEGIC>MOL_PROPERTY
Conf_Id
SciTegic.value.IntegerValue
904

@<SCITEGIC>MOL_PROPERTY
Probability
SciTegic.value.DoubleValue
3.37

@<SCITEGIC>MOL_PROPERTY
Sum Probability
SciTegic.value.DoubleValue
23.90

@<SCITEGIC>MOL_PROPERTY
Delta G
SciTegic.value.DoubleValue
0.473

@<SCITEGIC>MOL_PROPERTY
G
SciTegic.value.DoubleValue
48.734

@<SCITEGIC>MOL_PROPERTY
E
SciTegic.value.DoubleValue
16.283

@<SCITEGIC>MOL_PROPERTY
-TS
SciTegic.value.DoubleValue
32.451

@<SCITEGIC>MOL_PROPERTY
U+W
SciTegic.value.DoubleValue
-5.179

@<SCITEGIC>MOL_PROPERTY
U
SciTegic.value.DoubleValue
48.002

@<SCITEGIC>MOL_PROPERTY
W
SciTegic.value.DoubleValue
-53.180

@<SCITEGIC>MOL_PROPERTY
W(PB)
SciTegic.value.DoubleValue
-55.522

@<SCITEGIC>MOL_PROPERTY
W(SA)
SciTegic.value.DoubleValue
2.341

@<SCITEGIC>MOL_PROPERTY
Valence
SciTegic.value.DoubleValue
2.459

@<SCITEGIC>MOL_PROPERTY
Coulomb
SciTegic.value.DoubleValue
44.900

@<SCITEGIC>MOL_PROPERTY
VdW
SciTegic.value.DoubleValue
0.643

@<SCITEGIC>MOL_PROPERTY
VdW6
SciTegic.value.DoubleValue
-6.362

@<SCITEGIC>MOL_PROPERTY
VdW12
SciTegic.value.DoubleValue
7.005

@<SCITEGIC>MOL_PROPERTY
Bond
SciTegic.value.DoubleValue
0.151

@<SCITEGIC>MOL_PROPERTY
Angle
SciTegic.value.DoubleValue
0.519

@<SCITEGIC>MOL_PROPERTY
Pdih
SciTegic.value.DoubleValue
1.789

@<SCITEGIC>MOL_PROPERTY
Idih
SciTegic.value.DoubleValue
0.000

@<SCITEGIC>MOL_PROPERTY
Tether
SciTegic.value.DoubleValue
0.000

@<TRIPOS>MOLECULE
guest-s14_vm2.mol2 : vm2 ligand conformer 6
          26          25           1
SMALL
USER_CHARGES
 
@<TRIPOS>ATOM
       1    C1      19.444968   18.162048   19.524263 C.3        1 MOL1        -0.2400
       2    H1      19.410815   17.284126   20.181169 H          1 MOL1         0.0971
       3    H2      18.448959   18.623439   19.513728 H          1 MOL1         0.0971
       4    H3      19.660490   17.805607   18.508666 H          1 MOL1         0.0971
       5    C2      20.520890   19.172697   19.982258 C.3        1 MOL1        -0.1385
       6    H4      20.601095   19.969586   19.229704 H          1 MOL1         0.0960
       7    H5      21.502339   18.679172   20.013044 H          1 MOL1         0.0960
       8    C3      20.215304   19.816436   21.356277 C.3        1 MOL1        -0.1409
       9    H6      20.964869   20.596087   21.550247 H          1 MOL1         0.0960
      10    H7      19.242899   20.326267   21.314249 H          1 MOL1         0.0960
      11    C4      20.224154   18.804483   22.527101 C.3        1 MOL1        -0.1409
      12    H8      21.178471   18.259991   22.533911 H          1 MOL1         0.0960
      13    H9      19.431769   18.058464   22.382154 H          1 MOL1         0.0960
      14    C5      20.018449   19.503000   23.890365 C.3        1 MOL1        -0.1409
      15    H10     20.811668   20.247557   24.045866 H          1 MOL1         0.0960
      16    H11     19.065651   20.050628   23.882314 H          1 MOL1         0.0960
      17    C6      20.022971   18.494984   25.060681 C.3        1 MOL1        -0.1450
      18    H12     20.975667   17.948839   25.074775 H          1 MOL1         0.0960
      19    H13     19.227649   17.752300   24.912411 H          1 MOL1         0.0960
      20    C7      19.817965   19.200959   26.412567 C.3        1 MOL1         0.0172
      21    H14     20.617041   19.930003   26.572094 H          1 MOL1         0.0934
      22    H15     18.862660   19.732804   26.409044 H          1 MOL1         0.0934
      23    N1      19.816300   18.244392   27.587487 N.4        1 MOL1        -0.5956
      24    H16     19.068069   17.547472   27.511957 H          1 MOL1         0.3624
      25    H17     19.678455   18.734944   28.477891 H          1 MOL1         0.3624
      26    H18     20.700501   17.730928   27.663615 H          1 MOL1         0.3624
@<TRIPOS>BOND
    1     1     2    1
    2     1     3    1
    3     1     4    1
    4     1     5    1
    5     5     6    1
    6     5     7    1
    7     5     8    1
    8     8     9    1
    9     8    10    1
   10     8    11    1
   11    11    12    1
   12    11    13    1
   13    11    14    1
   14    14    15    1
   15    14    16    1
   16    14    17    1
   17    17    18    1
   18    17    19    1
   19    17    20    1
   20    20    21    1
   21    20    22    1
   22    20    23    1
   23    23    24    1
   24    23    25    1
   25    23    26    1
@<TRIPOS>SUBSTRUCTURE
       1 MOL1            1 RESIDUE      1      MOL     
@<SCITEGIC>MOL_PROPERTY
VM2 Rank
SciTegic.value.IntegerValue
6

@<SCITEGIC>MOL_PROPERTY
Conf_Id
SciTegic.value.IntegerValue
1286

@<SCITEGIC>MOL_PROPERTY
Probability
SciTegic.value.DoubleValue
2.75

@<SCITEGIC>MOL_PROPERTY
Sum Probability
SciTegic.value.DoubleValue
26.65

@<SCITEGIC>MOL_PROPERTY
Delta G
SciTegic.value.DoubleValue
0.593

@<SCITEGIC>MOL_PROPERTY
G
SciTegic.value.DoubleValue
48.855

@<SCITEGIC>MOL_PROPERTY
E
SciTegic.value.DoubleValue
16.392

@<SCITEGIC>MOL_PROPERTY
-TS
SciTegic.value.DoubleValue
32.463

@<SCITEGIC>MOL_PROPERTY
U+W
SciTegic.value.DoubleValue
-5.070

@<SCITEGIC>MOL_PROPERTY
U
SciTegic.value.DoubleValue
47.845

@<SCITEGIC>MOL_PROPERTY
W
SciTegic.value.DoubleValue
-52.915

@<SCITEGIC>MOL_PROPERTY
W(PB)
SciTegic.value.DoubleValue
-55.277

@<SCITEGIC>MOL_PROPERTY
W(SA)
SciTegic.value.DoubleValue
2.362

@<SCITEGIC>MOL_PROPERTY
Valence
SciTegic.value.DoubleValue
2.661

@<SCITEGIC>MOL_PROPERTY
Coulomb
SciTegic.value.DoubleValue
44.462

@<SCITEGIC>MOL_PROPERTY
VdW
SciTegic.value.DoubleValue
0.723

@<SCITEGIC>MOL_PROPERTY
VdW6
SciTegic.value.DoubleValue
-6.379

@<SCITEGIC>MOL_PROPERTY
VdW12
SciTegic.value.DoubleValue
7.102

@<SCITEGIC>MOL_PROPERTY
Bond
SciTegic.value.DoubleValue
0.164

@<SCITEGIC>MOL_PROPERTY
Angle
SciTegic.value.DoubleValue
0.634

@<SCITEGIC>MOL_PROPERTY
Pdih
SciTegic.value.DoubleValue
1.863

@<SCITEGIC>MOL_PROPERTY
Idih
SciTegic.value.DoubleValue
0.000

@<SCITEGIC>MOL_PROPERTY
Tether
SciTegic.value.DoubleValue
0.000

@<TRIPOS>MOLECULE
guest-s14_vm2.mol2 : vm2 ligand conformer 7
          26          25           1
SMALL
USER_CHARGES
 
@<TRIPOS>ATOM
       1    C1      21.108144   19.258560   19.579855 C.3        1 MOL1        -0.2400
       2    H1      21.398018   18.951294   18.566692 H          1 MOL1         0.0971
       3    H2      21.076335   20.355619   19.601679 H          1 MOL1         0.0971
       4    H3      21.897268   18.923296   20.264196 H          1 MOL1         0.0971
       5    C2      19.735874   18.655118   19.956030 C.3        1 MOL1        -0.1385
       6    H4      19.802018   17.558130   19.956223 H          1 MOL1         0.0960
       7    H5      19.007544   18.918939   19.176457 H          1 MOL1         0.0960
       8    C3      19.200795   19.147552   21.322380 C.3        1 MOL1        -0.1409
       9    H6      19.116527   20.243002   21.309990 H          1 MOL1         0.0960
      10    H7      18.181251   18.760690   21.457278 H          1 MOL1         0.0960
      11    C4      20.072270   18.704428   22.522018 C.3        1 MOL1        -0.1409
      12    H8      21.075410   19.142522   22.437088 H          1 MOL1         0.0960
      13    H9      20.197264   17.613019   22.501071 H          1 MOL1         0.0960
      14    C5      19.448034   19.126885   23.871313 C.3        1 MOL1        -0.1409
      15    H10     19.319593   20.218170   23.890844 H          1 MOL1         0.0960
      16    H11     18.445430   18.687098   23.966799 H          1 MOL1         0.0960
      17    C6      20.317648   18.689346   25.070516 C.3        1 MOL1        -0.1450
      18    H12     21.319027   19.131564   24.982287 H          1 MOL1         0.0960
      19    H13     20.444472   17.598551   25.056981 H          1 MOL1         0.0960
      20    C7      19.686841   19.114455   26.408196 C.3        1 MOL1         0.0172
      21    H14     19.573735   20.201687   26.432878 H          1 MOL1         0.0934
      22    H15     18.695970   18.663110   26.507890 H          1 MOL1         0.0934
      23    N1      20.511393   18.702656   27.610691 N.4        1 MOL1        -0.5956
      24    H16     21.448885   19.117376   27.591502 H          1 MOL1         0.3624
      25    H17     20.632154   17.685742   27.661242 H          1 MOL1         0.3624
      26    H18     20.073555   18.995319   28.491093 H          1 MOL1         0.3624
@<TRIPOS>BOND
    1     1     2    1
    2     1     3    1
    3     1     4    1
    4     1     5    1
    5     5     6    1
    6     5     7    1
    7     5     8    1
    8     8     9    1
    9     8    10    1
   10     8    11    1
   11    11    12    1
   12    11    13    1
   13    11    14    1
   14    14    15    1
   15    14    16    1
   16    14    17    1
   17    17    18    1
   18    17    19    1
   19    17    20    1
   20    20    21    1
   21    20    22    1
   22    20    23    1
   23    23    24    1
   24    23    25    1
   25    23    26    1
@<TRIPOS>SUBSTRUCTURE
       1 MOL1            1 RESIDUE      1      MOL     
@<SCITEGIC>MOL_PROPERTY
VM2 Rank
SciTegic.value.IntegerValue
7

@<SCITEGIC>MOL_PROPERTY
Conf_Id
SciTegic.value.IntegerValue
1287

@<SCITEGIC>MOL_PROPERTY
Probability
SciTegic.value.DoubleValue
2.58

@<SCITEGIC>MOL_PROPERTY
Sum Probability
SciTegic.value.DoubleValue
29.23

@<SCITEGIC>MOL_PROPERTY
Delta G
SciTegic.value.DoubleValue
0.633

@<SCITEGIC>MOL_PROPERTY
G
SciTegic.value.DoubleValue
48.894

@<SCITEGIC>MOL_PROPERTY
E
SciTegic.value.DoubleValue
16.431

@<SCITEGIC>MOL_PROPERTY
-TS
SciTegic.value.DoubleValue
32.463

@<SCITEGIC>MOL_PROPERTY
U+W
SciTegic.value.DoubleValue
-5.031

@<SCITEGIC>MOL_PROPERTY
U
SciTegic.value.DoubleValue
47.845

@<SCITEGIC>MOL_PROPERTY
W
SciTegic.value.DoubleValue
-52.876

@<SCITEGIC>MOL_PROPERTY
W(PB)
SciTegic.value.DoubleValue
-55.227

@<SCITEGIC>MOL_PROPERTY
W(SA)
SciTegic.value.DoubleValue
2.352

@<SCITEGIC>MOL_PROPERTY
Valence
SciTegic.value.DoubleValue
2.661

@<SCITEGIC>MOL_PROPERTY
Coulomb
SciTegic.value.DoubleValue
44.462

@<SCITEGIC>MOL_PROPERTY
VdW
SciTegic.value.DoubleValue
0.723

@<SCITEGIC>MOL_PROPERTY
VdW6
SciTegic.value.DoubleValue
-6.379

@<SCITEGIC>MOL_PROPERTY
VdW12
SciTegic.value.DoubleValue
7.102

@<SCITEGIC>MOL_PROPERTY
Bond
SciTegic.value.DoubleValue
0.164

@<SCITEGIC>MOL_PROPERTY
Angle
SciTegic.value.DoubleValue
0.634

@<SCITEGIC>MOL_PROPERTY
Pdih
SciTegic.value.DoubleValue
1.863

@<SCITEGIC>MOL_PROPERTY
Idih
SciTegic.value.DoubleValue
0.000

@<SCITEGIC>MOL_PROPERTY
Tether
SciTegic.value.DoubleValue
0.000

@<TRIPOS>MOLECULE
guest-s14_vm2.mol2 : vm2 ligand conformer 8
          26          25           1
SMALL
USER_CHARGES
 
@<TRIPOS>ATOM
       1    C1      20.186102   19.782813   19.189228 C.3        1 MOL1        -0.2400
       2    H1      20.215331   18.901474   18.535305 H          1 MOL1         0.0971
       3    H2      19.186422   20.230498   19.115322 H          1 MOL1         0.0971
       4    H3      20.911130   20.511695   18.804385 H          1 MOL1         0.0971
       5    C2      20.517035   19.403211   20.648227 C.3        1 MOL1        -0.1385
       6    H4      20.518331   20.314142   21.261291 H          1 MOL1         0.0960
       7    H5      21.532645   18.985952   20.694466 H          1 MOL1         0.0960
       8    C3      19.505075   18.379076   21.214261 C.3        1 MOL1        -0.1409
       9    H6      18.497234   18.816688   21.216843 H          1 MOL1         0.0960
      10    H7      19.462142   17.511223   20.541699 H          1 MOL1         0.0960
      11    C4      19.857910   17.879590   22.636911 C.3        1 MOL1        -0.1409
      12    H8      20.859674   17.428193   22.630000 H          1 MOL1         0.0960
      13    H9      19.159238   17.075180   22.905565 H          1 MOL1         0.0960
      14    C5      19.790596   18.986773   23.716311 C.3        1 MOL1        -0.1409
      15    H10     20.537421   19.763401   23.505082 H          1 MOL1         0.0960
      16    H11     18.805636   19.472927   23.683469 H          1 MOL1         0.0960
      17    C6      20.038437   18.422450   25.132641 C.3        1 MOL1        -0.1450
      18    H12     21.022679   17.936659   25.169934 H          1 MOL1         0.0960
      19    H13     19.289682   17.652129   25.360793 H          1 MOL1         0.0960
      20    C7      19.973585   19.529792   26.199259 C.3        1 MOL1         0.0172
      21    H14     20.728696   20.291212   25.985913 H          1 MOL1         0.0934
      22    H15     18.989355   20.005461   26.176730 H          1 MOL1         0.0934
      23    N1      20.212261   19.015295   27.604162 N.4        1 MOL1        -0.5956
      24    H16     20.164750   19.768604   28.298943 H          1 MOL1         0.3624
      25    H17     21.135180   18.579043   27.699825 H          1 MOL1         0.3624
      26    H18     19.516778   18.313227   27.877394 H          1 MOL1         0.3624
@<TRIPOS>BOND
    1     1     2    1
    2     1     3    1
    3     1     4    1
    4     1     5    1
    5     5     6    1
    6     5     7    1
    7     5     8    1
    8     8     9    1
    9     8    10    1
   10     8    11    1
   11    11    12    1
   12    11    13    1
   13    11    14    1
   14    14    15    1
   15    14    16    1
   16    14    17    1
   17    17    18    1
   18    17    19    1
   19    17    20    1
   20    20    21    1
   21    20    22    1
   22    20    23    1
   23    23    24    1
   24    23    25    1
   25    23    26    1
@<TRIPOS>SUBSTRUCTURE
       1 MOL1            1 RESIDUE      1      MOL     
@<SCITEGIC>MOL_PROPERTY
VM2 Rank
SciTegic.value.IntegerValue
8

@<SCITEGIC>MOL_PROPERTY
Conf_Id
SciTegic.value.IntegerValue
1256

@<SCITEGIC>MOL_PROPERTY
Probability
SciTegic.value.DoubleValue
2.45

@<SCITEGIC>MOL_PROPERTY
Sum Probability
SciTegic.value.DoubleValue
31.68

@<SCITEGIC>MOL_PROPERTY
Delta G
SciTegic.value.DoubleValue
0.663

@<SCITEGIC>MOL_PROPERTY
G
SciTegic.value.DoubleValue
48.924

@<SCITEGIC>MOL_PROPERTY
E
SciTegic.value.DoubleValue
16.474

@<SCITEGIC>MOL_PROPERTY
-TS
SciTegic.value.DoubleValue
32.451

@<SCITEGIC>MOL_PROPERTY
U+W
SciTegic.value.DoubleValue
-4.988

@<SCITEGIC>MOL_PROPERTY
U
SciTegic.value.DoubleValue
48.035

@<SCITEGIC>MOL_PROPERTY
W
SciTegic.value.DoubleValue
-53.023

@<SCITEGIC>MOL_PROPERTY
W(PB)
SciTegic.value.DoubleValue
-55.380

@<SCITEGIC>MOL_PROPERTY
W(SA)
SciTegic.value.DoubleValue
2.357

@<SCITEGIC>MOL_PROPERTY
Valence
SciTegic.value.DoubleValue
2.701

@<SCITEGIC>MOL_PROPERTY
Coulomb
SciTegic.value.DoubleValue
44.622

@<SCITEGIC>MOL_PROPERTY
VdW
SciTegic.value.DoubleValue
0.712

@<SCITEGIC>MOL_PROPERTY
VdW6
SciTegic.value.DoubleValue
-6.418

@<SCITEGIC>MOL_PROPERTY
VdW12
SciTegic.value.DoubleValue
7.129

@<SCITEGIC>MOL_PROPERTY
Bond
SciTegic.value.DoubleValue
0.168

@<SCITEGIC>MOL_PROPERTY
Angle
SciTegic.value.DoubleValue
0.659

@<SCITEGIC>MOL_PROPERTY
Pdih
SciTegic.value.DoubleValue
1.875

@<SCITEGIC>MOL_PROPERTY
Idih
SciTegic.value.DoubleValue
0.000

@<SCITEGIC>MOL_PROPERTY
Tether
SciTegic.value.DoubleValue
0.000

@<TRIPOS>MOLECULE
guest-s14_vm2.mol2 : vm2 ligand conformer 9
          26          25           1
SMALL
USER_CHARGES
 
@<TRIPOS>ATOM
       1    C1      20.845149   19.869630   19.433564 C.3        1 MOL1        -0.2400
       2    H1      21.019435   19.552532   18.397167 H          1 MOL1         0.0971
       3    H2      20.189127   20.749607   19.410920 H          1 MOL1         0.0971
       4    H3      21.810184   20.173378   19.859790 H          1 MOL1         0.0971
       5    C2      20.211347   18.726203   20.253985 C.3        1 MOL1        -0.1385
       6    H4      20.874203   17.849838   20.230729 H          1 MOL1         0.0960
       7    H5      19.266010   18.421264   19.783607 H          1 MOL1         0.0960
       8    C3      19.954461   19.146680   21.718122 C.3        1 MOL1        -0.1409
       9    H6      20.904212   19.457214   22.172743 H          1 MOL1         0.0960
      10    H7      19.289997   20.021547   21.736127 H          1 MOL1         0.0960
      11    C4      19.322566   17.999361   22.542586 C.3        1 MOL1        -0.1409
      12    H8      20.009200   17.142034   22.571885 H          1 MOL1         0.0960
      13    H9      18.414927   17.649840   22.031281 H          1 MOL1         0.0960
      14    C5      18.943563   18.409970   23.986809 C.3        1 MOL1        -0.1409
      15    H10     18.243280   19.256326   23.957414 H          1 MOL1         0.0960
      16    H11     18.400445   17.576916   24.454529 H          1 MOL1         0.0960
      17    C6      20.162232   18.771835   24.867991 C.3        1 MOL1        -0.1450
      18    H12     20.672427   19.655159   24.463834 H          1 MOL1         0.0960
      19    H13     20.885432   17.945551   24.856379 H          1 MOL1         0.0960
      20    C7      19.738073   19.059233   26.319048 C.3        1 MOL1         0.0172
      21    H14     19.030071   19.892218   26.337435 H          1 MOL1         0.0934
      22    H15     19.244526   18.178880   26.739583 H          1 MOL1         0.0934
      23    N1      20.903609   19.416088   27.218895 N.4        1 MOL1        -0.5956
      24    H16     21.395190   20.254868   26.893335 H          1 MOL1         0.3624
      25    H17     21.594858   18.660362   27.266712 H          1 MOL1         0.3624
      26    H18     20.598951   19.603076   28.180492 H          1 MOL1         0.3624
@<TRIPOS>BOND
    1     1     2    1
    2     1     3    1
    3     1     4    1
    4     1     5    1
    5     5     6    1
    6     5     7    1
    7     5     8    1
    8     8     9    1
    9     8    10    1
   10     8    11    1
   11    11    12    1
   12    11    13    1
   13    11    14    1
   14    14    15    1
   15    14    16    1
   16    14    17    1
   17    17    18    1
   18    17    19    1
   19    17    20    1
   20    20    21    1
   21    20    22    1
   22    20    23    1
   23    23    24    1
   24    23    25    1
   25    23    26    1
@<TRIPOS>SUBSTRUCTURE
       1 MOL1            1 RESIDUE      1      MOL     
@<SCITEGIC>MOL_PROPERTY
VM2 Rank
SciTegic.value.IntegerValue
9

@<SCITEGIC>MOL_PROPERTY
Conf_Id
SciTegic.value.IntegerValue
845

@<SCITEGIC>MOL_PROPERTY
Probability
SciTegic.value.DoubleValue
2.45

@<SCITEGIC>MOL_PROPERTY
Sum Probability
SciTegic.value.DoubleValue
34.13

@<SCITEGIC>MOL_PROPERTY
Delta G
SciTegic.value.DoubleValue
0.663

@<SCITEGIC>MOL_PROPERTY
G
SciTegic.value.DoubleValue
48.925

@<SCITEGIC>MOL_PROPERTY
E
SciTegic.value.DoubleValue
16.472

@<SCITEGIC>MOL_PROPERTY
-TS
SciTegic.value.DoubleValue
32.453

@<SCITEGIC>MOL_PROPERTY
U+W
SciTegic.value.DoubleValue
-4.990

@<SCITEGIC>MOL_PROPERTY
U
SciTegic.value.DoubleValue
48.214

@<SCITEGIC>MOL_PROPERTY
W
SciTegic.value.DoubleValue
-53.204

@<SCITEGIC>MOL_PROPERTY
W(PB)
SciTegic.value.DoubleValue
-55.543

@<SCITEGIC>MOL_PROPERTY
W(SA)
SciTegic.value.DoubleValue
2.340

@<SCITEGIC>MOL_PROPERTY
Valence
SciTegic.value.DoubleValue
2.697

@<SCITEGIC>MOL_PROPERTY
Coulomb
SciTegic.value.DoubleValue
44.818

@<SCITEGIC>MOL_PROPERTY
VdW
SciTegic.value.DoubleValue
0.698

@<SCITEGIC>MOL_PROPERTY
VdW6
SciTegic.value.DoubleValue
-6.437

@<SCITEGIC>MOL_PROPERTY
VdW12
SciTegic.value.DoubleValue
7.135

@<SCITEGIC>MOL_PROPERTY
Bond
SciTegic.value.DoubleValue
0.168

@<SCITEGIC>MOL_PROPERTY
Angle
SciTegic.value.DoubleValue
0.657

@<SCITEGIC>MOL_PROPERTY
Pdih
SciTegic.value.DoubleValue
1.872

@<SCITEGIC>MOL_PROPERTY
Idih
SciTegic.value.DoubleValue
0.000

@<SCITEGIC>MOL_PROPERTY
Tether
SciTegic.value.DoubleValue
0.000

@<TRIPOS>MOLECULE
guest-s14_vm2.mol2 : vm2 ligand conformer 10
          26          25           1
SMALL
USER_CHARGES
 
@<TRIPOS>ATOM
       1    C1      19.343859   19.227165   19.161107 C.3        1 MOL1        -0.2400
       2    H1      20.172436   18.873255   18.533862 H          1 MOL1         0.0971
       3    H2      18.407712   18.860072   18.720756 H          1 MOL1         0.0971
       4    H3      19.328260   20.324125   19.120137 H          1 MOL1         0.0971
       5    C2      19.494882   18.728780   20.614067 C.3        1 MOL1        -0.1385
       6    H4      19.477581   17.630020   20.625744 H          1 MOL1         0.0960
       7    H5      18.629037   19.067555   21.198180 H          1 MOL1         0.0960
       8    C3      20.806405   19.237612   21.257737 C.3        1 MOL1        -0.1409
       9    H6      21.651779   18.955821   20.614863 H          1 MOL1         0.0960
      10    H7      20.799719   20.335752   21.293750 H          1 MOL1         0.0960
      11    C4      21.060618   18.673092   22.677107 C.3        1 MOL1        -0.1409
      12    H8      22.061226   18.989763   23.002518 H          1 MOL1         0.0960
      13    H9      21.082505   17.575235   22.637488 H          1 MOL1         0.0960
      14    C5      20.019753   19.138019   23.723976 C.3        1 MOL1        -0.1409
      15    H10     19.961296   20.235356   23.722141 H          1 MOL1         0.0960
      16    H11     19.023073   18.764524   23.454449 H          1 MOL1         0.0960
      17    C6      20.374908   18.644440   25.143879 C.3        1 MOL1        -0.1450
      18    H12     21.365780   19.021635   25.430199 H          1 MOL1         0.0960
      19    H13     20.433068   17.547767   25.150172 H          1 MOL1         0.0960
      20    C7      19.333549   19.107585   26.177880 C.3        1 MOL1         0.0172
      21    H14     19.284039   20.199808   26.186697 H          1 MOL1         0.0934
      22    H15     18.347660   18.720640   25.906285 H          1 MOL1         0.0934
      23    N1      19.647026   18.642307   27.585246 N.4        1 MOL1        -0.5956
      24    H16     18.941403   18.961484   28.258058 H          1 MOL1         0.3624
      25    H17     20.552227   18.995980   27.912016 H          1 MOL1         0.3624
      26    H18     19.680937   17.619683   27.651107 H          1 MOL1         0.3624
@<TRIPOS>BOND
    1     1     2    1
    2     1     3    1
    3     1     4    1
    4     1     5    1
    5     5     6    1
    6     5     7    1
    7     5     8    1
    8     8     9    1
    9     8    10    1
   10     8    11    1
   11    11    12    1
   12    11    13    1
   13    11    14    1
   14    14    15    1
   15    14    16    1
   16    14    17    1
   17    17    18    1
   18    17    19    1
   19    17    20    1
   20    20    21    1
   21    20    22    1
   22    20    23    1
   23    23    24    1
   24    23    25    1
   25    23    26    1
@<TRIPOS>SUBSTRUCTURE
       1 MOL1            1 RESIDUE      1      MOL     
@<SCITEGIC>MOL_PROPERTY
VM2 Rank
SciTegic.value.IntegerValue
10

@<SCITEGIC>MOL_PROPERTY
Conf_Id
SciTegic.value.IntegerValue
613

@<SCITEGIC>MOL_PROPERTY
Probability
SciTegic.value.DoubleValue
2.42

@<SCITEGIC>MOL_PROPERTY
Sum Probability
SciTegic.value.DoubleValue
36.55

@<SCITEGIC>MOL_PROPERTY
Delta G
SciTegic.value.DoubleValue
0.669

@<SCITEGIC>MOL_PROPERTY
G
SciTegic.value.DoubleValue
48.931

@<SCITEGIC>MOL_PROPERTY
E
SciTegic.value.DoubleValue
16.480

@<SCITEGIC>MOL_PROPERTY
-TS
SciTegic.value.DoubleValue
32.451

@<SCITEGIC>MOL_PROPERTY
U+W
SciTegic.value.DoubleValue
-4.982

@<SCITEGIC>MOL_PROPERTY
U
SciTegic.value.DoubleValue
48.035

@<SCITEGIC>MOL_PROPERTY
W
SciTegic.value.DoubleValue
-53.017

@<SCITEGIC>MOL_PROPERTY
W(PB)
SciTegic.value.DoubleValue
-55.374

@<SCITEGIC>MOL_PROPERTY
W(SA)
SciTegic.value.DoubleValue
2.357

@<SCITEGIC>MOL_PROPERTY
Valence
SciTegic.value.DoubleValue
2.701

@<SCITEGIC>MOL_PROPERTY
Coulomb
SciTegic.value.DoubleValue
44.622

@<SCITEGIC>MOL_PROPERTY
VdW
SciTegic.value.DoubleValue
0.712

@<SCITEGIC>MOL_PROPERTY
VdW6
SciTegic.value.DoubleValue
-6.418

@<SCITEGIC>MOL_PROPERTY
VdW12
SciTegic.value.DoubleValue
7.129

@<SCITEGIC>MOL_PROPERTY
Bond
SciTegic.value.DoubleValue
0.168

@<SCITEGIC>MOL_PROPERTY
Angle
SciTegic.value.DoubleValue
0.659

@<SCITEGIC>MOL_PROPERTY
Pdih
SciTegic.value.DoubleValue
1.875

@<SCITEGIC>MOL_PROPERTY
Idih
SciTegic.value.DoubleValue
0.000

@<SCITEGIC>MOL_PROPERTY
Tether
SciTegic.value.DoubleValue
0.000

@<TRIPOS>MOLECULE
guest-s14_vm2.mol2 : vm2 ligand conformer 11
          26          25           1
SMALL
USER_CHARGES
 
@<TRIPOS>ATOM
       1    C1      18.994009   18.648710   19.371799 C.3        1 MOL1        -0.2400
       2    H1      18.444148   19.598729   19.352904 H          1 MOL1         0.0971
       3    H2      19.265027   18.395654   18.338573 H          1 MOL1         0.0971
       4    H3      18.316481   17.868754   19.743078 H          1 MOL1         0.0971
       5    C2      20.254993   18.755110   20.255437 C.3        1 MOL1        -0.1385
       6    H4      20.927961   19.517831   19.839169 H          1 MOL1         0.0960
       7    H5      20.800959   17.801637   20.228125 H          1 MOL1         0.0960
       8    C3      19.901540   19.111652   21.716406 C.3        1 MOL1        -0.1409
       9    H6      19.357858   20.066192   21.738593 H          1 MOL1         0.0960
      10    H7      19.222402   18.347587   22.116553 H          1 MOL1         0.0960
      11    C4      21.165140   19.214598   22.604148 C.3        1 MOL1        -0.1409
      12    H8      21.866276   19.926245   22.146575 H          1 MOL1         0.0960
      13    H9      21.681720   18.245102   22.627746 H          1 MOL1         0.0960
      14    C5      20.869612   19.680237   24.051166 C.3        1 MOL1        -0.1409
      15    H10     21.826273   19.836238   24.569027 H          1 MOL1         0.0960
      16    H11     20.368658   20.658044   24.028443 H          1 MOL1         0.0960
      17    C6      20.017585   18.676555   24.863108 C.3        1 MOL1        -0.1450
      18    H12     20.492911   17.686827   24.843075 H          1 MOL1         0.0960
      19    H13     19.024671   18.568803   24.408778 H          1 MOL1         0.0960
      20    C7      19.852815   19.134769   26.322889 C.3        1 MOL1         0.0172
      21    H14     20.835696   19.227831   26.792726 H          1 MOL1         0.0934
      22    H15     19.365106   20.113004   26.348778 H          1 MOL1         0.0934
      23    N1      19.025306   18.177368   27.156047 N.4        1 MOL1        -0.5956
      24    H16     19.445566   17.242957   27.194666 H          1 MOL1         0.3624
      25    H17     18.076967   18.066784   26.782392 H          1 MOL1         0.3624
      26    H18     18.928550   18.501285   28.124637 H          1 MOL1         0.3624
@<TRIPOS>BOND
    1     1     2    1
    2     1     3    1
    3     1     4    1
    4     1     5    1
    5     5     6    1
    6     5     7    1
    7     5     8    1
    8     8     9    1
    9     8    10    1
   10     8    11    1
   11    11    12    1
   12    11    13    1
   13    11    14    1
   14    14    15    1
   15    14    16    1
   16    14    17    1
   17    17    18    1
   18    17    19    1
   19    17    20    1
   20    20    21    1
   21    20    22    1
   22    20    23    1
   23    23    24    1
   24    23    25    1
   25    23    26    1
@<TRIPOS>SUBSTRUCTURE
       1 MOL1            1 RESIDUE      1      MOL     
@<SCITEGIC>MOL_PROPERTY
VM2 Rank
SciTegic.value.IntegerValue
11

@<SCITEGIC>MOL_PROPERTY
Conf_Id
SciTegic.value.IntegerValue
781

@<SCITEGIC>MOL_PROPERTY
Probability
SciTegic.value.DoubleValue
2.36

@<SCITEGIC>MOL_PROPERTY
Sum Probability
SciTegic.value.DoubleValue
38.91

@<SCITEGIC>MOL_PROPERTY
Delta G
SciTegic.value.DoubleValue
0.686

@<SCITEGIC>MOL_PROPERTY
G
SciTegic.value.DoubleValue
48.947

@<SCITEGIC>MOL_PROPERTY
E
SciTegic.value.DoubleValue
16.494

@<SCITEGIC>MOL_PROPERTY
-TS
SciTegic.value.DoubleValue
32.453

@<SCITEGIC>MOL_PROPERTY
U+W
SciTegic.value.DoubleValue
-4.968

@<SCITEGIC>MOL_PROPERTY
U
SciTegic.value.DoubleValue
48.214

@<SCITEGIC>MOL_PROPERTY
W
SciTegic.value.DoubleValue
-53.182

@<SCITEGIC>MOL_PROPERTY
W(PB)
SciTegic.value.DoubleValue
-55.530

@<SCITEGIC>MOL_PROPERTY
W(SA)
SciTegic.value.DoubleValue
2.348

@<SCITEGIC>MOL_PROPERTY
Valence
SciTegic.value.DoubleValue
2.697

@<SCITEGIC>MOL_PROPERTY
Coulomb
SciTegic.value.DoubleValue
44.818

@<SCITEGIC>MOL_PROPERTY
VdW
SciTegic.value.DoubleValue
0.698

@<SCITEGIC>MOL_PROPERTY
VdW6
SciTegic.value.DoubleValue
-6.437

@<SCITEGIC>MOL_PROPERTY
VdW12
SciTegic.value.DoubleValue
7.136

@<SCITEGIC>MOL_PROPERTY
Bond
SciTegic.value.DoubleValue
0.168

@<SCITEGIC>MOL_PROPERTY
Angle
SciTegic.value.DoubleValue
0.657

@<SCITEGIC>MOL_PROPERTY
Pdih
SciTegic.value.DoubleValue
1.872

@<SCITEGIC>MOL_PROPERTY
Idih
SciTegic.value.DoubleValue
0.000

@<SCITEGIC>MOL_PROPERTY
Tether
SciTegic.value.DoubleValue
0.000

@<TRIPOS>MOLECULE
guest-s14_vm2.mol2 : vm2 ligand conformer 12
          26          25           1
SMALL
USER_CHARGES
 
@<TRIPOS>ATOM
       1    C1      20.462768   19.671123   19.522232 C.3        1 MOL1        -0.2400
       2    H1      21.315198   20.046271   20.101942 H          1 MOL1         0.0971
       3    H2      20.804697   19.526655   18.489202 H          1 MOL1         0.0971
       4    H3      19.684799   20.445529   19.513078 H          1 MOL1         0.0971
       5    C2      19.920469   18.345310   20.102676 C.3        1 MOL1        -0.1385
       6    H4      20.724793   17.596893   20.128882 H          1 MOL1         0.0960
       7    H5      19.153651   17.948680   19.422624 H          1 MOL1         0.0960
       8    C3      19.301776   18.498491   21.513160 C.3        1 MOL1        -0.1409
       9    H6      18.484850   19.232401   21.477541 H          1 MOL1         0.0960
      10    H7      18.844799   17.541003   21.798975 H          1 MOL1         0.0960
      11    C4      20.328111   18.911741   22.595236 C.3        1 MOL1        -0.1409
      12    H8      20.742318   19.900614   22.358690 H          1 MOL1         0.0960
      13    H9      21.168665   18.204141   22.592752 H          1 MOL1         0.0960
      14    C5      19.692139   18.952570   24.003255 C.3        1 MOL1        -0.1409
      15    H10     18.851055   19.659849   24.005033 H          1 MOL1         0.0960
      16    H11     19.278098   17.963917   24.242250 H          1 MOL1         0.0960
      17    C6      20.717271   19.368525   25.084684 C.3        1 MOL1        -0.1450
      18    H12     21.152547   20.340942   24.818394 H          1 MOL1         0.0960
      19    H13     21.547748   18.650517   25.112250 H          1 MOL1         0.0960
      20    C7      20.089680   19.483299   26.487288 C.3        1 MOL1         0.0172
      21    H14     20.838133   19.860073   27.189730 H          1 MOL1         0.0934
      22    H15     19.258408   20.193046   26.461676 H          1 MOL1         0.0934
      23    N1      19.568787   18.167942   27.032470 N.4        1 MOL1        -0.5956
      24    H16     19.169727   18.276297   27.971269 H          1 MOL1         0.3624
      25    H17     20.310874   17.464033   27.102088 H          1 MOL1         0.3624
      26    H18     18.832973   17.775015   26.437388 H          1 MOL1         0.3624
@<TRIPOS>BOND
    1     1     2    1
    2     1     3    1
    3     1     4    1
    4     1     5    1
    5     5     6    1
    6     5     7    1
    7     5     8    1
    8     8     9    1
    9     8    10    1
   10     8    11    1
   11    11    12    1
   12    11    13    1
   13    11    14    1
   14    14    15    1
   15    14    16    1
   16    14    17    1
   17    17    18    1
   18    17    19    1
   19    17    20    1
   20    20    21    1
   21    20    22    1
   22    20    23    1
   23    23    24    1
   24    23    25    1
   25    23    26    1
@<TRIPOS>SUBSTRUCTURE
       1 MOL1            1 RESIDUE      1      MOL     
@<SCITEGIC>MOL_PROPERTY
VM2 Rank
SciTegic.value.IntegerValue
12

@<SCITEGIC>MOL_PROPERTY
Conf_Id
SciTegic.value.IntegerValue
1042

@<SCITEGIC>MOL_PROPERTY
Probability
SciTegic.value.DoubleValue
1.88

@<SCITEGIC>MOL_PROPERTY
Sum Probability
SciTegic.value.DoubleValue
40.79

@<SCITEGIC>MOL_PROPERTY
Delta G
SciTegic.value.DoubleValue
0.821

@<SCITEGIC>MOL_PROPERTY
G
SciTegic.value.DoubleValue
49.083

@<SCITEGIC>MOL_PROPERTY
E
SciTegic.value.DoubleValue
16.517

@<SCITEGIC>MOL_PROPERTY
-TS
SciTegic.value.DoubleValue
32.566

@<SCITEGIC>MOL_PROPERTY
U+W
SciTegic.value.DoubleValue
-4.945

@<SCITEGIC>MOL_PROPERTY
U
SciTegic.value.DoubleValue
48.461

@<SCITEGIC>MOL_PROPERTY
W
SciTegic.value.DoubleValue
-53.406

@<SCITEGIC>MOL_PROPERTY
W(PB)
SciTegic.value.DoubleValue
-55.711

@<SCITEGIC>MOL_PROPERTY
W(SA)
SciTegic.value.DoubleValue
2.305

@<SCITEGIC>MOL_PROPERTY
Valence
SciTegic.value.DoubleValue
2.762

@<SCITEGIC>MOL_PROPERTY
Coulomb
SciTegic.value.DoubleValue
44.868

@<SCITEGIC>MOL_PROPERTY
VdW
SciTegic.value.DoubleValue
0.832

@<SCITEGIC>MOL_PROPERTY
VdW6
SciTegic.value.DoubleValue
-6.903

@<SCITEGIC>MOL_PROPERTY
VdW12
SciTegic.value.DoubleValue
7.735

@<SCITEGIC>MOL_PROPERTY
Bond
SciTegic.value.DoubleValue
0.184

@<SCITEGIC>MOL_PROPERTY
Angle
SciTegic.value.DoubleValue
0.674

@<SCITEGIC>MOL_PROPERTY
Pdih
SciTegic.value.DoubleValue
1.903

@<SCITEGIC>MOL_PROPERTY
Idih
SciTegic.value.DoubleValue
0.000

@<SCITEGIC>MOL_PROPERTY
Tether
SciTegic.value.DoubleValue
0.000

@<TRIPOS>MOLECULE
guest-s14_vm2.mol2 : vm2 ligand conformer 13
          26          25           1
SMALL
USER_CHARGES
 
@<TRIPOS>ATOM
       1    C1      20.561416   19.387643   19.212423 C.3        1 MOL1        -0.2400
       2    H1      20.977556   20.396873   19.328690 H          1 MOL1         0.0971
       3    H2      21.149909   18.866719   18.446030 H          1 MOL1         0.0971
       4    H3      19.532808   19.482634   18.840691 H          1 MOL1         0.0971
       5    C2      20.599534   18.614613   20.547743 C.3        1 MOL1        -0.1385
       6    H4      21.642656   18.506191   20.876462 H          1 MOL1         0.0960
       7    H5      20.208933   17.599128   20.392369 H          1 MOL1         0.0960
       8    C3      19.778089   19.327147   21.644935 C.3        1 MOL1        -0.1409
       9    H6      20.170806   20.342324   21.795188 H          1 MOL1         0.0960
      10    H7      18.737071   19.435475   21.310318 H          1 MOL1         0.0960
      11    C4      19.813560   18.555739   22.983551 C.3        1 MOL1        -0.1409
      12    H8      20.856905   18.444773   23.307620 H          1 MOL1         0.0960
      13    H9      19.417324   17.542054   22.832532 H          1 MOL1         0.0960
      14    C5      18.991629   19.272852   24.081278 C.3        1 MOL1        -0.1409
      15    H10     19.399089   20.278026   24.253607 H          1 MOL1         0.0960
      16    H11     17.962972   19.418272   23.723405 H          1 MOL1         0.0960
      17    C6      18.941871   18.488082   25.416251 C.3        1 MOL1        -0.1450
      18    H12     18.452800   17.519317   25.248412 H          1 MOL1         0.0960
      19    H13     18.309748   19.029798   26.132335 H          1 MOL1         0.0960
      20    C7      20.325165   18.240133   26.051484 C.3        1 MOL1         0.0172
      21    H14     20.203632   17.660726   26.970736 H          1 MOL1         0.0934
      22    H15     20.948896   17.660952   25.365812 H          1 MOL1         0.0934
      23    N1      21.069735   19.512790   26.403336 N.4        1 MOL1        -0.5956
      24    H16     21.243316   20.089797   25.574525 H          1 MOL1         0.3624
      25    H17     21.981334   19.315557   26.830266 H          1 MOL1         0.3624
      26    H18     20.544928   20.088541   27.069675 H          1 MOL1         0.3624
@<TRIPOS>BOND
    1     1     2    1
    2     1     3    1
    3     1     4    1
    4     1     5    1
    5     5     6    1
    6     5     7    1
    7     5     8    1
    8     8     9    1
    9     8    10    1
   10     8    11    1
   11    11    12    1
   12    11    13    1
   13    11    14    1
   14    14    15    1
   15    14    16    1
   16    14    17    1
   17    17    18    1
   18    17    19    1
   19    17    20    1
   20    20    21    1
   21    20    22    1
   22    20    23    1
   23    23    24    1
   24    23    25    1
   25    23    26    1
@<TRIPOS>SUBSTRUCTURE
       1 MOL1            1 RESIDUE      1      MOL     
@<SCITEGIC>MOL_PROPERTY
VM2 Rank
SciTegic.value.IntegerValue
13

@<SCITEGIC>MOL_PROPERTY
Conf_Id
SciTegic.value.IntegerValue
234

@<SCITEGIC>MOL_PROPERTY
Probability
SciTegic.value.DoubleValue
1.82

@<SCITEGIC>MOL_PROPERTY
Sum Probability
SciTegic.value.DoubleValue
42.60

@<SCITEGIC>MOL_PROPERTY
Delta G
SciTegic.value.DoubleValue
0.841

@<SCITEGIC>MOL_PROPERTY
G
SciTegic.value.DoubleValue
49.102

@<SCITEGIC>MOL_PROPERTY
E
SciTegic.value.DoubleValue
16.465

@<SCITEGIC>MOL_PROPERTY
-TS
SciTegic.value.DoubleValue
32.638

@<SCITEGIC>MOL_PROPERTY
U+W
SciTegic.value.DoubleValue
-4.997

@<SCITEGIC>MOL_PROPERTY
U
SciTegic.value.DoubleValue
48.668

@<SCITEGIC>MOL_PROPERTY
W
SciTegic.value.DoubleValue
-53.665

@<SCITEGIC>MOL_PROPERTY
W(PB)
SciTegic.value.DoubleValue
-55.974

@<SCITEGIC>MOL_PROPERTY
W(SA)
SciTegic.value.DoubleValue
2.309

@<SCITEGIC>MOL_PROPERTY
Valence
SciTegic.value.DoubleValue
2.544

@<SCITEGIC>MOL_PROPERTY
Coulomb
SciTegic.value.DoubleValue
45.478

@<SCITEGIC>MOL_PROPERTY
VdW
SciTegic.value.DoubleValue
0.646

@<SCITEGIC>MOL_PROPERTY
VdW6
SciTegic.value.DoubleValue
-7.095

@<SCITEGIC>MOL_PROPERTY
VdW12
SciTegic.value.DoubleValue
7.741

@<SCITEGIC>MOL_PROPERTY
Bond
SciTegic.value.DoubleValue
0.176

@<SCITEGIC>MOL_PROPERTY
Angle
SciTegic.value.DoubleValue
0.630

@<SCITEGIC>MOL_PROPERTY
Pdih
SciTegic.value.DoubleValue
1.738

@<SCITEGIC>MOL_PROPERTY
Idih
SciTegic.value.DoubleValue
0.000

@<SCITEGIC>MOL_PROPERTY
Tether
SciTegic.value.DoubleValue
0.000

@<TRIPOS>MOLECULE
guest-s14_vm2.mol2 : vm2 ligand conformer 14
          26          25           1
SMALL
USER_CHARGES
 
@<TRIPOS>ATOM
       1    C1      19.464894   18.189573   19.603660 C.3        1 MOL1        -0.2400
       2    H1      19.724295   17.282494   20.163448 H          1 MOL1         0.0971
       3    H2      18.389146   18.372489   19.723358 H          1 MOL1         0.0971
       4    H3      19.654797   17.987111   18.541643 H          1 MOL1         0.0971
       5    C2      20.291738   19.405986   20.078466 C.3        1 MOL1        -0.1385
       6    H4      20.087010   20.255175   19.411564 H          1 MOL1         0.0960
       7    H5      21.363781   19.186685   19.976552 H          1 MOL1         0.0960
       8    C3      19.980468   19.831365   21.533753 C.3        1 MOL1        -0.1409
       9    H6      20.524298   20.761599   21.748790 H          1 MOL1         0.0960
      10    H7      18.911838   20.069843   21.625419 H          1 MOL1         0.0960
      11    C4      20.369478   18.764138   22.584803 C.3        1 MOL1        -0.1409
      12    H8      21.425563   18.490108   22.455183 H          1 MOL1         0.0960
      13    H9      19.780731   17.851136   22.425935 H          1 MOL1         0.0960
      14    C5      20.139991   19.269363   24.027264 C.3        1 MOL1        -0.1409
      15    H10     20.733482   20.178577   24.196760 H          1 MOL1         0.0960
      16    H11     19.085103   19.549803   24.148102 H          1 MOL1         0.0960
      17    C6      20.524251   18.200884   25.078014 C.3        1 MOL1        -0.1450
      18    H12     21.569049   17.899425   24.924741 H          1 MOL1         0.0960
      19    H13     19.914081   17.298598   24.938160 H          1 MOL1         0.0960
      20    C7      20.370252   18.706708   26.525342 C.3        1 MOL1         0.0172
      21    H14     20.734242   17.942335   27.217301 H          1 MOL1         0.0934
      22    H15     20.972245   19.608480   26.666143 H          1 MOL1         0.0934
      23    N1      18.939928   19.030982   26.909697 N.4        1 MOL1        -0.5956
      24    H16     18.326999   18.214105   26.819947 H          1 MOL1         0.3624
      25    H17     18.546894   19.771261   26.320250 H          1 MOL1         0.3624
      26    H18     18.870397   19.352277   27.881433 H          1 MOL1         0.3624
@<TRIPOS>BOND
    1     1     2    1
    2     1     3    1
    3     1     4    1
    4     1     5    1
    5     5     6    1
    6     5     7    1
    7     5     8    1
    8     8     9    1
    9     8    10    1
   10     8    11    1
   11    11    12    1
   12    11    13    1
   13    11    14    1
   14    14    15    1
   15    14    16    1
   16    14    17    1
   17    17    18    1
   18    17    19    1
   19    17    20    1
   20    20    21    1
   21    20    22    1
   22    20    23    1
   23    23    24    1
   24    23    25    1
   25    23    26    1
@<TRIPOS>SUBSTRUCTURE
       1 MOL1            1 RESIDUE      1      MOL     
@<SCITEGIC>MOL_PROPERTY
VM2 Rank
SciTegic.value.IntegerValue
14

@<SCITEGIC>MOL_PROPERTY
Conf_Id
SciTegic.value.IntegerValue
998

@<SCITEGIC>MOL_PROPERTY
Probability
SciTegic.value.DoubleValue
1.76

@<SCITEGIC>MOL_PROPERTY
Sum Probability
SciTegic.value.DoubleValue
44.36

@<SCITEGIC>MOL_PROPERTY
Delta G
SciTegic.value.DoubleValue
0.861

@<SCITEGIC>MOL_PROPERTY
G
SciTegic.value.DoubleValue
49.122

@<SCITEGIC>MOL_PROPERTY
E
SciTegic.value.DoubleValue
16.556

@<SCITEGIC>MOL_PROPERTY
-TS
SciTegic.value.DoubleValue
32.566

@<SCITEGIC>MOL_PROPERTY
U+W
SciTegic.value.DoubleValue
-4.906

@<SCITEGIC>MOL_PROPERTY
U
SciTegic.value.DoubleValue
48.485

@<SCITEGIC>MOL_PROPERTY
W
SciTegic.value.DoubleValue
-53.391

@<SCITEGIC>MOL_PROPERTY
W(PB)
SciTegic.value.DoubleValue
-55.716

@<SCITEGIC>MOL_PROPERTY
W(SA)
SciTegic.value.DoubleValue
2.324

@<SCITEGIC>MOL_PROPERTY
Valence
SciTegic.value.DoubleValue
2.763

@<SCITEGIC>MOL_PROPERTY
Coulomb
SciTegic.value.DoubleValue
44.894

@<SCITEGIC>MOL_PROPERTY
VdW
SciTegic.value.DoubleValue
0.828

@<SCITEGIC>MOL_PROPERTY
VdW6
SciTegic.value.DoubleValue
-6.904

@<SCITEGIC>MOL_PROPERTY
VdW12
SciTegic.value.DoubleValue
7.733

@<SCITEGIC>MOL_PROPERTY
Bond
SciTegic.value.DoubleValue
0.184

@<SCITEGIC>MOL_PROPERTY
Angle
SciTegic.value.DoubleValue
0.674

@<SCITEGIC>MOL_PROPERTY
Pdih
SciTegic.value.DoubleValue
1.904

@<SCITEGIC>MOL_PROPERTY
Idih
SciTegic.value.DoubleValue
0.000

@<SCITEGIC>MOL_PROPERTY
Tether
SciTegic.value.DoubleValue
0.000

@<TRIPOS>MOLECULE
guest-s14_vm2.mol2 : vm2 ligand conformer 15
          26          25           1
SMALL
USER_CHARGES
 
@<TRIPOS>ATOM
       1    C1      21.071010   19.250181   19.657381 C.3        1 MOL1        -0.2400
       2    H1      21.232116   19.028667   18.594408 H          1 MOL1         0.0971
       3    H2      21.318620   20.306988   19.821294 H          1 MOL1         0.0971
       4    H3      21.776945   18.637994   20.232122 H          1 MOL1         0.0971
       5    C2      19.607287   18.954017   20.055596 C.3        1 MOL1        -0.1385
       6    H4      19.393730   17.885770   19.910690 H          1 MOL1         0.0960
       7    H5      18.938128   19.496527   19.373171 H          1 MOL1         0.0960
       8    C3      19.270561   19.362579   21.510034 C.3        1 MOL1        -0.1409
       9    H6      19.465688   20.435531   21.643983 H          1 MOL1         0.0960
      10    H7      18.192734   19.222013   21.670828 H          1 MOL1         0.0960
      11    C4      20.049982   18.553135   22.574134 C.3        1 MOL1        -0.1409
      12    H8      21.126952   18.740034   22.470985 H          1 MOL1         0.0960
      13    H9      19.894208   17.478896   22.403971 H          1 MOL1         0.0960
      14    C5      19.608445   18.918331   24.009502 C.3        1 MOL1        -0.1409
      15    H10     19.758195   19.994274   24.170617 H          1 MOL1         0.0960
      16    H11     18.532618   18.725183   24.123181 H          1 MOL1         0.0960
      17    C6      20.390968   18.112858   25.073570 C.3        1 MOL1        -0.1450
      18    H12     21.465592   18.323058   24.989981 H          1 MOL1         0.0960
      19    H13     20.265904   17.038918   24.881254 H          1 MOL1         0.0960
      20    C7      19.919191   18.408899   26.510273 C.3        1 MOL1         0.0172
      21    H14     18.848198   18.205987   26.595200 H          1 MOL1         0.0934
      22    H15     20.446873   17.752636   27.207721 H          1 MOL1         0.0934
      23    N1      20.163556   19.839002   26.950509 N.4        1 MOL1        -0.5956
      24    H16     19.664584   20.509333   26.357532 H          1 MOL1         0.3624
      25    H17     21.158439   20.083799   26.914398 H          1 MOL1         0.3624
      26    H18     19.850423   19.999435   27.914119 H          1 MOL1         0.3624
@<TRIPOS>BOND
    1     1     2    1
    2     1     3    1
    3     1     4    1
    4     1     5    1
    5     5     6    1
    6     5     7    1
    7     5     8    1
    8     8     9    1
    9     8    10    1
   10     8    11    1
   11    11    12    1
   12    11    13    1
   13    11    14    1
   14    14    15    1
   15    14    16    1
   16    14    17    1
   17    17    18    1
   18    17    19    1
   19    17    20    1
   20    20    21    1
   21    20    22    1
   22    20    23    1
   23    23    24    1
   24    23    25    1
   25    23    26    1
@<TRIPOS>SUBSTRUCTURE
       1 MOL1            1 RESIDUE      1      MOL     
@<SCITEGIC>MOL_PROPERTY
VM2 Rank
SciTegic.value.IntegerValue
15

@<SCITEGIC>MOL_PROPERTY
Conf_Id
SciTegic.value.IntegerValue
1329

@<SCITEGIC>MOL_PROPERTY
Probability
SciTegic.value.DoubleValue
1.74

@<SCITEGIC>MOL_PROPERTY
Sum Probability
SciTegic.value.DoubleValue
46.10

@<SCITEGIC>MOL_PROPERTY
Delta G
SciTegic.value.DoubleValue
0.867

@<SCITEGIC>MOL_PROPERTY
G
SciTegic.value.DoubleValue
49.129

@<SCITEGIC>MOL_PROPERTY
E
SciTegic.value.DoubleValue
16.563

@<SCITEGIC>MOL_PROPERTY
-TS
SciTegic.value.DoubleValue
32.566

@<SCITEGIC>MOL_PROPERTY
U+W
SciTegic.value.DoubleValue
-4.899

@<SCITEGIC>MOL_PROPERTY
U
SciTegic.value.DoubleValue
48.486

@<SCITEGIC>MOL_PROPERTY
W
SciTegic.value.DoubleValue
-53.385

@<SCITEGIC>MOL_PROPERTY
W(PB)
SciTegic.value.DoubleValue
-55.716

@<SCITEGIC>MOL_PROPERTY
W(SA)
SciTegic.value.DoubleValue
2.331

@<SCITEGIC>MOL_PROPERTY
Valence
SciTegic.value.DoubleValue
2.763

@<SCITEGIC>MOL_PROPERTY
Coulomb
SciTegic.value.DoubleValue
44.895

@<SCITEGIC>MOL_PROPERTY
VdW
SciTegic.value.DoubleValue
0.829

@<SCITEGIC>MOL_PROPERTY
VdW6
SciTegic.value.DoubleValue
-6.905

@<SCITEGIC>MOL_PROPERTY
VdW12
SciTegic.value.DoubleValue
7.733

@<SCITEGIC>MOL_PROPERTY
Bond
SciTegic.value.DoubleValue
0.184

@<SCITEGIC>MOL_PROPERTY
Angle
SciTegic.value.DoubleValue
0.674

@<SCITEGIC>MOL_PROPERTY
Pdih
SciTegic.value.DoubleValue
1.904

@<SCITEGIC>MOL_PROPERTY
Idih
SciTegic.value.DoubleValue
0.000

@<SCITEGIC>MOL_PROPERTY
Tether
SciTegic.value.DoubleValue
0.000

@<TRIPOS>MOLECULE
guest-s14_vm2.mol2 : vm2 ligand conformer 16
          26          25           1
SMALL
USER_CHARGES
 
@<TRIPOS>ATOM
       1    C1      19.558017   18.726479   19.178957 C.3        1 MOL1        -0.2400
       2    H1      19.840655   18.004021   18.402288 H          1 MOL1         0.0971
       3    H2      18.462236   18.739015   19.244849 H          1 MOL1         0.0971
       4    H3      19.892356   19.719984   18.852758 H          1 MOL1         0.0971
       5    C2      20.190951   18.345400   20.534051 C.3        1 MOL1        -0.1385
       6    H4      21.284248   18.308039   20.428092 H          1 MOL1         0.0960
       7    H5      19.865156   17.334625   20.817081 H          1 MOL1         0.0960
       8    C3      19.808684   19.347315   21.645962 C.3        1 MOL1        -0.1409
       9    H6      20.134085   20.356288   21.356980 H          1 MOL1         0.0960
      10    H7      18.715074   19.382829   21.746671 H          1 MOL1         0.0960
      11    C4      20.440928   18.969134   23.004442 C.3        1 MOL1        -0.1409
      12    H8      21.534588   18.937458   22.903095 H          1 MOL1         0.0960
      13    H9      20.117519   17.957308   23.282858 H          1 MOL1         0.0960
      14    C5      20.054637   19.973274   24.116784 C.3        1 MOL1        -0.1409
      15    H10     20.342361   20.986230   23.802951 H          1 MOL1         0.0960
      16    H11     18.963380   19.990762   24.239048 H          1 MOL1         0.0960
      17    C6      20.732668   19.668022   25.476042 C.3        1 MOL1        -0.1450
      18    H12     20.450714   20.440447   26.203828 H          1 MOL1         0.0960
      19    H13     21.822392   19.739517   25.360899 H          1 MOL1         0.0960
      20    C7      20.386474   18.280519   26.053531 C.3        1 MOL1         0.0172
      21    H14     20.704697   17.500056   25.357650 H          1 MOL1         0.0934
      22    H15     20.923537   18.135032   26.994754 H          1 MOL1         0.0934
      23    N1      18.908641   18.088857   26.331232 N.4        1 MOL1        -0.5956
      24    H16     18.349097   18.182737   25.477947 H          1 MOL1         0.3624
      25    H17     18.555522   18.777786   27.003244 H          1 MOL1         0.3624
      26    H18     18.711190   17.160902   26.721228 H          1 MOL1         0.3624
@<TRIPOS>BOND
    1     1     2    1
    2     1     3    1
    3     1     4    1
    4     1     5    1
    5     5     6    1
    6     5     7    1
    7     5     8    1
    8     8     9    1
    9     8    10    1
   10     8    11    1
   11    11    12    1
   12    11    13    1
   13    11    14    1
   14    14    15    1
   15    14    16    1
   16    14    17    1
   17    17    18    1
   18    17    19    1
   19    17    20    1
   20    20    21    1
   21    20    22    1
   22    20    23    1
   23    23    24    1
   24    23    25    1
   25    23    26    1
@<TRIPOS>SUBSTRUCTURE
       1 MOL1            1 RESIDUE      1      MOL     
@<SCITEGIC>MOL_PROPERTY
VM2 Rank
SciTegic.value.IntegerValue
16

@<SCITEGIC>MOL_PROPERTY
Conf_Id
SciTegic.value.IntegerValue
473

@<SCITEGIC>MOL_PROPERTY
Probability
SciTegic.value.DoubleValue
1.72

@<SCITEGIC>MOL_PROPERTY
Sum Probability
SciTegic.value.DoubleValue
47.82

@<SCITEGIC>MOL_PROPERTY
Delta G
SciTegic.value.DoubleValue
0.873

@<SCITEGIC>MOL_PROPERTY
G
SciTegic.value.DoubleValue
49.134

@<SCITEGIC>MOL_PROPERTY
E
SciTegic.value.DoubleValue
16.497

@<SCITEGIC>MOL_PROPERTY
-TS
SciTegic.value.DoubleValue
32.638

@<SCITEGIC>MOL_PROPERTY
U+W
SciTegic.value.DoubleValue
-4.965

@<SCITEGIC>MOL_PROPERTY
U
SciTegic.value.DoubleValue
48.667

@<SCITEGIC>MOL_PROPERTY
W
SciTegic.value.DoubleValue
-53.633

@<SCITEGIC>MOL_PROPERTY
W(PB)
SciTegic.value.DoubleValue
-55.950

@<SCITEGIC>MOL_PROPERTY
W(SA)
SciTegic.value.DoubleValue
2.318

@<SCITEGIC>MOL_PROPERTY
Valence
SciTegic.value.DoubleValue
2.544

@<SCITEGIC>MOL_PROPERTY
Coulomb
SciTegic.value.DoubleValue
45.478

@<SCITEGIC>MOL_PROPERTY
VdW
SciTegic.value.DoubleValue
0.646

@<SCITEGIC>MOL_PROPERTY
VdW6
SciTegic.value.DoubleValue
-7.095

@<SCITEGIC>MOL_PROPERTY
VdW12
SciTegic.value.DoubleValue
7.741

@<SCITEGIC>MOL_PROPERTY
Bond
SciTegic.value.DoubleValue
0.176

@<SCITEGIC>MOL_PROPERTY
Angle
SciTegic.value.DoubleValue
0.630

@<SCITEGIC>MOL_PROPERTY
Pdih
SciTegic.value.DoubleValue
1.738

@<SCITEGIC>MOL_PROPERTY
Idih
SciTegic.value.DoubleValue
0.000

@<SCITEGIC>MOL_PROPERTY
Tether
SciTegic.value.DoubleValue
0.000

@<TRIPOS>MOLECULE
guest-s14_vm2.mol2 : vm2 ligand conformer 17
          26          25           1
SMALL
USER_CHARGES
 
@<TRIPOS>ATOM
       1    C1      19.322442   18.918782   19.484165 C.3        1 MOL1        -0.2400
       2    H1      19.368968   18.579450   18.441272 H          1 MOL1         0.0971
       3    H2      18.616289   18.265817   20.011825 H          1 MOL1         0.0971
       4    H3      18.916897   19.938853   19.487445 H          1 MOL1         0.0971
       5    C2      20.726158   18.876634   20.129601 C.3        1 MOL1        -0.1385
       6    H4      21.423121   19.445543   19.498427 H          1 MOL1         0.0960
       7    H5      21.096672   17.842065   20.141331 H          1 MOL1         0.0960
       8    C3      20.762730   19.462048   21.561966 C.3        1 MOL1        -0.1409
       9    H6      21.808309   19.495462   21.898044 H          1 MOL1         0.0960
      10    H7      20.411168   20.502844   21.541835 H          1 MOL1         0.0960
      11    C4      19.929651   18.649191   22.581906 C.3        1 MOL1        -0.1409
      12    H8      20.249406   17.598195   22.561972 H          1 MOL1         0.0960
      13    H9      18.869727   18.666084   22.296135 H          1 MOL1         0.0960
      14    C5      20.076518   19.206125   24.016097 C.3        1 MOL1        -0.1409
      15    H10     21.136054   19.189024   24.304320 H          1 MOL1         0.0960
      16    H11     19.757367   20.257525   24.035342 H          1 MOL1         0.0960
      17    C6      19.241375   18.395544   25.035360 C.3        1 MOL1        -0.1450
      18    H12     19.573113   17.348731   25.046179 H          1 MOL1         0.0960
      19    H13     18.189661   18.387656   24.719439 H          1 MOL1         0.0960
      20    C7      19.317400   18.974050   26.461506 C.3        1 MOL1         0.0172
      21    H14     18.993503   20.018286   26.452931 H          1 MOL1         0.0934
      22    H15     18.644561   18.413775   27.116443 H          1 MOL1         0.0934
      23    N1      20.704726   18.916626   27.070399 N.4        1 MOL1        -0.5956
      24    H16     21.056261   17.955241   27.126887 H          1 MOL1         0.3624
      25    H17     20.718391   19.296976   28.023018 H          1 MOL1         0.3624
      26    H18     21.382445   19.455619   26.522570 H          1 MOL1         0.3624
@<TRIPOS>BOND
    1     1     2    1
    2     1     3    1
    3     1     4    1
    4     1     5    1
    5     5     6    1
    6     5     7    1
    7     5     8    1
    8     8     9    1
    9     8    10    1
   10     8    11    1
   11    11    12    1
   12    11    13    1
   13    11    14    1
   14    14    15    1
   15    14    16    1
   16    14    17    1
   17    17    18    1
   18    17    19    1
   19    17    20    1
   20    20    21    1
   21    20    22    1
   22    20    23    1
   23    23    24    1
   24    23    25    1
   25    23    26    1
@<TRIPOS>SUBSTRUCTURE
       1 MOL1            1 RESIDUE      1      MOL     
@<SCITEGIC>MOL_PROPERTY
VM2 Rank
SciTegic.value.IntegerValue
17

@<SCITEGIC>MOL_PROPERTY
Conf_Id
SciTegic.value.IntegerValue
853

@<SCITEGIC>MOL_PROPERTY
Probability
SciTegic.value.DoubleValue
1.66

@<SCITEGIC>MOL_PROPERTY
Sum Probability
SciTegic.value.DoubleValue
49.49

@<SCITEGIC>MOL_PROPERTY
Delta G
SciTegic.value.DoubleValue
0.894

@<SCITEGIC>MOL_PROPERTY
G
SciTegic.value.DoubleValue
49.155

@<SCITEGIC>MOL_PROPERTY
E
SciTegic.value.DoubleValue
16.589

@<SCITEGIC>MOL_PROPERTY
-TS
SciTegic.value.DoubleValue
32.566

@<SCITEGIC>MOL_PROPERTY
U+W
SciTegic.value.DoubleValue
-4.873

@<SCITEGIC>MOL_PROPERTY
U
SciTegic.value.DoubleValue
48.461

@<SCITEGIC>MOL_PROPERTY
W
SciTegic.value.DoubleValue
-53.334

@<SCITEGIC>MOL_PROPERTY
W(PB)
SciTegic.value.DoubleValue
-55.646

@<SCITEGIC>MOL_PROPERTY
W(SA)
SciTegic.value.DoubleValue
2.313

@<SCITEGIC>MOL_PROPERTY
Valence
SciTegic.value.DoubleValue
2.762

@<SCITEGIC>MOL_PROPERTY
Coulomb
SciTegic.value.DoubleValue
44.868

@<SCITEGIC>MOL_PROPERTY
VdW
SciTegic.value.DoubleValue
0.832

@<SCITEGIC>MOL_PROPERTY
VdW6
SciTegic.value.DoubleValue
-6.903

@<SCITEGIC>MOL_PROPERTY
VdW12
SciTegic.value.DoubleValue
7.735

@<SCITEGIC>MOL_PROPERTY
Bond
SciTegic.value.DoubleValue
0.184

@<SCITEGIC>MOL_PROPERTY
Angle
SciTegic.value.DoubleValue
0.674

@<SCITEGIC>MOL_PROPERTY
Pdih
SciTegic.value.DoubleValue
1.903

@<SCITEGIC>MOL_PROPERTY
Idih
SciTegic.value.DoubleValue
0.000

@<SCITEGIC>MOL_PROPERTY
Tether
SciTegic.value.DoubleValue
0.000

@<TRIPOS>MOLECULE
guest-s14_vm2.mol2 : vm2 ligand conformer 18
          26          25           1
SMALL
USER_CHARGES
 
@<TRIPOS>ATOM
       1    C1      19.477287   19.880600   19.423731 C.3        1 MOL1        -0.2400
       2    H1      19.755965   20.901090   19.717271 H          1 MOL1         0.0971
       3    H2      19.737981   19.751436   18.365243 H          1 MOL1         0.0971
       4    H3      18.387719   19.783492   19.516719 H          1 MOL1         0.0971
       5    C2      20.203839   18.834445   20.295450 C.3        1 MOL1        -0.1385
       6    H4      21.289457   18.934396   20.156264 H          1 MOL1         0.0960
       7    H5      19.932185   17.825247   19.955415 H          1 MOL1         0.0960
       8    C3      19.853386   18.993468   21.791552 C.3        1 MOL1        -0.1409
       9    H6      20.120962   20.007592   22.115843 H          1 MOL1         0.0960
      10    H7      18.767730   18.890804   21.925761 H          1 MOL1         0.0960
      11    C4      20.584673   17.947492   22.666992 C.3        1 MOL1        -0.1409
      12    H8      21.671345   18.081826   22.575300 H          1 MOL1         0.0960
      13    H9      20.364925   16.942147   22.281791 H          1 MOL1         0.0960
      14    C5      20.179541   17.999548   24.160561 C.3        1 MOL1        -0.1409
      15    H10     19.096337   17.840951   24.247817 H          1 MOL1         0.0960
      16    H11     20.658793   17.158595   24.680859 H          1 MOL1         0.0960
      17    C6      20.581725   19.320281   24.863238 C.3        1 MOL1        -0.1450
      18    H12     20.033961   20.167455   24.431612 H          1 MOL1         0.0960
      19    H13     21.648847   19.513914   24.691376 H          1 MOL1         0.0960
      20    C7      20.331692   19.281150   26.383087 C.3        1 MOL1         0.0172
      21    H14     20.875612   18.441492   26.824130 H          1 MOL1         0.0934
      22    H15     20.703659   20.204145   26.836156 H          1 MOL1         0.0934
      23    N1      18.868857   19.142016   26.756389 N.4        1 MOL1        -0.5956
      24    H16     18.306858   19.916972   26.389589 H          1 MOL1         0.3624
      25    H17     18.734985   19.129864   27.773363 H          1 MOL1         0.3624
      26    H18     18.464809   18.274467   26.390239 H          1 MOL1         0.3624
@<TRIPOS>BOND
    1     1     2    1
    2     1     3    1
    3     1     4    1
    4     1     5    1
    5     5     6    1
    6     5     7    1
    7     5     8    1
    8     8     9    1
    9     8    10    1
   10     8    11    1
   11    11    12    1
   12    11    13    1
   13    11    14    1
   14    14    15    1
   15    14    16    1
   16    14    17    1
   17    17    18    1
   18    17    19    1
   19    17    20    1
   20    20    21    1
   21    20    22    1
   22    20    23    1
   23    23    24    1
   24    23    25    1
   25    23    26    1
@<TRIPOS>SUBSTRUCTURE
       1 MOL1            1 RESIDUE      1      MOL     
@<SCITEGIC>MOL_PROPERTY
VM2 Rank
SciTegic.value.IntegerValue
18

@<SCITEGIC>MOL_PROPERTY
Conf_Id
SciTegic.value.IntegerValue
780

@<SCITEGIC>MOL_PROPERTY
Probability
SciTegic.value.DoubleValue
1.63

@<SCITEGIC>MOL_PROPERTY
Sum Probability
SciTegic.value.DoubleValue
51.12

@<SCITEGIC>MOL_PROPERTY
Delta G
SciTegic.value.DoubleValue
0.907

@<SCITEGIC>MOL_PROPERTY
G
SciTegic.value.DoubleValue
49.168

@<SCITEGIC>MOL_PROPERTY
E
SciTegic.value.DoubleValue
16.601

@<SCITEGIC>MOL_PROPERTY
-TS
SciTegic.value.DoubleValue
32.567

@<SCITEGIC>MOL_PROPERTY
U+W
SciTegic.value.DoubleValue
-4.861

@<SCITEGIC>MOL_PROPERTY
U
SciTegic.value.DoubleValue
48.698

@<SCITEGIC>MOL_PROPERTY
W
SciTegic.value.DoubleValue
-53.559

@<SCITEGIC>MOL_PROPERTY
W(PB)
SciTegic.value.DoubleValue
-55.859

@<SCITEGIC>MOL_PROPERTY
W(SA)
SciTegic.value.DoubleValue
2.300

@<SCITEGIC>MOL_PROPERTY
Valence
SciTegic.value.DoubleValue
2.792

@<SCITEGIC>MOL_PROPERTY
Coulomb
SciTegic.value.DoubleValue
45.121

@<SCITEGIC>MOL_PROPERTY
VdW
SciTegic.value.DoubleValue
0.785

@<SCITEGIC>MOL_PROPERTY
VdW6
SciTegic.value.DoubleValue
-6.974

@<SCITEGIC>MOL_PROPERTY
VdW12
SciTegic.value.DoubleValue
7.758

@<SCITEGIC>MOL_PROPERTY
Bond
SciTegic.value.DoubleValue
0.189

@<SCITEGIC>MOL_PROPERTY
Angle
SciTegic.value.DoubleValue
0.672

@<SCITEGIC>MOL_PROPERTY
Pdih
SciTegic.value.DoubleValue
1.931

@<SCITEGIC>MOL_PROPERTY
Idih
SciTegic.value.DoubleValue
0.000

@<SCITEGIC>MOL_PROPERTY
Tether
SciTegic.value.DoubleValue
0.000

@<TRIPOS>MOLECULE
guest-s14_vm2.mol2 : vm2 ligand conformer 19
          26          25           1
SMALL
USER_CHARGES
 
@<TRIPOS>ATOM
       1    C1      19.520729   19.909088   19.425030 C.3        1 MOL1        -0.2400
       2    H1      18.460234   20.045632   19.673892 H          1 MOL1         0.0971
       3    H2      20.032697   20.869150   19.571329 H          1 MOL1         0.0971
       4    H3      19.586367   19.651058   18.360063 H          1 MOL1         0.0971
       5    C2      20.156705   18.803237   20.293844 C.3        1 MOL1        -0.1385
       6    H4      21.206246   18.666146   19.997926 H          1 MOL1         0.0960
       7    H5      19.645863   17.849320   20.101462 H          1 MOL1         0.0960
       8    C3      20.078427   19.142075   21.799001 C.3        1 MOL1        -0.1409
       9    H6      20.592010   20.095111   21.986502 H          1 MOL1         0.0960
      10    H7      19.026688   19.285326   22.079239 H          1 MOL1         0.0960
      11    C4      20.712231   18.031820   22.671282 C.3        1 MOL1        -0.1409
      12    H8      21.740042   17.850060   22.327836 H          1 MOL1         0.0960
      13    H9      20.167277   17.088972   22.525085 H          1 MOL1         0.0960
      14    C5      20.753586   18.378753   24.179765 C.3        1 MOL1        -0.1409
      15    H10     21.314262   17.591590   24.702843 H          1 MOL1         0.0960
      16    H11     21.319704   19.308987   24.322155 H          1 MOL1         0.0960
      17    C6      19.349702   18.507237   24.821986 C.3        1 MOL1        -0.1450
      18    H12     18.761537   17.608281   24.594569 H          1 MOL1         0.0960
      19    H13     18.806142   19.357246   24.390613 H          1 MOL1         0.0960
      20    C7      19.412803   18.674579   26.352347 C.3        1 MOL1         0.0172
      21    H14     18.397830   18.682195   26.758949 H          1 MOL1         0.0934
      22    H15     19.950377   17.830679   26.793076 H          1 MOL1         0.0934
      23    N1      20.096816   19.952211   26.797745 N.4        1 MOL1        -0.5956
      24    H16     21.069380   19.993184   26.477743 H          1 MOL1         0.3624
      25    H17     20.113022   20.038991   27.819758 H          1 MOL1         0.3624
      26    H18     19.622333   20.784959   26.433964 H          1 MOL1         0.3624
@<TRIPOS>BOND
    1     1     2    1
    2     1     3    1
    3     1     4    1
    4     1     5    1
    5     5     6    1
    6     5     7    1
    7     5     8    1
    8     8     9    1
    9     8    10    1
   10     8    11    1
   11    11    12    1
   12    11    13    1
   13    11    14    1
   14    14    15    1
   15    14    16    1
   16    14    17    1
   17    17    18    1
   18    17    19    1
   19    17    20    1
   20    20    21    1
   21    20    22    1
   22    20    23    1
   23    23    24    1
   24    23    25    1
   25    23    26    1
@<TRIPOS>SUBSTRUCTURE
       1 MOL1            1 RESIDUE      1      MOL     
@<SCITEGIC>MOL_PROPERTY
VM2 Rank
SciTegic.value.IntegerValue
19

@<SCITEGIC>MOL_PROPERTY
Conf_Id
SciTegic.value.IntegerValue
831

@<SCITEGIC>MOL_PROPERTY
Probability
SciTegic.value.DoubleValue
1.59

@<SCITEGIC>MOL_PROPERTY
Sum Probability
SciTegic.value.DoubleValue
52.70

@<SCITEGIC>MOL_PROPERTY
Delta G
SciTegic.value.DoubleValue
0.921

@<SCITEGIC>MOL_PROPERTY
G
SciTegic.value.DoubleValue
49.183

@<SCITEGIC>MOL_PROPERTY
E
SciTegic.value.DoubleValue
16.616

@<SCITEGIC>MOL_PROPERTY
-TS
SciTegic.value.DoubleValue
32.567

@<SCITEGIC>MOL_PROPERTY
U+W
SciTegic.value.DoubleValue
-4.846

@<SCITEGIC>MOL_PROPERTY
U
SciTegic.value.DoubleValue
48.698

@<SCITEGIC>MOL_PROPERTY
W
SciTegic.value.DoubleValue
-53.544

@<SCITEGIC>MOL_PROPERTY
W(PB)
SciTegic.value.DoubleValue
-55.868

@<SCITEGIC>MOL_PROPERTY
W(SA)
SciTegic.value.DoubleValue
2.324

@<SCITEGIC>MOL_PROPERTY
Valence
SciTegic.value.DoubleValue
2.792

@<SCITEGIC>MOL_PROPERTY
Coulomb
SciTegic.value.DoubleValue
45.121

@<SCITEGIC>MOL_PROPERTY
VdW
SciTegic.value.DoubleValue
0.785

@<SCITEGIC>MOL_PROPERTY
VdW6
SciTegic.value.DoubleValue
-6.973

@<SCITEGIC>MOL_PROPERTY
VdW12
SciTegic.value.DoubleValue
7.758

@<SCITEGIC>MOL_PROPERTY
Bond
SciTegic.value.DoubleValue
0.189

@<SCITEGIC>MOL_PROPERTY
Angle
SciTegic.value.DoubleValue
0.672

@<SCITEGIC>MOL_PROPERTY
Pdih
SciTegic.value.DoubleValue
1.931

@<SCITEGIC>MOL_PROPERTY
Idih
SciTegic.value.DoubleValue
0.000

@<SCITEGIC>MOL_PROPERTY
Tether
SciTegic.value.DoubleValue
0.000

@<TRIPOS>MOLECULE
guest-s14_vm2.mol2 : vm2 ligand conformer 20
          26          25           1
SMALL
USER_CHARGES
 
@<TRIPOS>ATOM
       1    C1      19.501803   19.781796   19.385280 C.3        1 MOL1        -0.2400
       2    H1      20.144214   19.240270   18.678679 H          1 MOL1         0.0971
       3    H2      18.499084   19.850659   18.943861 H          1 MOL1         0.0971
       4    H3      19.894053   20.801628   19.491675 H          1 MOL1         0.0971
       5    C2      19.448180   19.063253   20.750235 C.3        1 MOL1        -0.1385
       6    H4      19.024975   18.057959   20.616122 H          1 MOL1         0.0960
       7    H5      18.765760   19.610573   21.413858 H          1 MOL1         0.0960
       8    C3      20.850742   18.958041   21.394467 C.3        1 MOL1        -0.1409
       9    H6      21.535723   18.479041   20.681233 H          1 MOL1         0.0960
      10    H7      21.251085   19.964848   21.576952 H          1 MOL1         0.0960
      11    C4      20.868613   18.145260   22.712427 C.3        1 MOL1        -0.1409
      12    H8      21.913045   18.024294   23.031679 H          1 MOL1         0.0960
      13    H9      20.484385   17.133068   22.524947 H          1 MOL1         0.0960
      14    C5      20.065172   18.806000   23.858375 C.3        1 MOL1        -0.1409
      15    H10     20.415573   19.837318   23.997752 H          1 MOL1         0.0960
      16    H11     19.002635   18.861812   23.587580 H          1 MOL1         0.0960
      17    C6      20.206463   18.019177   25.182906 C.3        1 MOL1        -0.1450
      18    H12     21.260116   17.984786   25.490486 H          1 MOL1         0.0960
      19    H13     19.892607   16.979045   25.022864 H          1 MOL1         0.0960
      20    C7      19.357635   18.614777   26.322695 C.3        1 MOL1         0.0172
      21    H14     18.308435   18.655389   26.017845 H          1 MOL1         0.0934
      22    H15     19.431917   17.972053   27.204143 H          1 MOL1         0.0934
      23    N1      19.782391   20.010695   26.734615 N.4        1 MOL1        -0.5956
      24    H16     19.206597   20.372729   27.502549 H          1 MOL1         0.3624
      25    H17     19.701877   20.676282   25.959743 H          1 MOL1         0.3624
      26    H18     20.756224   20.033497   27.054242 H          1 MOL1         0.3624
@<TRIPOS>BOND
    1     1     2    1
    2     1     3    1
    3     1     4    1
    4     1     5    1
    5     5     6    1
    6     5     7    1
    7     5     8    1
    8     8     9    1
    9     8    10    1
   10     8    11    1
   11    11    12    1
   12    11    13    1
   13    11    14    1
   14    14    15    1
   15    14    16    1
   16    14    17    1
   17    17    18    1
   18    17    19    1
   19    17    20    1
   20    20    21    1
   21    20    22    1
   22    20    23    1
   23    23    24    1
   24    23    25    1
   25    23    26    1
@<TRIPOS>SUBSTRUCTURE
       1 MOL1            1 RESIDUE      1      MOL     
@<SCITEGIC>MOL_PROPERTY
VM2 Rank
SciTegic.value.IntegerValue
20

@<SCITEGIC>MOL_PROPERTY
Conf_Id
SciTegic.value.IntegerValue
706

@<SCITEGIC>MOL_PROPERTY
Probability
SciTegic.value.DoubleValue
1.54

@<SCITEGIC>MOL_PROPERTY
Sum Probability
SciTegic.value.DoubleValue
54.25

@<SCITEGIC>MOL_PROPERTY
Delta G
SciTegic.value.DoubleValue
0.939

@<SCITEGIC>MOL_PROPERTY
G
SciTegic.value.DoubleValue
49.200

@<SCITEGIC>MOL_PROPERTY
E
SciTegic.value.DoubleValue
16.644

@<SCITEGIC>MOL_PROPERTY
-TS
SciTegic.value.DoubleValue
32.556

@<SCITEGIC>MOL_PROPERTY
U+W
SciTegic.value.DoubleValue
-4.818

@<SCITEGIC>MOL_PROPERTY
U
SciTegic.value.DoubleValue
48.735

@<SCITEGIC>MOL_PROPERTY
W
SciTegic.value.DoubleValue
-53.553

@<SCITEGIC>MOL_PROPERTY
W(PB)
SciTegic.value.DoubleValue
-55.889

@<SCITEGIC>MOL_PROPERTY
W(SA)
SciTegic.value.DoubleValue
2.336

@<SCITEGIC>MOL_PROPERTY
Valence
SciTegic.value.DoubleValue
2.803

@<SCITEGIC>MOL_PROPERTY
Coulomb
SciTegic.value.DoubleValue
45.123

@<SCITEGIC>MOL_PROPERTY
VdW
SciTegic.value.DoubleValue
0.809

@<SCITEGIC>MOL_PROPERTY
VdW6
SciTegic.value.DoubleValue
-6.953

@<SCITEGIC>MOL_PROPERTY
VdW12
SciTegic.value.DoubleValue
7.761

@<SCITEGIC>MOL_PROPERTY
Bond
SciTegic.value.DoubleValue
0.188

@<SCITEGIC>MOL_PROPERTY
Angle
SciTegic.value.DoubleValue
0.699

@<SCITEGIC>MOL_PROPERTY
Pdih
SciTegic.value.DoubleValue
1.917

@<SCITEGIC>MOL_PROPERTY
Idih
SciTegic.value.DoubleValue
0.000

@<SCITEGIC>MOL_PROPERTY
Tether
SciTegic.value.DoubleValue
0.000

@<TRIPOS>MOLECULE
guest-s14_vm2.mol2 : vm2 ligand conformer 21
          26          25           1
SMALL
USER_CHARGES
 
@<TRIPOS>ATOM
       1    C1      19.603336   19.849049   19.388810 C.3        1 MOL1        -0.2400
       2    H1      18.507600   19.886189   19.445558 H          1 MOL1         0.0971
       3    H2      19.953151   20.811183   18.992625 H          1 MOL1         0.0971
       4    H3      19.882272   19.067556   18.669997 H          1 MOL1         0.0971
       5    C2      20.221280   19.573866   20.776147 C.3        1 MOL1        -0.1385
       6    H4      19.954624   20.395695   21.453748 H          1 MOL1         0.0960
       7    H5      21.317066   19.571793   20.692743 H          1 MOL1         0.0960
       8    C3      19.738940   18.223712   21.357281 C.3        1 MOL1        -0.1409
       9    H6      18.648457   18.245879   21.489904 H          1 MOL1         0.0960
      10    H7      19.944189   17.427901   20.627966 H          1 MOL1         0.0960
      11    C4      20.417545   17.847257   22.697329 C.3        1 MOL1        -0.1409
      12    H8      21.506896   17.808173   22.559124 H          1 MOL1         0.0960
      13    H9      20.104863   16.830094   22.971197 H          1 MOL1         0.0960
      14    C5      20.071651   18.810143   23.858577 C.3        1 MOL1        -0.1409
      15    H10     20.449269   19.816777   23.636036 H          1 MOL1         0.0960
      16    H11     18.980212   18.889518   23.949585 H          1 MOL1         0.0960
      17    C6      20.677441   18.330063   25.198716 C.3        1 MOL1        -0.1450
      18    H12     21.763617   18.214188   25.085632 H          1 MOL1         0.0960
      19    H13     20.281827   17.338922   25.457756 H          1 MOL1         0.0960
      20    C7      20.409564   19.309266   26.357929 C.3        1 MOL1         0.0172
      21    H14     20.929749   18.960967   27.254400 H          1 MOL1         0.0934
      22    H15     20.797740   20.298638   26.101289 H          1 MOL1         0.0934
      23    N1      18.941243   19.455644   26.706210 N.4        1 MOL1        -0.5956
      24    H16     18.397517   19.815425   25.915746 H          1 MOL1         0.3624
      25    H17     18.798367   20.103493   27.488647 H          1 MOL1         0.3624
      26    H18     18.523632   18.560017   26.979130 H          1 MOL1         0.3624
@<TRIPOS>BOND
    1     1     2    1
    2     1     3    1
    3     1     4    1
    4     1     5    1
    5     5     6    1
    6     5     7    1
    7     5     8    1
    8     8     9    1
    9     8    10    1
   10     8    11    1
   11    11    12    1
   12    11    13    1
   13    11    14    1
   14    14    15    1
   15    14    16    1
   16    14    17    1
   17    17    18    1
   18    17    19    1
   19    17    20    1
   20    20    21    1
   21    20    22    1
   22    20    23    1
   23    23    24    1
   24    23    25    1
   25    23    26    1
@<TRIPOS>SUBSTRUCTURE
       1 MOL1            1 RESIDUE      1      MOL     
@<SCITEGIC>MOL_PROPERTY
VM2 Rank
SciTegic.value.IntegerValue
21

@<SCITEGIC>MOL_PROPERTY
Conf_Id
SciTegic.value.IntegerValue
1034

@<SCITEGIC>MOL_PROPERTY
Probability
SciTegic.value.DoubleValue
1.51

@<SCITEGIC>MOL_PROPERTY
Sum Probability
SciTegic.value.DoubleValue
55.76

@<SCITEGIC>MOL_PROPERTY
Delta G
SciTegic.value.DoubleValue
0.951

@<SCITEGIC>MOL_PROPERTY
G
SciTegic.value.DoubleValue
49.213

@<SCITEGIC>MOL_PROPERTY
E
SciTegic.value.DoubleValue
16.656

@<SCITEGIC>MOL_PROPERTY
-TS
SciTegic.value.DoubleValue
32.557

@<SCITEGIC>MOL_PROPERTY
U+W
SciTegic.value.DoubleValue
-4.806

@<SCITEGIC>MOL_PROPERTY
U
SciTegic.value.DoubleValue
48.735

@<SCITEGIC>MOL_PROPERTY
W
SciTegic.value.DoubleValue
-53.541

@<SCITEGIC>MOL_PROPERTY
W(PB)
SciTegic.value.DoubleValue
-55.861

@<SCITEGIC>MOL_PROPERTY
W(SA)
SciTegic.value.DoubleValue
2.320

@<SCITEGIC>MOL_PROPERTY
Valence
SciTegic.value.DoubleValue
2.803

@<SCITEGIC>MOL_PROPERTY
Coulomb
SciTegic.value.DoubleValue
45.123

@<SCITEGIC>MOL_PROPERTY
VdW
SciTegic.value.DoubleValue
0.809

@<SCITEGIC>MOL_PROPERTY
VdW6
SciTegic.value.DoubleValue
-6.953

@<SCITEGIC>MOL_PROPERTY
VdW12
SciTegic.value.DoubleValue
7.762

@<SCITEGIC>MOL_PROPERTY
Bond
SciTegic.value.DoubleValue
0.188

@<SCITEGIC>MOL_PROPERTY
Angle
SciTegic.value.DoubleValue
0.699

@<SCITEGIC>MOL_PROPERTY
Pdih
SciTegic.value.DoubleValue
1.917

@<SCITEGIC>MOL_PROPERTY
Idih
SciTegic.value.DoubleValue
0.000

@<SCITEGIC>MOL_PROPERTY
Tether
SciTegic.value.DoubleValue
0.000

@<TRIPOS>MOLECULE
guest-s14_vm2.mol2 : vm2 ligand conformer 22
          26          25           1
SMALL
USER_CHARGES
 
@<TRIPOS>ATOM
       1    C1      20.770229   19.765821   19.472738 C.3        1 MOL1        -0.2400
       2    H1      20.126650   20.652932   19.408860 H          1 MOL1         0.0971
       3    H2      21.789896   20.068900   19.201706 H          1 MOL1         0.0971
       4    H3      20.425453   19.038704   18.725972 H          1 MOL1         0.0971
       5    C2      20.740729   19.160609   20.892290 C.3        1 MOL1        -0.1385
       6    H4      21.130220   19.901530   21.602841 H          1 MOL1         0.0960
       7    H5      21.415382   18.294054   20.932713 H          1 MOL1         0.0960
       8    C3      19.311531   18.729587   21.298479 C.3        1 MOL1        -0.1409
       9    H6      18.649412   19.606344   21.310417 H          1 MOL1         0.0960
      10    H7      18.911840   18.052484   20.530933 H          1 MOL1         0.0960
      11    C4      19.245654   18.010413   22.668326 C.3        1 MOL1        -0.1409
      12    H8      19.897023   17.125688   22.650754 H          1 MOL1         0.0960
      13    H9      18.222692   17.637065   22.814989 H          1 MOL1         0.0960
      14    C5      19.627670   18.917106   23.863078 C.3        1 MOL1        -0.1409
      15    H10     20.671939   19.238389   23.764027 H          1 MOL1         0.0960
      16    H11     19.009287   19.825289   23.846835 H          1 MOL1         0.0960
      17    C6      19.438795   18.190234   25.215717 C.3        1 MOL1        -0.1450
      18    H12     20.073690   17.294994   25.253714 H          1 MOL1         0.0960
      19    H13     18.400762   17.841930   25.300058 H          1 MOL1         0.0960
      20    C7      19.748768   19.092738   26.425650 C.3        1 MOL1         0.0172
      21    H14     19.123694   19.988915   26.386194 H          1 MOL1         0.0934
      22    H15     19.515178   18.554630   27.348384 H          1 MOL1         0.0934
      23    N1      21.197624   19.532493   26.504722 N.4        1 MOL1        -0.5956
      24    H16     21.474271   20.078469   25.683014 H          1 MOL1         0.3624
      25    H17     21.835501   18.732283   26.566492 H          1 MOL1         0.3624
      26    H18     21.372746   20.119186   27.327812 H          1 MOL1         0.3624
@<TRIPOS>BOND
    1     1     2    1
    2     1     3    1
    3     1     4    1
    4     1     5    1
    5     5     6    1
    6     5     7    1
    7     5     8    1
    8     8     9    1
    9     8    10    1
   10     8    11    1
   11    11    12    1
   12    11    13    1
   13    11    14    1
   14    14    15    1
   15    14    16    1
   16    14    17    1
   17    17    18    1
   18    17    19    1
   19    17    20    1
   20    20    21    1
   21    20    22    1
   22    20    23    1
   23    23    24    1
   24    23    25    1
   25    23    26    1
@<TRIPOS>SUBSTRUCTURE
       1 MOL1            1 RESIDUE      1      MOL     
@<SCITEGIC>MOL_PROPERTY
VM2 Rank
SciTegic.value.IntegerValue
22

@<SCITEGIC>MOL_PROPERTY
Conf_Id
SciTegic.value.IntegerValue
982

@<SCITEGIC>MOL_PROPERTY
Probability
SciTegic.value.DoubleValue
1.50

@<SCITEGIC>MOL_PROPERTY
Sum Probability
SciTegic.value.DoubleValue
57.26

@<SCITEGIC>MOL_PROPERTY
Delta G
SciTegic.value.DoubleValue
0.955

@<SCITEGIC>MOL_PROPERTY
G
SciTegic.value.DoubleValue
49.216

@<SCITEGIC>MOL_PROPERTY
E
SciTegic.value.DoubleValue
16.667

@<SCITEGIC>MOL_PROPERTY
-TS
SciTegic.value.DoubleValue
32.549

@<SCITEGIC>MOL_PROPERTY
U+W
SciTegic.value.DoubleValue
-4.795

@<SCITEGIC>MOL_PROPERTY
U
SciTegic.value.DoubleValue
48.944

@<SCITEGIC>MOL_PROPERTY
W
SciTegic.value.DoubleValue
-53.739

@<SCITEGIC>MOL_PROPERTY
W(PB)
SciTegic.value.DoubleValue
-56.050

@<SCITEGIC>MOL_PROPERTY
W(SA)
SciTegic.value.DoubleValue
2.311

@<SCITEGIC>MOL_PROPERTY
Valence
SciTegic.value.DoubleValue
2.802

@<SCITEGIC>MOL_PROPERTY
Coulomb
SciTegic.value.DoubleValue
45.335

@<SCITEGIC>MOL_PROPERTY
VdW
SciTegic.value.DoubleValue
0.807

@<SCITEGIC>MOL_PROPERTY
VdW6
SciTegic.value.DoubleValue
-6.962

@<SCITEGIC>MOL_PROPERTY
VdW12
SciTegic.value.DoubleValue
7.769

@<SCITEGIC>MOL_PROPERTY
Bond
SciTegic.value.DoubleValue
0.189

@<SCITEGIC>MOL_PROPERTY
Angle
SciTegic.value.DoubleValue
0.696

@<SCITEGIC>MOL_PROPERTY
Pdih
SciTegic.value.DoubleValue
1.917

@<SCITEGIC>MOL_PROPERTY
Idih
SciTegic.value.DoubleValue
0.000

@<SCITEGIC>MOL_PROPERTY
Tether
SciTegic.value.DoubleValue
0.000

@<TRIPOS>MOLECULE
guest-s14_vm2.mol2 : vm2 ligand conformer 23
          26          25           1
SMALL
USER_CHARGES
 
@<TRIPOS>ATOM
       1    C1      19.355671   19.320429   19.223910 C.3        1 MOL1        -0.2400
       2    H1      19.485023   20.410583   19.215512 H          1 MOL1         0.0971
       3    H2      19.575793   18.947216   18.215297 H          1 MOL1         0.0971
       4    H3      18.301796   19.102766   19.441153 H          1 MOL1         0.0971
       5    C2      20.284735   18.659589   20.264277 C.3        1 MOL1        -0.1385
       6    H4      21.331547   18.865779   20.000515 H          1 MOL1         0.0960
       7    H5      20.157171   17.568620   20.226246 H          1 MOL1         0.0960
       8    C3      19.996307   19.168501   21.694085 C.3        1 MOL1        -0.1409
       9    H6      20.127394   20.258877   21.727409 H          1 MOL1         0.0960
      10    H7      18.946108   18.965055   21.940324 H          1 MOL1         0.0960
      11    C4      20.924722   18.502991   22.738490 C.3        1 MOL1        -0.1409
      12    H8      21.969433   18.648543   22.430592 H          1 MOL1         0.0960
      13    H9      20.754834   17.417462   22.747734 H          1 MOL1         0.0960
      14    C5      20.754305   19.066974   24.170695 C.3        1 MOL1        -0.1409
      15    H10     21.538568   18.631979   24.804168 H          1 MOL1         0.0960
      16    H11     20.930597   20.151548   24.162253 H          1 MOL1         0.0960
      17    C6      19.366834   18.768665   24.792582 C.3        1 MOL1        -0.1450
      18    H12     19.172450   17.688008   24.779464 H          1 MOL1         0.0960
      19    H13     18.579947   19.237314   24.188803 H          1 MOL1         0.0960
      20    C7      19.236207   19.296845   26.234367 C.3        1 MOL1         0.0172
      21    H14     19.448180   20.369264   26.254248 H          1 MOL1         0.0934
      22    H15     18.211184   19.145622   26.583678 H          1 MOL1         0.0934
      23    N1      20.162218   18.615005   27.222595 N.4        1 MOL1        -0.5956
      24    H16     20.039031   18.979559   28.173515 H          1 MOL1         0.3624
      25    H17     21.147445   18.749531   26.975428 H          1 MOL1         0.3624
      26    H18     19.995585   17.604363   27.265637 H          1 MOL1         0.3624
@<TRIPOS>BOND
    1     1     2    1
    2     1     3    1
    3     1     4    1
    4     1     5    1
    5     5     6    1
    6     5     7    1
    7     5     8    1
    8     8     9    1
    9     8    10    1
   10     8    11    1
   11    11    12    1
   12    11    13    1
   13    11    14    1
   14    14    15    1
   15    14    16    1
   16    14    17    1
   17    17    18    1
   18    17    19    1
   19    17    20    1
   20    20    21    1
   21    20    22    1
   22    20    23    1
   23    23    24    1
   24    23    25    1
   25    23    26    1
@<TRIPOS>SUBSTRUCTURE
       1 MOL1            1 RESIDUE      1      MOL     
@<SCITEGIC>MOL_PROPERTY
VM2 Rank
SciTegic.value.IntegerValue
23

@<SCITEGIC>MOL_PROPERTY
Conf_Id
SciTegic.value.IntegerValue
1367

@<SCITEGIC>MOL_PROPERTY
Probability
SciTegic.value.DoubleValue
1.42

@<SCITEGIC>MOL_PROPERTY
Sum Probability
SciTegic.value.DoubleValue
58.67

@<SCITEGIC>MOL_PROPERTY
Delta G
SciTegic.value.DoubleValue
0.989

@<SCITEGIC>MOL_PROPERTY
G
SciTegic.value.DoubleValue
49.251

@<SCITEGIC>MOL_PROPERTY
E
SciTegic.value.DoubleValue
16.717

@<SCITEGIC>MOL_PROPERTY
-TS
SciTegic.value.DoubleValue
32.534

@<SCITEGIC>MOL_PROPERTY
U+W
SciTegic.value.DoubleValue
-4.745

@<SCITEGIC>MOL_PROPERTY
U
SciTegic.value.DoubleValue
48.583

@<SCITEGIC>MOL_PROPERTY
W
SciTegic.value.DoubleValue
-53.328

@<SCITEGIC>MOL_PROPERTY
W(PB)
SciTegic.value.DoubleValue
-55.653

@<SCITEGIC>MOL_PROPERTY
W(SA)
SciTegic.value.DoubleValue
2.326

@<SCITEGIC>MOL_PROPERTY
Valence
SciTegic.value.DoubleValue
2.825

@<SCITEGIC>MOL_PROPERTY
Coulomb
SciTegic.value.DoubleValue
44.916

@<SCITEGIC>MOL_PROPERTY
VdW
SciTegic.value.DoubleValue
0.842

@<SCITEGIC>MOL_PROPERTY
VdW6
SciTegic.value.DoubleValue
-6.929

@<SCITEGIC>MOL_PROPERTY
VdW12
SciTegic.value.DoubleValue
7.771

@<SCITEGIC>MOL_PROPERTY
Bond
SciTegic.value.DoubleValue
0.195

@<SCITEGIC>MOL_PROPERTY
Angle
SciTegic.value.DoubleValue
0.721

@<SCITEGIC>MOL_PROPERTY
Pdih
SciTegic.value.DoubleValue
1.909

@<SCITEGIC>MOL_PROPERTY
Idih
SciTegic.value.DoubleValue
0.000

@<SCITEGIC>MOL_PROPERTY
Tether
SciTegic.value.DoubleValue
0.000

@<TRIPOS>MOLECULE
guest-s14_vm2.mol2 : vm2 ligand conformer 24
          26          25           1
SMALL
USER_CHARGES
 
@<TRIPOS>ATOM
       1    C1      19.117014   18.675503   19.417516 C.3        1 MOL1        -0.2400
       2    H1      19.955080   18.727929   18.710321 H          1 MOL1         0.0971
       3    H2      18.450508   17.866976   19.090269 H          1 MOL1         0.0971
       4    H3      18.558321   19.618556   19.356233 H          1 MOL1         0.0971
       5    C2      19.618216   18.420507   20.854894 C.3        1 MOL1        -0.1385
       6    H4      20.146956   17.457770   20.890686 H          1 MOL1         0.0960
       7    H5      18.751587   18.333529   21.523428 H          1 MOL1         0.0960
       8    C3      20.556828   19.550564   21.340028 C.3        1 MOL1        -0.1409
       9    H6      21.371481   19.673877   20.613062 H          1 MOL1         0.0960
      10    H7      20.011315   20.504199   21.355662 H          1 MOL1         0.0960
      11    C4      21.179376   19.285551   22.732952 C.3        1 MOL1        -0.1409
      12    H8      21.917209   20.073411   22.938446 H          1 MOL1         0.0960
      13    H9      21.736961   18.338977   22.712355 H          1 MOL1         0.0960
      14    C5      20.140890   19.255588   23.880169 C.3        1 MOL1        -0.1409
      15    H10     19.550221   20.182048   23.864635 H          1 MOL1         0.0960
      16    H11     19.440428   18.426036   23.722916 H          1 MOL1         0.0960
      17    C6      20.819641   19.101334   25.261888 C.3        1 MOL1        -0.1450
      18    H12     21.542986   19.915097   25.405083 H          1 MOL1         0.0960
      19    H13     21.391115   18.164258   25.297928 H          1 MOL1         0.0960
      20    C7      19.812521   19.135113   26.427689 C.3        1 MOL1         0.0172
      21    H14     20.355453   19.109663   27.376446 H          1 MOL1         0.0934
      22    H15     19.236265   20.063491   26.389596 H          1 MOL1         0.0934
      23    N1      18.836515   17.974840   26.425863 N.4        1 MOL1        -0.5956
      24    H16     19.318558   17.071820   26.482683 H          1 MOL1         0.3624
      25    H17     18.264754   17.960739   25.575735 H          1 MOL1         0.3624
      26    H18     18.190451   18.019912   27.221428 H          1 MOL1         0.3624
@<TRIPOS>BOND
    1     1     2    1
    2     1     3    1
    3     1     4    1
    4     1     5    1
    5     5     6    1
    6     5     7    1
    7     5     8    1
    8     8     9    1
    9     8    10    1
   10     8    11    1
   11    11    12    1
   12    11    13    1
   13    11    14    1
   14    14    15    1
   15    14    16    1
   16    14    17    1
   17    17    18    1
   18    17    19    1
   19    17    20    1
   20    20    21    1
   21    20    22    1
   22    20    23    1
   23    23    24    1
   24    23    25    1
   25    23    26    1
@<TRIPOS>SUBSTRUCTURE
       1 MOL1            1 RESIDUE      1      MOL     
@<SCITEGIC>MOL_PROPERTY
VM2 Rank
SciTegic.value.IntegerValue
24

@<SCITEGIC>MOL_PROPERTY
Conf_Id
SciTegic.value.IntegerValue
981

@<SCITEGIC>MOL_PROPERTY
Probability
SciTegic.value.DoubleValue
1.31

@<SCITEGIC>MOL_PROPERTY
Sum Probability
SciTegic.value.DoubleValue
59.98

@<SCITEGIC>MOL_PROPERTY
Delta G
SciTegic.value.DoubleValue
1.036

@<SCITEGIC>MOL_PROPERTY
G
SciTegic.value.DoubleValue
49.297

@<SCITEGIC>MOL_PROPERTY
E
SciTegic.value.DoubleValue
16.748

@<SCITEGIC>MOL_PROPERTY
-TS
SciTegic.value.DoubleValue
32.549

@<SCITEGIC>MOL_PROPERTY
U+W
SciTegic.value.DoubleValue
-4.714

@<SCITEGIC>MOL_PROPERTY
U
SciTegic.value.DoubleValue
48.945

@<SCITEGIC>MOL_PROPERTY
W
SciTegic.value.DoubleValue
-53.658

@<SCITEGIC>MOL_PROPERTY
W(PB)
SciTegic.value.DoubleValue
-55.996

@<SCITEGIC>MOL_PROPERTY
W(SA)
SciTegic.value.DoubleValue
2.338

@<SCITEGIC>MOL_PROPERTY
Valence
SciTegic.value.DoubleValue
2.802

@<SCITEGIC>MOL_PROPERTY
Coulomb
SciTegic.value.DoubleValue
45.335

@<SCITEGIC>MOL_PROPERTY
VdW
SciTegic.value.DoubleValue
0.807

@<SCITEGIC>MOL_PROPERTY
VdW6
SciTegic.value.DoubleValue
-6.962

@<SCITEGIC>MOL_PROPERTY
VdW12
SciTegic.value.DoubleValue
7.769

@<SCITEGIC>MOL_PROPERTY
Bond
SciTegic.value.DoubleValue
0.189

@<SCITEGIC>MOL_PROPERTY
Angle
SciTegic.value.DoubleValue
0.697

@<SCITEGIC>MOL_PROPERTY
Pdih
SciTegic.value.DoubleValue
1.917

@<SCITEGIC>MOL_PROPERTY
Idih
SciTegic.value.DoubleValue
0.000

@<SCITEGIC>MOL_PROPERTY
Tether
SciTegic.value.DoubleValue
0.000

@<TRIPOS>MOLECULE
guest-s14_vm2.mol2 : vm2 ligand conformer 25
          26          25           1
SMALL
USER_CHARGES
 
@<TRIPOS>ATOM
       1    C1      21.049924   20.067494   20.177274 C.3        1 MOL1        -0.2400
       2    H1      21.716014   20.131160   21.046575 H          1 MOL1         0.0971
       3    H2      21.674062   20.144895   19.277608 H          1 MOL1         0.0971
       4    H3      20.376984   20.934602   20.194489 H          1 MOL1         0.0971
       5    C2      20.251360   18.744199   20.168958 C.3        1 MOL1        -0.1385
       6    H4      20.946323   17.892987   20.183618 H          1 MOL1         0.0960
       7    H5      19.696652   18.671707   19.222996 H          1 MOL1         0.0960
       8    C3      19.249278   18.622196   21.342330 C.3        1 MOL1        -0.1409
       9    H6      18.544078   19.464221   21.311479 H          1 MOL1         0.0960
      10    H7      18.650843   17.712417   21.195765 H          1 MOL1         0.0960
      11    C4      19.929694   18.561926   22.731005 C.3        1 MOL1        -0.1409
      12    H8      20.476933   19.495387   22.912464 H          1 MOL1         0.0960
      13    H9      20.669327   17.749537   22.741147 H          1 MOL1         0.0960
      14    C5      18.899301   18.336548   23.863615 C.3        1 MOL1        -0.1409
      15    H10     18.174827   19.162759   23.875329 H          1 MOL1         0.0960
      16    H11     18.325454   17.423228   23.654041 H          1 MOL1         0.0960
      17    C6      19.551074   18.202131   25.259990 C.3        1 MOL1        -0.1450
      18    H12     20.258426   17.362105   25.257778 H          1 MOL1         0.0960
      19    H13     18.772525   17.955617   25.994179 H          1 MOL1         0.0960
      20    C7      20.274116   19.486951   25.705951 C.3        1 MOL1         0.0172
      21    H14     21.081831   19.719076   25.007114 H          1 MOL1         0.0934
      22    H15     19.569831   20.323234   25.708923 H          1 MOL1         0.0934
      23    N1      20.876254   19.377557   27.091877 N.4        1 MOL1        -0.5956
      24    H16     20.163698   19.187266   27.804103 H          1 MOL1         0.3624
      25    H17     21.352445   20.242618   27.369895 H          1 MOL1         0.3624
      26    H18     21.568952   18.623844   27.149190 H          1 MOL1         0.3624
@<TRIPOS>BOND
    1     1     2    1
    2     1     3    1
    3     1     4    1
    4     1     5    1
    5     5     6    1
    6     5     7    1
    7     5     8    1
    8     8     9    1
    9     8    10    1
   10     8    11    1
   11    11    12    1
   12    11    13    1
   13    11    14    1
   14    14    15    1
   15    14    16    1
   16    14    17    1
   17    17    18    1
   18    17    19    1
   19    17    20    1
   20    20    21    1
   21    20    22    1
   22    20    23    1
   23    23    24    1
   24    23    25    1
   25    23    26    1
@<TRIPOS>SUBSTRUCTURE
       1 MOL1            1 RESIDUE      1      MOL     
@<SCITEGIC>MOL_PROPERTY
VM2 Rank
SciTegic.value.IntegerValue
25

@<SCITEGIC>MOL_PROPERTY
Conf_Id
SciTegic.value.IntegerValue
762

@<SCITEGIC>MOL_PROPERTY
Probability
SciTegic.value.DoubleValue
1.28

@<SCITEGIC>MOL_PROPERTY
Sum Probability
SciTegic.value.DoubleValue
61.26

@<SCITEGIC>MOL_PROPERTY
Delta G
SciTegic.value.DoubleValue
1.052

@<SCITEGIC>MOL_PROPERTY
G
SciTegic.value.DoubleValue
49.313

@<SCITEGIC>MOL_PROPERTY
E
SciTegic.value.DoubleValue
16.753

@<SCITEGIC>MOL_PROPERTY
-TS
SciTegic.value.DoubleValue
32.560

@<SCITEGIC>MOL_PROPERTY
U+W
SciTegic.value.DoubleValue
-4.709

@<SCITEGIC>MOL_PROPERTY
U
SciTegic.value.DoubleValue
48.723

@<SCITEGIC>MOL_PROPERTY
W
SciTegic.value.DoubleValue
-53.432

@<SCITEGIC>MOL_PROPERTY
W(PB)
SciTegic.value.DoubleValue
-55.777

@<SCITEGIC>MOL_PROPERTY
W(SA)
SciTegic.value.DoubleValue
2.344

@<SCITEGIC>MOL_PROPERTY
Valence
SciTegic.value.DoubleValue
2.962

@<SCITEGIC>MOL_PROPERTY
Coulomb
SciTegic.value.DoubleValue
44.993

@<SCITEGIC>MOL_PROPERTY
VdW
SciTegic.value.DoubleValue
0.768

@<SCITEGIC>MOL_PROPERTY
VdW6
SciTegic.value.DoubleValue
-7.007

@<SCITEGIC>MOL_PROPERTY
VdW12
SciTegic.value.DoubleValue
7.776

@<SCITEGIC>MOL_PROPERTY
Bond
SciTegic.value.DoubleValue
0.188

@<SCITEGIC>MOL_PROPERTY
Angle
SciTegic.value.DoubleValue
0.757

@<SCITEGIC>MOL_PROPERTY
Pdih
SciTegic.value.DoubleValue
2.018

@<SCITEGIC>MOL_PROPERTY
Idih
SciTegic.value.DoubleValue
0.000

@<SCITEGIC>MOL_PROPERTY
Tether
SciTegic.value.DoubleValue
0.000

@<TRIPOS>MOLECULE
guest-s14_vm2.mol2 : vm2 ligand conformer 26
          26          25           1
SMALL
USER_CHARGES
 
@<TRIPOS>ATOM
       1    C1      20.128504   17.813316   19.841671 C.3        1 MOL1        -0.2400
       2    H1      19.072548   17.907284   19.556799 H          1 MOL1         0.0971
       3    H2      20.677413   17.427265   18.972994 H          1 MOL1         0.0971
       4    H3      20.204616   17.063840   20.639135 H          1 MOL1         0.0971
       5    C2      20.707786   19.175746   20.285483 C.3        1 MOL1        -0.1385
       6    H4      20.721606   19.853288   19.420299 H          1 MOL1         0.0960
       7    H5      21.755102   19.049328   20.593530 H          1 MOL1         0.0960
       8    C3      19.903414   19.844061   21.426578 C.3        1 MOL1        -0.1409
       9    H6      20.315506   20.847375   21.602317 H          1 MOL1         0.0960
      10    H7      18.862833   19.989283   21.105085 H          1 MOL1         0.0960
      11    C4      19.934203   19.046105   22.752172 C.3        1 MOL1        -0.1409
      12    H8      20.978298   18.855485   23.033828 H          1 MOL1         0.0960
      13    H9      19.457060   18.067660   22.609573 H          1 MOL1         0.0960
      14    C5      19.208941   19.801958   23.891387 C.3        1 MOL1        -0.1409
      15    H10     19.703258   20.766981   24.070214 H          1 MOL1         0.0960
      16    H11     18.182285   20.032705   23.574894 H          1 MOL1         0.0960
      17    C6      19.152211   18.999563   25.212582 C.3        1 MOL1        -0.1450
      18    H12     18.634457   18.045996   25.043354 H          1 MOL1         0.0960
      19    H13     18.551854   19.557982   25.943114 H          1 MOL1         0.0960
      20    C7      20.547818   18.732682   25.807028 C.3        1 MOL1         0.0172
      21    H14     21.141116   18.138809   25.107030 H          1 MOL1         0.0934
      22    H15     21.063063   19.681973   25.976619 H          1 MOL1         0.0934
      23    N1      20.498123   17.985568   27.124100 N.4        1 MOL1        -0.5956
      24    H16     21.436665   17.818118   27.502898 H          1 MOL1         0.3624
      25    H17     20.047569   17.069707   27.027189 H          1 MOL1         0.3624
      26    H18     19.976522   18.504397   27.838217 H          1 MOL1         0.3624
@<TRIPOS>BOND
    1     1     2    1
    2     1     3    1
    3     1     4    1
    4     1     5    1
    5     5     6    1
    6     5     7    1
    7     5     8    1
    8     8     9    1
    9     8    10    1
   10     8    11    1
   11    11    12    1
   12    11    13    1
   13    11    14    1
   14    14    15    1
   15    14    16    1
   16    14    17    1
   17    17    18    1
   18    17    19    1
   19    17    20    1
   20    20    21    1
   21    20    22    1
   22    20    23    1
   23    23    24    1
   24    23    25    1
   25    23    26    1
@<TRIPOS>SUBSTRUCTURE
       1 MOL1            1 RESIDUE      1      MOL     
@<SCITEGIC>MOL_PROPERTY
VM2 Rank
SciTegic.value.IntegerValue
26

@<SCITEGIC>MOL_PROPERTY
Conf_Id
SciTegic.value.IntegerValue
1219

@<SCITEGIC>MOL_PROPERTY
Probability
SciTegic.value.DoubleValue
1.22

@<SCITEGIC>MOL_PROPERTY
Sum Probability
SciTegic.value.DoubleValue
62.48

@<SCITEGIC>MOL_PROPERTY
Delta G
SciTegic.value.DoubleValue
1.080

@<SCITEGIC>MOL_PROPERTY
G
SciTegic.value.DoubleValue
49.341

@<SCITEGIC>MOL_PROPERTY
E
SciTegic.value.DoubleValue
16.778

@<SCITEGIC>MOL_PROPERTY
-TS
SciTegic.value.DoubleValue
32.563

@<SCITEGIC>MOL_PROPERTY
U+W
SciTegic.value.DoubleValue
-4.684

@<SCITEGIC>MOL_PROPERTY
U
SciTegic.value.DoubleValue
48.658

@<SCITEGIC>MOL_PROPERTY
W
SciTegic.value.DoubleValue
-53.341

@<SCITEGIC>MOL_PROPERTY
W(PB)
SciTegic.value.DoubleValue
-55.670

@<SCITEGIC>MOL_PROPERTY
W(SA)
SciTegic.value.DoubleValue
2.328

@<SCITEGIC>MOL_PROPERTY
Valence
SciTegic.value.DoubleValue
2.963

@<SCITEGIC>MOL_PROPERTY
Coulomb
SciTegic.value.DoubleValue
44.927

@<SCITEGIC>MOL_PROPERTY
VdW
SciTegic.value.DoubleValue
0.768

@<SCITEGIC>MOL_PROPERTY
VdW6
SciTegic.value.DoubleValue
-6.995

@<SCITEGIC>MOL_PROPERTY
VdW12
SciTegic.value.DoubleValue
7.762

@<SCITEGIC>MOL_PROPERTY
Bond
SciTegic.value.DoubleValue
0.186

@<SCITEGIC>MOL_PROPERTY
Angle
SciTegic.value.DoubleValue
0.758

@<SCITEGIC>MOL_PROPERTY
Pdih
SciTegic.value.DoubleValue
2.019

@<SCITEGIC>MOL_PROPERTY
Idih
SciTegic.value.DoubleValue
0.000

@<SCITEGIC>MOL_PROPERTY
Tether
SciTegic.value.DoubleValue
0.000

@<TRIPOS>MOLECULE
guest-s14_vm2.mol2 : vm2 ligand conformer 27
          26          25           1
SMALL
USER_CHARGES
 
@<TRIPOS>ATOM
       1    C1      20.938628   19.964421   19.806861 C.3        1 MOL1        -0.2400
       2    H1      21.482167   19.662292   18.902252 H          1 MOL1         0.0971
       3    H2      20.047898   20.524481   19.493548 H          1 MOL1         0.0971
       4    H3      21.585766   20.642804   20.378030 H          1 MOL1         0.0971
       5    C2      20.550179   18.729467   20.647172 C.3        1 MOL1        -0.1385
       6    H4      21.458051   18.172116   20.917431 H          1 MOL1         0.0960
       7    H5      19.932945   18.054104   20.038240 H          1 MOL1         0.0960
       8    C3      19.782272   19.127104   21.927163 C.3        1 MOL1        -0.1409
       9    H6      20.405663   19.808414   22.520955 H          1 MOL1         0.0960
      10    H7      18.874394   19.681550   21.652313 H          1 MOL1         0.0960
      11    C4      19.397061   17.890189   22.773575 C.3        1 MOL1        -0.1409
      12    H8      20.305416   17.358888   23.087970 H          1 MOL1         0.0960
      13    H9      18.837920   17.185468   22.142647 H          1 MOL1         0.0960
      14    C5      18.527363   18.231798   24.011143 C.3        1 MOL1        -0.1409
      15    H10     17.575977   18.665829   23.673895 H          1 MOL1         0.0960
      16    H11     18.266655   17.297219   24.526942 H          1 MOL1         0.0960
      17    C6      19.187926   19.196812   25.027009 C.3        1 MOL1        -0.1450
      18    H12     18.501149   19.346360   25.870694 H          1 MOL1         0.0960
      19    H13     19.331523   20.184029   24.569665 H          1 MOL1         0.0960
      20    C7      20.533388   18.670730   25.560461 C.3        1 MOL1         0.0172
      21    H14     20.387364   17.692235   26.025827 H          1 MOL1         0.0934
      22    H15     21.239073   18.557326   24.733343 H          1 MOL1         0.0934
      23    N1      21.164183   19.588478   26.587616 N.4        1 MOL1        -0.5956
      24    H16     22.058452   19.220029   26.929462 H          1 MOL1         0.3624
      25    H17     20.561412   19.715848   27.407137 H          1 MOL1         0.3624
      26    H18     21.352310   20.520206   26.203510 H          1 MOL1         0.3624
@<TRIPOS>BOND
    1     1     2    1
    2     1     3    1
    3     1     4    1
    4     1     5    1
    5     5     6    1
    6     5     7    1
    7     5     8    1
    8     8     9    1
    9     8    10    1
   10     8    11    1
   11    11    12    1
   12    11    13    1
   13    11    14    1
   14    14    15    1
   15    14    16    1
   16    14    17    1
   17    17    18    1
   18    17    19    1
   19    17    20    1
   20    20    21    1
   21    20    22    1
   22    20    23    1
   23    23    24    1
   24    23    25    1
   25    23    26    1
@<TRIPOS>SUBSTRUCTURE
       1 MOL1            1 RESIDUE      1      MOL     
@<SCITEGIC>MOL_PROPERTY
VM2 Rank
SciTegic.value.IntegerValue
27

@<SCITEGIC>MOL_PROPERTY
Conf_Id
SciTegic.value.IntegerValue
1376

@<SCITEGIC>MOL_PROPERTY
Probability
SciTegic.value.DoubleValue
1.21

@<SCITEGIC>MOL_PROPERTY
Sum Probability
SciTegic.value.DoubleValue
63.69

@<SCITEGIC>MOL_PROPERTY
Delta G
SciTegic.value.DoubleValue
1.083

@<SCITEGIC>MOL_PROPERTY
G
SciTegic.value.DoubleValue
49.345

@<SCITEGIC>MOL_PROPERTY
E
SciTegic.value.DoubleValue
16.654

@<SCITEGIC>MOL_PROPERTY
-TS
SciTegic.value.DoubleValue
32.691

@<SCITEGIC>MOL_PROPERTY
U+W
SciTegic.value.DoubleValue
-4.808

@<SCITEGIC>MOL_PROPERTY
U
SciTegic.value.DoubleValue
48.957

@<SCITEGIC>MOL_PROPERTY
W
SciTegic.value.DoubleValue
-53.765

@<SCITEGIC>MOL_PROPERTY
W(PB)
SciTegic.value.DoubleValue
-56.083

@<SCITEGIC>MOL_PROPERTY
W(SA)
SciTegic.value.DoubleValue
2.317

@<SCITEGIC>MOL_PROPERTY
Valence
SciTegic.value.DoubleValue
2.916

@<SCITEGIC>MOL_PROPERTY
Coulomb
SciTegic.value.DoubleValue
45.446

@<SCITEGIC>MOL_PROPERTY
VdW
SciTegic.value.DoubleValue
0.595

@<SCITEGIC>MOL_PROPERTY
VdW6
SciTegic.value.DoubleValue
-7.363

@<SCITEGIC>MOL_PROPERTY
VdW12
SciTegic.value.DoubleValue
7.958

@<SCITEGIC>MOL_PROPERTY
Bond
SciTegic.value.DoubleValue
0.196

@<SCITEGIC>MOL_PROPERTY
Angle
SciTegic.value.DoubleValue
0.889

@<SCITEGIC>MOL_PROPERTY
Pdih
SciTegic.value.DoubleValue
1.830

@<SCITEGIC>MOL_PROPERTY
Idih
SciTegic.value.DoubleValue
0.000

@<SCITEGIC>MOL_PROPERTY
Tether
SciTegic.value.DoubleValue
0.000

@<TRIPOS>MOLECULE
guest-s14_vm2.mol2 : vm2 ligand conformer 28
          26          25           1
SMALL
USER_CHARGES
 
@<TRIPOS>ATOM
       1    C1      18.853317   18.588428   19.736840 C.3        1 MOL1        -0.2400
       2    H1      17.949476   18.243937   20.256092 H          1 MOL1         0.0971
       3    H2      18.703180   19.636902   19.448058 H          1 MOL1         0.0971
       4    H3      18.959711   17.997688   18.817742 H          1 MOL1         0.0971
       5    C2      20.100913   18.432886   20.632073 C.3        1 MOL1        -0.1385
       6    H4      20.991987   18.752365   20.073670 H          1 MOL1         0.0960
       7    H5      20.243915   17.371039   20.876904 H          1 MOL1         0.0960
       8    C3      19.977246   19.255790   21.933501 C.3        1 MOL1        -0.1409
       9    H6      19.836980   20.316617   21.684174 H          1 MOL1         0.0960
      10    H7      19.079071   18.933358   22.476368 H          1 MOL1         0.0960
      11    C4      21.225157   19.096502   22.834668 C.3        1 MOL1        -0.1409
      12    H8      22.121344   19.351929   22.252475 H          1 MOL1         0.0960
      13    H9      21.342198   18.043134   23.122676 H          1 MOL1         0.0960
      14    C5      21.194800   19.992071   24.100246 C.3        1 MOL1        -0.1409
      15    H10     22.131655   19.847820   24.656075 H          1 MOL1         0.0960
      16    H11     21.184841   21.047352   23.794409 H          1 MOL1         0.0960
      17    C6      20.001916   19.734002   25.054192 C.3        1 MOL1        -0.1450
      18    H12     19.059879   20.004582   24.560498 H          1 MOL1         0.0960
      19    H13     20.094502   20.398126   25.923791 H          1 MOL1         0.0960
      20    C7      19.932958   18.274491   25.540684 C.3        1 MOL1         0.0172
      21    H14     19.798953   17.606707   24.685652 H          1 MOL1         0.0934
      22    H15     20.867574   18.009331   26.042207 H          1 MOL1         0.0934
      23    N1      18.794694   18.024829   26.508797 N.4        1 MOL1        -0.5956
      24    H16     17.882758   18.230425   26.087908 H          1 MOL1         0.3624
      25    H17     18.875883   18.603776   27.351056 H          1 MOL1         0.3624
      26    H18     18.766719   17.047749   26.820021 H          1 MOL1         0.3624
@<TRIPOS>BOND
    1     1     2    1
    2     1     3    1
    3     1     4    1
    4     1     5    1
    5     5     6    1
    6     5     7    1
    7     5     8    1
    8     8     9    1
    9     8    10    1
   10     8    11    1
   11    11    12    1
   12    11    13    1
   13    11    14    1
   14    14    15    1
   15    14    16    1
   16    14    17    1
   17    17    18    1
   18    17    19    1
   19    17    20    1
   20    20    21    1
   21    20    22    1
   22    20    23    1
   23    23    24    1
   24    23    25    1
   25    23    26    1
@<TRIPOS>SUBSTRUCTURE
       1 MOL1            1 RESIDUE      1      MOL     
@<SCITEGIC>MOL_PROPERTY
VM2 Rank
SciTegic.value.IntegerValue
28

@<SCITEGIC>MOL_PROPERTY
Conf_Id
SciTegic.value.IntegerValue
1063

@<SCITEGIC>MOL_PROPERTY
Probability
SciTegic.value.DoubleValue
1.20

@<SCITEGIC>MOL_PROPERTY
Sum Probability
SciTegic.value.DoubleValue
64.89

@<SCITEGIC>MOL_PROPERTY
Delta G
SciTegic.value.DoubleValue
1.087

@<SCITEGIC>MOL_PROPERTY
G
SciTegic.value.DoubleValue
49.349

@<SCITEGIC>MOL_PROPERTY
E
SciTegic.value.DoubleValue
16.658

@<SCITEGIC>MOL_PROPERTY
-TS
SciTegic.value.DoubleValue
32.691

@<SCITEGIC>MOL_PROPERTY
U+W
SciTegic.value.DoubleValue
-4.804

@<SCITEGIC>MOL_PROPERTY
U
SciTegic.value.DoubleValue
48.957

@<SCITEGIC>MOL_PROPERTY
W
SciTegic.value.DoubleValue
-53.760

@<SCITEGIC>MOL_PROPERTY
W(PB)
SciTegic.value.DoubleValue
-56.084

@<SCITEGIC>MOL_PROPERTY
W(SA)
SciTegic.value.DoubleValue
2.323

@<SCITEGIC>MOL_PROPERTY
Valence
SciTegic.value.DoubleValue
2.916

@<SCITEGIC>MOL_PROPERTY
Coulomb
SciTegic.value.DoubleValue
45.446

@<SCITEGIC>MOL_PROPERTY
VdW
SciTegic.value.DoubleValue
0.595

@<SCITEGIC>MOL_PROPERTY
VdW6
SciTegic.value.DoubleValue
-7.362

@<SCITEGIC>MOL_PROPERTY
VdW12
SciTegic.value.DoubleValue
7.957

@<SCITEGIC>MOL_PROPERTY
Bond
SciTegic.value.DoubleValue
0.196

@<SCITEGIC>MOL_PROPERTY
Angle
SciTegic.value.DoubleValue
0.889

@<SCITEGIC>MOL_PROPERTY
Pdih
SciTegic.value.DoubleValue
1.830

@<SCITEGIC>MOL_PROPERTY
Idih
SciTegic.value.DoubleValue
0.000

@<SCITEGIC>MOL_PROPERTY
Tether
SciTegic.value.DoubleValue
0.000

@<TRIPOS>MOLECULE
guest-s14_vm2.mol2 : vm2 ligand conformer 29
          26          25           1
SMALL
USER_CHARGES
 
@<TRIPOS>ATOM
       1    C1      21.144537   18.482384   19.875687 C.3        1 MOL1        -0.2400
       2    H1      21.765342   18.091549   20.691349 H          1 MOL1         0.0971
       3    H2      21.323167   17.852549   18.994590 H          1 MOL1         0.0971
       4    H3      21.487572   19.497619   19.637673 H          1 MOL1         0.0971
       5    C2      19.644993   18.475851   20.249956 C.3        1 MOL1        -0.1385
       6    H4      19.334087   17.455010   20.512573 H          1 MOL1         0.0960
       7    H5      19.057943   18.757701   19.364671 H          1 MOL1         0.0960
       8    C3      19.295178   19.443514   21.406249 C.3        1 MOL1        -0.1409
       9    H6      19.586691   20.466038   21.129261 H          1 MOL1         0.0960
      10    H7      18.203657   19.456567   21.531762 H          1 MOL1         0.0960
      11    C4      19.953854   19.059060   22.752807 C.3        1 MOL1        -0.1409
      12    H8      21.046623   19.114574   22.662644 H          1 MOL1         0.0960
      13    H9      19.704516   18.016572   22.991243 H          1 MOL1         0.0960
      14    C5      19.492593   19.988772   23.900851 C.3        1 MOL1        -0.1409
      15    H10     19.699791   21.032187   23.625556 H          1 MOL1         0.0960
      16    H11     18.403703   19.911032   24.026829 H          1 MOL1         0.0960
      17    C6      20.190074   19.683122   25.247220 C.3        1 MOL1        -0.1450
      18    H12     19.879861   20.432644   25.987438 H          1 MOL1         0.0960
      19    H13     21.277230   19.786626   25.131572 H          1 MOL1         0.0960
      20    C7      19.857831   18.278199   25.783986 C.3        1 MOL1         0.0172
      21    H14     18.775569   18.175288   25.900217 H          1 MOL1         0.0934
      22    H15     20.201982   17.520206   25.075681 H          1 MOL1         0.0934
      23    N1      20.501941   17.988098   27.124245 N.4        1 MOL1        -0.5956
      24    H16     20.268437   17.048689   27.463915 H          1 MOL1         0.3624
      25    H17     20.197802   18.650170   27.845615 H          1 MOL1         0.3624
      26    H18     21.524657   18.042604   27.076548 H          1 MOL1         0.3624
@<TRIPOS>BOND
    1     1     2    1
    2     1     3    1
    3     1     4    1
    4     1     5    1
    5     5     6    1
    6     5     7    1
    7     5     8    1
    8     8     9    1
    9     8    10    1
   10     8    11    1
   11    11    12    1
   12    11    13    1
   13    11    14    1
   14    14    15    1
   15    14    16    1
   16    14    17    1
   17    17    18    1
   18    17    19    1
   19    17    20    1
   20    20    21    1
   21    20    22    1
   22    20    23    1
   23    23    24    1
   24    23    25    1
   25    23    26    1
@<TRIPOS>SUBSTRUCTURE
       1 MOL1            1 RESIDUE      1      MOL     
@<SCITEGIC>MOL_PROPERTY
VM2 Rank
SciTegic.value.IntegerValue
29

@<SCITEGIC>MOL_PROPERTY
Conf_Id
SciTegic.value.IntegerValue
1221

@<SCITEGIC>MOL_PROPERTY
Probability
SciTegic.value.DoubleValue
1.15

@<SCITEGIC>MOL_PROPERTY
Sum Probability
SciTegic.value.DoubleValue
66.04

@<SCITEGIC>MOL_PROPERTY
Delta G
SciTegic.value.DoubleValue
1.113

@<SCITEGIC>MOL_PROPERTY
G
SciTegic.value.DoubleValue
49.374

@<SCITEGIC>MOL_PROPERTY
E
SciTegic.value.DoubleValue
16.811

@<SCITEGIC>MOL_PROPERTY
-TS
SciTegic.value.DoubleValue
32.563

@<SCITEGIC>MOL_PROPERTY
U+W
SciTegic.value.DoubleValue
-4.651

@<SCITEGIC>MOL_PROPERTY
U
SciTegic.value.DoubleValue
48.658

@<SCITEGIC>MOL_PROPERTY
W
SciTegic.value.DoubleValue
-53.309

@<SCITEGIC>MOL_PROPERTY
W(PB)
SciTegic.value.DoubleValue
-55.635

@<SCITEGIC>MOL_PROPERTY
W(SA)
SciTegic.value.DoubleValue
2.326

@<SCITEGIC>MOL_PROPERTY
Valence
SciTegic.value.DoubleValue
2.963

@<SCITEGIC>MOL_PROPERTY
Coulomb
SciTegic.value.DoubleValue
44.927

@<SCITEGIC>MOL_PROPERTY
VdW
SciTegic.value.DoubleValue
0.768

@<SCITEGIC>MOL_PROPERTY
VdW6
SciTegic.value.DoubleValue
-6.995

@<SCITEGIC>MOL_PROPERTY
VdW12
SciTegic.value.DoubleValue
7.762

@<SCITEGIC>MOL_PROPERTY
Bond
SciTegic.value.DoubleValue
0.186

@<SCITEGIC>MOL_PROPERTY
Angle
SciTegic.value.DoubleValue
0.758

@<SCITEGIC>MOL_PROPERTY
Pdih
SciTegic.value.DoubleValue
2.019

@<SCITEGIC>MOL_PROPERTY
Idih
SciTegic.value.DoubleValue
0.000

@<SCITEGIC>MOL_PROPERTY
Tether
SciTegic.value.DoubleValue
0.000

@<TRIPOS>MOLECULE
guest-s14_vm2.mol2 : vm2 ligand conformer 30
          26          25           1
SMALL
USER_CHARGES
 
@<TRIPOS>ATOM
       1    C1      18.697282   18.515803   20.098783 C.3        1 MOL1        -0.2400
       2    H1      18.422934   18.000738   19.169063 H          1 MOL1         0.0971
       3    H2      18.336971   17.902260   20.933740 H          1 MOL1         0.0971
       4    H3      18.164165   19.475137   20.120859 H          1 MOL1         0.0971
       5    C2      20.226670   18.728049   20.168116 C.3        1 MOL1        -0.1385
       6    H4      20.554943   19.238109   19.251669 H          1 MOL1         0.0960
       7    H5      20.735057   17.753767   20.176422 H          1 MOL1         0.0960
       8    C3      20.677622   19.564321   21.390058 C.3        1 MOL1        -0.1409
       9    H6      21.755047   19.759901   21.299456 H          1 MOL1         0.0960
      10    H7      20.182497   20.544909   21.366302 H          1 MOL1         0.0960
      11    C4      20.401266   18.872886   22.746729 C.3        1 MOL1        -0.1409
      12    H8      20.856573   17.872970   22.747287 H          1 MOL1         0.0960
      13    H9      19.320563   18.732627   22.873830 H          1 MOL1         0.0960
      14    C5      20.960190   19.695634   23.932474 C.3        1 MOL1        -0.1409
      15    H10     22.034166   19.869070   23.777972 H          1 MOL1         0.0960
      16    H11     20.485269   20.686428   23.952559 H          1 MOL1         0.0960
      17    C6      20.762698   19.001086   25.300441 C.3        1 MOL1        -0.1450
      18    H12     21.260717   19.596397   26.077306 H          1 MOL1         0.0960
      19    H13     21.256532   18.020252   25.291056 H          1 MOL1         0.0960
      20    C7      19.277902   18.829901   25.672618 C.3        1 MOL1         0.0172
      21    H14     18.786242   19.806408   25.682590 H          1 MOL1         0.0934
      22    H15     18.780034   18.200930   24.930203 H          1 MOL1         0.0934
      23    N1      19.077369   18.191321   27.031782 N.4        1 MOL1        -0.5956
      24    H16     18.082871   18.086520   27.260639 H          1 MOL1         0.3624
      25    H17     19.498820   18.748979   27.781855 H          1 MOL1         0.3624
      26    H18     19.494928   17.256166   27.080010 H          1 MOL1         0.3624
@<TRIPOS>BOND
    1     1     2    1
    2     1     3    1
    3     1     4    1
    4     1     5    1
    5     5     6    1
    6     5     7    1
    7     5     8    1
    8     8     9    1
    9     8    10    1
   10     8    11    1
   11    11    12    1
   12    11    13    1
   13    11    14    1
   14    14    15    1
   15    14    16    1
   16    14    17    1
   17    17    18    1
   18    17    19    1
   19    17    20    1
   20    20    21    1
   21    20    22    1
   22    20    23    1
   23    23    24    1
   24    23    25    1
   25    23    26    1
@<TRIPOS>SUBSTRUCTURE
       1 MOL1            1 RESIDUE      1      MOL     
@<SCITEGIC>MOL_PROPERTY
VM2 Rank
SciTegic.value.IntegerValue
30

@<SCITEGIC>MOL_PROPERTY
Conf_Id
SciTegic.value.IntegerValue
835

@<SCITEGIC>MOL_PROPERTY
Probability
SciTegic.value.DoubleValue
1.14

@<SCITEGIC>MOL_PROPERTY
Sum Probability
SciTegic.value.DoubleValue
67.19

@<SCITEGIC>MOL_PROPERTY
Delta G
SciTegic.value.DoubleValue
1.117

@<SCITEGIC>MOL_PROPERTY
G
SciTegic.value.DoubleValue
49.378

@<SCITEGIC>MOL_PROPERTY
E
SciTegic.value.DoubleValue
16.818

@<SCITEGIC>MOL_PROPERTY
-TS
SciTegic.value.DoubleValue
32.560

@<SCITEGIC>MOL_PROPERTY
U+W
SciTegic.value.DoubleValue
-4.644

@<SCITEGIC>MOL_PROPERTY
U
SciTegic.value.DoubleValue
48.723

@<SCITEGIC>MOL_PROPERTY
W
SciTegic.value.DoubleValue
-53.367

@<SCITEGIC>MOL_PROPERTY
W(PB)
SciTegic.value.DoubleValue
-55.687

@<SCITEGIC>MOL_PROPERTY
W(SA)
SciTegic.value.DoubleValue
2.320

@<SCITEGIC>MOL_PROPERTY
Valence
SciTegic.value.DoubleValue
2.962

@<SCITEGIC>MOL_PROPERTY
Coulomb
SciTegic.value.DoubleValue
44.993

@<SCITEGIC>MOL_PROPERTY
VdW
SciTegic.value.DoubleValue
0.768

@<SCITEGIC>MOL_PROPERTY
VdW6
SciTegic.value.DoubleValue
-7.008

@<SCITEGIC>MOL_PROPERTY
VdW12
SciTegic.value.DoubleValue
7.776

@<SCITEGIC>MOL_PROPERTY
Bond
SciTegic.value.DoubleValue
0.188

@<SCITEGIC>MOL_PROPERTY
Angle
SciTegic.value.DoubleValue
0.756

@<SCITEGIC>MOL_PROPERTY
Pdih
SciTegic.value.DoubleValue
2.018

@<SCITEGIC>MOL_PROPERTY
Idih
SciTegic.value.DoubleValue
0.000

@<SCITEGIC>MOL_PROPERTY
Tether
SciTegic.value.DoubleValue
0.000

@<TRIPOS>MOLECULE
guest-s14_vm2.mol2 : vm2 ligand conformer 31
          26          25           1
SMALL
USER_CHARGES
 
@<TRIPOS>ATOM
       1    C1      19.487907   19.029476   19.218415 C.3        1 MOL1        -0.2400
       2    H1      18.488395   19.148034   18.780288 H          1 MOL1         0.0971
       3    H2      20.094029   19.892656   18.913820 H          1 MOL1         0.0971
       4    H3      19.939087   18.125861   18.788136 H          1 MOL1         0.0971
       5    C2      19.400435   18.928460   20.756069 C.3        1 MOL1        -0.1385
       6    H4      18.764667   18.074738   21.029312 H          1 MOL1         0.0960
       7    H5      18.908171   19.829782   21.144711 H          1 MOL1         0.0960
       8    C3      20.798837   18.764859   21.397071 C.3        1 MOL1        -0.1409
       9    H6      21.303254   17.903215   20.938292 H          1 MOL1         0.0960
      10    H7      21.417539   19.642849   21.165574 H          1 MOL1         0.0960
      11    C4      20.755613   18.549245   22.929779 C.3        1 MOL1        -0.1409
      12    H8      21.774471   18.331343   23.278701 H          1 MOL1         0.0960
      13    H9      20.154983   17.657079   23.152203 H          1 MOL1         0.0960
      14    C5      20.205768   19.770751   23.708992 C.3        1 MOL1        -0.1409
      15    H10     20.751014   20.672939   23.399179 H          1 MOL1         0.0960
      16    H11     19.151376   19.939325   23.453082 H          1 MOL1         0.0960
      17    C6      20.333661   19.615438   25.242568 C.3        1 MOL1        -0.1450
      18    H12     20.000019   20.544188   25.724277 H          1 MOL1         0.0960
      19    H13     21.389512   19.482485   25.513657 H          1 MOL1         0.0960
      20    C7      19.506055   18.437859   25.790802 C.3        1 MOL1         0.0172
      21    H14     18.454309   18.571544   25.523699 H          1 MOL1         0.0934
      22    H15     19.857300   17.501585   25.349468 H          1 MOL1         0.0934
      23    N1      19.592724   18.302912   27.297306 N.4        1 MOL1        -0.5956
      24    H16     19.249920   19.142024   27.776450 H          1 MOL1         0.3624
      25    H17     20.556037   18.147935   27.612280 H          1 MOL1         0.3624
      26    H18     19.035225   17.513736   27.641950 H          1 MOL1         0.3624
@<TRIPOS>BOND
    1     1     2    1
    2     1     3    1
    3     1     4    1
    4     1     5    1
    5     5     6    1
    6     5     7    1
    7     5     8    1
    8     8     9    1
    9     8    10    1
   10     8    11    1
   11    11    12    1
   12    11    13    1
   13    11    14    1
   14    14    15    1
   15    14    16    1
   16    14    17    1
   17    17    18    1
   18    17    19    1
   19    17    20    1
   20    20    21    1
   21    20    22    1
   22    20    23    1
   23    23    24    1
   24    23    25    1
   25    23    26    1
@<TRIPOS>SUBSTRUCTURE
       1 MOL1            1 RESIDUE      1      MOL     
@<SCITEGIC>MOL_PROPERTY
VM2 Rank
SciTegic.value.IntegerValue
31

@<SCITEGIC>MOL_PROPERTY
Conf_Id
SciTegic.value.IntegerValue
530

@<SCITEGIC>MOL_PROPERTY
Probability
SciTegic.value.DoubleValue
1.12

@<SCITEGIC>MOL_PROPERTY
Sum Probability
SciTegic.value.DoubleValue
68.30

@<SCITEGIC>MOL_PROPERTY
Delta G
SciTegic.value.DoubleValue
1.131

@<SCITEGIC>MOL_PROPERTY
G
SciTegic.value.DoubleValue
49.393

@<SCITEGIC>MOL_PROPERTY
E
SciTegic.value.DoubleValue
16.831

@<SCITEGIC>MOL_PROPERTY
-TS
SciTegic.value.DoubleValue
32.561

@<SCITEGIC>MOL_PROPERTY
U+W
SciTegic.value.DoubleValue
-4.631

@<SCITEGIC>MOL_PROPERTY
U
SciTegic.value.DoubleValue
48.732

@<SCITEGIC>MOL_PROPERTY
W
SciTegic.value.DoubleValue
-53.363

@<SCITEGIC>MOL_PROPERTY
W(PB)
SciTegic.value.DoubleValue
-55.692

@<SCITEGIC>MOL_PROPERTY
W(SA)
SciTegic.value.DoubleValue
2.329

@<SCITEGIC>MOL_PROPERTY
Valence
SciTegic.value.DoubleValue
2.987

@<SCITEGIC>MOL_PROPERTY
Coulomb
SciTegic.value.DoubleValue
45.004

@<SCITEGIC>MOL_PROPERTY
VdW
SciTegic.value.DoubleValue
0.742

@<SCITEGIC>MOL_PROPERTY
VdW6
SciTegic.value.DoubleValue
-7.035

@<SCITEGIC>MOL_PROPERTY
VdW12
SciTegic.value.DoubleValue
7.777

@<SCITEGIC>MOL_PROPERTY
Bond
SciTegic.value.DoubleValue
0.190

@<SCITEGIC>MOL_PROPERTY
Angle
SciTegic.value.DoubleValue
0.753

@<SCITEGIC>MOL_PROPERTY
Pdih
SciTegic.value.DoubleValue
2.043

@<SCITEGIC>MOL_PROPERTY
Idih
SciTegic.value.DoubleValue
0.000

@<SCITEGIC>MOL_PROPERTY
Tether
SciTegic.value.DoubleValue
0.000

@<TRIPOS>MOLECULE
guest-s14_vm2.mol2 : vm2 ligand conformer 32
          26          25           1
SMALL
USER_CHARGES
 
@<TRIPOS>ATOM
       1    C1      19.861147   19.087948   19.080427 C.3        1 MOL1        -0.2400
       2    H1      18.996041   19.760647   19.014764 H          1 MOL1         0.0971
       3    H2      20.748423   19.637644   18.740131 H          1 MOL1         0.0971
       4    H3      19.694016   18.255072   18.385138 H          1 MOL1         0.0971
       5    C2      20.049476   18.566049   20.520737 C.3        1 MOL1        -0.1385
       6    H4      20.902887   17.874226   20.548480 H          1 MOL1         0.0960
       7    H5      19.161162   17.988383   20.808197 H          1 MOL1         0.0960
       8    C3      20.282391   19.723713   21.520329 C.3        1 MOL1        -0.1409
       9    H6      21.123538   20.335433   21.165867 H          1 MOL1         0.0960
      10    H7      19.405006   20.384991   21.532949 H          1 MOL1         0.0960
      11    C4      20.595876   19.249026   22.960733 C.3        1 MOL1        -0.1409
      12    H8      20.879176   20.128428   23.553903 H          1 MOL1         0.0960
      13    H9      21.475030   18.590155   22.946754 H          1 MOL1         0.0960
      14    C5      19.409316   18.523985   23.645549 C.3        1 MOL1        -0.1409
      15    H10     18.523235   19.173777   23.638722 H          1 MOL1         0.0960
      16    H11     19.142948   17.627529   23.071004 H          1 MOL1         0.0960
      17    C6      19.719924   18.091418   25.098007 C.3        1 MOL1        -0.1450
      18    H12     20.600390   17.435146   25.107499 H          1 MOL1         0.0960
      19    H13     18.879749   17.495467   25.478686 H          1 MOL1         0.0960
      20    C7      19.953864   19.286998   26.040630 C.3        1 MOL1         0.0172
      21    H14     20.817969   19.863644   25.701076 H          1 MOL1         0.0934
      22    H15     19.077488   19.940636   26.030141 H          1 MOL1         0.0934
      23    N1      20.209006   18.869864   27.474587 N.4        1 MOL1        -0.5956
      24    H16     21.038422   18.272810   27.557068 H          1 MOL1         0.3624
      25    H17     19.419694   18.345671   27.866273 H          1 MOL1         0.3624
      26    H18     20.362002   19.679626   28.085548 H          1 MOL1         0.3624
@<TRIPOS>BOND
    1     1     2    1
    2     1     3    1
    3     1     4    1
    4     1     5    1
    5     5     6    1
    6     5     7    1
    7     5     8    1
    8     8     9    1
    9     8    10    1
   10     8    11    1
   11    11    12    1
   12    11    13    1
   13    11    14    1
   14    14    15    1
   15    14    16    1
   16    14    17    1
   17    17    18    1
   18    17    19    1
   19    17    20    1
   20    20    21    1
   21    20    22    1
   22    20    23    1
   23    23    24    1
   24    23    25    1
   25    23    26    1
@<TRIPOS>SUBSTRUCTURE
       1 MOL1            1 RESIDUE      1      MOL     
@<SCITEGIC>MOL_PROPERTY
VM2 Rank
SciTegic.value.IntegerValue
32

@<SCITEGIC>MOL_PROPERTY
Conf_Id
SciTegic.value.IntegerValue
810

@<SCITEGIC>MOL_PROPERTY
Probability
SciTegic.value.DoubleValue
1.09

@<SCITEGIC>MOL_PROPERTY
Sum Probability
SciTegic.value.DoubleValue
69.40

@<SCITEGIC>MOL_PROPERTY
Delta G
SciTegic.value.DoubleValue
1.144

@<SCITEGIC>MOL_PROPERTY
G
SciTegic.value.DoubleValue
49.405

@<SCITEGIC>MOL_PROPERTY
E
SciTegic.value.DoubleValue
16.884

@<SCITEGIC>MOL_PROPERTY
-TS
SciTegic.value.DoubleValue
32.521

@<SCITEGIC>MOL_PROPERTY
U+W
SciTegic.value.DoubleValue
-4.578

@<SCITEGIC>MOL_PROPERTY
U
SciTegic.value.DoubleValue
48.768

@<SCITEGIC>MOL_PROPERTY
W
SciTegic.value.DoubleValue
-53.346

@<SCITEGIC>MOL_PROPERTY
W(PB)
SciTegic.value.DoubleValue
-55.671

@<SCITEGIC>MOL_PROPERTY
W(SA)
SciTegic.value.DoubleValue
2.325

@<SCITEGIC>MOL_PROPERTY
Valence
SciTegic.value.DoubleValue
3.051

@<SCITEGIC>MOL_PROPERTY
Coulomb
SciTegic.value.DoubleValue
44.907

@<SCITEGIC>MOL_PROPERTY
VdW
SciTegic.value.DoubleValue
0.810

@<SCITEGIC>MOL_PROPERTY
VdW6
SciTegic.value.DoubleValue
-6.972

@<SCITEGIC>MOL_PROPERTY
VdW12
SciTegic.value.DoubleValue
7.782

@<SCITEGIC>MOL_PROPERTY
Bond
SciTegic.value.DoubleValue
0.197

@<SCITEGIC>MOL_PROPERTY
Angle
SciTegic.value.DoubleValue
0.815

@<SCITEGIC>MOL_PROPERTY
Pdih
SciTegic.value.DoubleValue
2.039

@<SCITEGIC>MOL_PROPERTY
Idih
SciTegic.value.DoubleValue
0.000

@<SCITEGIC>MOL_PROPERTY
Tether
SciTegic.value.DoubleValue
0.000

@<TRIPOS>MOLECULE
guest-s14_vm2.mol2 : vm2 ligand conformer 33
          26          25           1
SMALL
USER_CHARGES
 
@<TRIPOS>ATOM
       1    C1      20.308344   19.570431   19.245605 C.3        1 MOL1        -0.2400
       2    H1      19.291748   19.362809   18.886902 H          1 MOL1         0.0971
       3    H2      20.611854   20.548715   18.850792 H          1 MOL1         0.0971
       4    H3      20.981482   18.813204   18.822858 H          1 MOL1         0.0971
       5    C2      20.364031   19.564130   20.788039 C.3        1 MOL1        -0.1385
       6    H4      19.711089   20.359500   21.171189 H          1 MOL1         0.0960
       7    H5      21.385035   19.803611   21.116525 H          1 MOL1         0.0960
       8    C3      19.935923   18.195492   21.368320 C.3        1 MOL1        -0.1409
       9    H6      18.897384   17.979983   21.081538 H          1 MOL1         0.0960
      10    H7      20.550907   17.406717   20.913375 H          1 MOL1         0.0960
      11    C4      20.079703   18.103536   22.907287 C.3        1 MOL1        -0.1409
      12    H8      21.124640   18.296911   23.184605 H          1 MOL1         0.0960
      13    H9      19.863713   17.071137   23.215184 H          1 MOL1         0.0960
      14    C5      19.137297   19.066242   23.673219 C.3        1 MOL1        -0.1409
      15    H10     19.408528   20.108996   23.461671 H          1 MOL1         0.0960
      16    H11     18.109013   18.930695   23.310615 H          1 MOL1         0.0960
      17    C6      19.158026   18.840424   25.203225 C.3        1 MOL1        -0.1450
      18    H12     18.852518   17.809989   25.428734 H          1 MOL1         0.0960
      19    H13     18.413713   19.498470   25.671107 H          1 MOL1         0.0960
      20    C7      20.539092   19.118977   25.825525 C.3        1 MOL1         0.0172
      21    H14     21.281501   18.440572   25.397326 H          1 MOL1         0.0934
      22    H15     20.842129   20.145819   25.603832 H          1 MOL1         0.0934
      23    N1      20.558584   18.939766   27.329780 N.4        1 MOL1        -0.5956
      24    H16     20.307606   17.984261   27.604046 H          1 MOL1         0.3624
      25    H17     19.900329   19.570922   27.798340 H          1 MOL1         0.3624
      26    H18     21.486326   19.129746   27.724226 H          1 MOL1         0.3624
@<TRIPOS>BOND
    1     1     2    1
    2     1     3    1
    3     1     4    1
    4     1     5    1
    5     5     6    1
    6     5     7    1
    7     5     8    1
    8     8     9    1
    9     8    10    1
   10     8    11    1
   11    11    12    1
   12    11    13    1
   13    11    14    1
   14    14    15    1
   15    14    16    1
   16    14    17    1
   17    17    18    1
   18    17    19    1
   19    17    20    1
   20    20    21    1
   21    20    22    1
   22    20    23    1
   23    23    24    1
   24    23    25    1
   25    23    26    1
@<TRIPOS>SUBSTRUCTURE
       1 MOL1            1 RESIDUE      1      MOL     
@<SCITEGIC>MOL_PROPERTY
VM2 Rank
SciTegic.value.IntegerValue
33

@<SCITEGIC>MOL_PROPERTY
Conf_Id
SciTegic.value.IntegerValue
972

@<SCITEGIC>MOL_PROPERTY
Probability
SciTegic.value.DoubleValue
1.05

@<SCITEGIC>MOL_PROPERTY
Sum Probability
SciTegic.value.DoubleValue
70.44

@<SCITEGIC>MOL_PROPERTY
Delta G
SciTegic.value.DoubleValue
1.170

@<SCITEGIC>MOL_PROPERTY
G
SciTegic.value.DoubleValue
49.431

@<SCITEGIC>MOL_PROPERTY
E
SciTegic.value.DoubleValue
16.869

@<SCITEGIC>MOL_PROPERTY
-TS
SciTegic.value.DoubleValue
32.562

@<SCITEGIC>MOL_PROPERTY
U+W
SciTegic.value.DoubleValue
-4.593

@<SCITEGIC>MOL_PROPERTY
U
SciTegic.value.DoubleValue
48.732

@<SCITEGIC>MOL_PROPERTY
W
SciTegic.value.DoubleValue
-53.325

@<SCITEGIC>MOL_PROPERTY
W(PB)
SciTegic.value.DoubleValue
-55.661

@<SCITEGIC>MOL_PROPERTY
W(SA)
SciTegic.value.DoubleValue
2.336

@<SCITEGIC>MOL_PROPERTY
Valence
SciTegic.value.DoubleValue
2.987

@<SCITEGIC>MOL_PROPERTY
Coulomb
SciTegic.value.DoubleValue
45.003

@<SCITEGIC>MOL_PROPERTY
VdW
SciTegic.value.DoubleValue
0.742

@<SCITEGIC>MOL_PROPERTY
VdW6
SciTegic.value.DoubleValue
-7.035

@<SCITEGIC>MOL_PROPERTY
VdW12
SciTegic.value.DoubleValue
7.777

@<SCITEGIC>MOL_PROPERTY
Bond
SciTegic.value.DoubleValue
0.191

@<SCITEGIC>MOL_PROPERTY
Angle
SciTegic.value.DoubleValue
0.753

@<SCITEGIC>MOL_PROPERTY
Pdih
SciTegic.value.DoubleValue
2.043

@<SCITEGIC>MOL_PROPERTY
Idih
SciTegic.value.DoubleValue
0.000

@<SCITEGIC>MOL_PROPERTY
Tether
SciTegic.value.DoubleValue
0.000

@<TRIPOS>MOLECULE
guest-s14_vm2.mol2 : vm2 ligand conformer 34
          26          25           1
SMALL
USER_CHARGES
 
@<TRIPOS>ATOM
       1    C1      18.788197   18.680210   20.177562 C.3        1 MOL1        -0.2400
       2    H1      17.974618   19.171458   19.628373 H          1 MOL1         0.0971
       3    H2      19.169612   17.862187   19.552812 H          1 MOL1         0.0971
       4    H3      18.356881   18.245819   21.088040 H          1 MOL1         0.0971
       5    C2      19.906801   19.693658   20.509094 C.3        1 MOL1        -0.1385
       6    H4      19.506998   20.490554   21.150289 H          1 MOL1         0.0960
       7    H5      20.223526   20.187191   19.579692 H          1 MOL1         0.0960
       8    C3      21.149571   19.045590   21.171085 C.3        1 MOL1        -0.1409
       9    H6      21.603087   18.341191   20.460251 H          1 MOL1         0.0960
      10    H7      21.904538   19.824709   21.344701 H          1 MOL1         0.0960
      11    C4      20.878423   18.300816   22.503844 C.3        1 MOL1        -0.1409
      12    H8      21.826271   17.873411   22.858965 H          1 MOL1         0.0960
      13    H9      20.210580   17.447393   22.326618 H          1 MOL1         0.0960
      14    C5      20.288416   19.207363   23.610562 C.3        1 MOL1        -0.1409
      15    H10     20.936786   20.083039   23.752932 H          1 MOL1         0.0960
      16    H11     19.304968   19.584645   23.300237 H          1 MOL1         0.0960
      17    C6      20.138798   18.453703   24.950403 C.3        1 MOL1        -0.1450
      18    H12     21.118728   18.080775   25.277074 H          1 MOL1         0.0960
      19    H13     19.490362   17.578300   24.811507 H          1 MOL1         0.0960
      20    C7      19.546791   19.360822   26.043394 C.3        1 MOL1         0.0172
      21    H14     20.197771   20.225872   26.196316 H          1 MOL1         0.0934
      22    H15     18.563362   19.721400   25.729836 H          1 MOL1         0.0934
      23    N1      19.384004   18.656839   27.375056 N.4        1 MOL1        -0.5956
      24    H16     18.988428   19.278560   28.088792 H          1 MOL1         0.3624
      25    H17     20.279888   18.316403   27.739383 H          1 MOL1         0.3624
      26    H18     18.759135   17.846956   27.305390 H          1 MOL1         0.3624
@<TRIPOS>BOND
    1     1     2    1
    2     1     3    1
    3     1     4    1
    4     1     5    1
    5     5     6    1
    6     5     7    1
    7     5     8    1
    8     8     9    1
    9     8    10    1
   10     8    11    1
   11    11    12    1
   12    11    13    1
   13    11    14    1
   14    14    15    1
   15    14    16    1
   16    14    17    1
   17    17    18    1
   18    17    19    1
   19    17    20    1
   20    20    21    1
   21    20    22    1
   22    20    23    1
   23    23    24    1
   24    23    25    1
   25    23    26    1
@<TRIPOS>SUBSTRUCTURE
       1 MOL1            1 RESIDUE      1      MOL     
@<SCITEGIC>MOL_PROPERTY
VM2 Rank
SciTegic.value.IntegerValue
34

@<SCITEGIC>MOL_PROPERTY
Conf_Id
SciTegic.value.IntegerValue
1328

@<SCITEGIC>MOL_PROPERTY
Probability
SciTegic.value.DoubleValue
1.00

@<SCITEGIC>MOL_PROPERTY
Sum Probability
SciTegic.value.DoubleValue
71.44

@<SCITEGIC>MOL_PROPERTY
Delta G
SciTegic.value.DoubleValue
1.197

@<SCITEGIC>MOL_PROPERTY
G
SciTegic.value.DoubleValue
49.459

@<SCITEGIC>MOL_PROPERTY
E
SciTegic.value.DoubleValue
16.677

@<SCITEGIC>MOL_PROPERTY
-TS
SciTegic.value.DoubleValue
32.782

@<SCITEGIC>MOL_PROPERTY
U+W
SciTegic.value.DoubleValue
-4.785

@<SCITEGIC>MOL_PROPERTY
U
SciTegic.value.DoubleValue
48.494

@<SCITEGIC>MOL_PROPERTY
W
SciTegic.value.DoubleValue
-53.279

@<SCITEGIC>MOL_PROPERTY
W(PB)
SciTegic.value.DoubleValue
-55.569

@<SCITEGIC>MOL_PROPERTY
W(SA)
SciTegic.value.DoubleValue
2.290

@<SCITEGIC>MOL_PROPERTY
Valence
SciTegic.value.DoubleValue
3.117

@<SCITEGIC>MOL_PROPERTY
Coulomb
SciTegic.value.DoubleValue
44.693

@<SCITEGIC>MOL_PROPERTY
VdW
SciTegic.value.DoubleValue
0.684

@<SCITEGIC>MOL_PROPERTY
VdW6
SciTegic.value.DoubleValue
-7.347

@<SCITEGIC>MOL_PROPERTY
VdW12
SciTegic.value.DoubleValue
8.030

@<SCITEGIC>MOL_PROPERTY
Bond
SciTegic.value.DoubleValue
0.208

@<SCITEGIC>MOL_PROPERTY
Angle
SciTegic.value.DoubleValue
1.039

@<SCITEGIC>MOL_PROPERTY
Pdih
SciTegic.value.DoubleValue
1.870

@<SCITEGIC>MOL_PROPERTY
Idih
SciTegic.value.DoubleValue
0.000

@<SCITEGIC>MOL_PROPERTY
Tether
SciTegic.value.DoubleValue
0.000

@<TRIPOS>MOLECULE
guest-s14_vm2.mol2 : vm2 ligand conformer 35
          26          25           1
SMALL
USER_CHARGES
 
@<TRIPOS>ATOM
       1    C1      20.859010   20.047058   20.247209 C.3        1 MOL1        -0.2400
       2    H1      21.490386   19.393911   19.631000 H          1 MOL1         0.0971
       3    H2      20.752254   21.004768   19.721624 H          1 MOL1         0.0971
       4    H3      21.384523   20.244440   21.189852 H          1 MOL1         0.0971
       5    C2      19.473898   19.407894   20.494607 C.3        1 MOL1        -0.1385
       6    H4      18.939808   19.339723   19.536600 H          1 MOL1         0.0960
       7    H5      18.868408   20.069091   21.128815 H          1 MOL1         0.0960
       8    C3      19.551224   17.990626   21.117565 C.3        1 MOL1        -0.1409
       9    H6      18.531318   17.598319   21.231728 H          1 MOL1         0.0960
      10    H7      20.053741   17.318569   20.408370 H          1 MOL1         0.0960
      11    C4      20.279667   17.905572   22.483799 C.3        1 MOL1        -0.1409
      12    H8      21.333869   18.188615   22.364211 H          1 MOL1         0.0960
      13    H9      20.284124   16.855576   22.807361 H          1 MOL1         0.0960
      14    C5      19.626577   18.770508   23.588391 C.3        1 MOL1        -0.1409
      15    H10     19.679937   19.832090   23.312695 H          1 MOL1         0.0960
      16    H11     18.561218   18.515104   23.673489 H          1 MOL1         0.0960
      17    C6      20.315350   18.570223   24.956254 C.3        1 MOL1        -0.1450
      18    H12     21.380336   18.825609   24.874577 H          1 MOL1         0.0960
      19    H13     20.258544   17.513099   25.248342 H          1 MOL1         0.0960
      20    C7      19.663268   19.437735   26.047209 C.3        1 MOL1         0.0172
      21    H14     19.732161   20.492806   25.768742 H          1 MOL1         0.0934
      22    H15     18.606148   19.175492   26.143127 H          1 MOL1         0.0934
      23    N1      20.312006   19.269385   27.405966 N.4        1 MOL1        -0.5956
      24    H16     21.304343   19.526771   27.390258 H          1 MOL1         0.3624
      25    H17     20.256546   18.301127   27.738592 H          1 MOL1         0.3624
      26    H18     19.862770   19.855726   28.117883 H          1 MOL1         0.3624
@<TRIPOS>BOND
    1     1     2    1
    2     1     3    1
    3     1     4    1
    4     1     5    1
    5     5     6    1
    6     5     7    1
    7     5     8    1
    8     8     9    1
    9     8    10    1
   10     8    11    1
   11    11    12    1
   12    11    13    1
   13    11    14    1
   14    14    15    1
   15    14    16    1
   16    14    17    1
   17    17    18    1
   18    17    19    1
   19    17    20    1
   20    20    21    1
   21    20    22    1
   22    20    23    1
   23    23    24    1
   24    23    25    1
   25    23    26    1
@<TRIPOS>SUBSTRUCTURE
       1 MOL1            1 RESIDUE      1      MOL     
@<SCITEGIC>MOL_PROPERTY
VM2 Rank
SciTegic.value.IntegerValue
35

@<SCITEGIC>MOL_PROPERTY
Conf_Id
SciTegic.value.IntegerValue
187

@<SCITEGIC>MOL_PROPERTY
Probability
SciTegic.value.DoubleValue
0.94

@<SCITEGIC>MOL_PROPERTY
Sum Probability
SciTegic.value.DoubleValue
72.39

@<SCITEGIC>MOL_PROPERTY
Delta G
SciTegic.value.DoubleValue
1.231

@<SCITEGIC>MOL_PROPERTY
G
SciTegic.value.DoubleValue
49.493

@<SCITEGIC>MOL_PROPERTY
E
SciTegic.value.DoubleValue
16.710

@<SCITEGIC>MOL_PROPERTY
-TS
SciTegic.value.DoubleValue
32.782

@<SCITEGIC>MOL_PROPERTY
U+W
SciTegic.value.DoubleValue
-4.752

@<SCITEGIC>MOL_PROPERTY
U
SciTegic.value.DoubleValue
48.494

@<SCITEGIC>MOL_PROPERTY
W
SciTegic.value.DoubleValue
-53.245

@<SCITEGIC>MOL_PROPERTY
W(PB)
SciTegic.value.DoubleValue
-55.524

@<SCITEGIC>MOL_PROPERTY
W(SA)
SciTegic.value.DoubleValue
2.279

@<SCITEGIC>MOL_PROPERTY
Valence
SciTegic.value.DoubleValue
3.117

@<SCITEGIC>MOL_PROPERTY
Coulomb
SciTegic.value.DoubleValue
44.693

@<SCITEGIC>MOL_PROPERTY
VdW
SciTegic.value.DoubleValue
0.684

@<SCITEGIC>MOL_PROPERTY
VdW6
SciTegic.value.DoubleValue
-7.347

@<SCITEGIC>MOL_PROPERTY
VdW12
SciTegic.value.DoubleValue
8.031

@<SCITEGIC>MOL_PROPERTY
Bond
SciTegic.value.DoubleValue
0.208

@<SCITEGIC>MOL_PROPERTY
Angle
SciTegic.value.DoubleValue
1.039

@<SCITEGIC>MOL_PROPERTY
Pdih
SciTegic.value.DoubleValue
1.870

@<SCITEGIC>MOL_PROPERTY
Idih
SciTegic.value.DoubleValue
0.000

@<SCITEGIC>MOL_PROPERTY
Tether
SciTegic.value.DoubleValue
0.000

@<TRIPOS>MOLECULE
guest-s14_vm2.mol2 : vm2 ligand conformer 36
          26          25           1
SMALL
USER_CHARGES
 
@<TRIPOS>ATOM
       1    C1      20.114870   19.255111   19.088874 C.3        1 MOL1        -0.2400
       2    H1      19.277361   18.667308   18.691012 H          1 MOL1         0.0971
       3    H2      19.839826   20.316935   19.042809 H          1 MOL1         0.0971
       4    H3      20.977836   19.101490   18.428017 H          1 MOL1         0.0971
       5    C2      20.453242   18.832314   20.534240 C.3        1 MOL1        -0.1385
       6    H4      21.319303   19.411663   20.880260 H          1 MOL1         0.0960
       7    H5      20.752215   17.774851   20.543566 H          1 MOL1         0.0960
       8    C3      19.251972   19.044257   21.485898 C.3        1 MOL1        -0.1409
       9    H6      18.988670   20.110477   21.519013 H          1 MOL1         0.0960
      10    H7      18.376237   18.523809   21.074079 H          1 MOL1         0.0960
      11    C4      19.497783   18.524969   22.924049 C.3        1 MOL1        -0.1409
      12    H8      19.758307   17.458130   22.889412 H          1 MOL1         0.0960
      13    H9      18.551202   18.593310   23.476110 H          1 MOL1         0.0960
      14    C5      20.597839   19.307903   23.685279 C.3        1 MOL1        -0.1409
      15    H10     21.552556   19.216774   23.151520 H          1 MOL1         0.0960
      16    H11     20.349299   20.378152   23.699793 H          1 MOL1         0.0960
      17    C6      20.805601   18.807450   25.134281 C.3        1 MOL1        -0.1450
      18    H12     21.665147   19.332556   25.571786 H          1 MOL1         0.0960
      19    H13     21.062270   17.739745   25.122890 H          1 MOL1         0.0960
      20    C7      19.571716   19.034883   26.027859 C.3        1 MOL1         0.0172
      21    H14     19.315887   20.097819   26.038104 H          1 MOL1         0.0934
      22    H15     18.718600   18.478887   25.630926 H          1 MOL1         0.0934
      23    N1      19.787976   18.592113   27.460519 N.4        1 MOL1        -0.5956
      24    H16     20.006941   17.592411   27.522616 H          1 MOL1         0.3624
      25    H17     18.955687   18.751996   28.038557 H          1 MOL1         0.3624
      26    H18     20.561111   19.098505   27.904407 H          1 MOL1         0.3624
@<TRIPOS>BOND
    1     1     2    1
    2     1     3    1
    3     1     4    1
    4     1     5    1
    5     5     6    1
    6     5     7    1
    7     5     8    1
    8     8     9    1
    9     8    10    1
   10     8    11    1
   11    11    12    1
   12    11    13    1
   13    11    14    1
   14    14    15    1
   15    14    16    1
   16    14    17    1
   17    17    18    1
   18    17    19    1
   19    17    20    1
   20    20    21    1
   21    20    22    1
   22    20    23    1
   23    23    24    1
   24    23    25    1
   25    23    26    1
@<TRIPOS>SUBSTRUCTURE
       1 MOL1            1 RESIDUE      1      MOL     
@<SCITEGIC>MOL_PROPERTY
VM2 Rank
SciTegic.value.IntegerValue
36

@<SCITEGIC>MOL_PROPERTY
Conf_Id
SciTegic.value.IntegerValue
275

@<SCITEGIC>MOL_PROPERTY
Probability
SciTegic.value.DoubleValue
0.94

@<SCITEGIC>MOL_PROPERTY
Sum Probability
SciTegic.value.DoubleValue
73.32

@<SCITEGIC>MOL_PROPERTY
Delta G
SciTegic.value.DoubleValue
1.236

@<SCITEGIC>MOL_PROPERTY
G
SciTegic.value.DoubleValue
49.498

@<SCITEGIC>MOL_PROPERTY
E
SciTegic.value.DoubleValue
16.977

@<SCITEGIC>MOL_PROPERTY
-TS
SciTegic.value.DoubleValue
32.521

@<SCITEGIC>MOL_PROPERTY
U+W
SciTegic.value.DoubleValue
-4.485

@<SCITEGIC>MOL_PROPERTY
U
SciTegic.value.DoubleValue
48.768

@<SCITEGIC>MOL_PROPERTY
W
SciTegic.value.DoubleValue
-53.253

@<SCITEGIC>MOL_PROPERTY
W(PB)
SciTegic.value.DoubleValue
-55.597

@<SCITEGIC>MOL_PROPERTY
W(SA)
SciTegic.value.DoubleValue
2.344

@<SCITEGIC>MOL_PROPERTY
Valence
SciTegic.value.DoubleValue
3.051

@<SCITEGIC>MOL_PROPERTY
Coulomb
SciTegic.value.DoubleValue
44.907

@<SCITEGIC>MOL_PROPERTY
VdW
SciTegic.value.DoubleValue
0.810

@<SCITEGIC>MOL_PROPERTY
VdW6
SciTegic.value.DoubleValue
-6.972

@<SCITEGIC>MOL_PROPERTY
VdW12
SciTegic.value.DoubleValue
7.782

@<SCITEGIC>MOL_PROPERTY
Bond
SciTegic.value.DoubleValue
0.197

@<SCITEGIC>MOL_PROPERTY
Angle
SciTegic.value.DoubleValue
0.815

@<SCITEGIC>MOL_PROPERTY
Pdih
SciTegic.value.DoubleValue
2.039

@<SCITEGIC>MOL_PROPERTY
Idih
SciTegic.value.DoubleValue
0.000

@<SCITEGIC>MOL_PROPERTY
Tether
SciTegic.value.DoubleValue
0.000

@<TRIPOS>MOLECULE
guest-s14_vm2.mol2 : vm2 ligand conformer 37
          26          25           1
SMALL
USER_CHARGES
 
@<TRIPOS>ATOM
       1    C1      19.732539   17.949488   19.744291 C.3        1 MOL1        -0.2400
       2    H1      18.683820   18.127831   20.012535 H          1 MOL1         0.0971
       3    H2      19.781894   17.852054   18.652048 H          1 MOL1         0.0971
       4    H3      20.041497   16.991030   20.181226 H          1 MOL1         0.0971
       5    C2      20.644927   19.099961   20.226584 C.3        1 MOL1        -0.1385
       6    H4      20.299625   20.050491   19.796460 H          1 MOL1         0.0960
       7    H5      21.658922   18.936186   19.835721 H          1 MOL1         0.0960
       8    C3      20.719263   19.218781   21.767937 C.3        1 MOL1        -0.1409
       9    H6      21.094836   18.273997   22.182323 H          1 MOL1         0.0960
      10    H7      21.461034   19.987916   22.023529 H          1 MOL1         0.0960
      11    C4      19.362648   19.585622   22.420983 C.3        1 MOL1        -0.1409
      12    H8      18.643056   18.768520   22.278850 H          1 MOL1         0.0960
      13    H9      18.943114   20.461338   21.906932 H          1 MOL1         0.0960
      14    C5      19.473251   19.908913   23.931282 C.3        1 MOL1        -0.1409
      15    H10     20.171290   20.744611   24.079252 H          1 MOL1         0.0960
      16    H11     18.493779   20.259270   24.285641 H          1 MOL1         0.0960
      17    C6      19.915990   18.701337   24.790429 C.3        1 MOL1        -0.1450
      18    H12     20.927251   18.385122   24.505124 H          1 MOL1         0.0960
      19    H13     19.246056   17.850973   24.606110 H          1 MOL1         0.0960
      20    C7      19.903288   19.046406   26.290016 C.3        1 MOL1         0.0172
      21    H14     20.581435   19.882527   26.481031 H          1 MOL1         0.0934
      22    H15     18.895409   19.345327   26.590484 H          1 MOL1         0.0934
      23    N1      20.329093   17.888491   27.169479 N.4        1 MOL1        -0.5956
      24    H16     20.313056   18.139712   28.164001 H          1 MOL1         0.3624
      25    H17     21.282130   17.576524   26.955971 H          1 MOL1         0.3624
      26    H18     19.713198   17.076551   27.057008 H          1 MOL1         0.3624
@<TRIPOS>BOND
    1     1     2    1
    2     1     3    1
    3     1     4    1
    4     1     5    1
    5     5     6    1
    6     5     7    1
    7     5     8    1
    8     8     9    1
    9     8    10    1
   10     8    11    1
   11    11    12    1
   12    11    13    1
   13    11    14    1
   14    14    15    1
   15    14    16    1
   16    14    17    1
   17    17    18    1
   18    17    19    1
   19    17    20    1
   20    20    21    1
   21    20    22    1
   22    20    23    1
   23    23    24    1
   24    23    25    1
   25    23    26    1
@<TRIPOS>SUBSTRUCTURE
       1 MOL1            1 RESIDUE      1      MOL     
@<SCITEGIC>MOL_PROPERTY
VM2 Rank
SciTegic.value.IntegerValue
37

@<SCITEGIC>MOL_PROPERTY
Conf_Id
SciTegic.value.IntegerValue
1021

@<SCITEGIC>MOL_PROPERTY
Probability
SciTegic.value.DoubleValue
0.91

@<SCITEGIC>MOL_PROPERTY
Sum Probability
SciTegic.value.DoubleValue
74.24

@<SCITEGIC>MOL_PROPERTY
Delta G
SciTegic.value.DoubleValue
1.252

@<SCITEGIC>MOL_PROPERTY
G
SciTegic.value.DoubleValue
49.513

@<SCITEGIC>MOL_PROPERTY
E
SciTegic.value.DoubleValue
16.924

@<SCITEGIC>MOL_PROPERTY
-TS
SciTegic.value.DoubleValue
32.589

@<SCITEGIC>MOL_PROPERTY
U+W
SciTegic.value.DoubleValue
-4.538

@<SCITEGIC>MOL_PROPERTY
U
SciTegic.value.DoubleValue
48.768

@<SCITEGIC>MOL_PROPERTY
W
SciTegic.value.DoubleValue
-53.306

@<SCITEGIC>MOL_PROPERTY
W(PB)
SciTegic.value.DoubleValue
-55.644

@<SCITEGIC>MOL_PROPERTY
W(SA)
SciTegic.value.DoubleValue
2.338

@<SCITEGIC>MOL_PROPERTY
Valence
SciTegic.value.DoubleValue
3.172

@<SCITEGIC>MOL_PROPERTY
Coulomb
SciTegic.value.DoubleValue
44.791

@<SCITEGIC>MOL_PROPERTY
VdW
SciTegic.value.DoubleValue
0.806

@<SCITEGIC>MOL_PROPERTY
VdW6
SciTegic.value.DoubleValue
-7.081

@<SCITEGIC>MOL_PROPERTY
VdW12
SciTegic.value.DoubleValue
7.886

@<SCITEGIC>MOL_PROPERTY
Bond
SciTegic.value.DoubleValue
0.203

@<SCITEGIC>MOL_PROPERTY
Angle
SciTegic.value.DoubleValue
0.850

@<SCITEGIC>MOL_PROPERTY
Pdih
SciTegic.value.DoubleValue
2.119

@<SCITEGIC>MOL_PROPERTY
Idih
SciTegic.value.DoubleValue
0.000

@<SCITEGIC>MOL_PROPERTY
Tether
SciTegic.value.DoubleValue
0.000

@<TRIPOS>MOLECULE
guest-s14_vm2.mol2 : vm2 ligand conformer 38
          26          25           1
SMALL
USER_CHARGES
 
@<TRIPOS>ATOM
       1    C1      20.668375   20.261778   19.990878 C.3        1 MOL1        -0.2400
       2    H1      21.625047   20.554290   20.443004 H          1 MOL1         0.0971
       3    H2      20.880907   19.620904   19.125245 H          1 MOL1         0.0971
       4    H3      20.176953   21.171953   19.623322 H          1 MOL1         0.0971
       5    C2      19.771344   19.533517   21.014111 C.3        1 MOL1        -0.1385
       6    H4      18.811547   19.280176   20.542670 H          1 MOL1         0.0960
       7    H5      19.548633   20.218200   21.843276 H          1 MOL1         0.0960
       8    C3      20.444951   18.248386   21.550182 C.3        1 MOL1        -0.1409
       9    H6      20.726820   17.612503   20.699631 H          1 MOL1         0.0960
      10    H7      21.384387   18.505046   22.057247 H          1 MOL1         0.0960
      11    C4      19.538498   17.420346   22.497548 C.3        1 MOL1        -0.1409
      12    H8      20.081120   16.514638   22.801616 H          1 MOL1         0.0960
      13    H9      18.662329   17.069906   21.934750 H          1 MOL1         0.0960
      14    C5      19.049292   18.163004   23.767975 C.3        1 MOL1        -0.1409
      15    H10     18.399750   19.002443   23.486315 H          1 MOL1         0.0960
      16    H11     18.417829   17.475830   24.348180 H          1 MOL1         0.0960
      17    C6      20.198500   18.670491   24.670035 C.3        1 MOL1        -0.1450
      18    H12     20.795466   19.419473   24.134400 H          1 MOL1         0.0960
      19    H13     20.869328   17.837208   24.917942 H          1 MOL1         0.0960
      20    C7      19.657576   19.295795   25.967782 C.3        1 MOL1         0.0172
      21    H14     19.001348   20.136169   25.725734 H          1 MOL1         0.0934
      22    H15     19.075689   18.552727   26.519784 H          1 MOL1         0.0934
      23    N1      20.752465   19.805682   26.882490 N.4        1 MOL1        -0.5956
      24    H16     21.390315   19.056068   27.169605 H          1 MOL1         0.3624
      25    H17     20.370427   20.217511   27.740896 H          1 MOL1         0.3624
      26    H18     21.321043   20.529892   26.431509 H          1 MOL1         0.3624
@<TRIPOS>BOND
    1     1     2    1
    2     1     3    1
    3     1     4    1
    4     1     5    1
    5     5     6    1
    6     5     7    1
    7     5     8    1
    8     8     9    1
    9     8    10    1
   10     8    11    1
   11    11    12    1
   12    11    13    1
   13    11    14    1
   14    14    15    1
   15    14    16    1
   16    14    17    1
   17    17    18    1
   18    17    19    1
   19    17    20    1
   20    20    21    1
   21    20    22    1
   22    20    23    1
   23    23    24    1
   24    23    25    1
   25    23    26    1
@<TRIPOS>SUBSTRUCTURE
       1 MOL1            1 RESIDUE      1      MOL     
@<SCITEGIC>MOL_PROPERTY
VM2 Rank
SciTegic.value.IntegerValue
38

@<SCITEGIC>MOL_PROPERTY
Conf_Id
SciTegic.value.IntegerValue
1324

@<SCITEGIC>MOL_PROPERTY
Probability
SciTegic.value.DoubleValue
0.90

@<SCITEGIC>MOL_PROPERTY
Sum Probability
SciTegic.value.DoubleValue
75.14

@<SCITEGIC>MOL_PROPERTY
Delta G
SciTegic.value.DoubleValue
1.261

@<SCITEGIC>MOL_PROPERTY
G
SciTegic.value.DoubleValue
49.522

@<SCITEGIC>MOL_PROPERTY
E
SciTegic.value.DoubleValue
16.727

@<SCITEGIC>MOL_PROPERTY
-TS
SciTegic.value.DoubleValue
32.795

@<SCITEGIC>MOL_PROPERTY
U+W
SciTegic.value.DoubleValue
-4.735

@<SCITEGIC>MOL_PROPERTY
U
SciTegic.value.DoubleValue
48.910

@<SCITEGIC>MOL_PROPERTY
W
SciTegic.value.DoubleValue
-53.646

@<SCITEGIC>MOL_PROPERTY
W(PB)
SciTegic.value.DoubleValue
-55.959

@<SCITEGIC>MOL_PROPERTY
W(SA)
SciTegic.value.DoubleValue
2.314

@<SCITEGIC>MOL_PROPERTY
Valence
SciTegic.value.DoubleValue
3.149

@<SCITEGIC>MOL_PROPERTY
Coulomb
SciTegic.value.DoubleValue
45.131

@<SCITEGIC>MOL_PROPERTY
VdW
SciTegic.value.DoubleValue
0.630

@<SCITEGIC>MOL_PROPERTY
VdW6
SciTegic.value.DoubleValue
-7.453

@<SCITEGIC>MOL_PROPERTY
VdW12
SciTegic.value.DoubleValue
8.084

@<SCITEGIC>MOL_PROPERTY
Bond
SciTegic.value.DoubleValue
0.212

@<SCITEGIC>MOL_PROPERTY
Angle
SciTegic.value.DoubleValue
1.075

@<SCITEGIC>MOL_PROPERTY
Pdih
SciTegic.value.DoubleValue
1.862

@<SCITEGIC>MOL_PROPERTY
Idih
SciTegic.value.DoubleValue
0.000

@<SCITEGIC>MOL_PROPERTY
Tether
SciTegic.value.DoubleValue
0.000

@<TRIPOS>MOLECULE
guest-s14_vm2.mol2 : vm2 ligand conformer 39
          26          25           1
SMALL
USER_CHARGES
 
@<TRIPOS>ATOM
       1    C1      21.180031   18.901611   19.792674 C.3        1 MOL1        -0.2400
       2    H1      21.917076   18.224728   20.243898 H          1 MOL1         0.0971
       3    H2      21.300854   18.851211   18.702818 H          1 MOL1         0.0971
       4    H3      21.418032   19.926324   20.103942 H          1 MOL1         0.0971
       5    C2      19.741641   18.505771   20.196397 C.3        1 MOL1        -0.1385
       6    H4      19.509721   17.522445   19.763889 H          1 MOL1         0.0960
       7    H5      19.025895   19.212625   19.753890 H          1 MOL1         0.0960
       8    C3      19.531398   18.437396   21.728238 C.3        1 MOL1        -0.1409
       9    H6      18.520880   18.053786   21.925252 H          1 MOL1         0.0960
      10    H7      20.230708   17.705588   22.153454 H          1 MOL1         0.0960
      11    C4      19.699931   19.807579   22.432255 C.3        1 MOL1        -0.1409
      12    H8      19.085913   20.555368   21.911746 H          1 MOL1         0.0960
      13    H9      20.740388   20.148413   22.348883 H          1 MOL1         0.0960
      14    C5      19.289298   19.787881   23.925155 C.3        1 MOL1        -0.1409
      15    H10     19.337805   20.814651   24.313843 H          1 MOL1         0.0960
      16    H11     18.240060   19.473859   24.014790 H          1 MOL1         0.0960
      17    C6      20.182740   18.876870   24.799345 C.3        1 MOL1        -0.1450
      18    H12     21.236025   19.160502   24.672664 H          1 MOL1         0.0960
      19    H13     20.087261   17.832352   24.477000 H          1 MOL1         0.0960
      20    C7      19.801148   18.979130   26.286600 C.3        1 MOL1         0.0172
      21    H14     19.910397   20.013235   26.624458 H          1 MOL1         0.0934
      22    H15     18.757403   18.682048   26.420031 H          1 MOL1         0.0934
      23    N1      20.654814   18.102761   27.180337 N.4        1 MOL1        -0.5956
      24    H16     20.575120   17.111153   26.932250 H          1 MOL1         0.3624
      25    H17     20.384213   18.186405   28.166350 H          1 MOL1         0.3624
      26    H18     21.648150   18.349880   27.121686 H          1 MOL1         0.3624
@<TRIPOS>BOND
    1     1     2    1
    2     1     3    1
    3     1     4    1
    4     1     5    1
    5     5     6    1
    6     5     7    1
    7     5     8    1
    8     8     9    1
    9     8    10    1
   10     8    11    1
   11    11    12    1
   12    11    13    1
   13    11    14    1
   14    14    15    1
   15    14    16    1
   16    14    17    1
   17    17    18    1
   18    17    19    1
   19    17    20    1
   20    20    21    1
   21    20    22    1
   22    20    23    1
   23    23    24    1
   24    23    25    1
   25    23    26    1
@<TRIPOS>SUBSTRUCTURE
       1 MOL1            1 RESIDUE      1      MOL     
@<SCITEGIC>MOL_PROPERTY
VM2 Rank
SciTegic.value.IntegerValue
39

@<SCITEGIC>MOL_PROPERTY
Conf_Id
SciTegic.value.IntegerValue
496

@<SCITEGIC>MOL_PROPERTY
Probability
SciTegic.value.DoubleValue
0.89

@<SCITEGIC>MOL_PROPERTY
Sum Probability
SciTegic.value.DoubleValue
76.03

@<SCITEGIC>MOL_PROPERTY
Delta G
SciTegic.value.DoubleValue
1.265

@<SCITEGIC>MOL_PROPERTY
G
SciTegic.value.DoubleValue
49.526

@<SCITEGIC>MOL_PROPERTY
E
SciTegic.value.DoubleValue
16.937

@<SCITEGIC>MOL_PROPERTY
-TS
SciTegic.value.DoubleValue
32.589

@<SCITEGIC>MOL_PROPERTY
U+W
SciTegic.value.DoubleValue
-4.525

@<SCITEGIC>MOL_PROPERTY
U
SciTegic.value.DoubleValue
48.768

@<SCITEGIC>MOL_PROPERTY
W
SciTegic.value.DoubleValue
-53.293

@<SCITEGIC>MOL_PROPERTY
W(PB)
SciTegic.value.DoubleValue
-55.606

@<SCITEGIC>MOL_PROPERTY
W(SA)
SciTegic.value.DoubleValue
2.313

@<SCITEGIC>MOL_PROPERTY
Valence
SciTegic.value.DoubleValue
3.172

@<SCITEGIC>MOL_PROPERTY
Coulomb
SciTegic.value.DoubleValue
44.791

@<SCITEGIC>MOL_PROPERTY
VdW
SciTegic.value.DoubleValue
0.805

@<SCITEGIC>MOL_PROPERTY
VdW6
SciTegic.value.DoubleValue
-7.080

@<SCITEGIC>MOL_PROPERTY
VdW12
SciTegic.value.DoubleValue
7.886

@<SCITEGIC>MOL_PROPERTY
Bond
SciTegic.value.DoubleValue
0.203

@<SCITEGIC>MOL_PROPERTY
Angle
SciTegic.value.DoubleValue
0.850

@<SCITEGIC>MOL_PROPERTY
Pdih
SciTegic.value.DoubleValue
2.119

@<SCITEGIC>MOL_PROPERTY
Idih
SciTegic.value.DoubleValue
0.000

@<SCITEGIC>MOL_PROPERTY
Tether
SciTegic.value.DoubleValue
0.000

@<TRIPOS>MOLECULE
guest-s14_vm2.mol2 : vm2 ligand conformer 40
          26          25           1
SMALL
USER_CHARGES
 
@<TRIPOS>ATOM
       1    C1      18.677518   18.946928   19.924202 C.3        1 MOL1        -0.2400
       2    H1      19.223607   18.526337   19.069744 H          1 MOL1         0.0971
       3    H2      18.013090   18.168818   20.322051 H          1 MOL1         0.0971
       4    H3      18.050593   19.767608   19.552097 H          1 MOL1         0.0971
       5    C2      19.650299   19.453567   21.010041 C.3        1 MOL1        -0.1385
       6    H4      19.069636   19.901851   21.827218 H          1 MOL1         0.0960
       7    H5      20.280845   20.250542   20.591844 H          1 MOL1         0.0960
       8    C3      20.542634   18.312898   21.553452 C.3        1 MOL1        -0.1409
       9    H6      19.915346   17.534881   22.008125 H          1 MOL1         0.0960
      10    H7      21.056236   17.830036   20.710664 H          1 MOL1         0.0960
      11    C4      21.614391   18.791326   22.566985 C.3        1 MOL1        -0.1409
      12    H8      22.305702   19.476035   22.056608 H          1 MOL1         0.0960
      13    H9      22.220106   17.927298   22.873199 H          1 MOL1         0.0960
      14    C5      21.064288   19.493819   23.835348 C.3        1 MOL1        -0.1409
      15    H10     21.916016   19.786214   24.465153 H          1 MOL1         0.0960
      16    H11     20.560257   20.429347   23.558522 H          1 MOL1         0.0960
      17    C6      20.105998   18.609474   24.666943 C.3        1 MOL1        -0.1450
      18    H12     20.597586   17.657811   24.908823 H          1 MOL1         0.0960
      19    H13     19.208871   18.371763   24.081362 H          1 MOL1         0.0960
      20    C7      19.682794   19.312464   25.968655 C.3        1 MOL1         0.0172
      21    H14     20.567830   19.538198   26.569659 H          1 MOL1         0.0934
      22    H15     19.178631   20.253285   25.731741 H          1 MOL1         0.0934
      23    N1      18.743077   18.478524   26.815373 N.4        1 MOL1        -0.5956
      24    H16     19.168941   17.588880   27.095346 H          1 MOL1         0.3624
      25    H17     17.875885   18.254500   26.316439 H          1 MOL1         0.3624
      26    H18     18.474282   18.965081   27.677597 H          1 MOL1         0.3624
@<TRIPOS>BOND
    1     1     2    1
    2     1     3    1
    3     1     4    1
    4     1     5    1
    5     5     6    1
    6     5     7    1
    7     5     8    1
    8     8     9    1
    9     8    10    1
   10     8    11    1
   11    11    12    1
   12    11    13    1
   13    11    14    1
   14    14    15    1
   15    14    16    1
   16    14    17    1
   17    17    18    1
   18    17    19    1
   19    17    20    1
   20    20    21    1
   21    20    22    1
   22    20    23    1
   23    23    24    1
   24    23    25    1
   25    23    26    1
@<TRIPOS>SUBSTRUCTURE
       1 MOL1            1 RESIDUE      1      MOL     
@<SCITEGIC>MOL_PROPERTY
VM2 Rank
SciTegic.value.IntegerValue
40

@<SCITEGIC>MOL_PROPERTY
Conf_Id
SciTegic.value.IntegerValue
152

@<SCITEGIC>MOL_PROPERTY
Probability
SciTegic.value.DoubleValue
0.86

@<SCITEGIC>MOL_PROPERTY
Sum Probability
SciTegic.value.DoubleValue
76.89

@<SCITEGIC>MOL_PROPERTY
Delta G
SciTegic.value.DoubleValue
1.288

@<SCITEGIC>MOL_PROPERTY
G
SciTegic.value.DoubleValue
49.550

@<SCITEGIC>MOL_PROPERTY
E
SciTegic.value.DoubleValue
16.754

@<SCITEGIC>MOL_PROPERTY
-TS
SciTegic.value.DoubleValue
32.795

@<SCITEGIC>MOL_PROPERTY
U+W
SciTegic.value.DoubleValue
-4.707

@<SCITEGIC>MOL_PROPERTY
U
SciTegic.value.DoubleValue
48.910

@<SCITEGIC>MOL_PROPERTY
W
SciTegic.value.DoubleValue
-53.618

@<SCITEGIC>MOL_PROPERTY
W(PB)
SciTegic.value.DoubleValue
-55.928

@<SCITEGIC>MOL_PROPERTY
W(SA)
SciTegic.value.DoubleValue
2.311

@<SCITEGIC>MOL_PROPERTY
Valence
SciTegic.value.DoubleValue
3.149

@<SCITEGIC>MOL_PROPERTY
Coulomb
SciTegic.value.DoubleValue
45.131

@<SCITEGIC>MOL_PROPERTY
VdW
SciTegic.value.DoubleValue
0.630

@<SCITEGIC>MOL_PROPERTY
VdW6
SciTegic.value.DoubleValue
-7.453

@<SCITEGIC>MOL_PROPERTY
VdW12
SciTegic.value.DoubleValue
8.083

@<SCITEGIC>MOL_PROPERTY
Bond
SciTegic.value.DoubleValue
0.212

@<SCITEGIC>MOL_PROPERTY
Angle
SciTegic.value.DoubleValue
1.075

@<SCITEGIC>MOL_PROPERTY
Pdih
SciTegic.value.DoubleValue
1.862

@<SCITEGIC>MOL_PROPERTY
Idih
SciTegic.value.DoubleValue
0.000

@<SCITEGIC>MOL_PROPERTY
Tether
SciTegic.value.DoubleValue
0.000

@<TRIPOS>MOLECULE
guest-s14_vm2.mol2 : vm2 ligand conformer 41
          26          25           1
SMALL
USER_CHARGES
 
@<TRIPOS>ATOM
       1    C1      19.845607   19.221514   19.327794 C.3        1 MOL1        -0.2400
       2    H1      18.798552   18.969219   19.535646 H          1 MOL1         0.0971
       3    H2      19.945083   20.314693   19.336766 H          1 MOL1         0.0971
       4    H3      20.072559   18.872469   18.312119 H          1 MOL1         0.0971
       5    C2      20.802911   18.567657   20.350164 C.3        1 MOL1        -0.1385
       6    H4      21.838051   18.742202   20.024837 H          1 MOL1         0.0960
       7    H5      20.659783   17.478044   20.347162 H          1 MOL1         0.0960
       8    C3      20.637691   19.113830   21.789216 C.3        1 MOL1        -0.1409
       9    H6      21.443395   18.693989   22.404774 H          1 MOL1         0.0960
      10    H7      20.783943   20.202701   21.786901 H          1 MOL1         0.0960
      11    C4      19.266387   18.771049   22.425336 C.3        1 MOL1        -0.1409
      12    H8      19.121258   17.682035   22.430097 H          1 MOL1         0.0960
      13    H9      18.462397   19.187067   21.804714 H          1 MOL1         0.0960
      14    C5      19.094635   19.323786   23.861901 C.3        1 MOL1        -0.1409
      15    H10     19.240781   20.412906   23.857646 H          1 MOL1         0.0960
      16    H11     18.055637   19.153992   24.177150 H          1 MOL1         0.0960
      17    C6      20.043024   18.673383   24.896569 C.3        1 MOL1        -0.1450
      18    H12     21.087227   18.904107   24.651661 H          1 MOL1         0.0960
      19    H13     19.935065   17.581124   24.861948 H          1 MOL1         0.0960
      20    C7      19.742508   19.171337   26.321295 C.3        1 MOL1         0.0172
      21    H14     19.864323   20.257023   26.365059 H          1 MOL1         0.0934
      22    H15     18.709270   18.930151   26.585315 H          1 MOL1         0.0934
      23    N1      20.648237   18.556443   27.368725 N.4        1 MOL1        -0.5956
      24    H16     21.635555   18.770246   27.193546 H          1 MOL1         0.3624
      25    H17     20.560882   17.535283   27.397576 H          1 MOL1         0.3624
      26    H18     20.430677   18.901262   28.310115 H          1 MOL1         0.3624
@<TRIPOS>BOND
    1     1     2    1
    2     1     3    1
    3     1     4    1
    4     1     5    1
    5     5     6    1
    6     5     7    1
    7     5     8    1
    8     8     9    1
    9     8    10    1
   10     8    11    1
   11    11    12    1
   12    11    13    1
   13    11    14    1
   14    14    15    1
   15    14    16    1
   16    14    17    1
   17    17    18    1
   18    17    19    1
   19    17    20    1
   20    20    21    1
   21    20    22    1
   22    20    23    1
   23    23    24    1
   24    23    25    1
   25    23    26    1
@<TRIPOS>SUBSTRUCTURE
       1 MOL1            1 RESIDUE      1      MOL     
@<SCITEGIC>MOL_PROPERTY
VM2 Rank
SciTegic.value.IntegerValue
41

@<SCITEGIC>MOL_PROPERTY
Conf_Id
SciTegic.value.IntegerValue
742

@<SCITEGIC>MOL_PROPERTY
Probability
SciTegic.value.DoubleValue
0.77

@<SCITEGIC>MOL_PROPERTY
Sum Probability
SciTegic.value.DoubleValue
77.66

@<SCITEGIC>MOL_PROPERTY
Delta G
SciTegic.value.DoubleValue
1.350

@<SCITEGIC>MOL_PROPERTY
G
SciTegic.value.DoubleValue
49.611

@<SCITEGIC>MOL_PROPERTY
E
SciTegic.value.DoubleValue
17.104

@<SCITEGIC>MOL_PROPERTY
-TS
SciTegic.value.DoubleValue
32.507

@<SCITEGIC>MOL_PROPERTY
U+W
SciTegic.value.DoubleValue
-4.358

@<SCITEGIC>MOL_PROPERTY
U
SciTegic.value.DoubleValue
48.901

@<SCITEGIC>MOL_PROPERTY
W
SciTegic.value.DoubleValue
-53.259

@<SCITEGIC>MOL_PROPERTY
W(PB)
SciTegic.value.DoubleValue
-55.568

@<SCITEGIC>MOL_PROPERTY
W(SA)
SciTegic.value.DoubleValue
2.309

@<SCITEGIC>MOL_PROPERTY
Valence
SciTegic.value.DoubleValue
3.277

@<SCITEGIC>MOL_PROPERTY
Coulomb
SciTegic.value.DoubleValue
44.745

@<SCITEGIC>MOL_PROPERTY
VdW
SciTegic.value.DoubleValue
0.880

@<SCITEGIC>MOL_PROPERTY
VdW6
SciTegic.value.DoubleValue
-6.990

@<SCITEGIC>MOL_PROPERTY
VdW12
SciTegic.value.DoubleValue
7.870

@<SCITEGIC>MOL_PROPERTY
Bond
SciTegic.value.DoubleValue
0.211

@<SCITEGIC>MOL_PROPERTY
Angle
SciTegic.value.DoubleValue
0.950

@<SCITEGIC>MOL_PROPERTY
Pdih
SciTegic.value.DoubleValue
2.115

@<SCITEGIC>MOL_PROPERTY
Idih
SciTegic.value.DoubleValue
0.000

@<SCITEGIC>MOL_PROPERTY
Tether
SciTegic.value.DoubleValue
0.000

@<TRIPOS>MOLECULE
guest-s14_vm2.mol2 : vm2 ligand conformer 42
          26          25           1
SMALL
USER_CHARGES
 
@<TRIPOS>ATOM
       1    C1      19.987312   19.314567   19.332471 C.3        1 MOL1        -0.2400
       2    H1      20.620854   20.170149   19.596631 H          1 MOL1         0.0971
       3    H2      20.266225   18.999504   18.318626 H          1 MOL1         0.0971
       4    H3      18.943922   19.654383   19.302908 H          1 MOL1         0.0971
       5    C2      20.163516   18.146085   20.328866 C.3        1 MOL1        -0.1385
       6    H4      21.220487   17.847472   20.366195 H          1 MOL1         0.0960
       7    H5      19.611434   17.274406   19.950450 H          1 MOL1         0.0960
       8    C3      19.659684   18.469339   21.756499 C.3        1 MOL1        -0.1409
       9    H6      18.602380   18.764837   21.713772 H          1 MOL1         0.0960
      10    H7      19.699751   17.544915   22.346557 H          1 MOL1         0.0960
      11    C4      20.483804   19.573891   22.466016 C.3        1 MOL1        -0.1409
      12    H8      20.446603   20.495450   21.871047 H          1 MOL1         0.0960
      13    H9      21.540724   19.277345   22.510926 H          1 MOL1         0.0960
      14    C5      19.976840   19.905565   23.891399 C.3        1 MOL1        -0.1409
      15    H10     20.526318   20.783152   24.259699 H          1 MOL1         0.0960
      16    H11     18.919353   20.201044   23.846984 H          1 MOL1         0.0960
      17    C6      20.153509   18.746259   24.900259 C.3        1 MOL1        -0.1450
      18    H12     21.200693   18.415690   24.904181 H          1 MOL1         0.0960
      19    H13     19.542787   17.885748   24.600075 H          1 MOL1         0.0960
      20    C7      19.747995   19.174899   26.321501 C.3        1 MOL1         0.0172
      21    H14     20.363080   20.020669   26.640563 H          1 MOL1         0.0934
      22    H15     18.700955   19.489790   26.326288 H          1 MOL1         0.0934
      23    N1      19.908340   18.068395   27.343990 N.4        1 MOL1        -0.5956
      24    H16     19.633314   18.375262   28.283478 H          1 MOL1         0.3624
      25    H17     20.879217   17.745103   27.408143 H          1 MOL1         0.3624
      26    H18     19.332353   17.251255   27.116578 H          1 MOL1         0.3624
@<TRIPOS>BOND
    1     1     2    1
    2     1     3    1
    3     1     4    1
    4     1     5    1
    5     5     6    1
    6     5     7    1
    7     5     8    1
    8     8     9    1
    9     8    10    1
   10     8    11    1
   11    11    12    1
   12    11    13    1
   13    11    14    1
   14    14    15    1
   15    14    16    1
   16    14    17    1
   17    17    18    1
   18    17    19    1
   19    17    20    1
   20    20    21    1
   21    20    22    1
   22    20    23    1
   23    23    24    1
   24    23    25    1
   25    23    26    1
@<TRIPOS>SUBSTRUCTURE
       1 MOL1            1 RESIDUE      1      MOL     
@<SCITEGIC>MOL_PROPERTY
VM2 Rank
SciTegic.value.IntegerValue
42

@<SCITEGIC>MOL_PROPERTY
Conf_Id
SciTegic.value.IntegerValue
931

@<SCITEGIC>MOL_PROPERTY
Probability
SciTegic.value.DoubleValue
0.76

@<SCITEGIC>MOL_PROPERTY
Sum Probability
SciTegic.value.DoubleValue
78.42

@<SCITEGIC>MOL_PROPERTY
Delta G
SciTegic.value.DoubleValue
1.364

@<SCITEGIC>MOL_PROPERTY
G
SciTegic.value.DoubleValue
49.625

@<SCITEGIC>MOL_PROPERTY
E
SciTegic.value.DoubleValue
17.118

@<SCITEGIC>MOL_PROPERTY
-TS
SciTegic.value.DoubleValue
32.507

@<SCITEGIC>MOL_PROPERTY
U+W
SciTegic.value.DoubleValue
-4.344

@<SCITEGIC>MOL_PROPERTY
U
SciTegic.value.DoubleValue
48.901

@<SCITEGIC>MOL_PROPERTY
W
SciTegic.value.DoubleValue
-53.245

@<SCITEGIC>MOL_PROPERTY
W(PB)
SciTegic.value.DoubleValue
-55.589

@<SCITEGIC>MOL_PROPERTY
W(SA)
SciTegic.value.DoubleValue
2.344

@<SCITEGIC>MOL_PROPERTY
Valence
SciTegic.value.DoubleValue
3.277

@<SCITEGIC>MOL_PROPERTY
Coulomb
SciTegic.value.DoubleValue
44.745

@<SCITEGIC>MOL_PROPERTY
VdW
SciTegic.value.DoubleValue
0.880

@<SCITEGIC>MOL_PROPERTY
VdW6
SciTegic.value.DoubleValue
-6.990

@<SCITEGIC>MOL_PROPERTY
VdW12
SciTegic.value.DoubleValue
7.870

@<SCITEGIC>MOL_PROPERTY
Bond
SciTegic.value.DoubleValue
0.211

@<SCITEGIC>MOL_PROPERTY
Angle
SciTegic.value.DoubleValue
0.950

@<SCITEGIC>MOL_PROPERTY
Pdih
SciTegic.value.DoubleValue
2.115

@<SCITEGIC>MOL_PROPERTY
Idih
SciTegic.value.DoubleValue
0.000

@<SCITEGIC>MOL_PROPERTY
Tether
SciTegic.value.DoubleValue
0.000

@<TRIPOS>MOLECULE
guest-s14_vm2.mol2 : vm2 ligand conformer 43
          26          25           1
SMALL
USER_CHARGES
 
@<TRIPOS>ATOM
       1    C1      19.149186   18.711967   19.822471 C.3        1 MOL1        -0.2400
       2    H1      18.311054   18.569923   20.515878 H          1 MOL1         0.0971
       3    H2      19.170007   19.766604   19.518616 H          1 MOL1         0.0971
       4    H3      18.943285   18.109104   18.928554 H          1 MOL1         0.0971
       5    C2      20.492207   18.290957   20.461050 C.3        1 MOL1        -0.1385
       6    H4      21.278028   18.334644   19.694002 H          1 MOL1         0.0960
       7    H5      20.435344   17.241846   20.783344 H          1 MOL1         0.0960
       8    C3      20.912716   19.183089   21.653935 C.3        1 MOL1        -0.1409
       9    H6      21.920563   18.884689   21.974058 H          1 MOL1         0.0960
      10    H7      20.990683   20.227285   21.321032 H          1 MOL1         0.0960
      11    C4      19.950445   19.090538   22.862313 C.3        1 MOL1        -0.1409
      12    H8      19.832456   18.037151   23.148810 H          1 MOL1         0.0960
      13    H9      18.956131   19.457800   22.576348 H          1 MOL1         0.0960
      14    C5      20.465822   19.912658   24.067898 C.3        1 MOL1        -0.1409
      15    H10     21.447447   19.534734   24.383559 H          1 MOL1         0.0960
      16    H11     20.626864   20.952499   23.751429 H          1 MOL1         0.0960
      17    C6      19.488654   19.909561   25.270244 C.3        1 MOL1        -0.1450
      18    H12     18.539825   20.371461   24.966546 H          1 MOL1         0.0960
      19    H13     19.895043   20.543007   26.069865 H          1 MOL1         0.0960
      20    C7      19.195787   18.505936   25.838147 C.3        1 MOL1         0.0172
      21    H14     18.481473   18.589528   26.661717 H          1 MOL1         0.0934
      22    H15     18.747514   17.879207   25.062959 H          1 MOL1         0.0934
      23    N1      20.426181   17.794294   26.364943 N.4        1 MOL1        -0.5956
      24    H16     20.877394   18.322514   27.118797 H          1 MOL1         0.3624
      25    H17     21.126300   17.656860   25.629454 H          1 MOL1         0.3624
      26    H18     20.198659   16.867977   26.742218 H          1 MOL1         0.3624
@<TRIPOS>BOND
    1     1     2    1
    2     1     3    1
    3     1     4    1
    4     1     5    1
    5     5     6    1
    6     5     7    1
    7     5     8    1
    8     8     9    1
    9     8    10    1
   10     8    11    1
   11    11    12    1
   12    11    13    1
   13    11    14    1
   14    14    15    1
   15    14    16    1
   16    14    17    1
   17    17    18    1
   18    17    19    1
   19    17    20    1
   20    20    21    1
   21    20    22    1
   22    20    23    1
   23    23    24    1
   24    23    25    1
   25    23    26    1
@<TRIPOS>SUBSTRUCTURE
       1 MOL1            1 RESIDUE      1      MOL     
@<SCITEGIC>MOL_PROPERTY
VM2 Rank
SciTegic.value.IntegerValue
43

@<SCITEGIC>MOL_PROPERTY
Conf_Id
SciTegic.value.IntegerValue
454

@<SCITEGIC>MOL_PROPERTY
Probability
SciTegic.value.DoubleValue
0.62

@<SCITEGIC>MOL_PROPERTY
Sum Probability
SciTegic.value.DoubleValue
79.04

@<SCITEGIC>MOL_PROPERTY
Delta G
SciTegic.value.DoubleValue
1.482

@<SCITEGIC>MOL_PROPERTY
G
SciTegic.value.DoubleValue
49.743

@<SCITEGIC>MOL_PROPERTY
E
SciTegic.value.DoubleValue
16.993

@<SCITEGIC>MOL_PROPERTY
-TS
SciTegic.value.DoubleValue
32.750

@<SCITEGIC>MOL_PROPERTY
U+W
SciTegic.value.DoubleValue
-4.469

@<SCITEGIC>MOL_PROPERTY
U
SciTegic.value.DoubleValue
49.278

@<SCITEGIC>MOL_PROPERTY
W
SciTegic.value.DoubleValue
-53.747

@<SCITEGIC>MOL_PROPERTY
W(PB)
SciTegic.value.DoubleValue
-56.035

@<SCITEGIC>MOL_PROPERTY
W(SA)
SciTegic.value.DoubleValue
2.288

@<SCITEGIC>MOL_PROPERTY
Valence
SciTegic.value.DoubleValue
3.047

@<SCITEGIC>MOL_PROPERTY
Coulomb
SciTegic.value.DoubleValue
45.459

@<SCITEGIC>MOL_PROPERTY
VdW
SciTegic.value.DoubleValue
0.771

@<SCITEGIC>MOL_PROPERTY
VdW6
SciTegic.value.DoubleValue
-7.730

@<SCITEGIC>MOL_PROPERTY
VdW12
SciTegic.value.DoubleValue
8.501

@<SCITEGIC>MOL_PROPERTY
Bond
SciTegic.value.DoubleValue
0.210

@<SCITEGIC>MOL_PROPERTY
Angle
SciTegic.value.DoubleValue
0.867

@<SCITEGIC>MOL_PROPERTY
Pdih
SciTegic.value.DoubleValue
1.970

@<SCITEGIC>MOL_PROPERTY
Idih
SciTegic.value.DoubleValue
0.000

@<SCITEGIC>MOL_PROPERTY
Tether
SciTegic.value.DoubleValue
0.000

@<TRIPOS>MOLECULE
guest-s14_vm2.mol2 : vm2 ligand conformer 44
          26          25           1
SMALL
USER_CHARGES
 
@<TRIPOS>ATOM
       1    C1      20.382577   19.910863   19.621914 C.3        1 MOL1        -0.2400
       2    H1      20.492457   20.926793   20.023205 H          1 MOL1         0.0971
       3    H2      21.072898   19.806715   18.774777 H          1 MOL1         0.0971
       4    H3      19.359605   19.803528   19.238196 H          1 MOL1         0.0971
       5    C2      20.683314   18.851530   20.703347 C.3        1 MOL1        -0.1385
       6    H4      21.722408   18.962717   21.043686 H          1 MOL1         0.0960
       7    H5      20.599391   17.847897   20.263390 H          1 MOL1         0.0960
       8    C3      19.724243   18.975544   21.907898 C.3        1 MOL1        -0.1409
       9    H6      19.811036   19.984475   22.332037 H          1 MOL1         0.0960
      10    H7      18.687113   18.861490   21.563615 H          1 MOL1         0.0960
      11    C4      20.027853   17.917187   22.995204 C.3        1 MOL1        -0.1409
      12    H8      21.050909   18.054784   23.369821 H          1 MOL1         0.0960
      13    H9      20.004676   16.918392   22.537838 H          1 MOL1         0.0960
      14    C5      19.022433   17.936748   24.175537 C.3        1 MOL1        -0.1409
      15    H10     18.018678   17.702162   23.795238 H          1 MOL1         0.0960
      16    H11     19.274359   17.123173   24.868978 H          1 MOL1         0.0960
      17    C6      18.960019   19.274712   24.958289 C.3        1 MOL1        -0.1450
      18    H12     18.259286   19.169441   25.797098 H          1 MOL1         0.0960
      19    H13     18.541042   20.059511   24.315650 H          1 MOL1         0.0960
      20    C7      20.324431   19.748772   25.497684 C.3        1 MOL1         0.0172
      21    H14     21.020314   19.890780   24.666715 H          1 MOL1         0.0934
      22    H15     20.200929   20.709018   26.005758 H          1 MOL1         0.0934
      23    N1      20.956129   18.783644   26.481127 N.4        1 MOL1        -0.5956
      24    H16     20.360866   18.633750   27.302122 H          1 MOL1         0.3624
      25    H17     21.860117   19.125822   26.824360 H          1 MOL1         0.3624
      26    H18     21.122042   17.866448   26.055583 H          1 MOL1         0.3624
@<TRIPOS>BOND
    1     1     2    1
    2     1     3    1
    3     1     4    1
    4     1     5    1
    5     5     6    1
    6     5     7    1
    7     5     8    1
    8     8     9    1
    9     8    10    1
   10     8    11    1
   11    11    12    1
   12    11    13    1
   13    11    14    1
   14    14    15    1
   15    14    16    1
   16    14    17    1
   17    17    18    1
   18    17    19    1
   19    17    20    1
   20    20    21    1
   21    20    22    1
   22    20    23    1
   23    23    24    1
   24    23    25    1
   25    23    26    1
@<TRIPOS>SUBSTRUCTURE
       1 MOL1            1 RESIDUE      1      MOL     
@<SCITEGIC>MOL_PROPERTY
VM2 Rank
SciTegic.value.IntegerValue
44

@<SCITEGIC>MOL_PROPERTY
Conf_Id
SciTegic.value.IntegerValue
355

@<SCITEGIC>MOL_PROPERTY
Probability
SciTegic.value.DoubleValue
0.61

@<SCITEGIC>MOL_PROPERTY
Sum Probability
SciTegic.value.DoubleValue
79.65

@<SCITEGIC>MOL_PROPERTY
Delta G
SciTegic.value.DoubleValue
1.492

@<SCITEGIC>MOL_PROPERTY
G
SciTegic.value.DoubleValue
49.753

@<SCITEGIC>MOL_PROPERTY
E
SciTegic.value.DoubleValue
16.853

@<SCITEGIC>MOL_PROPERTY
-TS
SciTegic.value.DoubleValue
32.900

@<SCITEGIC>MOL_PROPERTY
U+W
SciTegic.value.DoubleValue
-4.609

@<SCITEGIC>MOL_PROPERTY
U
SciTegic.value.DoubleValue
49.198

@<SCITEGIC>MOL_PROPERTY
W
SciTegic.value.DoubleValue
-53.807

@<SCITEGIC>MOL_PROPERTY
W(PB)
SciTegic.value.DoubleValue
-56.083

@<SCITEGIC>MOL_PROPERTY
W(SA)
SciTegic.value.DoubleValue
2.276

@<SCITEGIC>MOL_PROPERTY
Valence
SciTegic.value.DoubleValue
3.018

@<SCITEGIC>MOL_PROPERTY
Coulomb
SciTegic.value.DoubleValue
45.590

@<SCITEGIC>MOL_PROPERTY
VdW
SciTegic.value.DoubleValue
0.590

@<SCITEGIC>MOL_PROPERTY
VdW6
SciTegic.value.DoubleValue
-8.073

@<SCITEGIC>MOL_PROPERTY
VdW12
SciTegic.value.DoubleValue
8.663

@<SCITEGIC>MOL_PROPERTY
Bond
SciTegic.value.DoubleValue
0.222

@<SCITEGIC>MOL_PROPERTY
Angle
SciTegic.value.DoubleValue
0.958

@<SCITEGIC>MOL_PROPERTY
Pdih
SciTegic.value.DoubleValue
1.839

@<SCITEGIC>MOL_PROPERTY
Idih
SciTegic.value.DoubleValue
0.000

@<SCITEGIC>MOL_PROPERTY
Tether
SciTegic.value.DoubleValue
0.000

@<TRIPOS>MOLECULE
guest-s14_vm2.mol2 : vm2 ligand conformer 45
          26          25           1
SMALL
USER_CHARGES
 
@<TRIPOS>ATOM
       1    C1      19.387233   19.949304   20.201312 C.3        1 MOL1        -0.2400
       2    H1      20.232111   20.133615   19.525180 H          1 MOL1         0.0971
       3    H2      18.463943   20.192167   19.659654 H          1 MOL1         0.0971
       4    H3      19.465836   20.643019   21.047646 H          1 MOL1         0.0971
       5    C2      19.365989   18.478538   20.675292 C.3        1 MOL1        -0.1385
       6    H4      19.167191   17.831048   19.809900 H          1 MOL1         0.0960
       7    H5      18.525571   18.323409   21.364961 H          1 MOL1         0.0960
       8    C3      20.692637   18.024500   21.336003 C.3        1 MOL1        -0.1409
       9    H6      20.604791   16.965284   21.614337 H          1 MOL1         0.0960
      10    H7      21.495947   18.072671   20.588002 H          1 MOL1         0.0960
      11    C4      21.125241   18.838952   22.582596 C.3        1 MOL1        -0.1409
      12    H8      21.327222   19.880000   22.297710 H          1 MOL1         0.0960
      13    H9      22.080550   18.434416   22.944453 H          1 MOL1         0.0960
      14    C5      20.093487   18.801151   23.735247 C.3        1 MOL1        -0.1409
      15    H10     19.155693   19.272270   23.412264 H          1 MOL1         0.0960
      16    H11     19.860962   17.755835   23.978047 H          1 MOL1         0.0960
      17    C6      20.616371   19.530982   24.995037 C.3        1 MOL1        -0.1450
      18    H12     20.884220   20.562989   24.732002 H          1 MOL1         0.0960
      19    H13     21.535952   19.050411   25.354712 H          1 MOL1         0.0960
      20    C7      19.578505   19.571474   26.133207 C.3        1 MOL1         0.0172
      21    H14     19.970806   20.168917   26.960684 H          1 MOL1         0.0934
      22    H15     18.659517   20.044572   25.776782 H          1 MOL1         0.0934
      23    N1      19.221536   18.204100   26.682305 N.4        1 MOL1        -0.5956
      24    H16     18.812033   17.600961   25.962287 H          1 MOL1         0.3624
      25    H17     18.539045   18.266657   27.445587 H          1 MOL1         0.3624
      26    H18     20.043258   17.717107   27.054627 H          1 MOL1         0.3624
@<TRIPOS>BOND
    1     1     2    1
    2     1     3    1
    3     1     4    1
    4     1     5    1
    5     5     6    1
    6     5     7    1
    7     5     8    1
    8     8     9    1
    9     8    10    1
   10     8    11    1
   11    11    12    1
   12    11    13    1
   13    11    14    1
   14    14    15    1
   15    14    16    1
   16    14    17    1
   17    17    18    1
   18    17    19    1
   19    17    20    1
   20    20    21    1
   21    20    22    1
   22    20    23    1
   23    23    24    1
   24    23    25    1
   25    23    26    1
@<TRIPOS>SUBSTRUCTURE
       1 MOL1            1 RESIDUE      1      MOL     
@<SCITEGIC>MOL_PROPERTY
VM2 Rank
SciTegic.value.IntegerValue
45

@<SCITEGIC>MOL_PROPERTY
Conf_Id
SciTegic.value.IntegerValue
235

@<SCITEGIC>MOL_PROPERTY
Probability
SciTegic.value.DoubleValue
0.60

@<SCITEGIC>MOL_PROPERTY
Sum Probability
SciTegic.value.DoubleValue
80.25

@<SCITEGIC>MOL_PROPERTY
Delta G
SciTegic.value.DoubleValue
1.500

@<SCITEGIC>MOL_PROPERTY
G
SciTegic.value.DoubleValue
49.761

@<SCITEGIC>MOL_PROPERTY
E
SciTegic.value.DoubleValue
16.874

@<SCITEGIC>MOL_PROPERTY
-TS
SciTegic.value.DoubleValue
32.888

@<SCITEGIC>MOL_PROPERTY
U+W
SciTegic.value.DoubleValue
-4.588

@<SCITEGIC>MOL_PROPERTY
U
SciTegic.value.DoubleValue
49.147

@<SCITEGIC>MOL_PROPERTY
W
SciTegic.value.DoubleValue
-53.735

@<SCITEGIC>MOL_PROPERTY
W(PB)
SciTegic.value.DoubleValue
-56.021

@<SCITEGIC>MOL_PROPERTY
W(SA)
SciTegic.value.DoubleValue
2.286

@<SCITEGIC>MOL_PROPERTY
Valence
SciTegic.value.DoubleValue
3.219

@<SCITEGIC>MOL_PROPERTY
Coulomb
SciTegic.value.DoubleValue
45.149

@<SCITEGIC>MOL_PROPERTY
VdW
SciTegic.value.DoubleValue
0.779

@<SCITEGIC>MOL_PROPERTY
VdW6
SciTegic.value.DoubleValue
-7.884

@<SCITEGIC>MOL_PROPERTY
VdW12
SciTegic.value.DoubleValue
8.664

@<SCITEGIC>MOL_PROPERTY
Bond
SciTegic.value.DoubleValue
0.228

@<SCITEGIC>MOL_PROPERTY
Angle
SciTegic.value.DoubleValue
1.077

@<SCITEGIC>MOL_PROPERTY
Pdih
SciTegic.value.DoubleValue
1.914

@<SCITEGIC>MOL_PROPERTY
Idih
SciTegic.value.DoubleValue
0.000

@<SCITEGIC>MOL_PROPERTY
Tether
SciTegic.value.DoubleValue
0.000

@<TRIPOS>MOLECULE
guest-s14_vm2.mol2 : vm2 ligand conformer 46
          26          25           1
SMALL
USER_CHARGES
 
@<TRIPOS>ATOM
       1    C1      19.885663   19.749040   19.663149 C.3        1 MOL1        -0.2400
       2    H1      18.818518   19.720779   19.916066 H          1 MOL1         0.0971
       3    H2      20.291801   20.714681   19.991168 H          1 MOL1         0.0971
       4    H3      19.966942   19.704681   18.569374 H          1 MOL1         0.0971
       5    C2      20.653409   18.574397   20.310780 C.3        1 MOL1        -0.1385
       6    H4      21.686759   18.576857   19.936672 H          1 MOL1         0.0960
       7    H5      20.211837   17.621372   19.987527 H          1 MOL1         0.0960
       8    C3      20.684107   18.639846   21.856793 C.3        1 MOL1        -0.1409
       9    H6      21.330220   17.832359   22.227733 H          1 MOL1         0.0960
      10    H7      21.154762   19.582213   22.166418 H          1 MOL1         0.0960
      11    C4      19.282689   18.505999   22.504446 C.3        1 MOL1        -0.1409
      12    H8      18.778823   17.622495   22.088925 H          1 MOL1         0.0960
      13    H9      18.660761   19.371046   22.238870 H          1 MOL1         0.0960
      14    C5      19.328635   18.366446   24.045789 C.3        1 MOL1        -0.1409
      15    H10     18.309262   18.175816   24.409246 H          1 MOL1         0.0960
      16    H11     19.922852   17.482142   24.312172 H          1 MOL1         0.0960
      17    C6      19.891708   19.620326   24.760223 C.3        1 MOL1        -0.1450
      18    H12     19.346049   20.509835   24.418439 H          1 MOL1         0.0960
      19    H13     20.944669   19.774293   24.492383 H          1 MOL1         0.0960
      20    C7      19.769440   19.532170   26.293586 C.3        1 MOL1         0.0172
      21    H14     20.108357   20.471255   26.739459 H          1 MOL1         0.0934
      22    H15     18.722831   19.380961   26.571321 H          1 MOL1         0.0934
      23    N1      20.585349   18.410775   26.906233 N.4        1 MOL1        -0.5956
      24    H16     20.491270   18.385511   27.927412 H          1 MOL1         0.3624
      25    H17     21.584579   18.510249   26.699888 H          1 MOL1         0.3624
      26    H18     20.293016   17.493556   26.555227 H          1 MOL1         0.3624
@<TRIPOS>BOND
    1     1     2    1
    2     1     3    1
    3     1     4    1
    4     1     5    1
    5     5     6    1
    6     5     7    1
    7     5     8    1
    8     8     9    1
    9     8    10    1
   10     8    11    1
   11    11    12    1
   12    11    13    1
   13    11    14    1
   14    14    15    1
   15    14    16    1
   16    14    17    1
   17    17    18    1
   18    17    19    1
   19    17    20    1
   20    20    21    1
   21    20    22    1
   22    20    23    1
   23    23    24    1
   24    23    25    1
   25    23    26    1
@<TRIPOS>SUBSTRUCTURE
       1 MOL1            1 RESIDUE      1      MOL     
@<SCITEGIC>MOL_PROPERTY
VM2 Rank
SciTegic.value.IntegerValue
46

@<SCITEGIC>MOL_PROPERTY
Conf_Id
SciTegic.value.IntegerValue
790

@<SCITEGIC>MOL_PROPERTY
Probability
SciTegic.value.DoubleValue
0.60

@<SCITEGIC>MOL_PROPERTY
Sum Probability
SciTegic.value.DoubleValue
80.85

@<SCITEGIC>MOL_PROPERTY
Delta G
SciTegic.value.DoubleValue
1.502

@<SCITEGIC>MOL_PROPERTY
G
SciTegic.value.DoubleValue
49.763

@<SCITEGIC>MOL_PROPERTY
E
SciTegic.value.DoubleValue
17.062

@<SCITEGIC>MOL_PROPERTY
-TS
SciTegic.value.DoubleValue
32.701

@<SCITEGIC>MOL_PROPERTY
U+W
SciTegic.value.DoubleValue
-4.400

@<SCITEGIC>MOL_PROPERTY
U
SciTegic.value.DoubleValue
49.228

@<SCITEGIC>MOL_PROPERTY
W
SciTegic.value.DoubleValue
-53.627

@<SCITEGIC>MOL_PROPERTY
W(PB)
SciTegic.value.DoubleValue
-55.903

@<SCITEGIC>MOL_PROPERTY
W(SA)
SciTegic.value.DoubleValue
2.275

@<SCITEGIC>MOL_PROPERTY
Valence
SciTegic.value.DoubleValue
3.267

@<SCITEGIC>MOL_PROPERTY
Coulomb
SciTegic.value.DoubleValue
45.067

@<SCITEGIC>MOL_PROPERTY
VdW
SciTegic.value.DoubleValue
0.893

@<SCITEGIC>MOL_PROPERTY
VdW6
SciTegic.value.DoubleValue
-7.615

@<SCITEGIC>MOL_PROPERTY
VdW12
SciTegic.value.DoubleValue
8.508

@<SCITEGIC>MOL_PROPERTY
Bond
SciTegic.value.DoubleValue
0.224

@<SCITEGIC>MOL_PROPERTY
Angle
SciTegic.value.DoubleValue
0.867

@<SCITEGIC>MOL_PROPERTY
Pdih
SciTegic.value.DoubleValue
2.176

@<SCITEGIC>MOL_PROPERTY
Idih
SciTegic.value.DoubleValue
0.000

@<SCITEGIC>MOL_PROPERTY
Tether
SciTegic.value.DoubleValue
0.000

@<TRIPOS>MOLECULE
guest-s14_vm2.mol2 : vm2 ligand conformer 47
          26          25           1
SMALL
USER_CHARGES
 
@<TRIPOS>ATOM
       1    C1      21.456036   18.705319   20.507594 C.3        1 MOL1        -0.2400
       2    H1      21.116228   17.970398   19.766400 H          1 MOL1         0.0971
       3    H2      22.364904   19.181052   20.117113 H          1 MOL1         0.0971
       4    H3      21.731851   18.168157   21.423599 H          1 MOL1         0.0971
       5    C2      20.364407   19.764855   20.779643 C.3        1 MOL1        -0.1385
       6    H4      20.207813   20.353946   19.865246 H          1 MOL1         0.0960
       7    H5      20.718908   20.476453   21.537205 H          1 MOL1         0.0960
       8    C3      19.006391   19.154536   21.211058 C.3        1 MOL1        -0.1409
       9    H6      18.283140   19.968655   21.356850 H          1 MOL1         0.0960
      10    H7      18.612239   18.547291   20.384601 H          1 MOL1         0.0960
      11    C4      19.047880   18.281952   22.492252 C.3        1 MOL1        -0.1409
      12    H8      19.679967   17.399926   22.324150 H          1 MOL1         0.0960
      13    H9      18.036123   17.896656   22.679487 H          1 MOL1         0.0960
      14    C5      19.536944   19.045697   23.746110 C.3        1 MOL1        -0.1409
      15    H10     20.572264   19.375869   23.594816 H          1 MOL1         0.0960
      16    H11     18.928301   19.949837   23.885516 H          1 MOL1         0.0960
      17    C6      19.456396   18.168665   25.017964 C.3        1 MOL1        -0.1450
      18    H12     20.082360   17.274308   24.898525 H          1 MOL1         0.0960
      19    H13     18.425586   17.814211   25.151035 H          1 MOL1         0.0960
      20    C7      19.878859   18.926186   26.291569 C.3        1 MOL1         0.0172
      21    H14     19.262931   19.821936   26.408470 H          1 MOL1         0.0934
      22    H15     19.718950   18.286352   27.163689 H          1 MOL1         0.0934
      23    N1      21.334087   19.351791   26.294811 N.4        1 MOL1        -0.5956
      24    H16     21.545589   19.987273   25.519404 H          1 MOL1         0.3624
      25    H17     21.965681   18.548696   26.210329 H          1 MOL1         0.3624
      26    H18     21.585497   19.840679   27.160906 H          1 MOL1         0.3624
@<TRIPOS>BOND
    1     1     2    1
    2     1     3    1
    3     1     4    1
    4     1     5    1
    5     5     6    1
    6     5     7    1
    7     5     8    1
    8     8     9    1
    9     8    10    1
   10     8    11    1
   11    11    12    1
   12    11    13    1
   13    11    14    1
   14    14    15    1
   15    14    16    1
   16    14    17    1
   17    17    18    1
   18    17    19    1
   19    17    20    1
   20    20    21    1
   21    20    22    1
   22    20    23    1
   23    23    24    1
   24    23    25    1
   25    23    26    1
@<TRIPOS>SUBSTRUCTURE
       1 MOL1            1 RESIDUE      1      MOL     
@<SCITEGIC>MOL_PROPERTY
VM2 Rank
SciTegic.value.IntegerValue
47

@<SCITEGIC>MOL_PROPERTY
Conf_Id
SciTegic.value.IntegerValue
155

@<SCITEGIC>MOL_PROPERTY
Probability
SciTegic.value.DoubleValue
0.59

@<SCITEGIC>MOL_PROPERTY
Sum Probability
SciTegic.value.DoubleValue
81.44

@<SCITEGIC>MOL_PROPERTY
Delta G
SciTegic.value.DoubleValue
1.507

@<SCITEGIC>MOL_PROPERTY
G
SciTegic.value.DoubleValue
49.768

@<SCITEGIC>MOL_PROPERTY
E
SciTegic.value.DoubleValue
16.878

@<SCITEGIC>MOL_PROPERTY
-TS
SciTegic.value.DoubleValue
32.890

@<SCITEGIC>MOL_PROPERTY
U+W
SciTegic.value.DoubleValue
-4.584

@<SCITEGIC>MOL_PROPERTY
U
SciTegic.value.DoubleValue
49.426

@<SCITEGIC>MOL_PROPERTY
W
SciTegic.value.DoubleValue
-54.010

@<SCITEGIC>MOL_PROPERTY
W(PB)
SciTegic.value.DoubleValue
-56.294

@<SCITEGIC>MOL_PROPERTY
W(SA)
SciTegic.value.DoubleValue
2.284

@<SCITEGIC>MOL_PROPERTY
Valence
SciTegic.value.DoubleValue
3.214

@<SCITEGIC>MOL_PROPERTY
Coulomb
SciTegic.value.DoubleValue
45.444

@<SCITEGIC>MOL_PROPERTY
VdW
SciTegic.value.DoubleValue
0.768

@<SCITEGIC>MOL_PROPERTY
VdW6
SciTegic.value.DoubleValue
-7.916

@<SCITEGIC>MOL_PROPERTY
VdW12
SciTegic.value.DoubleValue
8.684

@<SCITEGIC>MOL_PROPERTY
Bond
SciTegic.value.DoubleValue
0.230

@<SCITEGIC>MOL_PROPERTY
Angle
SciTegic.value.DoubleValue
1.078

@<SCITEGIC>MOL_PROPERTY
Pdih
SciTegic.value.DoubleValue
1.906

@<SCITEGIC>MOL_PROPERTY
Idih
SciTegic.value.DoubleValue
0.000

@<SCITEGIC>MOL_PROPERTY
Tether
SciTegic.value.DoubleValue
0.000

@<TRIPOS>MOLECULE
guest-s14_vm2.mol2 : vm2 ligand conformer 48
          26          25           1
SMALL
USER_CHARGES
 
@<TRIPOS>ATOM
       1    C1      19.471619   19.475805   19.649034 C.3        1 MOL1        -0.2400
       2    H1      19.531502   19.417030   18.554557 H          1 MOL1         0.0971
       3    H2      18.409880   19.474263   19.927810 H          1 MOL1         0.0971
       4    H3      19.905553   20.436773   19.952027 H          1 MOL1         0.0971
       5    C2      20.217865   18.287173   20.296274 C.3        1 MOL1        -0.1385
       6    H4      21.281735   18.326105   20.023506 H          1 MOL1         0.0960
       7    H5      19.826590   17.350746   19.874632 H          1 MOL1         0.0960
       8    C3      20.073462   18.237612   21.836428 C.3        1 MOL1        -0.1409
       9    H6      19.008592   18.167980   22.094587 H          1 MOL1         0.0960
      10    H7      20.543562   17.314207   22.201698 H          1 MOL1         0.0960
      11    C4      20.717137   19.451886   22.552363 C.3        1 MOL1        -0.1409
      12    H8      20.179532   20.372526   22.289621 H          1 MOL1         0.0960
      13    H9      21.745859   19.578705   22.187992 H          1 MOL1         0.0960
      14    C5      20.755595   19.307345   24.093451 C.3        1 MOL1        -0.1409
      15    H10     21.321978   18.404675   24.358869 H          1 MOL1         0.0960
      16    H11     21.314207   20.157243   24.509609 H          1 MOL1         0.0960
      17    C6      19.349589   19.262741   24.742170 C.3        1 MOL1        -0.1450
      18    H12     18.807067   18.364537   24.421122 H          1 MOL1         0.0960
      19    H13     18.762805   20.125113   24.398969 H          1 MOL1         0.0960
      20    C7      19.407315   19.293356   26.281538 C.3        1 MOL1         0.0172
      21    H14     19.944315   20.186537   26.612069 H          1 MOL1         0.0934
      22    H15     18.390961   19.338673   26.682186 H          1 MOL1         0.0934
      23    N1      20.088418   18.083082   26.889743 N.4        1 MOL1        -0.5956
      24    H16     20.101150   18.128302   27.914481 H          1 MOL1         0.3624
      25    H17     21.061974   18.000685   26.580950 H          1 MOL1         0.3624
      26    H18     19.614216   17.210833   26.634306 H          1 MOL1         0.3624
@<TRIPOS>BOND
    1     1     2    1
    2     1     3    1
    3     1     4    1
    4     1     5    1
    5     5     6    1
    6     5     7    1
    7     5     8    1
    8     8     9    1
    9     8    10    1
   10     8    11    1
   11    11    12    1
   12    11    13    1
   13    11    14    1
   14    14    15    1
   15    14    16    1
   16    14    17    1
   17    17    18    1
   18    17    19    1
   19    17    20    1
   20    20    21    1
   21    20    22    1
   22    20    23    1
   23    23    24    1
   24    23    25    1
   25    23    26    1
@<TRIPOS>SUBSTRUCTURE
       1 MOL1            1 RESIDUE      1      MOL     
@<SCITEGIC>MOL_PROPERTY
VM2 Rank
SciTegic.value.IntegerValue
48

@<SCITEGIC>MOL_PROPERTY
Conf_Id
SciTegic.value.IntegerValue
1262

@<SCITEGIC>MOL_PROPERTY
Probability
SciTegic.value.DoubleValue
0.59

@<SCITEGIC>MOL_PROPERTY
Sum Probability
SciTegic.value.DoubleValue
82.03

@<SCITEGIC>MOL_PROPERTY
Delta G
SciTegic.value.DoubleValue
1.514

@<SCITEGIC>MOL_PROPERTY
G
SciTegic.value.DoubleValue
49.775

@<SCITEGIC>MOL_PROPERTY
E
SciTegic.value.DoubleValue
17.074

@<SCITEGIC>MOL_PROPERTY
-TS
SciTegic.value.DoubleValue
32.701

@<SCITEGIC>MOL_PROPERTY
U+W
SciTegic.value.DoubleValue
-4.388

@<SCITEGIC>MOL_PROPERTY
U
SciTegic.value.DoubleValue
49.228

@<SCITEGIC>MOL_PROPERTY
W
SciTegic.value.DoubleValue
-53.616

@<SCITEGIC>MOL_PROPERTY
W(PB)
SciTegic.value.DoubleValue
-55.904

@<SCITEGIC>MOL_PROPERTY
W(SA)
SciTegic.value.DoubleValue
2.288

@<SCITEGIC>MOL_PROPERTY
Valence
SciTegic.value.DoubleValue
3.267

@<SCITEGIC>MOL_PROPERTY
Coulomb
SciTegic.value.DoubleValue
45.067

@<SCITEGIC>MOL_PROPERTY
VdW
SciTegic.value.DoubleValue
0.893

@<SCITEGIC>MOL_PROPERTY
VdW6
SciTegic.value.DoubleValue
-7.615

@<SCITEGIC>MOL_PROPERTY
VdW12
SciTegic.value.DoubleValue
8.508

@<SCITEGIC>MOL_PROPERTY
Bond
SciTegic.value.DoubleValue
0.224

@<SCITEGIC>MOL_PROPERTY
Angle
SciTegic.value.DoubleValue
0.867

@<SCITEGIC>MOL_PROPERTY
Pdih
SciTegic.value.DoubleValue
2.176

@<SCITEGIC>MOL_PROPERTY
Idih
SciTegic.value.DoubleValue
0.000

@<SCITEGIC>MOL_PROPERTY
Tether
SciTegic.value.DoubleValue
0.000

@<TRIPOS>MOLECULE
guest-s14_vm2.mol2 : vm2 ligand conformer 49
          26          25           1
SMALL
USER_CHARGES
 
@<TRIPOS>ATOM
       1    C1      20.176788   20.461055   20.337329 C.3        1 MOL1        -0.2400
       2    H1      19.175049   20.879674   20.499455 H          1 MOL1         0.0971
       3    H2      20.833936   20.819912   21.139068 H          1 MOL1         0.0971
       4    H3      20.560266   20.865062   19.391468 H          1 MOL1         0.0971
       5    C2      20.132539   18.916887   20.287107 C.3        1 MOL1        -0.1385
       6    H4      21.149715   18.521968   20.156192 H          1 MOL1         0.0960
       7    H5      19.566107   18.607975   19.397435 H          1 MOL1         0.0960
       8    C3      19.479941   18.278580   21.537084 C.3        1 MOL1        -0.1409
       9    H6      18.456599   18.661574   21.652351 H          1 MOL1         0.0960
      10    H7      19.387777   17.196863   21.367707 H          1 MOL1         0.0960
      11    C4      20.277982   18.520174   22.840762 C.3        1 MOL1        -0.1409
      12    H8      20.321612   19.596183   23.050089 H          1 MOL1         0.0960
      13    H9      21.313183   18.178069   22.705071 H          1 MOL1         0.0960
      14    C5      19.644222   17.782377   24.044541 C.3        1 MOL1        -0.1409
      15    H10     18.615604   18.135706   24.196794 H          1 MOL1         0.0960
      16    H11     19.567144   16.711494   23.810946 H          1 MOL1         0.0960
      17    C6      20.456215   17.942449   25.354395 C.3        1 MOL1        -0.1450
      18    H12     21.454612   17.506454   25.216663 H          1 MOL1         0.0960
      19    H13     19.975892   17.360720   26.152319 H          1 MOL1         0.0960
      20    C7      20.614970   19.403705   25.821452 C.3        1 MOL1         0.0172
      21    H14     21.217399   19.429608   26.733543 H          1 MOL1         0.0934
      22    H15     21.135923   19.982845   25.054748 H          1 MOL1         0.0934
      23    N1      19.298342   20.093772   26.118330 N.4        1 MOL1        -0.5956
      24    H16     18.696256   20.129972   25.289969 H          1 MOL1         0.3624
      25    H17     19.436877   21.060000   26.433571 H          1 MOL1         0.3624
      26    H18     18.773393   19.610599   26.854458 H          1 MOL1         0.3624
@<TRIPOS>BOND
    1     1     2    1
    2     1     3    1
    3     1     4    1
    4     1     5    1
    5     5     6    1
    6     5     7    1
    7     5     8    1
    8     8     9    1
    9     8    10    1
   10     8    11    1
   11    11    12    1
   12    11    13    1
   13    11    14    1
   14    14    15    1
   15    14    16    1
   16    14    17    1
   17    17    18    1
   18    17    19    1
   19    17    20    1
   20    20    21    1
   21    20    22    1
   22    20    23    1
   23    23    24    1
   24    23    25    1
   25    23    26    1
@<TRIPOS>SUBSTRUCTURE
       1 MOL1            1 RESIDUE      1      MOL     
@<SCITEGIC>MOL_PROPERTY
VM2 Rank
SciTegic.value.IntegerValue
49

@<SCITEGIC>MOL_PROPERTY
Conf_Id
SciTegic.value.IntegerValue
568

@<SCITEGIC>MOL_PROPERTY
Probability
SciTegic.value.DoubleValue
0.58

@<SCITEGIC>MOL_PROPERTY
Sum Probability
SciTegic.value.DoubleValue
82.61

@<SCITEGIC>MOL_PROPERTY
Delta G
SciTegic.value.DoubleValue
1.519

@<SCITEGIC>MOL_PROPERTY
G
SciTegic.value.DoubleValue
49.781

@<SCITEGIC>MOL_PROPERTY
E
SciTegic.value.DoubleValue
17.032

@<SCITEGIC>MOL_PROPERTY
-TS
SciTegic.value.DoubleValue
32.749

@<SCITEGIC>MOL_PROPERTY
U+W
SciTegic.value.DoubleValue
-4.430

@<SCITEGIC>MOL_PROPERTY
U
SciTegic.value.DoubleValue
49.414

@<SCITEGIC>MOL_PROPERTY
W
SciTegic.value.DoubleValue
-53.843

@<SCITEGIC>MOL_PROPERTY
W(PB)
SciTegic.value.DoubleValue
-56.117

@<SCITEGIC>MOL_PROPERTY
W(SA)
SciTegic.value.DoubleValue
2.274

@<SCITEGIC>MOL_PROPERTY
Valence
SciTegic.value.DoubleValue
3.043

@<SCITEGIC>MOL_PROPERTY
Coulomb
SciTegic.value.DoubleValue
45.606

@<SCITEGIC>MOL_PROPERTY
VdW
SciTegic.value.DoubleValue
0.764

@<SCITEGIC>MOL_PROPERTY
VdW6
SciTegic.value.DoubleValue
-7.758

@<SCITEGIC>MOL_PROPERTY
VdW12
SciTegic.value.DoubleValue
8.523

@<SCITEGIC>MOL_PROPERTY
Bond
SciTegic.value.DoubleValue
0.212

@<SCITEGIC>MOL_PROPERTY
Angle
SciTegic.value.DoubleValue
0.867

@<SCITEGIC>MOL_PROPERTY
Pdih
SciTegic.value.DoubleValue
1.964

@<SCITEGIC>MOL_PROPERTY
Idih
SciTegic.value.DoubleValue
0.000

@<SCITEGIC>MOL_PROPERTY
Tether
SciTegic.value.DoubleValue
0.000

@<TRIPOS>MOLECULE
guest-s14_vm2.mol2 : vm2 ligand conformer 50
          26          25           1
SMALL
USER_CHARGES
 
@<TRIPOS>ATOM
       1    C1      18.670531   19.465839   20.286863 C.3        1 MOL1        -0.2400
       2    H1      18.193306   19.301268   19.312132 H          1 MOL1         0.0971
       3    H2      18.046318   18.977875   21.045584 H          1 MOL1         0.0971
       4    H3      18.669934   20.545955   20.482714 H          1 MOL1         0.0971
       5    C2      20.109545   18.901770   20.286260 C.3        1 MOL1        -0.1385
       6    H4      20.656457   19.328598   19.433915 H          1 MOL1         0.0960
       7    H5      20.080852   17.815790   20.120217 H          1 MOL1         0.0960
       8    C3      20.893247   19.212394   21.584368 C.3        1 MOL1        -0.1409
       9    H6      21.931440   18.877498   21.452856 H          1 MOL1         0.0960
      10    H7      20.936150   20.299846   21.735385 H          1 MOL1         0.0960
      11    C4      20.298242   18.533594   22.841352 C.3        1 MOL1        -0.1409
      12    H8      20.213931   17.451950   22.668080 H          1 MOL1         0.0960
      13    H9      19.282471   18.909737   23.015261 H          1 MOL1         0.0960
      14    C5      21.168275   18.789071   24.095483 C.3        1 MOL1        -0.1409
      15    H10     22.193515   18.446314   23.898775 H          1 MOL1         0.0960
      16    H11     21.239038   19.868567   24.284576 H          1 MOL1         0.0960
      17    C6      20.642340   18.065355   25.360512 C.3        1 MOL1        -0.1450
      18    H12     21.327905   18.253457   26.197423 H          1 MOL1         0.0960
      19    H13     20.658506   16.980713   25.189782 H          1 MOL1         0.0960
      20    C7      19.215596   18.479479   25.774655 C.3        1 MOL1         0.0172
      21    H14     18.515057   18.252191   24.967058 H          1 MOL1         0.0934
      22    H15     18.913454   17.907808   26.656360 H          1 MOL1         0.0934
      23    N1      19.083223   19.951498   26.111508 N.4        1 MOL1        -0.5956
      24    H16     19.324302   20.544682   25.311498 H          1 MOL1         0.3624
      25    H17     19.698539   20.221118   26.885848 H          1 MOL1         0.3624
      26    H18     18.126377   20.194316   26.390163 H          1 MOL1         0.3624
@<TRIPOS>BOND
    1     1     2    1
    2     1     3    1
    3     1     4    1
    4     1     5    1
    5     5     6    1
    6     5     7    1
    7     5     8    1
    8     8     9    1
    9     8    10    1
   10     8    11    1
   11    11    12    1
   12    11    13    1
   13    11    14    1
   14    14    15    1
   15    14    16    1
   16    14    17    1
   17    17    18    1
   18    17    19    1
   19    17    20    1
   20    20    21    1
   21    20    22    1
   22    20    23    1
   23    23    24    1
   24    23    25    1
   25    23    26    1
@<TRIPOS>SUBSTRUCTURE
       1 MOL1            1 RESIDUE      1      MOL     
@<SCITEGIC>MOL_PROPERTY
VM2 Rank
SciTegic.value.IntegerValue
50

@<SCITEGIC>MOL_PROPERTY
Conf_Id
SciTegic.value.IntegerValue
287

@<SCITEGIC>MOL_PROPERTY
Probability
SciTegic.value.DoubleValue
0.58

@<SCITEGIC>MOL_PROPERTY
Sum Probability
SciTegic.value.DoubleValue
83.19

@<SCITEGIC>MOL_PROPERTY
Delta G
SciTegic.value.DoubleValue
1.523

@<SCITEGIC>MOL_PROPERTY
G
SciTegic.value.DoubleValue
49.784

@<SCITEGIC>MOL_PROPERTY
E
SciTegic.value.DoubleValue
17.036

@<SCITEGIC>MOL_PROPERTY
-TS
SciTegic.value.DoubleValue
32.748

@<SCITEGIC>MOL_PROPERTY
U+W
SciTegic.value.DoubleValue
-4.426

@<SCITEGIC>MOL_PROPERTY
U
SciTegic.value.DoubleValue
49.414

@<SCITEGIC>MOL_PROPERTY
W
SciTegic.value.DoubleValue
-53.840

@<SCITEGIC>MOL_PROPERTY
W(PB)
SciTegic.value.DoubleValue
-56.133

@<SCITEGIC>MOL_PROPERTY
W(SA)
SciTegic.value.DoubleValue
2.294

@<SCITEGIC>MOL_PROPERTY
Valence
SciTegic.value.DoubleValue
3.043

@<SCITEGIC>MOL_PROPERTY
Coulomb
SciTegic.value.DoubleValue
45.606

@<SCITEGIC>MOL_PROPERTY
VdW
SciTegic.value.DoubleValue
0.765

@<SCITEGIC>MOL_PROPERTY
VdW6
SciTegic.value.DoubleValue
-7.758

@<SCITEGIC>MOL_PROPERTY
VdW12
SciTegic.value.DoubleValue
8.523

@<SCITEGIC>MOL_PROPERTY
Bond
SciTegic.value.DoubleValue
0.212

@<SCITEGIC>MOL_PROPERTY
Angle
SciTegic.value.DoubleValue
0.867

@<SCITEGIC>MOL_PROPERTY
Pdih
SciTegic.value.DoubleValue
1.964

@<SCITEGIC>MOL_PROPERTY
Idih
SciTegic.value.DoubleValue
0.000

@<SCITEGIC>MOL_PROPERTY
Tether
SciTegic.value.DoubleValue
0.000

@<TRIPOS>MOLECULE
guest-s14_vm2.mol2 : vm2 ligand conformer 51
          26          25           1
SMALL
USER_CHARGES
 
@<TRIPOS>ATOM
       1    C1      19.457569   19.995612   20.203555 C.3        1 MOL1        -0.2400
       2    H1      18.988112   19.312914   19.483499 H          1 MOL1         0.0971
       3    H2      18.750073   20.170866   21.023576 H          1 MOL1         0.0971
       4    H3      19.622164   20.956022   19.698222 H          1 MOL1         0.0971
       5    C2      20.794793   19.420947   20.723026 C.3        1 MOL1        -0.1385
       6    H4      21.235076   20.110632   21.455486 H          1 MOL1         0.0960
       7    H5      21.507896   19.374882   19.888142 H          1 MOL1         0.0960
       8    C3      20.660266   18.003162   21.334963 C.3        1 MOL1        -0.1409
       9    H6      20.335491   17.307205   20.549280 H          1 MOL1         0.0960
      10    H7      21.654722   17.657847   21.649511 H          1 MOL1         0.0960
      11    C4      19.684273   17.888585   22.534455 C.3        1 MOL1        -0.1409
      12    H8      19.663946   16.840552   22.863726 H          1 MOL1         0.0960
      13    H9      18.662006   18.122136   22.208629 H          1 MOL1         0.0960
      14    C5      20.070394   18.786017   23.734486 C.3        1 MOL1        -0.1409
      15    H10     21.110556   18.580179   24.019795 H          1 MOL1         0.0960
      16    H11     20.020805   19.843018   23.441191 H          1 MOL1         0.0960
      17    C6      19.136146   18.554665   24.945596 C.3        1 MOL1        -0.1450
      18    H12     19.199817   17.509526   25.276616 H          1 MOL1         0.0960
      19    H13     18.095287   18.723483   24.638864 H          1 MOL1         0.0960
      20    C7      19.453470   19.488944   26.129093 C.3        1 MOL1         0.0172
      21    H14     19.396213   20.530494   25.801535 H          1 MOL1         0.0934
      22    H15     18.712231   19.338598   26.918724 H          1 MOL1         0.0934
      23    N1      20.824089   19.261068   26.735827 N.4        1 MOL1        -0.5956
      24    H16     20.999083   19.889193   27.527751 H          1 MOL1         0.3624
      25    H17     21.572316   19.421609   26.054446 H          1 MOL1         0.3624
      26    H18     20.931534   18.302915   27.084269 H          1 MOL1         0.3624
@<TRIPOS>BOND
    1     1     2    1
    2     1     3    1
    3     1     4    1
    4     1     5    1
    5     5     6    1
    6     5     7    1
    7     5     8    1
    8     8     9    1
    9     8    10    1
   10     8    11    1
   11    11    12    1
   12    11    13    1
   13    11    14    1
   14    14    15    1
   15    14    16    1
   16    14    17    1
   17    17    18    1
   18    17    19    1
   19    17    20    1
   20    20    21    1
   21    20    22    1
   22    20    23    1
   23    23    24    1
   24    23    25    1
   25    23    26    1
@<TRIPOS>SUBSTRUCTURE
       1 MOL1            1 RESIDUE      1      MOL     
@<SCITEGIC>MOL_PROPERTY
VM2 Rank
SciTegic.value.IntegerValue
51

@<SCITEGIC>MOL_PROPERTY
Conf_Id
SciTegic.value.IntegerValue
1342

@<SCITEGIC>MOL_PROPERTY
Probability
SciTegic.value.DoubleValue
0.56

@<SCITEGIC>MOL_PROPERTY
Sum Probability
SciTegic.value.DoubleValue
83.75

@<SCITEGIC>MOL_PROPERTY
Delta G
SciTegic.value.DoubleValue
1.545

@<SCITEGIC>MOL_PROPERTY
G
SciTegic.value.DoubleValue
49.807

@<SCITEGIC>MOL_PROPERTY
E
SciTegic.value.DoubleValue
16.919

@<SCITEGIC>MOL_PROPERTY
-TS
SciTegic.value.DoubleValue
32.888

@<SCITEGIC>MOL_PROPERTY
U+W
SciTegic.value.DoubleValue
-4.543

@<SCITEGIC>MOL_PROPERTY
U
SciTegic.value.DoubleValue
49.147

@<SCITEGIC>MOL_PROPERTY
W
SciTegic.value.DoubleValue
-53.690

@<SCITEGIC>MOL_PROPERTY
W(PB)
SciTegic.value.DoubleValue
-55.965

@<SCITEGIC>MOL_PROPERTY
W(SA)
SciTegic.value.DoubleValue
2.275

@<SCITEGIC>MOL_PROPERTY
Valence
SciTegic.value.DoubleValue
3.219

@<SCITEGIC>MOL_PROPERTY
Coulomb
SciTegic.value.DoubleValue
45.149

@<SCITEGIC>MOL_PROPERTY
VdW
SciTegic.value.DoubleValue
0.779

@<SCITEGIC>MOL_PROPERTY
VdW6
SciTegic.value.DoubleValue
-7.884

@<SCITEGIC>MOL_PROPERTY
VdW12
SciTegic.value.DoubleValue
8.664

@<SCITEGIC>MOL_PROPERTY
Bond
SciTegic.value.DoubleValue
0.228

@<SCITEGIC>MOL_PROPERTY
Angle
SciTegic.value.DoubleValue
1.077

@<SCITEGIC>MOL_PROPERTY
Pdih
SciTegic.value.DoubleValue
1.914

@<SCITEGIC>MOL_PROPERTY
Idih
SciTegic.value.DoubleValue
0.000

@<SCITEGIC>MOL_PROPERTY
Tether
SciTegic.value.DoubleValue
0.000

@<TRIPOS>MOLECULE
guest-s14_vm2.mol2 : vm2 ligand conformer 52
          26          25           1
SMALL
USER_CHARGES
 
@<TRIPOS>ATOM
       1    C1      19.129308   19.084321   19.579747 C.3        1 MOL1        -0.2400
       2    H1      19.647640   19.993305   19.247613 H          1 MOL1         0.0971
       3    H2      18.993329   18.435242   18.704969 H          1 MOL1         0.0971
       4    H3      18.134356   19.371745   19.943999 H          1 MOL1         0.0971
       5    C2      19.933625   18.357132   20.678109 C.3        1 MOL1        -0.1385
       6    H4      20.908892   18.051907   20.273666 H          1 MOL1         0.0960
       7    H5      19.407453   17.436192   20.966068 H          1 MOL1         0.0960
       8    C3      20.140247   19.249907   21.921653 C.3        1 MOL1        -0.1409
       9    H6      20.668435   20.168048   21.629738 H          1 MOL1         0.0960
      10    H7      19.159726   19.555042   22.310033 H          1 MOL1         0.0960
      11    C4      20.942321   18.520314   23.025692 C.3        1 MOL1        -0.1409
      12    H8      21.890062   18.161707   22.600837 H          1 MOL1         0.0960
      13    H9      20.396598   17.623492   23.347887 H          1 MOL1         0.0960
      14    C5      21.264324   19.415264   24.250362 C.3        1 MOL1        -0.1409
      15    H10     21.880392   18.841824   24.955953 H          1 MOL1         0.0960
      16    H11     21.891672   20.256365   23.924532 H          1 MOL1         0.0960
      17    C6      20.023544   19.976106   24.993777 C.3        1 MOL1        -0.1450
      18    H12     19.497000   20.689891   24.347481 H          1 MOL1         0.0960
      19    H13     20.356440   20.552674   25.866966 H          1 MOL1         0.0960
      20    C7      19.027392   18.893253   25.454654 C.3        1 MOL1         0.0172
      21    H14     18.170260   19.369698   25.938170 H          1 MOL1         0.0934
      22    H15     18.662342   18.335308   24.588418 H          1 MOL1         0.0934
      23    N1      19.620239   17.902702   26.437005 N.4        1 MOL1        -0.5956
      24    H16     19.953584   18.365442   27.288823 H          1 MOL1         0.3624
      25    H17     20.417286   17.401685   26.032578 H          1 MOL1         0.3624
      26    H18     18.935077   17.196821   26.727474 H          1 MOL1         0.3624
@<TRIPOS>BOND
    1     1     2    1
    2     1     3    1
    3     1     4    1
    4     1     5    1
    5     5     6    1
    6     5     7    1
    7     5     8    1
    8     8     9    1
    9     8    10    1
   10     8    11    1
   11    11    12    1
   12    11    13    1
   13    11    14    1
   14    14    15    1
   15    14    16    1
   16    14    17    1
   17    17    18    1
   18    17    19    1
   19    17    20    1
   20    20    21    1
   21    20    22    1
   22    20    23    1
   23    23    24    1
   24    23    25    1
   25    23    26    1
@<TRIPOS>SUBSTRUCTURE
       1 MOL1            1 RESIDUE      1      MOL     
@<SCITEGIC>MOL_PROPERTY
VM2 Rank
SciTegic.value.IntegerValue
52

@<SCITEGIC>MOL_PROPERTY
Conf_Id
SciTegic.value.IntegerValue
525

@<SCITEGIC>MOL_PROPERTY
Probability
SciTegic.value.DoubleValue
0.55

@<SCITEGIC>MOL_PROPERTY
Sum Probability
SciTegic.value.DoubleValue
84.30

@<SCITEGIC>MOL_PROPERTY
Delta G
SciTegic.value.DoubleValue
1.553

@<SCITEGIC>MOL_PROPERTY
G
SciTegic.value.DoubleValue
49.814

@<SCITEGIC>MOL_PROPERTY
E
SciTegic.value.DoubleValue
16.914

@<SCITEGIC>MOL_PROPERTY
-TS
SciTegic.value.DoubleValue
32.900

@<SCITEGIC>MOL_PROPERTY
U+W
SciTegic.value.DoubleValue
-4.548

@<SCITEGIC>MOL_PROPERTY
U
SciTegic.value.DoubleValue
49.197

@<SCITEGIC>MOL_PROPERTY
W
SciTegic.value.DoubleValue
-53.745

@<SCITEGIC>MOL_PROPERTY
W(PB)
SciTegic.value.DoubleValue
-56.033

@<SCITEGIC>MOL_PROPERTY
W(SA)
SciTegic.value.DoubleValue
2.288

@<SCITEGIC>MOL_PROPERTY
Valence
SciTegic.value.DoubleValue
3.018

@<SCITEGIC>MOL_PROPERTY
Coulomb
SciTegic.value.DoubleValue
45.589

@<SCITEGIC>MOL_PROPERTY
VdW
SciTegic.value.DoubleValue
0.590

@<SCITEGIC>MOL_PROPERTY
VdW6
SciTegic.value.DoubleValue
-8.073

@<SCITEGIC>MOL_PROPERTY
VdW12
SciTegic.value.DoubleValue
8.662

@<SCITEGIC>MOL_PROPERTY
Bond
SciTegic.value.DoubleValue
0.222

@<SCITEGIC>MOL_PROPERTY
Angle
SciTegic.value.DoubleValue
0.958

@<SCITEGIC>MOL_PROPERTY
Pdih
SciTegic.value.DoubleValue
1.839

@<SCITEGIC>MOL_PROPERTY
Idih
SciTegic.value.DoubleValue
0.000

@<SCITEGIC>MOL_PROPERTY
Tether
SciTegic.value.DoubleValue
0.000

@<TRIPOS>MOLECULE
guest-s14_vm2.mol2 : vm2 ligand conformer 53
          26          25           1
SMALL
USER_CHARGES
 
@<TRIPOS>ATOM
       1    C1      19.773090   17.595773   20.451533 C.3        1 MOL1        -0.2400
       2    H1      20.115464   17.102548   21.369787 H          1 MOL1         0.0971
       3    H2      18.997141   16.960728   20.004925 H          1 MOL1         0.0971
       4    H3      20.615982   17.640530   19.749767 H          1 MOL1         0.0971
       5    C2      19.216429   19.008016   20.741327 C.3        1 MOL1        -0.1385
       6    H4      18.388337   18.940056   21.459371 H          1 MOL1         0.0960
       7    H5      18.779547   19.412239   19.817524 H          1 MOL1         0.0960
       8    C3      20.290552   20.001147   21.253935 C.3        1 MOL1        -0.1409
       9    H6      21.041579   20.148839   20.465723 H          1 MOL1         0.0960
      10    H7      19.820350   20.982101   21.408130 H          1 MOL1         0.0960
      11    C4      21.015984   19.579533   22.557996 C.3        1 MOL1        -0.1409
      12    H8      21.758672   20.350985   22.803840 H          1 MOL1         0.0960
      13    H9      21.585484   18.656239   22.387823 H          1 MOL1         0.0960
      14    C5      20.064044   19.393218   23.763711 C.3        1 MOL1        -0.1409
      15    H10     19.466424   20.304618   23.903521 H          1 MOL1         0.0960
      16    H11     19.360994   18.577335   23.554313 H          1 MOL1         0.0960
      17    C6      20.841945   19.082082   25.064231 C.3        1 MOL1        -0.1450
      18    H12     21.566390   19.884785   25.255966 H          1 MOL1         0.0960
      19    H13     21.422830   18.158011   24.943251 H          1 MOL1         0.0960
      20    C7      19.920974   18.953879   26.292953 C.3        1 MOL1         0.0172
      21    H14     20.530830   18.821411   27.190772 H          1 MOL1         0.0934
      22    H15     19.335033   19.869386   26.410939 H          1 MOL1         0.0934
      23    N1      18.957983   17.785352   26.215314 N.4        1 MOL1        -0.5956
      24    H16     18.369919   17.720730   27.053374 H          1 MOL1         0.3624
      25    H17     19.451169   16.891029   26.126090 H          1 MOL1         0.3624
      26    H18     18.327325   17.865770   25.411800 H          1 MOL1         0.3624
@<TRIPOS>BOND
    1     1     2    1
    2     1     3    1
    3     1     4    1
    4     1     5    1
    5     5     6    1
    6     5     7    1
    7     5     8    1
    8     8     9    1
    9     8    10    1
   10     8    11    1
   11    11    12    1
   12    11    13    1
   13    11    14    1
   14    14    15    1
   15    14    16    1
   16    14    17    1
   17    17    18    1
   18    17    19    1
   19    17    20    1
   20    20    21    1
   21    20    22    1
   22    20    23    1
   23    23    24    1
   24    23    25    1
   25    23    26    1
@<TRIPOS>SUBSTRUCTURE
       1 MOL1            1 RESIDUE      1      MOL     
@<SCITEGIC>MOL_PROPERTY
VM2 Rank
SciTegic.value.IntegerValue
53

@<SCITEGIC>MOL_PROPERTY
Conf_Id
SciTegic.value.IntegerValue
401

@<SCITEGIC>MOL_PROPERTY
Probability
SciTegic.value.DoubleValue
0.53

@<SCITEGIC>MOL_PROPERTY
Sum Probability
SciTegic.value.DoubleValue
84.83

@<SCITEGIC>MOL_PROPERTY
Delta G
SciTegic.value.DoubleValue
1.576

@<SCITEGIC>MOL_PROPERTY
G
SciTegic.value.DoubleValue
49.838

@<SCITEGIC>MOL_PROPERTY
E
SciTegic.value.DoubleValue
16.948

@<SCITEGIC>MOL_PROPERTY
-TS
SciTegic.value.DoubleValue
32.890

@<SCITEGIC>MOL_PROPERTY
U+W
SciTegic.value.DoubleValue
-4.514

@<SCITEGIC>MOL_PROPERTY
U
SciTegic.value.DoubleValue
49.426

@<SCITEGIC>MOL_PROPERTY
W
SciTegic.value.DoubleValue
-53.941

@<SCITEGIC>MOL_PROPERTY
W(PB)
SciTegic.value.DoubleValue
-56.205

@<SCITEGIC>MOL_PROPERTY
W(SA)
SciTegic.value.DoubleValue
2.264

@<SCITEGIC>MOL_PROPERTY
Valence
SciTegic.value.DoubleValue
3.214

@<SCITEGIC>MOL_PROPERTY
Coulomb
SciTegic.value.DoubleValue
45.444

@<SCITEGIC>MOL_PROPERTY
VdW
SciTegic.value.DoubleValue
0.769

@<SCITEGIC>MOL_PROPERTY
VdW6
SciTegic.value.DoubleValue
-7.916

@<SCITEGIC>MOL_PROPERTY
VdW12
SciTegic.value.DoubleValue
8.684

@<SCITEGIC>MOL_PROPERTY
Bond
SciTegic.value.DoubleValue
0.230

@<SCITEGIC>MOL_PROPERTY
Angle
SciTegic.value.DoubleValue
1.078

@<SCITEGIC>MOL_PROPERTY
Pdih
SciTegic.value.DoubleValue
1.906

@<SCITEGIC>MOL_PROPERTY
Idih
SciTegic.value.DoubleValue
0.000

@<SCITEGIC>MOL_PROPERTY
Tether
SciTegic.value.DoubleValue
0.000

@<TRIPOS>MOLECULE
guest-s14_vm2.mol2 : vm2 ligand conformer 54
          26          25           1
SMALL
USER_CHARGES
 
@<TRIPOS>ATOM
       1    C1      21.018375   19.405146   19.760252 C.3        1 MOL1        -0.2400
       2    H1      21.214366   20.436283   20.081738 H          1 MOL1         0.0971
       3    H2      21.787723   18.756409   20.197084 H          1 MOL1         0.0971
       4    H3      21.133863   19.365829   18.669364 H          1 MOL1         0.0971
       5    C2      19.597677   18.955692   20.170440 C.3        1 MOL1        -0.1385
       6    H4      19.435767   17.913885   19.860337 H          1 MOL1         0.0960
       7    H5      18.862057   19.558168   19.619382 H          1 MOL1         0.0960
       8    C3      19.322774   19.099700   21.686727 C.3        1 MOL1        -0.1409
       9    H6      19.457114   20.150062   21.976401 H          1 MOL1         0.0960
      10    H7      18.267937   18.856810   21.874950 H          1 MOL1         0.0960
      11    C4      20.217784   18.185824   22.561644 C.3        1 MOL1        -0.1409
      12    H8      21.267462   18.497899   22.481215 H          1 MOL1         0.0960
      13    H9      20.168761   17.159622   22.172230 H          1 MOL1         0.0960
      14    C5      19.806551   18.163887   24.054451 C.3        1 MOL1        -0.1409
      15    H10     18.761724   17.835541   24.143577 H          1 MOL1         0.0960
      16    H11     20.413185   17.404248   24.564853 H          1 MOL1         0.0960
      17    C6      19.986737   19.529218   24.764382 C.3        1 MOL1        -0.1450
      18    H12     19.352522   20.284454   24.283834 H          1 MOL1         0.0960
      19    H13     21.023525   19.875058   24.658332 H          1 MOL1         0.0960
      20    C7      19.612806   19.475916   26.258378 C.3        1 MOL1         0.0172
      21    H14     19.666222   20.482945   26.680980 H          1 MOL1         0.0934
      22    H15     18.586912   19.114211   26.368451 H          1 MOL1         0.0934
      23    N1      20.518295   18.583617   27.084726 N.4        1 MOL1        -0.5956
      24    H16     21.496464   18.887130   27.039224 H          1 MOL1         0.3624
      25    H17     20.487597   17.610632   26.765015 H          1 MOL1         0.3624
      26    H18     20.250807   18.582580   28.075060 H          1 MOL1         0.3624
@<TRIPOS>BOND
    1     1     2    1
    2     1     3    1
    3     1     4    1
    4     1     5    1
    5     5     6    1
    6     5     7    1
    7     5     8    1
    8     8     9    1
    9     8    10    1
   10     8    11    1
   11    11    12    1
   12    11    13    1
   13    11    14    1
   14    14    15    1
   15    14    16    1
   16    14    17    1
   17    17    18    1
   18    17    19    1
   19    17    20    1
   20    20    21    1
   21    20    22    1
   22    20    23    1
   23    23    24    1
   24    23    25    1
   25    23    26    1
@<TRIPOS>SUBSTRUCTURE
       1 MOL1            1 RESIDUE      1      MOL     
@<SCITEGIC>MOL_PROPERTY
VM2 Rank
SciTegic.value.IntegerValue
54

@<SCITEGIC>MOL_PROPERTY
Conf_Id
SciTegic.value.IntegerValue
156

@<SCITEGIC>MOL_PROPERTY
Probability
SciTegic.value.DoubleValue
0.53

@<SCITEGIC>MOL_PROPERTY
Sum Probability
SciTegic.value.DoubleValue
85.36

@<SCITEGIC>MOL_PROPERTY
Delta G
SciTegic.value.DoubleValue
1.578

@<SCITEGIC>MOL_PROPERTY
G
SciTegic.value.DoubleValue
49.839

@<SCITEGIC>MOL_PROPERTY
E
SciTegic.value.DoubleValue
17.164

@<SCITEGIC>MOL_PROPERTY
-TS
SciTegic.value.DoubleValue
32.675

@<SCITEGIC>MOL_PROPERTY
U+W
SciTegic.value.DoubleValue
-4.298

@<SCITEGIC>MOL_PROPERTY
U
SciTegic.value.DoubleValue
49.153

@<SCITEGIC>MOL_PROPERTY
W
SciTegic.value.DoubleValue
-53.450

@<SCITEGIC>MOL_PROPERTY
W(PB)
SciTegic.value.DoubleValue
-55.735

@<SCITEGIC>MOL_PROPERTY
W(SA)
SciTegic.value.DoubleValue
2.284

@<SCITEGIC>MOL_PROPERTY
Valence
SciTegic.value.DoubleValue
3.298

@<SCITEGIC>MOL_PROPERTY
Coulomb
SciTegic.value.DoubleValue
44.906

@<SCITEGIC>MOL_PROPERTY
VdW
SciTegic.value.DoubleValue
0.948

@<SCITEGIC>MOL_PROPERTY
VdW6
SciTegic.value.DoubleValue
-7.574

@<SCITEGIC>MOL_PROPERTY
VdW12
SciTegic.value.DoubleValue
8.522

@<SCITEGIC>MOL_PROPERTY
Bond
SciTegic.value.DoubleValue
0.229

@<SCITEGIC>MOL_PROPERTY
Angle
SciTegic.value.DoubleValue
0.912

@<SCITEGIC>MOL_PROPERTY
Pdih
SciTegic.value.DoubleValue
2.157

@<SCITEGIC>MOL_PROPERTY
Idih
SciTegic.value.DoubleValue
0.000

@<SCITEGIC>MOL_PROPERTY
Tether
SciTegic.value.DoubleValue
0.000

@<TRIPOS>MOLECULE
guest-s14_vm2.mol2 : vm2 ligand conformer 55
          26          25           1
SMALL
USER_CHARGES
 
@<TRIPOS>ATOM
       1    C1      19.572520   19.376596   19.472710 C.3        1 MOL1        -0.2400
       2    H1      18.482504   19.311821   19.585300 H          1 MOL1         0.0971
       3    H2      19.887781   20.390037   19.749713 H          1 MOL1         0.0971
       4    H3      19.808714   19.237723   18.409761 H          1 MOL1         0.0971
       5    C2      20.284599   18.304577   20.328805 C.3        1 MOL1        -0.1385
       6    H4      21.373487   18.412183   20.226388 H          1 MOL1         0.0960
       7    H5      20.035242   17.311776   19.928833 H          1 MOL1         0.0960
       8    C3      19.892380   18.347880   21.825701 C.3        1 MOL1        -0.1409
       9    H6      18.803641   18.237085   21.922573 H          1 MOL1         0.0960
      10    H7      20.337999   17.473944   22.317729 H          1 MOL1         0.0960
      11    C4      20.353447   19.640044   22.546952 C.3        1 MOL1        -0.1409
      12    H8      19.909423   20.512922   22.051398 H          1 MOL1         0.0960
      13    H9      21.442270   19.750502   22.450621 H          1 MOL1         0.0960
      14    C5      19.957154   19.687353   24.043290 C.3        1 MOL1        -0.1409
      15    H10     20.206084   20.682710   24.436866 H          1 MOL1         0.0960
      16    H11     18.867625   19.582692   24.133117 H          1 MOL1         0.0960
      17    C6      20.668015   18.615493   24.907031 C.3        1 MOL1        -0.1450
      18    H12     21.751223   18.668737   24.735031 H          1 MOL1         0.0960
      19    H13     20.350448   17.608343   24.609453 H          1 MOL1         0.0960
      20    C7      20.403889   18.800693   26.413659 C.3        1 MOL1         0.0172
      21    H14     20.988507   18.068681   26.977515 H          1 MOL1         0.0934
      22    H15     20.720144   19.800646   26.722639 H          1 MOL1         0.0934
      23    N1      18.948994   18.626364   26.802852 N.4        1 MOL1        -0.5956
      24    H16     18.346332   19.309141   26.333197 H          1 MOL1         0.3624
      25    H17     18.807956   18.745198   27.811953 H          1 MOL1         0.3624
      26    H18     18.598704   17.694233   26.559196 H          1 MOL1         0.3624
@<TRIPOS>BOND
    1     1     2    1
    2     1     3    1
    3     1     4    1
    4     1     5    1
    5     5     6    1
    6     5     7    1
    7     5     8    1
    8     8     9    1
    9     8    10    1
   10     8    11    1
   11    11    12    1
   12    11    13    1
   13    11    14    1
   14    14    15    1
   15    14    16    1
   16    14    17    1
   17    17    18    1
   18    17    19    1
   19    17    20    1
   20    20    21    1
   21    20    22    1
   22    20    23    1
   23    23    24    1
   24    23    25    1
   25    23    26    1
@<TRIPOS>SUBSTRUCTURE
       1 MOL1            1 RESIDUE      1      MOL     
@<SCITEGIC>MOL_PROPERTY
VM2 Rank
SciTegic.value.IntegerValue
55

@<SCITEGIC>MOL_PROPERTY
Conf_Id
SciTegic.value.IntegerValue
730

@<SCITEGIC>MOL_PROPERTY
Probability
SciTegic.value.DoubleValue
0.52

@<SCITEGIC>MOL_PROPERTY
Sum Probability
SciTegic.value.DoubleValue
85.88

@<SCITEGIC>MOL_PROPERTY
Delta G
SciTegic.value.DoubleValue
1.591

@<SCITEGIC>MOL_PROPERTY
G
SciTegic.value.DoubleValue
49.852

@<SCITEGIC>MOL_PROPERTY
E
SciTegic.value.DoubleValue
17.226

@<SCITEGIC>MOL_PROPERTY
-TS
SciTegic.value.DoubleValue
32.626

@<SCITEGIC>MOL_PROPERTY
U+W
SciTegic.value.DoubleValue
-4.236

@<SCITEGIC>MOL_PROPERTY
U
SciTegic.value.DoubleValue
49.401

@<SCITEGIC>MOL_PROPERTY
W
SciTegic.value.DoubleValue
-53.636

@<SCITEGIC>MOL_PROPERTY
W(PB)
SciTegic.value.DoubleValue
-55.927

@<SCITEGIC>MOL_PROPERTY
W(SA)
SciTegic.value.DoubleValue
2.290

@<SCITEGIC>MOL_PROPERTY
Valence
SciTegic.value.DoubleValue
3.370

@<SCITEGIC>MOL_PROPERTY
Coulomb
SciTegic.value.DoubleValue
45.065

@<SCITEGIC>MOL_PROPERTY
VdW
SciTegic.value.DoubleValue
0.965

@<SCITEGIC>MOL_PROPERTY
VdW6
SciTegic.value.DoubleValue
-7.528

@<SCITEGIC>MOL_PROPERTY
VdW12
SciTegic.value.DoubleValue
8.494

@<SCITEGIC>MOL_PROPERTY
Bond
SciTegic.value.DoubleValue
0.232

@<SCITEGIC>MOL_PROPERTY
Angle
SciTegic.value.DoubleValue
0.963

@<SCITEGIC>MOL_PROPERTY
Pdih
SciTegic.value.DoubleValue
2.174

@<SCITEGIC>MOL_PROPERTY
Idih
SciTegic.value.DoubleValue
0.000

@<SCITEGIC>MOL_PROPERTY
Tether
SciTegic.value.DoubleValue
0.000

@<TRIPOS>MOLECULE
guest-s14_vm2.mol2 : vm2 ligand conformer 56
          26          25           1
SMALL
USER_CHARGES
 
@<TRIPOS>ATOM
       1    C1      19.337547   18.296450   19.704107 C.3        1 MOL1        -0.2400
       2    H1      18.298521   18.512884   19.984446 H          1 MOL1         0.0971
       3    H2      19.378977   18.208422   18.610738 H          1 MOL1         0.0971
       4    H3      19.611187   17.320670   20.124288 H          1 MOL1         0.0971
       5    C2      20.289027   19.411705   20.193529 C.3        1 MOL1        -0.1385
       6    H4      20.050041   20.341764   19.659059 H          1 MOL1         0.0960
       7    H5      21.323960   19.159341   19.923404 H          1 MOL1         0.0960
       8    C3      20.194134   19.674448   21.715830 C.3        1 MOL1        -0.1409
       9    H6      20.822615   20.541832   21.960285 H          1 MOL1         0.0960
      10    H7      19.163127   19.956179   21.966568 H          1 MOL1         0.0960
      11    C4      20.641459   18.465298   22.575801 C.3        1 MOL1        -0.1409
      12    H8      21.621441   18.117816   22.220796 H          1 MOL1         0.0960
      13    H9      19.946467   17.626596   22.437064 H          1 MOL1         0.0960
      14    C5      20.753558   18.788581   24.086096 C.3        1 MOL1        -0.1409
      15    H10     21.189478   17.916332   24.590797 H          1 MOL1         0.0960
      16    H11     21.461126   19.616201   24.233775 H          1 MOL1         0.0960
      17    C6      19.395651   19.139309   24.744638 C.3        1 MOL1        -0.1450
      18    H12     18.675963   18.326474   24.579931 H          1 MOL1         0.0960
      19    H13     18.973191   20.034224   24.271150 H          1 MOL1         0.0960
      20    C7      19.521900   19.415966   26.255338 C.3        1 MOL1         0.0172
      21    H14     20.251700   20.212419   26.424042 H          1 MOL1         0.0934
      22    H15     18.556251   19.750761   26.643910 H          1 MOL1         0.0934
      23    N1      19.947722   18.207243   27.065662 N.4        1 MOL1        -0.5956
      24    H16     20.868395   17.861840   26.777709 H          1 MOL1         0.3624
      25    H17     19.287104   17.429720   26.965438 H          1 MOL1         0.3624
      26    H18     20.007626   18.422161   28.066928 H          1 MOL1         0.3624
@<TRIPOS>BOND
    1     1     2    1
    2     1     3    1
    3     1     4    1
    4     1     5    1
    5     5     6    1
    6     5     7    1
    7     5     8    1
    8     8     9    1
    9     8    10    1
   10     8    11    1
   11    11    12    1
   12    11    13    1
   13    11    14    1
   14    14    15    1
   15    14    16    1
   16    14    17    1
   17    17    18    1
   18    17    19    1
   19    17    20    1
   20    20    21    1
   21    20    22    1
   22    20    23    1
   23    23    24    1
   24    23    25    1
   25    23    26    1
@<TRIPOS>SUBSTRUCTURE
       1 MOL1            1 RESIDUE      1      MOL     
@<SCITEGIC>MOL_PROPERTY
VM2 Rank
SciTegic.value.IntegerValue
56

@<SCITEGIC>MOL_PROPERTY
Conf_Id
SciTegic.value.IntegerValue
980

@<SCITEGIC>MOL_PROPERTY
Probability
SciTegic.value.DoubleValue
0.51

@<SCITEGIC>MOL_PROPERTY
Sum Probability
SciTegic.value.DoubleValue
86.38

@<SCITEGIC>MOL_PROPERTY
Delta G
SciTegic.value.DoubleValue
1.602

@<SCITEGIC>MOL_PROPERTY
G
SciTegic.value.DoubleValue
49.864

@<SCITEGIC>MOL_PROPERTY
E
SciTegic.value.DoubleValue
17.189

@<SCITEGIC>MOL_PROPERTY
-TS
SciTegic.value.DoubleValue
32.675

@<SCITEGIC>MOL_PROPERTY
U+W
SciTegic.value.DoubleValue
-4.273

@<SCITEGIC>MOL_PROPERTY
U
SciTegic.value.DoubleValue
49.153

@<SCITEGIC>MOL_PROPERTY
W
SciTegic.value.DoubleValue
-53.426

@<SCITEGIC>MOL_PROPERTY
W(PB)
SciTegic.value.DoubleValue
-55.726

@<SCITEGIC>MOL_PROPERTY
W(SA)
SciTegic.value.DoubleValue
2.300

@<SCITEGIC>MOL_PROPERTY
Valence
SciTegic.value.DoubleValue
3.298

@<SCITEGIC>MOL_PROPERTY
Coulomb
SciTegic.value.DoubleValue
44.907

@<SCITEGIC>MOL_PROPERTY
VdW
SciTegic.value.DoubleValue
0.948

@<SCITEGIC>MOL_PROPERTY
VdW6
SciTegic.value.DoubleValue
-7.574

@<SCITEGIC>MOL_PROPERTY
VdW12
SciTegic.value.DoubleValue
8.522

@<SCITEGIC>MOL_PROPERTY
Bond
SciTegic.value.DoubleValue
0.229

@<SCITEGIC>MOL_PROPERTY
Angle
SciTegic.value.DoubleValue
0.912

@<SCITEGIC>MOL_PROPERTY
Pdih
SciTegic.value.DoubleValue
2.157

@<SCITEGIC>MOL_PROPERTY
Idih
SciTegic.value.DoubleValue
0.000

@<SCITEGIC>MOL_PROPERTY
Tether
SciTegic.value.DoubleValue
0.000

@<TRIPOS>MOLECULE
guest-s14_vm2.mol2 : vm2 ligand conformer 57
          26          25           1
SMALL
USER_CHARGES
 
@<TRIPOS>ATOM
       1    C1      19.602555   20.006650   19.741651 C.3        1 MOL1        -0.2400
       2    H1      19.640619   19.271968   18.926788 H          1 MOL1         0.0971
       3    H2      18.548258   20.200294   19.978635 H          1 MOL1         0.0971
       4    H3      20.042372   20.942147   19.372302 H          1 MOL1         0.0971
       5    C2      20.365607   19.498788   20.983374 C.3        1 MOL1        -0.1385
       6    H4      20.339233   20.275080   21.759634 H          1 MOL1         0.0960
       7    H5      21.421944   19.342506   20.723812 H          1 MOL1         0.0960
       8    C3      19.760906   18.182262   21.525381 C.3        1 MOL1        -0.1409
       9    H6      18.717352   18.347661   21.823766 H          1 MOL1         0.0960
      10    H7      19.726726   17.444573   20.711823 H          1 MOL1         0.0960
      11    C4      20.560843   17.569375   22.704160 C.3        1 MOL1        -0.1409
      12    H8      21.562490   17.293047   22.346997 H          1 MOL1         0.0960
      13    H9      20.079946   16.628274   23.004591 H          1 MOL1         0.0960
      14    C5      20.711841   18.476954   23.952660 C.3        1 MOL1        -0.1409
      15    H10     21.306686   17.931657   24.697145 H          1 MOL1         0.0960
      16    H11     21.295103   19.371832   23.698234 H          1 MOL1         0.0960
      17    C6      19.359238   18.895345   24.581620 C.3        1 MOL1        -0.1450
      18    H12     18.763236   18.004579   24.820415 H          1 MOL1         0.0960
      19    H13     18.777889   19.478329   23.856397 H          1 MOL1         0.0960
      20    C7      19.533579   19.753396   25.849610 C.3        1 MOL1         0.0172
      21    H14     20.142842   20.631490   25.619090 H          1 MOL1         0.0934
      22    H15     18.553697   20.098500   26.190612 H          1 MOL1         0.0934
      23    N1      20.186430   19.016232   27.002544 N.4        1 MOL1        -0.5956
      24    H16     21.129576   18.695353   26.763103 H          1 MOL1         0.3624
      25    H17     19.646593   18.190262   27.280649 H          1 MOL1         0.3624
      26    H18     20.273738   19.610825   27.833882 H          1 MOL1         0.3624
@<TRIPOS>BOND
    1     1     2    1
    2     1     3    1
    3     1     4    1
    4     1     5    1
    5     5     6    1
    6     5     7    1
    7     5     8    1
    8     8     9    1
    9     8    10    1
   10     8    11    1
   11    11    12    1
   12    11    13    1
   13    11    14    1
   14    14    15    1
   15    14    16    1
   16    14    17    1
   17    17    18    1
   18    17    19    1
   19    17    20    1
   20    20    21    1
   21    20    22    1
   22    20    23    1
   23    23    24    1
   24    23    25    1
   25    23    26    1
@<TRIPOS>SUBSTRUCTURE
       1 MOL1            1 RESIDUE      1      MOL     
@<SCITEGIC>MOL_PROPERTY
VM2 Rank
SciTegic.value.IntegerValue
57

@<SCITEGIC>MOL_PROPERTY
Conf_Id
SciTegic.value.IntegerValue
477

@<SCITEGIC>MOL_PROPERTY
Probability
SciTegic.value.DoubleValue
0.50

@<SCITEGIC>MOL_PROPERTY
Sum Probability
SciTegic.value.DoubleValue
86.88

@<SCITEGIC>MOL_PROPERTY
Delta G
SciTegic.value.DoubleValue
1.612

@<SCITEGIC>MOL_PROPERTY
G
SciTegic.value.DoubleValue
49.873

@<SCITEGIC>MOL_PROPERTY
E
SciTegic.value.DoubleValue
16.983

@<SCITEGIC>MOL_PROPERTY
-TS
SciTegic.value.DoubleValue
32.890

@<SCITEGIC>MOL_PROPERTY
U+W
SciTegic.value.DoubleValue
-4.479

@<SCITEGIC>MOL_PROPERTY
U
SciTegic.value.DoubleValue
49.231

@<SCITEGIC>MOL_PROPERTY
W
SciTegic.value.DoubleValue
-53.710

@<SCITEGIC>MOL_PROPERTY
W(PB)
SciTegic.value.DoubleValue
-55.983

@<SCITEGIC>MOL_PROPERTY
W(SA)
SciTegic.value.DoubleValue
2.273

@<SCITEGIC>MOL_PROPERTY
Valence
SciTegic.value.DoubleValue
3.276

@<SCITEGIC>MOL_PROPERTY
Coulomb
SciTegic.value.DoubleValue
45.175

@<SCITEGIC>MOL_PROPERTY
VdW
SciTegic.value.DoubleValue
0.779

@<SCITEGIC>MOL_PROPERTY
VdW6
SciTegic.value.DoubleValue
-7.944

@<SCITEGIC>MOL_PROPERTY
VdW12
SciTegic.value.DoubleValue
8.723

@<SCITEGIC>MOL_PROPERTY
Bond
SciTegic.value.DoubleValue
0.239

@<SCITEGIC>MOL_PROPERTY
Angle
SciTegic.value.DoubleValue
1.155

@<SCITEGIC>MOL_PROPERTY
Pdih
SciTegic.value.DoubleValue
1.882

@<SCITEGIC>MOL_PROPERTY
Idih
SciTegic.value.DoubleValue
0.000

@<SCITEGIC>MOL_PROPERTY
Tether
SciTegic.value.DoubleValue
0.000

@<TRIPOS>MOLECULE
guest-s14_vm2.mol2 : vm2 ligand conformer 58
          26          25           1
SMALL
USER_CHARGES
 
@<TRIPOS>ATOM
       1    C1      20.645653   20.370042   20.510314 C.3        1 MOL1        -0.2400
       2    H1      21.461714   20.690889   21.170703 H          1 MOL1         0.0971
       3    H2      20.865547   20.740316   19.500634 H          1 MOL1         0.0971
       4    H3      19.720678   20.855520   20.845309 H          1 MOL1         0.0971
       5    C2      20.508497   18.830589   20.503828 C.3        1 MOL1        -0.1385
       6    H4      21.410807   18.396230   20.051133 H          1 MOL1         0.0960
       7    H5      19.668920   18.536765   19.858457 H          1 MOL1         0.0960
       8    C3      20.320693   18.226040   21.916005 C.3        1 MOL1        -0.1409
       9    H6      20.339055   17.130645   21.833177 H          1 MOL1         0.0960
      10    H7      21.178387   18.505439   22.541965 H          1 MOL1         0.0960
      11    C4      18.999061   18.659984   22.598547 C.3        1 MOL1        -0.1409
      12    H8      18.163299   18.475271   21.909744 H          1 MOL1         0.0960
      13    H9      19.007290   19.741817   22.782746 H          1 MOL1         0.0960
      14    C5      18.714799   17.909205   23.925122 C.3        1 MOL1        -0.1409
      15    H10     17.747867   18.248450   24.321836 H          1 MOL1         0.0960
      16    H11     18.595359   16.837495   23.714426 H          1 MOL1         0.0960
      17    C6      19.796700   18.089180   25.019051 C.3        1 MOL1        -0.1450
      18    H12     20.739931   17.632256   24.693486 H          1 MOL1         0.0960
      19    H13     19.484720   17.542374   25.918763 H          1 MOL1         0.0960
      20    C7      20.034567   19.566226   25.384384 C.3        1 MOL1         0.0172
      21    H14     20.385203   20.111805   24.504357 H          1 MOL1         0.0934
      22    H15     19.096973   20.017970   25.719316 H          1 MOL1         0.0934
      23    N1      21.061030   19.747735   26.483749 N.4        1 MOL1        -0.5956
      24    H16     21.975349   19.366450   26.219802 H          1 MOL1         0.3624
      25    H17     20.778028   19.280268   27.351239 H          1 MOL1         0.3624
      26    H18     21.204415   20.737648   26.711387 H          1 MOL1         0.3624
@<TRIPOS>BOND
    1     1     2    1
    2     1     3    1
    3     1     4    1
    4     1     5    1
    5     5     6    1
    6     5     7    1
    7     5     8    1
    8     8     9    1
    9     8    10    1
   10     8    11    1
   11    11    12    1
   12    11    13    1
   13    11    14    1
   14    14    15    1
   15    14    16    1
   16    14    17    1
   17    17    18    1
   18    17    19    1
   19    17    20    1
   20    20    21    1
   21    20    22    1
   22    20    23    1
   23    23    24    1
   24    23    25    1
   25    23    26    1
@<TRIPOS>SUBSTRUCTURE
       1 MOL1            1 RESIDUE      1      MOL     
@<SCITEGIC>MOL_PROPERTY
VM2 Rank
SciTegic.value.IntegerValue
58

@<SCITEGIC>MOL_PROPERTY
Conf_Id
SciTegic.value.IntegerValue
1039

@<SCITEGIC>MOL_PROPERTY
Probability
SciTegic.value.DoubleValue
0.48

@<SCITEGIC>MOL_PROPERTY
Sum Probability
SciTegic.value.DoubleValue
87.36

@<SCITEGIC>MOL_PROPERTY
Delta G
SciTegic.value.DoubleValue
1.634

@<SCITEGIC>MOL_PROPERTY
G
SciTegic.value.DoubleValue
49.895

@<SCITEGIC>MOL_PROPERTY
E
SciTegic.value.DoubleValue
17.075

@<SCITEGIC>MOL_PROPERTY
-TS
SciTegic.value.DoubleValue
32.821

@<SCITEGIC>MOL_PROPERTY
U+W
SciTegic.value.DoubleValue
-4.387

@<SCITEGIC>MOL_PROPERTY
U
SciTegic.value.DoubleValue
49.567

@<SCITEGIC>MOL_PROPERTY
W
SciTegic.value.DoubleValue
-53.954

@<SCITEGIC>MOL_PROPERTY
W(PB)
SciTegic.value.DoubleValue
-56.241

@<SCITEGIC>MOL_PROPERTY
W(SA)
SciTegic.value.DoubleValue
2.287

@<SCITEGIC>MOL_PROPERTY
Valence
SciTegic.value.DoubleValue
3.380

@<SCITEGIC>MOL_PROPERTY
Coulomb
SciTegic.value.DoubleValue
45.516

@<SCITEGIC>MOL_PROPERTY
VdW
SciTegic.value.DoubleValue
0.670

@<SCITEGIC>MOL_PROPERTY
VdW6
SciTegic.value.DoubleValue
-8.071

@<SCITEGIC>MOL_PROPERTY
VdW12
SciTegic.value.DoubleValue
8.742

@<SCITEGIC>MOL_PROPERTY
Bond
SciTegic.value.DoubleValue
0.231

@<SCITEGIC>MOL_PROPERTY
Angle
SciTegic.value.DoubleValue
1.069

@<SCITEGIC>MOL_PROPERTY
Pdih
SciTegic.value.DoubleValue
2.080

@<SCITEGIC>MOL_PROPERTY
Idih
SciTegic.value.DoubleValue
0.000

@<SCITEGIC>MOL_PROPERTY
Tether
SciTegic.value.DoubleValue
0.000

@<TRIPOS>MOLECULE
guest-s14_vm2.mol2 : vm2 ligand conformer 59
          26          25           1
SMALL
USER_CHARGES
 
@<TRIPOS>ATOM
       1    C1      20.478578   19.512964   19.447657 C.3        1 MOL1        -0.2400
       2    H1      21.464110   19.757856   19.862289 H          1 MOL1         0.0971
       3    H2      20.627647   19.207596   18.403882 H          1 MOL1         0.0971
       4    H3      19.868726   20.425702   19.446188 H          1 MOL1         0.0971
       5    C2      19.788469   18.384428   20.247273 C.3        1 MOL1        -0.1385
       6    H4      20.433224   17.494614   20.263763 H          1 MOL1         0.0960
       7    H5      18.871097   18.089035   19.719076 H          1 MOL1         0.0960
       8    C3      19.417432   18.789484   21.694616 C.3        1 MOL1        -0.1409
       9    H6      18.771704   19.678052   21.672191 H          1 MOL1         0.0960
      10    H7      18.816361   17.980224   22.128095 H          1 MOL1         0.0960
      11    C4      20.650224   19.060634   22.594402 C.3        1 MOL1        -0.1409
      12    H8      21.252415   19.865164   22.153135 H          1 MOL1         0.0960
      13    H9      21.294405   18.171028   22.620032 H          1 MOL1         0.0960
      14    C5      20.284067   19.478210   24.040289 C.3        1 MOL1        -0.1409
      15    H10     21.205495   19.795425   24.546156 H          1 MOL1         0.0960
      16    H11     19.627928   20.359241   24.013832 H          1 MOL1         0.0960
      17    C6      19.611465   18.349703   24.862093 C.3        1 MOL1        -0.1450
      18    H12     20.249557   17.456075   24.867780 H          1 MOL1         0.0960
      19    H13     18.665333   18.057720   24.390311 H          1 MOL1         0.0960
      20    C7      19.306449   18.772295   26.312343 C.3        1 MOL1         0.0172
      21    H14     18.687981   19.673905   26.310785 H          1 MOL1         0.0934
      22    H15     18.746927   17.976216   26.811093 H          1 MOL1         0.0934
      23    N1      20.544316   19.051282   27.142328 N.4        1 MOL1        -0.5956
      24    H16     21.099863   19.817888   26.750495 H          1 MOL1         0.3624
      25    H17     21.156952   18.231286   27.199793 H          1 MOL1         0.3624
      26    H18     20.305876   19.314951   28.104588 H          1 MOL1         0.3624
@<TRIPOS>BOND
    1     1     2    1
    2     1     3    1
    3     1     4    1
    4     1     5    1
    5     5     6    1
    6     5     7    1
    7     5     8    1
    8     8     9    1
    9     8    10    1
   10     8    11    1
   11    11    12    1
   12    11    13    1
   13    11    14    1
   14    14    15    1
   15    14    16    1
   16    14    17    1
   17    17    18    1
   18    17    19    1
   19    17    20    1
   20    20    21    1
   21    20    22    1
   22    20    23    1
   23    23    24    1
   24    23    25    1
   25    23    26    1
@<TRIPOS>SUBSTRUCTURE
       1 MOL1            1 RESIDUE      1      MOL     
@<SCITEGIC>MOL_PROPERTY
VM2 Rank
SciTegic.value.IntegerValue
59

@<SCITEGIC>MOL_PROPERTY
Conf_Id
SciTegic.value.IntegerValue
1347

@<SCITEGIC>MOL_PROPERTY
Probability
SciTegic.value.DoubleValue
0.48

@<SCITEGIC>MOL_PROPERTY
Sum Probability
SciTegic.value.DoubleValue
87.84

@<SCITEGIC>MOL_PROPERTY
Delta G
SciTegic.value.DoubleValue
1.634

@<SCITEGIC>MOL_PROPERTY
G
SciTegic.value.DoubleValue
49.896

@<SCITEGIC>MOL_PROPERTY
E
SciTegic.value.DoubleValue
17.316

@<SCITEGIC>MOL_PROPERTY
-TS
SciTegic.value.DoubleValue
32.579

@<SCITEGIC>MOL_PROPERTY
U+W
SciTegic.value.DoubleValue
-4.146

@<SCITEGIC>MOL_PROPERTY
U
SciTegic.value.DoubleValue
49.323

@<SCITEGIC>MOL_PROPERTY
W
SciTegic.value.DoubleValue
-53.468

@<SCITEGIC>MOL_PROPERTY
W(PB)
SciTegic.value.DoubleValue
-55.770

@<SCITEGIC>MOL_PROPERTY
W(SA)
SciTegic.value.DoubleValue
2.301

@<SCITEGIC>MOL_PROPERTY
Valence
SciTegic.value.DoubleValue
3.408

@<SCITEGIC>MOL_PROPERTY
Coulomb
SciTegic.value.DoubleValue
44.893

@<SCITEGIC>MOL_PROPERTY
VdW
SciTegic.value.DoubleValue
1.021

@<SCITEGIC>MOL_PROPERTY
VdW6
SciTegic.value.DoubleValue
-7.482

@<SCITEGIC>MOL_PROPERTY
VdW12
SciTegic.value.DoubleValue
8.503

@<SCITEGIC>MOL_PROPERTY
Bond
SciTegic.value.DoubleValue
0.239

@<SCITEGIC>MOL_PROPERTY
Angle
SciTegic.value.DoubleValue
1.013

@<SCITEGIC>MOL_PROPERTY
Pdih
SciTegic.value.DoubleValue
2.156

@<SCITEGIC>MOL_PROPERTY
Idih
SciTegic.value.DoubleValue
0.000

@<SCITEGIC>MOL_PROPERTY
Tether
SciTegic.value.DoubleValue
0.000

@<TRIPOS>MOLECULE
guest-s14_vm2.mol2 : vm2 ligand conformer 60
          26          25           1
SMALL
USER_CHARGES
 
@<TRIPOS>ATOM
       1    C1      19.576199   19.170623   19.268530 C.3        1 MOL1        -0.2400
       2    H1      20.209992   19.991668   18.908789 H          1 MOL1         0.0971
       3    H2      19.600234   18.372130   18.515621 H          1 MOL1         0.0971
       4    H3      18.544355   19.539381   19.335994 H          1 MOL1         0.0971
       5    C2      20.068029   18.646618   20.634494 C.3        1 MOL1        -0.1385
       6    H4      21.090674   18.258434   20.528637 H          1 MOL1         0.0960
       7    H5      19.436247   17.801998   20.939274 H          1 MOL1         0.0960
       8    C3      20.038706   19.754595   21.713897 C.3        1 MOL1        -0.1409
       9    H6      20.608044   20.620834   21.349416 H          1 MOL1         0.0960
      10    H7      19.007061   20.103630   21.859014 H          1 MOL1         0.0960
      11    C4      20.634941   19.314945   23.073860 C.3        1 MOL1        -0.1409
      12    H8      20.695214   20.200621   23.719813 H          1 MOL1         0.0960
      13    H9      21.667513   18.969227   22.927434 H          1 MOL1         0.0960
      14    C5      19.809788   18.211581   23.783888 C.3        1 MOL1        -0.1409
      15    H10     18.770059   18.543923   23.903515 H          1 MOL1         0.0960
      16    H11     19.773399   17.315005   23.151892 H          1 MOL1         0.0960
      17    C6      20.394714   17.803519   25.159651 C.3        1 MOL1        -0.1450
      18    H12     21.407171   17.402701   25.017731 H          1 MOL1         0.0960
      19    H13     19.797036   16.982734   25.577876 H          1 MOL1         0.0960
      20    C7      20.456917   18.953082   26.186056 C.3        1 MOL1         0.0172
      21    H14     20.898130   18.584958   27.116279 H          1 MOL1         0.0934
      22    H15     21.092352   19.756463   25.804909 H          1 MOL1         0.0934
      23    N1      19.101705   19.544038   26.520625 N.4        1 MOL1        -0.5956
      24    H16     19.174970   20.299233   27.210907 H          1 MOL1         0.3624
      25    H17     18.466287   18.841004   26.911629 H          1 MOL1         0.3624
      26    H18     18.646334   19.936897   25.690985 H          1 MOL1         0.3624
@<TRIPOS>BOND
    1     1     2    1
    2     1     3    1
    3     1     4    1
    4     1     5    1
    5     5     6    1
    6     5     7    1
    7     5     8    1
    8     8     9    1
    9     8    10    1
   10     8    11    1
   11    11    12    1
   12    11    13    1
   13    11    14    1
   14    14    15    1
   15    14    16    1
   16    14    17    1
   17    17    18    1
   18    17    19    1
   19    17    20    1
   20    20    21    1
   21    20    22    1
   22    20    23    1
   23    23    24    1
   24    23    25    1
   25    23    26    1
@<TRIPOS>SUBSTRUCTURE
       1 MOL1            1 RESIDUE      1      MOL     
@<SCITEGIC>MOL_PROPERTY
VM2 Rank
SciTegic.value.IntegerValue
60

@<SCITEGIC>MOL_PROPERTY
Conf_Id
SciTegic.value.IntegerValue
576

@<SCITEGIC>MOL_PROPERTY
Probability
SciTegic.value.DoubleValue
0.47

@<SCITEGIC>MOL_PROPERTY
Sum Probability
SciTegic.value.DoubleValue
88.31

@<SCITEGIC>MOL_PROPERTY
Delta G
SciTegic.value.DoubleValue
1.646

@<SCITEGIC>MOL_PROPERTY
G
SciTegic.value.DoubleValue
49.908

@<SCITEGIC>MOL_PROPERTY
E
SciTegic.value.DoubleValue
17.200

@<SCITEGIC>MOL_PROPERTY
-TS
SciTegic.value.DoubleValue
32.708

@<SCITEGIC>MOL_PROPERTY
U+W
SciTegic.value.DoubleValue
-4.262

@<SCITEGIC>MOL_PROPERTY
U
SciTegic.value.DoubleValue
49.425

@<SCITEGIC>MOL_PROPERTY
W
SciTegic.value.DoubleValue
-53.687

@<SCITEGIC>MOL_PROPERTY
W(PB)
SciTegic.value.DoubleValue
-55.969

@<SCITEGIC>MOL_PROPERTY
W(SA)
SciTegic.value.DoubleValue
2.283

@<SCITEGIC>MOL_PROPERTY
Valence
SciTegic.value.DoubleValue
3.135

@<SCITEGIC>MOL_PROPERTY
Coulomb
SciTegic.value.DoubleValue
45.468

@<SCITEGIC>MOL_PROPERTY
VdW
SciTegic.value.DoubleValue
0.822

@<SCITEGIC>MOL_PROPERTY
VdW6
SciTegic.value.DoubleValue
-7.705

@<SCITEGIC>MOL_PROPERTY
VdW12
SciTegic.value.DoubleValue
8.527

@<SCITEGIC>MOL_PROPERTY
Bond
SciTegic.value.DoubleValue
0.222

@<SCITEGIC>MOL_PROPERTY
Angle
SciTegic.value.DoubleValue
0.941

@<SCITEGIC>MOL_PROPERTY
Pdih
SciTegic.value.DoubleValue
1.972

@<SCITEGIC>MOL_PROPERTY
Idih
SciTegic.value.DoubleValue
0.000

@<SCITEGIC>MOL_PROPERTY
Tether
SciTegic.value.DoubleValue
0.000

@<TRIPOS>MOLECULE
guest-s14_vm2.mol2 : vm2 ligand conformer 61
          26          25           1
SMALL
USER_CHARGES
 
@<TRIPOS>ATOM
       1    C1      19.464932   18.844314   19.413791 C.3        1 MOL1        -0.2400
       2    H1      18.866015   19.764265   19.412637 H          1 MOL1         0.0971
       3    H2      19.735468   18.619006   18.374088 H          1 MOL1         0.0971
       4    H3      18.833813   18.022867   19.774461 H          1 MOL1         0.0971
       5    C2      20.735258   19.008931   20.278893 C.3        1 MOL1        -0.1385
       6    H4      21.391298   19.751342   19.803225 H          1 MOL1         0.0960
       7    H5      21.298707   18.065489   20.292703 H          1 MOL1         0.0960
       8    C3      20.441529   19.465026   21.728805 C.3        1 MOL1        -0.1409
       9    H6      21.400675   19.684844   22.214410 H          1 MOL1         0.0960
      10    H7      19.879931   20.409083   21.709159 H          1 MOL1         0.0960
      11    C4      19.666580   18.411966   22.561535 C.3        1 MOL1        -0.1409
      12    H8      20.229561   17.468805   22.584431 H          1 MOL1         0.0960
      13    H9      18.711676   18.189542   22.068276 H          1 MOL1         0.0960
      14    C5      19.359573   18.868515   24.009408 C.3        1 MOL1        -0.1409
      15    H10     18.809357   19.819395   23.986521 H          1 MOL1         0.0960
      16    H11     18.682748   18.131787   24.461845 H          1 MOL1         0.0960
      17    C6      20.621990   19.015971   24.895883 C.3        1 MOL1        -0.1450
      18    H12     21.283801   19.784231   24.477818 H          1 MOL1         0.0960
      19    H13     21.191785   18.077308   24.899318 H          1 MOL1         0.0960
      20    C7      20.286174   19.418290   26.345094 C.3        1 MOL1         0.0172
      21    H14     21.213896   19.602854   26.893567 H          1 MOL1         0.0934
      22    H15     19.701182   20.341974   26.344638 H          1 MOL1         0.0934
      23    N1      19.504966   18.365987   27.107590 N.4        1 MOL1        -0.5956
      24    H16     18.600895   18.170164   26.666957 H          1 MOL1         0.3624
      25    H17     19.311666   18.659439   28.071354 H          1 MOL1         0.3624
      26    H18     20.014694   17.478139   27.161628 H          1 MOL1         0.3624
@<TRIPOS>BOND
    1     1     2    1
    2     1     3    1
    3     1     4    1
    4     1     5    1
    5     5     6    1
    6     5     7    1
    7     5     8    1
    8     8     9    1
    9     8    10    1
   10     8    11    1
   11    11    12    1
   12    11    13    1
   13    11    14    1
   14    14    15    1
   15    14    16    1
   16    14    17    1
   17    17    18    1
   18    17    19    1
   19    17    20    1
   20    20    21    1
   21    20    22    1
   22    20    23    1
   23    23    24    1
   24    23    25    1
   25    23    26    1
@<TRIPOS>SUBSTRUCTURE
       1 MOL1            1 RESIDUE      1      MOL     
@<SCITEGIC>MOL_PROPERTY
VM2 Rank
SciTegic.value.IntegerValue
61

@<SCITEGIC>MOL_PROPERTY
Conf_Id
SciTegic.value.IntegerValue
1024

@<SCITEGIC>MOL_PROPERTY
Probability
SciTegic.value.DoubleValue
0.47

@<SCITEGIC>MOL_PROPERTY
Sum Probability
SciTegic.value.DoubleValue
88.78

@<SCITEGIC>MOL_PROPERTY
Delta G
SciTegic.value.DoubleValue
1.649

@<SCITEGIC>MOL_PROPERTY
G
SciTegic.value.DoubleValue
49.911

@<SCITEGIC>MOL_PROPERTY
E
SciTegic.value.DoubleValue
17.331

@<SCITEGIC>MOL_PROPERTY
-TS
SciTegic.value.DoubleValue
32.579

@<SCITEGIC>MOL_PROPERTY
U+W
SciTegic.value.DoubleValue
-4.131

@<SCITEGIC>MOL_PROPERTY
U
SciTegic.value.DoubleValue
49.323

@<SCITEGIC>MOL_PROPERTY
W
SciTegic.value.DoubleValue
-53.453

@<SCITEGIC>MOL_PROPERTY
W(PB)
SciTegic.value.DoubleValue
-55.749

@<SCITEGIC>MOL_PROPERTY
W(SA)
SciTegic.value.DoubleValue
2.296

@<SCITEGIC>MOL_PROPERTY
Valence
SciTegic.value.DoubleValue
3.408

@<SCITEGIC>MOL_PROPERTY
Coulomb
SciTegic.value.DoubleValue
44.893

@<SCITEGIC>MOL_PROPERTY
VdW
SciTegic.value.DoubleValue
1.021

@<SCITEGIC>MOL_PROPERTY
VdW6
SciTegic.value.DoubleValue
-7.481

@<SCITEGIC>MOL_PROPERTY
VdW12
SciTegic.value.DoubleValue
8.503

@<SCITEGIC>MOL_PROPERTY
Bond
SciTegic.value.DoubleValue
0.239

@<SCITEGIC>MOL_PROPERTY
Angle
SciTegic.value.DoubleValue
1.013

@<SCITEGIC>MOL_PROPERTY
Pdih
SciTegic.value.DoubleValue
2.156

@<SCITEGIC>MOL_PROPERTY
Idih
SciTegic.value.DoubleValue
0.000

@<SCITEGIC>MOL_PROPERTY
Tether
SciTegic.value.DoubleValue
0.000

@<TRIPOS>MOLECULE
guest-s14_vm2.mol2 : vm2 ligand conformer 62
          26          25           1
SMALL
USER_CHARGES
 
@<TRIPOS>ATOM
       1    C1      19.341654   19.834556   19.732974 C.3        1 MOL1        -0.2400
       2    H1      20.039628   19.535352   18.940184 H          1 MOL1         0.0971
       3    H2      18.326933   19.810360   19.314922 H          1 MOL1         0.0971
       4    H3      19.566309   20.872052   20.012859 H          1 MOL1         0.0971
       5    C2      19.450974   18.895266   20.952742 C.3        1 MOL1        -0.1385
       6    H4      19.192233   17.871311   20.649077 H          1 MOL1         0.0960
       7    H5      18.711991   19.201320   21.705166 H          1 MOL1         0.0960
       8    C3      20.872368   18.915519   21.562581 C.3        1 MOL1        -0.1409
       9    H6      21.601371   18.681348   20.774579 H          1 MOL1         0.0960
      10    H7      21.115956   19.930145   21.904044 H          1 MOL1         0.0960
      11    C4      21.066584   17.903021   22.721103 C.3        1 MOL1        -0.1409
      12    H8      22.105789   17.964854   23.072414 H          1 MOL1         0.0960
      13    H9      20.944080   16.884996   22.326343 H          1 MOL1         0.0960
      14    C5      20.115436   18.083462   23.932716 C.3        1 MOL1        -0.1409
      15    H10     19.076397   17.907798   23.624049 H          1 MOL1         0.0960
      16    H11     20.348413   17.299457   24.665182 H          1 MOL1         0.0960
      17    C6      20.232294   19.471595   24.610659 C.3        1 MOL1        -0.1450
      18    H12     19.958252   20.257413   23.895692 H          1 MOL1         0.0960
      19    H13     21.273321   19.661183   24.903956 H          1 MOL1         0.0960
      20    C7      19.316851   19.610380   25.842381 C.3        1 MOL1         0.0172
      21    H14     19.368121   20.636088   26.217673 H          1 MOL1         0.0934
      22    H15     18.281898   19.403228   25.557163 H          1 MOL1         0.0934
      23    N1      19.684839   18.685201   26.985843 N.4        1 MOL1        -0.5956
      24    H16     19.065764   18.813523   27.793658 H          1 MOL1         0.3624
      25    H17     20.642457   18.847694   27.313806 H          1 MOL1         0.3624
      26    H18     19.621104   17.699680   26.712883 H          1 MOL1         0.3624
@<TRIPOS>BOND
    1     1     2    1
    2     1     3    1
    3     1     4    1
    4     1     5    1
    5     5     6    1
    6     5     7    1
    7     5     8    1
    8     8     9    1
    9     8    10    1
   10     8    11    1
   11    11    12    1
   12    11    13    1
   13    11    14    1
   14    14    15    1
   15    14    16    1
   16    14    17    1
   17    17    18    1
   18    17    19    1
   19    17    20    1
   20    20    21    1
   21    20    22    1
   22    20    23    1
   23    23    24    1
   24    23    25    1
   25    23    26    1
@<TRIPOS>SUBSTRUCTURE
       1 MOL1            1 RESIDUE      1      MOL     
@<SCITEGIC>MOL_PROPERTY
VM2 Rank
SciTegic.value.IntegerValue
62

@<SCITEGIC>MOL_PROPERTY
Conf_Id
SciTegic.value.IntegerValue
428

@<SCITEGIC>MOL_PROPERTY
Probability
SciTegic.value.DoubleValue
0.46

@<SCITEGIC>MOL_PROPERTY
Sum Probability
SciTegic.value.DoubleValue
89.25

@<SCITEGIC>MOL_PROPERTY
Delta G
SciTegic.value.DoubleValue
1.655

@<SCITEGIC>MOL_PROPERTY
G
SciTegic.value.DoubleValue
49.917

@<SCITEGIC>MOL_PROPERTY
E
SciTegic.value.DoubleValue
17.026

@<SCITEGIC>MOL_PROPERTY
-TS
SciTegic.value.DoubleValue
32.890

@<SCITEGIC>MOL_PROPERTY
U+W
SciTegic.value.DoubleValue
-4.435

@<SCITEGIC>MOL_PROPERTY
U
SciTegic.value.DoubleValue
49.231

@<SCITEGIC>MOL_PROPERTY
W
SciTegic.value.DoubleValue
-53.666

@<SCITEGIC>MOL_PROPERTY
W(PB)
SciTegic.value.DoubleValue
-55.963

@<SCITEGIC>MOL_PROPERTY
W(SA)
SciTegic.value.DoubleValue
2.296

@<SCITEGIC>MOL_PROPERTY
Valence
SciTegic.value.DoubleValue
3.277

@<SCITEGIC>MOL_PROPERTY
Coulomb
SciTegic.value.DoubleValue
45.175

@<SCITEGIC>MOL_PROPERTY
VdW
SciTegic.value.DoubleValue
0.779

@<SCITEGIC>MOL_PROPERTY
VdW6
SciTegic.value.DoubleValue
-7.944

@<SCITEGIC>MOL_PROPERTY
VdW12
SciTegic.value.DoubleValue
8.723

@<SCITEGIC>MOL_PROPERTY
Bond
SciTegic.value.DoubleValue
0.239

@<SCITEGIC>MOL_PROPERTY
Angle
SciTegic.value.DoubleValue
1.155

@<SCITEGIC>MOL_PROPERTY
Pdih
SciTegic.value.DoubleValue
1.883

@<SCITEGIC>MOL_PROPERTY
Idih
SciTegic.value.DoubleValue
0.000

@<SCITEGIC>MOL_PROPERTY
Tether
SciTegic.value.DoubleValue
0.000

@<TRIPOS>MOLECULE
guest-s14_vm2.mol2 : vm2 ligand conformer 63
          26          25           1
SMALL
USER_CHARGES
 
@<TRIPOS>ATOM
       1    C1      20.919172   20.087476   20.085935 C.3        1 MOL1        -0.2400
       2    H1      20.483172   21.051160   20.379906 H          1 MOL1         0.0971
       3    H2      21.981084   20.252237   19.861872 H          1 MOL1         0.0971
       4    H3      20.427341   19.757246   19.161676 H          1 MOL1         0.0971
       5    C2      20.755064   19.039728   21.207218 C.3        1 MOL1        -0.1385
       6    H4      21.292539   19.386479   22.099751 H          1 MOL1         0.0960
       7    H5      21.226116   18.096575   20.897049 H          1 MOL1         0.0960
       8    C3      19.265563   18.793360   21.543969 C.3        1 MOL1        -0.1409
       9    H6      18.804534   19.726594   21.893377 H          1 MOL1         0.0960
      10    H7      18.732218   18.521237   20.622716 H          1 MOL1         0.0960
      11    C4      19.041968   17.667444   22.586601 C.3        1 MOL1        -0.1409
      12    H8      19.402062   16.717741   22.167555 H          1 MOL1         0.0960
      13    H9      17.961595   17.537400   22.738479 H          1 MOL1         0.0960
      14    C5      19.719359   17.893155   23.963024 C.3        1 MOL1        -0.1409
      15    H10     19.488783   17.032987   24.606772 H          1 MOL1         0.0960
      16    H11     20.810101   17.896271   23.842378 H          1 MOL1         0.0960
      17    C6      19.256872   19.189907   24.672799 C.3        1 MOL1        -0.1450
      18    H12     18.159885   19.208592   24.717334 H          1 MOL1         0.0960
      19    H13     19.564233   20.072285   24.097221 H          1 MOL1         0.0960
      20    C7      19.806273   19.307563   26.107371 C.3        1 MOL1         0.0172
      21    H14     19.385630   20.196424   26.585407 H          1 MOL1         0.0934
      22    H15     19.505368   18.432514   26.689716 H          1 MOL1         0.0934
      23    N1      21.316728   19.420366   26.174085 N.4        1 MOL1        -0.5956
      24    H16     21.660199   20.240318   25.663645 H          1 MOL1         0.3624
      25    H17     21.776610   18.597554   25.772416 H          1 MOL1         0.3624
      26    H18     21.649140   19.508199   27.140571 H          1 MOL1         0.3624
@<TRIPOS>BOND
    1     1     2    1
    2     1     3    1
    3     1     4    1
    4     1     5    1
    5     5     6    1
    6     5     7    1
    7     5     8    1
    8     8     9    1
    9     8    10    1
   10     8    11    1
   11    11    12    1
   12    11    13    1
   13    11    14    1
   14    14    15    1
   15    14    16    1
   16    14    17    1
   17    17    18    1
   18    17    19    1
   19    17    20    1
   20    20    21    1
   21    20    22    1
   22    20    23    1
   23    23    24    1
   24    23    25    1
   25    23    26    1
@<TRIPOS>SUBSTRUCTURE
       1 MOL1            1 RESIDUE      1      MOL     
@<SCITEGIC>MOL_PROPERTY
VM2 Rank
SciTegic.value.IntegerValue
63

@<SCITEGIC>MOL_PROPERTY
Conf_Id
SciTegic.value.IntegerValue
550

@<SCITEGIC>MOL_PROPERTY
Probability
SciTegic.value.DoubleValue
0.46

@<SCITEGIC>MOL_PROPERTY
Sum Probability
SciTegic.value.DoubleValue
89.70

@<SCITEGIC>MOL_PROPERTY
Delta G
SciTegic.value.DoubleValue
1.663

@<SCITEGIC>MOL_PROPERTY
G
SciTegic.value.DoubleValue
49.924

@<SCITEGIC>MOL_PROPERTY
E
SciTegic.value.DoubleValue
17.019

@<SCITEGIC>MOL_PROPERTY
-TS
SciTegic.value.DoubleValue
32.905

@<SCITEGIC>MOL_PROPERTY
U+W
SciTegic.value.DoubleValue
-4.443

@<SCITEGIC>MOL_PROPERTY
U
SciTegic.value.DoubleValue
49.678

@<SCITEGIC>MOL_PROPERTY
W
SciTegic.value.DoubleValue
-54.121

@<SCITEGIC>MOL_PROPERTY
W(PB)
SciTegic.value.DoubleValue
-56.391

@<SCITEGIC>MOL_PROPERTY
W(SA)
SciTegic.value.DoubleValue
2.271

@<SCITEGIC>MOL_PROPERTY
Valence
SciTegic.value.DoubleValue
3.238

@<SCITEGIC>MOL_PROPERTY
Coulomb
SciTegic.value.DoubleValue
45.761

@<SCITEGIC>MOL_PROPERTY
VdW
SciTegic.value.DoubleValue
0.679

@<SCITEGIC>MOL_PROPERTY
VdW6
SciTegic.value.DoubleValue
-8.038

@<SCITEGIC>MOL_PROPERTY
VdW12
SciTegic.value.DoubleValue
8.716

@<SCITEGIC>MOL_PROPERTY
Bond
SciTegic.value.DoubleValue
0.233

@<SCITEGIC>MOL_PROPERTY
Angle
SciTegic.value.DoubleValue
1.079

@<SCITEGIC>MOL_PROPERTY
Pdih
SciTegic.value.DoubleValue
1.925

@<SCITEGIC>MOL_PROPERTY
Idih
SciTegic.value.DoubleValue
0.000

@<SCITEGIC>MOL_PROPERTY
Tether
SciTegic.value.DoubleValue
0.000

@<TRIPOS>MOLECULE
guest-s14_vm2.mol2 : vm2 ligand conformer 64
          26          25           1
SMALL
USER_CHARGES
 
@<TRIPOS>ATOM
       1    C1      18.562513   18.996151   20.440911 C.3        1 MOL1        -0.2400
       2    H1      18.464071   20.026798   20.803634 H          1 MOL1         0.0971
       3    H2      18.182911   18.971152   19.411256 H          1 MOL1         0.0971
       4    H3      17.916855   18.352636   21.052487 H          1 MOL1         0.0971
       5    C2      20.030764   18.515725   20.487808 C.3        1 MOL1        -0.1385
       6    H4      20.660144   19.191079   19.891567 H          1 MOL1         0.0960
       7    H5      20.096621   17.529704   20.006987 H          1 MOL1         0.0960
       8    C3      20.594261   18.406427   21.925000 C.3        1 MOL1        -0.1409
       9    H6      19.971873   17.709411   22.501480 H          1 MOL1         0.0960
      10    H7      21.597077   17.960404   21.874882 H          1 MOL1         0.0960
      11    C4      20.682815   19.770386   22.654826 C.3        1 MOL1        -0.1409
      12    H8      19.677330   20.183603   22.805199 H          1 MOL1         0.0960
      13    H9      21.212676   20.486453   22.011738 H          1 MOL1         0.0960
      14    C5      21.422302   19.694657   24.015599 C.3        1 MOL1        -0.1409
      15    H10     22.463338   19.388221   23.843661 H          1 MOL1         0.0960
      16    H11     21.472048   20.704327   24.446318 H          1 MOL1         0.0960
      17    C6      20.781148   18.738344   25.051923 C.3        1 MOL1        -0.1450
      18    H12     21.364050   18.781597   25.981529 H          1 MOL1         0.0960
      19    H13     20.845452   17.701854   24.696946 H          1 MOL1         0.0960
      20    C7      19.314130   19.091133   25.360329 C.3        1 MOL1         0.0172
      21    H14     19.251935   20.120115   25.724561 H          1 MOL1         0.0934
      22    H15     18.716258   19.011301   24.448612 H          1 MOL1         0.0934
      23    N1      18.693067   18.186177   26.404603 N.4        1 MOL1        -0.5956
      24    H16     19.193210   18.235076   27.298259 H          1 MOL1         0.3624
      25    H17     18.696380   17.204178   26.110165 H          1 MOL1         0.3624
      26    H18     17.716975   18.437878   26.594857 H          1 MOL1         0.3624
@<TRIPOS>BOND
    1     1     2    1
    2     1     3    1
    3     1     4    1
    4     1     5    1
    5     5     6    1
    6     5     7    1
    7     5     8    1
    8     8     9    1
    9     8    10    1
   10     8    11    1
   11    11    12    1
   12    11    13    1
   13    11    14    1
   14    14    15    1
   15    14    16    1
   16    14    17    1
   17    17    18    1
   18    17    19    1
   19    17    20    1
   20    20    21    1
   21    20    22    1
   22    20    23    1
   23    23    24    1
   24    23    25    1
   25    23    26    1
@<TRIPOS>SUBSTRUCTURE
       1 MOL1            1 RESIDUE      1      MOL     
@<SCITEGIC>MOL_PROPERTY
VM2 Rank
SciTegic.value.IntegerValue
64

@<SCITEGIC>MOL_PROPERTY
Conf_Id
SciTegic.value.IntegerValue
118

@<SCITEGIC>MOL_PROPERTY
Probability
SciTegic.value.DoubleValue
0.46

@<SCITEGIC>MOL_PROPERTY
Sum Probability
SciTegic.value.DoubleValue
90.16

@<SCITEGIC>MOL_PROPERTY
Delta G
SciTegic.value.DoubleValue
1.665

@<SCITEGIC>MOL_PROPERTY
G
SciTegic.value.DoubleValue
49.926

@<SCITEGIC>MOL_PROPERTY
E
SciTegic.value.DoubleValue
17.106

@<SCITEGIC>MOL_PROPERTY
-TS
SciTegic.value.DoubleValue
32.821

@<SCITEGIC>MOL_PROPERTY
U+W
SciTegic.value.DoubleValue
-4.356

@<SCITEGIC>MOL_PROPERTY
U
SciTegic.value.DoubleValue
49.567

@<SCITEGIC>MOL_PROPERTY
W
SciTegic.value.DoubleValue
-53.923

@<SCITEGIC>MOL_PROPERTY
W(PB)
SciTegic.value.DoubleValue
-56.210

@<SCITEGIC>MOL_PROPERTY
W(SA)
SciTegic.value.DoubleValue
2.287

@<SCITEGIC>MOL_PROPERTY
Valence
SciTegic.value.DoubleValue
3.380

@<SCITEGIC>MOL_PROPERTY
Coulomb
SciTegic.value.DoubleValue
45.516

@<SCITEGIC>MOL_PROPERTY
VdW
SciTegic.value.DoubleValue
0.670

@<SCITEGIC>MOL_PROPERTY
VdW6
SciTegic.value.DoubleValue
-8.071

@<SCITEGIC>MOL_PROPERTY
VdW12
SciTegic.value.DoubleValue
8.742

@<SCITEGIC>MOL_PROPERTY
Bond
SciTegic.value.DoubleValue
0.231

@<SCITEGIC>MOL_PROPERTY
Angle
SciTegic.value.DoubleValue
1.069

@<SCITEGIC>MOL_PROPERTY
Pdih
SciTegic.value.DoubleValue
2.080

@<SCITEGIC>MOL_PROPERTY
Idih
SciTegic.value.DoubleValue
0.000

@<SCITEGIC>MOL_PROPERTY
Tether
SciTegic.value.DoubleValue
0.000

@<TRIPOS>MOLECULE
guest-s14_vm2.mol2 : vm2 ligand conformer 65
          26          25           1
SMALL
USER_CHARGES
 
@<TRIPOS>ATOM
       1    C1      19.945070   19.622237   19.485210 C.3        1 MOL1        -0.2400
       2    H1      20.029349   19.383195   18.417179 H          1 MOL1         0.0971
       3    H2      18.877548   19.723882   19.715964 H          1 MOL1         0.0971
       4    H3      20.427517   20.594333   19.650393 H          1 MOL1         0.0971
       5    C2      20.610027   18.519145   20.339727 C.3        1 MOL1        -0.1385
       6    H4      21.638447   18.368926   19.982521 H          1 MOL1         0.0960
       7    H5      20.088244   17.564656   20.183397 H          1 MOL1         0.0960
       8    C3      20.654549   18.850426   21.851244 C.3        1 MOL1        -0.1409
       9    H6      21.259230   18.081371   22.348583 H          1 MOL1         0.0960
      10    H7      21.179461   19.803690   22.002128 H          1 MOL1         0.0960
      11    C4      19.253048   18.914375   22.510171 C.3        1 MOL1        -0.1409
      12    H8      18.728423   17.960854   22.359904 H          1 MOL1         0.0960
      13    H9      18.648848   19.681604   22.009221 H          1 MOL1         0.0960
      14    C5      19.295527   19.251113   24.021170 C.3        1 MOL1        -0.1409
      15    H10     19.815499   20.207722   24.164786 H          1 MOL1         0.0960
      16    H11     18.265236   19.403016   24.371924 H          1 MOL1         0.0960
      17    C6      19.960385   18.148994   24.883465 C.3        1 MOL1        -0.1450
      18    H12     21.023926   18.052292   24.631916 H          1 MOL1         0.0960
      19    H13     19.493714   17.180489   24.659910 H          1 MOL1         0.0960
      20    C7      19.824205   18.418667   26.394333 C.3        1 MOL1         0.0172
      21    H14     18.767266   18.513466   26.657554 H          1 MOL1         0.0934
      22    H15     20.240426   17.575701   26.952650 H          1 MOL1         0.0934
      23    N1      20.538188   19.674043   26.855679 N.4        1 MOL1        -0.5956
      24    H16     20.169929   20.511274   26.393735 H          1 MOL1         0.3624
      25    H17     21.543198   19.635259   26.657209 H          1 MOL1         0.3624
      26    H18     20.437646   19.819693   27.866113 H          1 MOL1         0.3624
@<TRIPOS>BOND
    1     1     2    1
    2     1     3    1
    3     1     4    1
    4     1     5    1
    5     5     6    1
    6     5     7    1
    7     5     8    1
    8     8     9    1
    9     8    10    1
   10     8    11    1
   11    11    12    1
   12    11    13    1
   13    11    14    1
   14    14    15    1
   15    14    16    1
   16    14    17    1
   17    17    18    1
   18    17    19    1
   19    17    20    1
   20    20    21    1
   21    20    22    1
   22    20    23    1
   23    23    24    1
   24    23    25    1
   25    23    26    1
@<TRIPOS>SUBSTRUCTURE
       1 MOL1            1 RESIDUE      1      MOL     
@<SCITEGIC>MOL_PROPERTY
VM2 Rank
SciTegic.value.IntegerValue
65

@<SCITEGIC>MOL_PROPERTY
Conf_Id
SciTegic.value.IntegerValue
215

@<SCITEGIC>MOL_PROPERTY
Probability
SciTegic.value.DoubleValue
0.45

@<SCITEGIC>MOL_PROPERTY
Sum Probability
SciTegic.value.DoubleValue
90.61

@<SCITEGIC>MOL_PROPERTY
Delta G
SciTegic.value.DoubleValue
1.669

@<SCITEGIC>MOL_PROPERTY
G
SciTegic.value.DoubleValue
49.930

@<SCITEGIC>MOL_PROPERTY
E
SciTegic.value.DoubleValue
17.305

@<SCITEGIC>MOL_PROPERTY
-TS
SciTegic.value.DoubleValue
32.626

@<SCITEGIC>MOL_PROPERTY
U+W
SciTegic.value.DoubleValue
-4.157

@<SCITEGIC>MOL_PROPERTY
U
SciTegic.value.DoubleValue
49.401

@<SCITEGIC>MOL_PROPERTY
W
SciTegic.value.DoubleValue
-53.558

@<SCITEGIC>MOL_PROPERTY
W(PB)
SciTegic.value.DoubleValue
-55.887

@<SCITEGIC>MOL_PROPERTY
W(SA)
SciTegic.value.DoubleValue
2.328

@<SCITEGIC>MOL_PROPERTY
Valence
SciTegic.value.DoubleValue
3.370

@<SCITEGIC>MOL_PROPERTY
Coulomb
SciTegic.value.DoubleValue
45.066

@<SCITEGIC>MOL_PROPERTY
VdW
SciTegic.value.DoubleValue
0.965

@<SCITEGIC>MOL_PROPERTY
VdW6
SciTegic.value.DoubleValue
-7.528

@<SCITEGIC>MOL_PROPERTY
VdW12
SciTegic.value.DoubleValue
8.494

@<SCITEGIC>MOL_PROPERTY
Bond
SciTegic.value.DoubleValue
0.232

@<SCITEGIC>MOL_PROPERTY
Angle
SciTegic.value.DoubleValue
0.963

@<SCITEGIC>MOL_PROPERTY
Pdih
SciTegic.value.DoubleValue
2.174

@<SCITEGIC>MOL_PROPERTY
Idih
SciTegic.value.DoubleValue
0.000

@<SCITEGIC>MOL_PROPERTY
Tether
SciTegic.value.DoubleValue
0.000

@<TRIPOS>MOLECULE
guest-s14_vm2.mol2 : vm2 ligand conformer 66
          26          25           1
SMALL
USER_CHARGES
 
@<TRIPOS>ATOM
       1    C1      20.141331   19.543624   19.287332 C.3        1 MOL1        -0.2400
       2    H1      19.155264   19.295182   18.873603 H          1 MOL1         0.0971
       3    H2      20.203617   20.634756   19.391207 H          1 MOL1         0.0971
       4    H3      20.900572   19.230481   18.558955 H          1 MOL1         0.0971
       5    C2      20.366751   18.843813   20.644457 C.3        1 MOL1        -0.1385
       6    H4      21.376237   19.082805   21.003962 H          1 MOL1         0.0960
       7    H5      20.327698   17.754669   20.503262 H          1 MOL1         0.0960
       8    C3      19.310037   19.273549   21.689570 C.3        1 MOL1        -0.1409
       9    H6      19.386806   20.354350   21.871648 H          1 MOL1         0.0960
      10    H7      18.307922   19.102320   21.272665 H          1 MOL1         0.0960
      11    C4      19.417241   18.511066   23.033223 C.3        1 MOL1        -0.1409
      12    H8      19.337265   17.430752   22.849670 H          1 MOL1         0.0960
      13    H9      18.549728   18.784176   23.648154 H          1 MOL1         0.0960
      14    C5      20.721324   18.813633   23.814405 C.3        1 MOL1        -0.1409
      15    H10     21.588870   18.514023   23.212582 H          1 MOL1         0.0960
      16    H11     20.817544   19.896072   23.972104 H          1 MOL1         0.0960
      17    C6      20.803255   18.073295   25.173288 C.3        1 MOL1        -0.1450
      18    H12     21.772054   18.287065   25.643977 H          1 MOL1         0.0960
      19    H13     20.781861   16.989681   24.996692 H          1 MOL1         0.0960
      20    C7      19.674619   18.436308   26.159833 C.3        1 MOL1         0.0172
      21    H14     18.705313   18.179831   25.724935 H          1 MOL1         0.0934
      22    H15     19.796857   17.857482   27.079351 H          1 MOL1         0.0934
      23    N1      19.646443   19.903712   26.538892 N.4        1 MOL1        -0.5956
      24    H16     19.502373   20.502168   25.719685 H          1 MOL1         0.3624
      25    H17     20.523042   20.199298   26.980590 H          1 MOL1         0.3624
      26    H18     18.891526   20.111930   27.201403 H          1 MOL1         0.3624
@<TRIPOS>BOND
    1     1     2    1
    2     1     3    1
    3     1     4    1
    4     1     5    1
    5     5     6    1
    6     5     7    1
    7     5     8    1
    8     8     9    1
    9     8    10    1
   10     8    11    1
   11    11    12    1
   12    11    13    1
   13    11    14    1
   14    14    15    1
   15    14    16    1
   16    14    17    1
   17    17    18    1
   18    17    19    1
   19    17    20    1
   20    20    21    1
   21    20    22    1
   22    20    23    1
   23    23    24    1
   24    23    25    1
   25    23    26    1
@<TRIPOS>SUBSTRUCTURE
       1 MOL1            1 RESIDUE      1      MOL     
@<SCITEGIC>MOL_PROPERTY
VM2 Rank
SciTegic.value.IntegerValue
66

@<SCITEGIC>MOL_PROPERTY
Conf_Id
SciTegic.value.IntegerValue
273

@<SCITEGIC>MOL_PROPERTY
Probability
SciTegic.value.DoubleValue
0.45

@<SCITEGIC>MOL_PROPERTY
Sum Probability
SciTegic.value.DoubleValue
91.06

@<SCITEGIC>MOL_PROPERTY
Delta G
SciTegic.value.DoubleValue
1.676

@<SCITEGIC>MOL_PROPERTY
G
SciTegic.value.DoubleValue
49.937

@<SCITEGIC>MOL_PROPERTY
E
SciTegic.value.DoubleValue
17.230

@<SCITEGIC>MOL_PROPERTY
-TS
SciTegic.value.DoubleValue
32.707

@<SCITEGIC>MOL_PROPERTY
U+W
SciTegic.value.DoubleValue
-4.232

@<SCITEGIC>MOL_PROPERTY
U
SciTegic.value.DoubleValue
49.425

@<SCITEGIC>MOL_PROPERTY
W
SciTegic.value.DoubleValue
-53.657

@<SCITEGIC>MOL_PROPERTY
W(PB)
SciTegic.value.DoubleValue
-55.945

@<SCITEGIC>MOL_PROPERTY
W(SA)
SciTegic.value.DoubleValue
2.288

@<SCITEGIC>MOL_PROPERTY
Valence
SciTegic.value.DoubleValue
3.135

@<SCITEGIC>MOL_PROPERTY
Coulomb
SciTegic.value.DoubleValue
45.468

@<SCITEGIC>MOL_PROPERTY
VdW
SciTegic.value.DoubleValue
0.822

@<SCITEGIC>MOL_PROPERTY
VdW6
SciTegic.value.DoubleValue
-7.705

@<SCITEGIC>MOL_PROPERTY
VdW12
SciTegic.value.DoubleValue
8.527

@<SCITEGIC>MOL_PROPERTY
Bond
SciTegic.value.DoubleValue
0.222

@<SCITEGIC>MOL_PROPERTY
Angle
SciTegic.value.DoubleValue
0.941

@<SCITEGIC>MOL_PROPERTY
Pdih
SciTegic.value.DoubleValue
1.972

@<SCITEGIC>MOL_PROPERTY
Idih
SciTegic.value.DoubleValue
0.000

@<SCITEGIC>MOL_PROPERTY
Tether
SciTegic.value.DoubleValue
0.000

@<TRIPOS>MOLECULE
guest-s14_vm2.mol2 : vm2 ligand conformer 67
          26          25           1
SMALL
USER_CHARGES
 
@<TRIPOS>ATOM
       1    C1      20.346590   18.263704   19.485371 C.3        1 MOL1        -0.2400
       2    H1      19.372906   18.558835   19.072966 H          1 MOL1         0.0971
       3    H2      21.112063   18.928403   19.064128 H          1 MOL1         0.0971
       4    H3      20.562018   17.243013   19.143595 H          1 MOL1         0.0971
       5    C2      20.339203   18.331976   21.027276 C.3        1 MOL1        -0.1385
       6    H4      21.315272   18.003455   21.410668 H          1 MOL1         0.0960
       7    H5      19.591256   17.625628   21.411085 H          1 MOL1         0.0960
       8    C3      20.033352   19.761674   21.532894 C.3        1 MOL1        -0.1409
       9    H6      20.745825   20.461974   21.075404 H          1 MOL1         0.0960
      10    H7      19.035816   20.070270   21.190949 H          1 MOL1         0.0960
      11    C4      20.122923   19.906397   23.071830 C.3        1 MOL1        -0.1409
      12    H8      20.007256   20.968507   23.328336 H          1 MOL1         0.0960
      13    H9      21.128716   19.616147   23.403680 H          1 MOL1         0.0960
      14    C5      19.050916   19.085126   23.831912 C.3        1 MOL1        -0.1409
      15    H10     18.059219   19.319340   23.421027 H          1 MOL1         0.0960
      16    H11     19.206125   18.011834   23.664874 H          1 MOL1         0.0960
      17    C6      19.034419   19.373021   25.354090 C.3        1 MOL1        -0.1450
      18    H12     18.232875   18.789161   25.825721 H          1 MOL1         0.0960
      19    H13     18.782077   20.428752   25.520253 H          1 MOL1         0.0960
      20    C7      20.368435   19.065864   26.064346 C.3        1 MOL1         0.0172
      21    H14     21.166421   19.674749   25.631694 H          1 MOL1         0.0934
      22    H15     20.282849   19.321894   27.123883 H          1 MOL1         0.0934
      23    N1      20.785161   17.611238   25.973280 N.4        1 MOL1        -0.5956
      24    H16     20.912487   17.315606   25.000526 H          1 MOL1         0.3624
      25    H17     20.086100   16.988696   26.391229 H          1 MOL1         0.3624
      26    H18     21.670991   17.437416   26.460408 H          1 MOL1         0.3624
@<TRIPOS>BOND
    1     1     2    1
    2     1     3    1
    3     1     4    1
    4     1     5    1
    5     5     6    1
    6     5     7    1
    7     5     8    1
    8     8     9    1
    9     8    10    1
   10     8    11    1
   11    11    12    1
   12    11    13    1
   13    11    14    1
   14    14    15    1
   15    14    16    1
   16    14    17    1
   17    17    18    1
   18    17    19    1
   19    17    20    1
   20    20    21    1
   21    20    22    1
   22    20    23    1
   23    23    24    1
   24    23    25    1
   25    23    26    1
@<TRIPOS>SUBSTRUCTURE
       1 MOL1            1 RESIDUE      1      MOL     
@<SCITEGIC>MOL_PROPERTY
VM2 Rank
SciTegic.value.IntegerValue
67

@<SCITEGIC>MOL_PROPERTY
Conf_Id
SciTegic.value.IntegerValue
813

@<SCITEGIC>MOL_PROPERTY
Probability
SciTegic.value.DoubleValue
0.43

@<SCITEGIC>MOL_PROPERTY
Sum Probability
SciTegic.value.DoubleValue
91.49

@<SCITEGIC>MOL_PROPERTY
Delta G
SciTegic.value.DoubleValue
1.697

@<SCITEGIC>MOL_PROPERTY
G
SciTegic.value.DoubleValue
49.958

@<SCITEGIC>MOL_PROPERTY
E
SciTegic.value.DoubleValue
17.207

@<SCITEGIC>MOL_PROPERTY
-TS
SciTegic.value.DoubleValue
32.751

@<SCITEGIC>MOL_PROPERTY
U+W
SciTegic.value.DoubleValue
-4.254

@<SCITEGIC>MOL_PROPERTY
U
SciTegic.value.DoubleValue
49.692

@<SCITEGIC>MOL_PROPERTY
W
SciTegic.value.DoubleValue
-53.946

@<SCITEGIC>MOL_PROPERTY
W(PB)
SciTegic.value.DoubleValue
-56.227

@<SCITEGIC>MOL_PROPERTY
W(SA)
SciTegic.value.DoubleValue
2.281

@<SCITEGIC>MOL_PROPERTY
Valence
SciTegic.value.DoubleValue
3.067

@<SCITEGIC>MOL_PROPERTY
Coulomb
SciTegic.value.DoubleValue
45.913

@<SCITEGIC>MOL_PROPERTY
VdW
SciTegic.value.DoubleValue
0.712

@<SCITEGIC>MOL_PROPERTY
VdW6
SciTegic.value.DoubleValue
-7.810

@<SCITEGIC>MOL_PROPERTY
VdW12
SciTegic.value.DoubleValue
8.523

@<SCITEGIC>MOL_PROPERTY
Bond
SciTegic.value.DoubleValue
0.215

@<SCITEGIC>MOL_PROPERTY
Angle
SciTegic.value.DoubleValue
0.854

@<SCITEGIC>MOL_PROPERTY
Pdih
SciTegic.value.DoubleValue
1.997

@<SCITEGIC>MOL_PROPERTY
Idih
SciTegic.value.DoubleValue
0.000

@<SCITEGIC>MOL_PROPERTY
Tether
SciTegic.value.DoubleValue
0.000

@<TRIPOS>MOLECULE
guest-s14_vm2.mol2 : vm2 ligand conformer 68
          26          25           1
SMALL
USER_CHARGES
 
@<TRIPOS>ATOM
       1    C1      18.883008   18.473857   19.956647 C.3        1 MOL1        -0.2400
       2    H1      17.955114   18.237931   20.493816 H          1 MOL1         0.0971
       3    H2      18.727472   19.406276   19.398433 H          1 MOL1         0.0971
       4    H3      19.064515   17.672152   19.229094 H          1 MOL1         0.0971
       5    C2      20.071266   18.602853   20.933050 C.3        1 MOL1        -0.1385
       6    H4      20.989324   18.808716   20.365228 H          1 MOL1         0.0960
       7    H5      20.220498   17.641394   21.442122 H          1 MOL1         0.0960
       8    C3      19.837037   19.725427   21.971051 C.3        1 MOL1        -0.1409
       9    H6      19.624770   20.663373   21.439652 H          1 MOL1         0.0960
      10    H7      18.938217   19.503977   22.561498 H          1 MOL1         0.0960
      11    C4      21.046477   19.960882   22.912257 C.3        1 MOL1        -0.1409
      12    H8      20.818810   20.805629   23.576265 H          1 MOL1         0.0960
      13    H9      21.907236   20.283333   22.310355 H          1 MOL1         0.0960
      14    C5      21.470005   18.735610   23.766698 C.3        1 MOL1        -0.1409
      15    H10     21.865955   17.948786   23.110992 H          1 MOL1         0.0960
      16    H11     22.308797   19.032153   24.411555 H          1 MOL1         0.0960
      17    C6      20.346324   18.140405   24.650905 C.3        1 MOL1        -0.1450
      18    H12     20.754885   17.297182   25.223443 H          1 MOL1         0.0960
      19    H13     19.550335   17.726578   24.018730 H          1 MOL1         0.0960
      20    C7      19.750754   19.171197   25.627667 C.3        1 MOL1         0.0172
      21    H14     20.542050   19.572420   26.266567 H          1 MOL1         0.0934
      22    H15     19.308512   19.998376   25.066307 H          1 MOL1         0.0934
      23    N1      18.676129   18.588769   26.522723 N.4        1 MOL1        -0.5956
      24    H16     19.034894   17.821300   27.100152 H          1 MOL1         0.3624
      25    H17     17.888317   18.217131   25.982128 H          1 MOL1         0.3624
      26    H18     18.293183   19.291265   27.164725 H          1 MOL1         0.3624
@<TRIPOS>BOND
    1     1     2    1
    2     1     3    1
    3     1     4    1
    4     1     5    1
    5     5     6    1
    6     5     7    1
    7     5     8    1
    8     8     9    1
    9     8    10    1
   10     8    11    1
   11    11    12    1
   12    11    13    1
   13    11    14    1
   14    14    15    1
   15    14    16    1
   16    14    17    1
   17    17    18    1
   18    17    19    1
   19    17    20    1
   20    20    21    1
   21    20    22    1
   22    20    23    1
   23    23    24    1
   24    23    25    1
   25    23    26    1
@<TRIPOS>SUBSTRUCTURE
       1 MOL1            1 RESIDUE      1      MOL     
@<SCITEGIC>MOL_PROPERTY
VM2 Rank
SciTegic.value.IntegerValue
68

@<SCITEGIC>MOL_PROPERTY
Conf_Id
SciTegic.value.IntegerValue
83

@<SCITEGIC>MOL_PROPERTY
Probability
SciTegic.value.DoubleValue
0.43

@<SCITEGIC>MOL_PROPERTY
Sum Probability
SciTegic.value.DoubleValue
91.92

@<SCITEGIC>MOL_PROPERTY
Delta G
SciTegic.value.DoubleValue
1.702

@<SCITEGIC>MOL_PROPERTY
G
SciTegic.value.DoubleValue
49.963

@<SCITEGIC>MOL_PROPERTY
E
SciTegic.value.DoubleValue
16.926

@<SCITEGIC>MOL_PROPERTY
-TS
SciTegic.value.DoubleValue
33.038

@<SCITEGIC>MOL_PROPERTY
U+W
SciTegic.value.DoubleValue
-4.536

@<SCITEGIC>MOL_PROPERTY
U
SciTegic.value.DoubleValue
49.453

@<SCITEGIC>MOL_PROPERTY
W
SciTegic.value.DoubleValue
-53.989

@<SCITEGIC>MOL_PROPERTY
W(PB)
SciTegic.value.DoubleValue
-56.276

@<SCITEGIC>MOL_PROPERTY
W(SA)
SciTegic.value.DoubleValue
2.286

@<SCITEGIC>MOL_PROPERTY
Valence
SciTegic.value.DoubleValue
3.376

@<SCITEGIC>MOL_PROPERTY
Coulomb
SciTegic.value.DoubleValue
45.559

@<SCITEGIC>MOL_PROPERTY
VdW
SciTegic.value.DoubleValue
0.518

@<SCITEGIC>MOL_PROPERTY
VdW6
SciTegic.value.DoubleValue
-8.348

@<SCITEGIC>MOL_PROPERTY
VdW12
SciTegic.value.DoubleValue
8.866

@<SCITEGIC>MOL_PROPERTY
Bond
SciTegic.value.DoubleValue
0.240

@<SCITEGIC>MOL_PROPERTY
Angle
SciTegic.value.DoubleValue
1.237

@<SCITEGIC>MOL_PROPERTY
Pdih
SciTegic.value.DoubleValue
1.900

@<SCITEGIC>MOL_PROPERTY
Idih
SciTegic.value.DoubleValue
0.000

@<SCITEGIC>MOL_PROPERTY
Tether
SciTegic.value.DoubleValue
0.000

@<TRIPOS>MOLECULE
guest-s14_vm2.mol2 : vm2 ligand conformer 69
          26          25           1
SMALL
USER_CHARGES
 
@<TRIPOS>ATOM
       1    C1      18.734540   18.646549   20.012969 C.3        1 MOL1        -0.2400
       2    H1      19.273963   18.996544   19.123177 H          1 MOL1         0.0971
       3    H2      18.176747   17.742958   19.734771 H          1 MOL1         0.0971
       4    H3      18.006842   19.417826   20.297206 H          1 MOL1         0.0971
       5    C2      19.709187   18.349905   21.172299 C.3        1 MOL1        -0.1385
       6    H4      20.404990   17.554987   20.869649 H          1 MOL1         0.0960
       7    H5      19.138141   17.965520   22.027801 H          1 MOL1         0.0960
       8    C3      20.504606   19.610614   21.585375 C.3        1 MOL1        -0.1409
       9    H6      21.006809   20.021517   20.698713 H          1 MOL1         0.0960
      10    H7      19.812151   20.391203   21.927057 H          1 MOL1         0.0960
      11    C4      21.578074   19.340205   22.671333 C.3        1 MOL1        -0.1409
      12    H8      22.114614   20.276640   22.877241 H          1 MOL1         0.0960
      13    H9      22.328527   18.647979   22.265321 H          1 MOL1         0.0960
      14    C5      21.040764   18.764708   24.007165 C.3        1 MOL1        -0.1409
      15    H10     20.615243   17.767782   23.835844 H          1 MOL1         0.0960
      16    H11     21.891436   18.617643   24.687014 H          1 MOL1         0.0960
      17    C6      19.998265   19.678884   24.697613 C.3        1 MOL1        -0.1450
      18    H12     19.093885   19.762121   24.081563 H          1 MOL1         0.0960
      19    H13     20.409777   20.692465   24.792613 H          1 MOL1         0.0960
      20    C7      19.607737   19.176512   26.100748 C.3        1 MOL1         0.0172
      21    H14     20.502555   19.089932   26.722988 H          1 MOL1         0.0934
      22    H15     18.934317   19.898611   26.570443 H          1 MOL1         0.0934
      23    N1      18.907827   17.831622   26.093499 N.4        1 MOL1        -0.5956
      24    H16     19.501545   17.097223   25.695999 H          1 MOL1         0.3624
      25    H17     18.043445   17.855225   25.542930 H          1 MOL1         0.3624
      26    H18     18.651868   17.531080   27.040318 H          1 MOL1         0.3624
@<TRIPOS>BOND
    1     1     2    1
    2     1     3    1
    3     1     4    1
    4     1     5    1
    5     5     6    1
    6     5     7    1
    7     5     8    1
    8     8     9    1
    9     8    10    1
   10     8    11    1
   11    11    12    1
   12    11    13    1
   13    11    14    1
   14    14    15    1
   15    14    16    1
   16    14    17    1
   17    17    18    1
   18    17    19    1
   19    17    20    1
   20    20    21    1
   21    20    22    1
   22    20    23    1
   23    23    24    1
   24    23    25    1
   25    23    26    1
@<TRIPOS>SUBSTRUCTURE
       1 MOL1            1 RESIDUE      1      MOL     
@<SCITEGIC>MOL_PROPERTY
VM2 Rank
SciTegic.value.IntegerValue
69

@<SCITEGIC>MOL_PROPERTY
Conf_Id
SciTegic.value.IntegerValue
965

@<SCITEGIC>MOL_PROPERTY
Probability
SciTegic.value.DoubleValue
0.42

@<SCITEGIC>MOL_PROPERTY
Sum Probability
SciTegic.value.DoubleValue
92.34

@<SCITEGIC>MOL_PROPERTY
Delta G
SciTegic.value.DoubleValue
1.715

@<SCITEGIC>MOL_PROPERTY
G
SciTegic.value.DoubleValue
49.977

@<SCITEGIC>MOL_PROPERTY
E
SciTegic.value.DoubleValue
17.071

@<SCITEGIC>MOL_PROPERTY
-TS
SciTegic.value.DoubleValue
32.905

@<SCITEGIC>MOL_PROPERTY
U+W
SciTegic.value.DoubleValue
-4.390

@<SCITEGIC>MOL_PROPERTY
U
SciTegic.value.DoubleValue
49.678

@<SCITEGIC>MOL_PROPERTY
W
SciTegic.value.DoubleValue
-54.068

@<SCITEGIC>MOL_PROPERTY
W(PB)
SciTegic.value.DoubleValue
-56.333

@<SCITEGIC>MOL_PROPERTY
W(SA)
SciTegic.value.DoubleValue
2.265

@<SCITEGIC>MOL_PROPERTY
Valence
SciTegic.value.DoubleValue
3.238

@<SCITEGIC>MOL_PROPERTY
Coulomb
SciTegic.value.DoubleValue
45.761

@<SCITEGIC>MOL_PROPERTY
VdW
SciTegic.value.DoubleValue
0.679

@<SCITEGIC>MOL_PROPERTY
VdW6
SciTegic.value.DoubleValue
-8.038

@<SCITEGIC>MOL_PROPERTY
VdW12
SciTegic.value.DoubleValue
8.717

@<SCITEGIC>MOL_PROPERTY
Bond
SciTegic.value.DoubleValue
0.233

@<SCITEGIC>MOL_PROPERTY
Angle
SciTegic.value.DoubleValue
1.079

@<SCITEGIC>MOL_PROPERTY
Pdih
SciTegic.value.DoubleValue
1.925

@<SCITEGIC>MOL_PROPERTY
Idih
SciTegic.value.DoubleValue
0.000

@<SCITEGIC>MOL_PROPERTY
Tether
SciTegic.value.DoubleValue
0.000

@<TRIPOS>MOLECULE
guest-s14_vm2.mol2 : vm2 ligand conformer 70
          26          25           1
SMALL
USER_CHARGES
 
@<TRIPOS>ATOM
       1    C1      19.251864   20.270249   20.629809 C.3        1 MOL1        -0.2400
       2    H1      18.377786   20.474342   19.998007 H          1 MOL1         0.0971
       3    H2      18.977308   20.516970   21.662973 H          1 MOL1         0.0971
       4    H3      20.058155   20.946145   20.316758 H          1 MOL1         0.0971
       5    C2      19.683074   18.792196   20.496266 C.3        1 MOL1        -0.1385
       6    H4      19.831257   18.561787   19.432020 H          1 MOL1         0.0960
       7    H5      18.869332   18.136838   20.834504 H          1 MOL1         0.0960
       8    C3      20.990811   18.459994   21.259252 C.3        1 MOL1        -0.1409
       9    H6      21.241888   17.404131   21.088215 H          1 MOL1         0.0960
      10    H7      21.814724   19.039429   20.820434 H          1 MOL1         0.0960
      11    C4      20.952118   18.728415   22.785814 C.3        1 MOL1        -0.1409
      12    H8      20.817834   19.802483   22.966967 H          1 MOL1         0.0960
      13    H9      21.933788   18.470809   23.206613 H          1 MOL1         0.0960
      14    C5      19.857790   17.919019   23.526247 C.3        1 MOL1        -0.1409
      15    H10     18.861853   18.233176   23.186708 H          1 MOL1         0.0960
      16    H11     19.956241   16.856104   23.266181 H          1 MOL1         0.0960
      17    C6      19.935602   18.064621   25.064008 C.3        1 MOL1        -0.1450
      18    H12     20.917198   17.722805   25.418389 H          1 MOL1         0.0960
      19    H13     19.188036   17.404087   25.523077 H          1 MOL1         0.0960
      20    C7      19.688694   19.509782   25.535949 C.3        1 MOL1         0.0172
      21    H14     20.452805   20.170883   25.119054 H          1 MOL1         0.0934
      22    H15     18.710455   19.849255   25.184966 H          1 MOL1         0.0934
      23    N1      19.721046   19.654723   27.043656 N.4        1 MOL1        -0.5956
      24    H16     20.626701   19.375678   27.434940 H          1 MOL1         0.3624
      25    H17     19.005441   19.078209   27.498326 H          1 MOL1         0.3624
      26    H18     19.554629   20.623511   27.337099 H          1 MOL1         0.3624
@<TRIPOS>BOND
    1     1     2    1
    2     1     3    1
    3     1     4    1
    4     1     5    1
    5     5     6    1
    6     5     7    1
    7     5     8    1
    8     8     9    1
    9     8    10    1
   10     8    11    1
   11    11    12    1
   12    11    13    1
   13    11    14    1
   14    14    15    1
   15    14    16    1
   16    14    17    1
   17    17    18    1
   18    17    19    1
   19    17    20    1
   20    20    21    1
   21    20    22    1
   22    20    23    1
   23    23    24    1
   24    23    25    1
   25    23    26    1
@<TRIPOS>SUBSTRUCTURE
       1 MOL1            1 RESIDUE      1      MOL     
@<SCITEGIC>MOL_PROPERTY
VM2 Rank
SciTegic.value.IntegerValue
70

@<SCITEGIC>MOL_PROPERTY
Conf_Id
SciTegic.value.IntegerValue
1067

@<SCITEGIC>MOL_PROPERTY
Probability
SciTegic.value.DoubleValue
0.42

@<SCITEGIC>MOL_PROPERTY
Sum Probability
SciTegic.value.DoubleValue
92.76

@<SCITEGIC>MOL_PROPERTY
Delta G
SciTegic.value.DoubleValue
1.716

@<SCITEGIC>MOL_PROPERTY
G
SciTegic.value.DoubleValue
49.977

@<SCITEGIC>MOL_PROPERTY
E
SciTegic.value.DoubleValue
17.088

@<SCITEGIC>MOL_PROPERTY
-TS
SciTegic.value.DoubleValue
32.889

@<SCITEGIC>MOL_PROPERTY
U+W
SciTegic.value.DoubleValue
-4.373

@<SCITEGIC>MOL_PROPERTY
U
SciTegic.value.DoubleValue
49.255

@<SCITEGIC>MOL_PROPERTY
W
SciTegic.value.DoubleValue
-53.628

@<SCITEGIC>MOL_PROPERTY
W(PB)
SciTegic.value.DoubleValue
-55.893

@<SCITEGIC>MOL_PROPERTY
W(SA)
SciTegic.value.DoubleValue
2.264

@<SCITEGIC>MOL_PROPERTY
Valence
SciTegic.value.DoubleValue
3.394

@<SCITEGIC>MOL_PROPERTY
Coulomb
SciTegic.value.DoubleValue
45.181

@<SCITEGIC>MOL_PROPERTY
VdW
SciTegic.value.DoubleValue
0.680

@<SCITEGIC>MOL_PROPERTY
VdW6
SciTegic.value.DoubleValue
-8.024

@<SCITEGIC>MOL_PROPERTY
VdW12
SciTegic.value.DoubleValue
8.705

@<SCITEGIC>MOL_PROPERTY
Bond
SciTegic.value.DoubleValue
0.231

@<SCITEGIC>MOL_PROPERTY
Angle
SciTegic.value.DoubleValue
1.123

@<SCITEGIC>MOL_PROPERTY
Pdih
SciTegic.value.DoubleValue
2.041

@<SCITEGIC>MOL_PROPERTY
Idih
SciTegic.value.DoubleValue
0.000

@<SCITEGIC>MOL_PROPERTY
Tether
SciTegic.value.DoubleValue
0.000

@<TRIPOS>MOLECULE
guest-s14_vm2.mol2 : vm2 ligand conformer 71
          26          25           1
SMALL
USER_CHARGES
 
@<TRIPOS>ATOM
       1    C1      20.661014   18.470629   19.495804 C.3        1 MOL1        -0.2400
       2    H1      20.793707   19.493672   19.120280 H          1 MOL1         0.0971
       3    H2      21.528472   17.878928   19.175746 H          1 MOL1         0.0971
       4    H3      19.768497   18.044508   19.019301 H          1 MOL1         0.0971
       5    C2      20.529618   18.457287   21.033578 C.3        1 MOL1        -0.1385
       6    H4      21.455186   18.851947   21.473157 H          1 MOL1         0.0960
       7    H5      20.427957   17.419711   21.381036 H          1 MOL1         0.0960
       8    C3      19.314943   19.289052   21.508934 C.3        1 MOL1        -0.1409
       9    H6      19.441436   20.337160   21.204458 H          1 MOL1         0.0960
      10    H7      18.412350   18.926801   20.997626 H          1 MOL1         0.0960
      11    C4      19.075263   19.217145   23.036900 C.3        1 MOL1        -0.1409
      12    H8      18.928985   18.169058   23.330337 H          1 MOL1         0.0960
      13    H9      18.134474   19.736487   23.265926 H          1 MOL1         0.0960
      14    C5      20.216817   19.851925   23.870758 C.3        1 MOL1        -0.1409
      15    H10     21.148068   19.289072   23.729638 H          1 MOL1         0.0960
      16    H11     20.412687   20.867248   23.499409 H          1 MOL1         0.0960
      17    C6      19.888370   19.934734   25.382528 C.3        1 MOL1        -0.1450
      18    H12     19.011629   20.579767   25.527827 H          1 MOL1         0.0960
      19    H13     20.718694   20.424293   25.908548 H          1 MOL1         0.0960
      20    C7      19.610319   18.567260   26.039116 C.3        1 MOL1         0.0172
      21    H14     19.359907   18.714949   27.093144 H          1 MOL1         0.0934
      22    H15     18.756634   18.089689   25.551409 H          1 MOL1         0.0934
      23    N1      20.784656   17.610967   25.973382 N.4        1 MOL1        -0.5956
      24    H16     21.050791   17.406528   25.005272 H          1 MOL1         0.3624
      25    H17     20.571702   16.714443   26.424042 H          1 MOL1         0.3624
      26    H18     21.612533   17.992865   26.442105 H          1 MOL1         0.3624
@<TRIPOS>BOND
    1     1     2    1
    2     1     3    1
    3     1     4    1
    4     1     5    1
    5     5     6    1
    6     5     7    1
    7     5     8    1
    8     8     9    1
    9     8    10    1
   10     8    11    1
   11    11    12    1
   12    11    13    1
   13    11    14    1
   14    14    15    1
   15    14    16    1
   16    14    17    1
   17    17    18    1
   18    17    19    1
   19    17    20    1
   20    20    21    1
   21    20    22    1
   22    20    23    1
   23    23    24    1
   24    23    25    1
   25    23    26    1
@<TRIPOS>SUBSTRUCTURE
       1 MOL1            1 RESIDUE      1      MOL     
@<SCITEGIC>MOL_PROPERTY
VM2 Rank
SciTegic.value.IntegerValue
71

@<SCITEGIC>MOL_PROPERTY
Conf_Id
SciTegic.value.IntegerValue
1118

@<SCITEGIC>MOL_PROPERTY
Probability
SciTegic.value.DoubleValue
0.42

@<SCITEGIC>MOL_PROPERTY
Sum Probability
SciTegic.value.DoubleValue
93.18

@<SCITEGIC>MOL_PROPERTY
Delta G
SciTegic.value.DoubleValue
1.717

@<SCITEGIC>MOL_PROPERTY
G
SciTegic.value.DoubleValue
49.978

@<SCITEGIC>MOL_PROPERTY
E
SciTegic.value.DoubleValue
17.227

@<SCITEGIC>MOL_PROPERTY
-TS
SciTegic.value.DoubleValue
32.751

@<SCITEGIC>MOL_PROPERTY
U+W
SciTegic.value.DoubleValue
-4.234

@<SCITEGIC>MOL_PROPERTY
U
SciTegic.value.DoubleValue
49.692

@<SCITEGIC>MOL_PROPERTY
W
SciTegic.value.DoubleValue
-53.926

@<SCITEGIC>MOL_PROPERTY
W(PB)
SciTegic.value.DoubleValue
-56.220

@<SCITEGIC>MOL_PROPERTY
W(SA)
SciTegic.value.DoubleValue
2.294

@<SCITEGIC>MOL_PROPERTY
Valence
SciTegic.value.DoubleValue
3.067

@<SCITEGIC>MOL_PROPERTY
Coulomb
SciTegic.value.DoubleValue
45.912

@<SCITEGIC>MOL_PROPERTY
VdW
SciTegic.value.DoubleValue
0.712

@<SCITEGIC>MOL_PROPERTY
VdW6
SciTegic.value.DoubleValue
-7.810

@<SCITEGIC>MOL_PROPERTY
VdW12
SciTegic.value.DoubleValue
8.523

@<SCITEGIC>MOL_PROPERTY
Bond
SciTegic.value.DoubleValue
0.215

@<SCITEGIC>MOL_PROPERTY
Angle
SciTegic.value.DoubleValue
0.854

@<SCITEGIC>MOL_PROPERTY
Pdih
SciTegic.value.DoubleValue
1.997

@<SCITEGIC>MOL_PROPERTY
Idih
SciTegic.value.DoubleValue
0.000

@<SCITEGIC>MOL_PROPERTY
Tether
SciTegic.value.DoubleValue
0.000

@<TRIPOS>MOLECULE
guest-s14_vm2.mol2 : vm2 ligand conformer 72
          26          25           1
SMALL
USER_CHARGES
 
@<TRIPOS>ATOM
       1    C1      21.021636   19.885452   20.028261 C.3        1 MOL1        -0.2400
       2    H1      20.251912   20.412500   19.449518 H          1 MOL1         0.0971
       3    H2      21.577146   20.628606   20.615055 H          1 MOL1         0.0971
       4    H3      21.720939   19.425525   19.318015 H          1 MOL1         0.0971
       5    C2      20.391836   18.814452   20.943834 C.3        1 MOL1        -0.1385
       6    H4      21.193000   18.283279   21.474703 H          1 MOL1         0.0960
       7    H5      19.869230   18.069448   20.327813 H          1 MOL1         0.0960
       8    C3      19.403936   19.439562   21.956639 C.3        1 MOL1        -0.1409
       9    H6      19.932264   20.160067   22.594828 H          1 MOL1         0.0960
      10    H7      18.650125   20.020079   21.407139 H          1 MOL1         0.0960
      11    C4      18.669662   18.392087   22.832819 C.3        1 MOL1        -0.1409
      12    H8      18.063985   17.746659   22.181864 H          1 MOL1         0.0960
      13    H9      17.951866   18.913322   23.480445 H          1 MOL1         0.0960
      14    C5      19.589605   17.494449   23.703847 C.3        1 MOL1        -0.1409
      15    H10     18.958300   16.820716   24.299569 H          1 MOL1         0.0960
      16    H11     20.187788   16.841099   23.054901 H          1 MOL1         0.0960
      17    C6      20.535857   18.265428   24.657233 C.3        1 MOL1        -0.1450
      18    H12     21.257588   18.853225   24.075772 H          1 MOL1         0.0960
      19    H13     21.123719   17.540588   25.235825 H          1 MOL1         0.0960
      20    C7      19.776846   19.188436   25.628448 C.3        1 MOL1         0.0172
      21    H14     19.216359   19.937518   25.063064 H          1 MOL1         0.0934
      22    H15     19.068262   18.599778   26.217271 H          1 MOL1         0.0934
      23    N1      20.691622   19.919135   26.589918 N.4        1 MOL1        -0.5956
      24    H16     21.367027   20.513290   26.098168 H          1 MOL1         0.3624
      25    H17     21.229290   19.269763   27.173334 H          1 MOL1         0.3624
      26    H18     20.166446   20.527763   27.227159 H          1 MOL1         0.3624
@<TRIPOS>BOND
    1     1     2    1
    2     1     3    1
    3     1     4    1
    4     1     5    1
    5     5     6    1
    6     5     7    1
    7     5     8    1
    8     8     9    1
    9     8    10    1
   10     8    11    1
   11    11    12    1
   12    11    13    1
   13    11    14    1
   14    14    15    1
   15    14    16    1
   16    14    17    1
   17    17    18    1
   18    17    19    1
   19    17    20    1
   20    20    21    1
   21    20    22    1
   22    20    23    1
   23    23    24    1
   24    23    25    1
   25    23    26    1
@<TRIPOS>SUBSTRUCTURE
       1 MOL1            1 RESIDUE      1      MOL     
@<SCITEGIC>MOL_PROPERTY
VM2 Rank
SciTegic.value.IntegerValue
72

@<SCITEGIC>MOL_PROPERTY
Conf_Id
SciTegic.value.IntegerValue
135

@<SCITEGIC>MOL_PROPERTY
Probability
SciTegic.value.DoubleValue
0.40

@<SCITEGIC>MOL_PROPERTY
Sum Probability
SciTegic.value.DoubleValue
93.58

@<SCITEGIC>MOL_PROPERTY
Delta G
SciTegic.value.DoubleValue
1.738

@<SCITEGIC>MOL_PROPERTY
G
SciTegic.value.DoubleValue
49.999

@<SCITEGIC>MOL_PROPERTY
E
SciTegic.value.DoubleValue
16.962

@<SCITEGIC>MOL_PROPERTY
-TS
SciTegic.value.DoubleValue
33.038

@<SCITEGIC>MOL_PROPERTY
U+W
SciTegic.value.DoubleValue
-4.500

@<SCITEGIC>MOL_PROPERTY
U
SciTegic.value.DoubleValue
49.453

@<SCITEGIC>MOL_PROPERTY
W
SciTegic.value.DoubleValue
-53.954

@<SCITEGIC>MOL_PROPERTY
W(PB)
SciTegic.value.DoubleValue
-56.228

@<SCITEGIC>MOL_PROPERTY
W(SA)
SciTegic.value.DoubleValue
2.274

@<SCITEGIC>MOL_PROPERTY
Valence
SciTegic.value.DoubleValue
3.376

@<SCITEGIC>MOL_PROPERTY
Coulomb
SciTegic.value.DoubleValue
45.559

@<SCITEGIC>MOL_PROPERTY
VdW
SciTegic.value.DoubleValue
0.518

@<SCITEGIC>MOL_PROPERTY
VdW6
SciTegic.value.DoubleValue
-8.348

@<SCITEGIC>MOL_PROPERTY
VdW12
SciTegic.value.DoubleValue
8.866

@<SCITEGIC>MOL_PROPERTY
Bond
SciTegic.value.DoubleValue
0.240

@<SCITEGIC>MOL_PROPERTY
Angle
SciTegic.value.DoubleValue
1.236

@<SCITEGIC>MOL_PROPERTY
Pdih
SciTegic.value.DoubleValue
1.900

@<SCITEGIC>MOL_PROPERTY
Idih
SciTegic.value.DoubleValue
0.000

@<SCITEGIC>MOL_PROPERTY
Tether
SciTegic.value.DoubleValue
0.000

@<TRIPOS>MOLECULE
guest-s14_vm2.mol2 : vm2 ligand conformer 73
          26          25           1
SMALL
USER_CHARGES
 
@<TRIPOS>ATOM
       1    C1      19.194484   20.232451   20.628103 C.3        1 MOL1        -0.2400
       2    H1      19.027289   20.549981   21.664878 H          1 MOL1         0.0971
       3    H2      19.378425   21.135375   20.031669 H          1 MOL1         0.0971
       4    H3      18.272202   19.766736   20.257367 H          1 MOL1         0.0971
       5    C2      20.390218   19.259342   20.519968 C.3        1 MOL1        -0.1385
       6    H4      21.295347   19.739161   20.915683 H          1 MOL1         0.0960
       7    H5      20.593423   19.065409   19.457535 H          1 MOL1         0.0960
       8    C3      20.148082   17.903436   21.231002 C.3        1 MOL1        -0.1409
       9    H6      19.313468   17.387505   20.736663 H          1 MOL1         0.0960
      10    H7      21.028113   17.262990   21.080951 H          1 MOL1         0.0960
      11    C4      19.845483   17.997436   22.748742 C.3        1 MOL1        -0.1409
      12    H8      19.678258   16.981061   23.131008 H          1 MOL1         0.0960
      13    H9      18.902578   18.537474   22.902889 H          1 MOL1         0.0960
      14    C5      20.983311   18.662075   23.563920 C.3        1 MOL1        -0.1409
      15    H10     21.933639   18.161673   23.332424 H          1 MOL1         0.0960
      16    H11     21.100484   19.711245   23.261617 H          1 MOL1         0.0960
      17    C6      20.747328   18.600557   25.091170 C.3        1 MOL1        -0.1450
      18    H12     21.625752   19.013547   25.604704 H          1 MOL1         0.0960
      19    H13     20.660320   17.553244   25.409788 H          1 MOL1         0.0960
      20    C7      19.494136   19.381380   25.529357 C.3        1 MOL1         0.0172
      21    H14     19.581838   20.424580   25.214042 H          1 MOL1         0.0934
      22    H15     18.606740   18.952127   25.057140 H          1 MOL1         0.0934
      23    N1      19.277958   19.362323   27.028738 N.4        1 MOL1        -0.5956
      24    H16     20.066875   19.779096   27.533807 H          1 MOL1         0.3624
      25    H17     19.161252   18.408353   27.385812 H          1 MOL1         0.3624
      26    H18     18.439298   19.887324   27.299624 H          1 MOL1         0.3624
@<TRIPOS>BOND
    1     1     2    1
    2     1     3    1
    3     1     4    1
    4     1     5    1
    5     5     6    1
    6     5     7    1
    7     5     8    1
    8     8     9    1
    9     8    10    1
   10     8    11    1
   11    11    12    1
   12    11    13    1
   13    11    14    1
   14    14    15    1
   15    14    16    1
   16    14    17    1
   17    17    18    1
   18    17    19    1
   19    17    20    1
   20    20    21    1
   21    20    22    1
   22    20    23    1
   23    23    24    1
   24    23    25    1
   25    23    26    1
@<TRIPOS>SUBSTRUCTURE
       1 MOL1            1 RESIDUE      1      MOL     
@<SCITEGIC>MOL_PROPERTY
VM2 Rank
SciTegic.value.IntegerValue
73

@<SCITEGIC>MOL_PROPERTY
Conf_Id
SciTegic.value.IntegerValue
276

@<SCITEGIC>MOL_PROPERTY
Probability
SciTegic.value.DoubleValue
0.39

@<SCITEGIC>MOL_PROPERTY
Sum Probability
SciTegic.value.DoubleValue
93.97

@<SCITEGIC>MOL_PROPERTY
Delta G
SciTegic.value.DoubleValue
1.754

@<SCITEGIC>MOL_PROPERTY
G
SciTegic.value.DoubleValue
50.015

@<SCITEGIC>MOL_PROPERTY
E
SciTegic.value.DoubleValue
17.126

@<SCITEGIC>MOL_PROPERTY
-TS
SciTegic.value.DoubleValue
32.889

@<SCITEGIC>MOL_PROPERTY
U+W
SciTegic.value.DoubleValue
-4.335

@<SCITEGIC>MOL_PROPERTY
U
SciTegic.value.DoubleValue
49.255

@<SCITEGIC>MOL_PROPERTY
W
SciTegic.value.DoubleValue
-53.591

@<SCITEGIC>MOL_PROPERTY
W(PB)
SciTegic.value.DoubleValue
-55.888

@<SCITEGIC>MOL_PROPERTY
W(SA)
SciTegic.value.DoubleValue
2.298

@<SCITEGIC>MOL_PROPERTY
Valence
SciTegic.value.DoubleValue
3.394

@<SCITEGIC>MOL_PROPERTY
Coulomb
SciTegic.value.DoubleValue
45.181

@<SCITEGIC>MOL_PROPERTY
VdW
SciTegic.value.DoubleValue
0.680

@<SCITEGIC>MOL_PROPERTY
VdW6
SciTegic.value.DoubleValue
-8.024

@<SCITEGIC>MOL_PROPERTY
VdW12
SciTegic.value.DoubleValue
8.704

@<SCITEGIC>MOL_PROPERTY
Bond
SciTegic.value.DoubleValue
0.231

@<SCITEGIC>MOL_PROPERTY
Angle
SciTegic.value.DoubleValue
1.123

@<SCITEGIC>MOL_PROPERTY
Pdih
SciTegic.value.DoubleValue
2.041

@<SCITEGIC>MOL_PROPERTY
Idih
SciTegic.value.DoubleValue
0.000

@<SCITEGIC>MOL_PROPERTY
Tether
SciTegic.value.DoubleValue
0.000

@<TRIPOS>MOLECULE
guest-s14_vm2.mol2 : vm2 ligand conformer 74
          26          25           1
SMALL
USER_CHARGES
 
@<TRIPOS>ATOM
       1    C1      20.928185   18.341294   20.034479 C.3        1 MOL1        -0.2400
       2    H1      21.355941   17.795243   20.884513 H          1 MOL1         0.0971
       3    H2      20.844215   17.636220   19.197420 H          1 MOL1         0.0971
       4    H3      21.633715   19.129309   19.740868 H          1 MOL1         0.0971
       5    C2      19.544835   18.935935   20.382328 C.3        1 MOL1        -0.1385
       6    H4      18.863173   18.132741   20.692308 H          1 MOL1         0.0960
       7    H5      19.105850   19.365944   19.471250 H          1 MOL1         0.0960
       8    C3      19.603272   20.039917   21.468980 C.3        1 MOL1        -0.1409
       9    H6      20.184495   20.887555   21.080592 H          1 MOL1         0.0960
      10    H7      18.587990   20.424547   21.637513 H          1 MOL1         0.0960
      11    C4      20.209464   19.605028   22.828553 C.3        1 MOL1        -0.1409
      12    H8      20.220094   20.482119   23.488758 H          1 MOL1         0.0960
      13    H9      21.260179   19.316023   22.694118 H          1 MOL1         0.0960
      14    C5      19.431931   18.452083   23.512679 C.3        1 MOL1        -0.1409
      15    H10     18.376970   18.735145   23.631987 H          1 MOL1         0.0960
      16    H11     19.446092   17.564923   22.866312 H          1 MOL1         0.0960
      17    C6      20.019313   18.056628   24.888000 C.3        1 MOL1        -0.1450
      18    H12     21.071336   17.764638   24.769819 H          1 MOL1         0.0960
      19    H13     19.487282   17.171019   25.260250 H          1 MOL1         0.0960
      20    C7      19.907805   19.183889   25.931742 C.3        1 MOL1         0.0172
      21    H14     20.473112   20.057118   25.596490 H          1 MOL1         0.0934
      22    H15     18.860409   19.475112   26.048065 H          1 MOL1         0.0934
      23    N1      20.436195   18.784225   27.294240 N.4        1 MOL1        -0.5956
      24    H16     21.427066   18.523325   27.258328 H          1 MOL1         0.3624
      25    H17     19.927005   17.983024   27.681533 H          1 MOL1         0.3624
      26    H18     20.352844   19.547775   27.974257 H          1 MOL1         0.3624
@<TRIPOS>BOND
    1     1     2    1
    2     1     3    1
    3     1     4    1
    4     1     5    1
    5     5     6    1
    6     5     7    1
    7     5     8    1
    8     8     9    1
    9     8    10    1
   10     8    11    1
   11    11    12    1
   12    11    13    1
   13    11    14    1
   14    14    15    1
   15    14    16    1
   16    14    17    1
   17    17    18    1
   18    17    19    1
   19    17    20    1
   20    20    21    1
   21    20    22    1
   22    20    23    1
   23    23    24    1
   24    23    25    1
   25    23    26    1
@<TRIPOS>SUBSTRUCTURE
       1 MOL1            1 RESIDUE      1      MOL     
@<SCITEGIC>MOL_PROPERTY
VM2 Rank
SciTegic.value.IntegerValue
74

@<SCITEGIC>MOL_PROPERTY
Conf_Id
SciTegic.value.IntegerValue
970

@<SCITEGIC>MOL_PROPERTY
Probability
SciTegic.value.DoubleValue
0.38

@<SCITEGIC>MOL_PROPERTY
Sum Probability
SciTegic.value.DoubleValue
94.35

@<SCITEGIC>MOL_PROPERTY
Delta G
SciTegic.value.DoubleValue
1.778

@<SCITEGIC>MOL_PROPERTY
G
SciTegic.value.DoubleValue
50.040

@<SCITEGIC>MOL_PROPERTY
E
SciTegic.value.DoubleValue
17.173

@<SCITEGIC>MOL_PROPERTY
-TS
SciTegic.value.DoubleValue
32.867

@<SCITEGIC>MOL_PROPERTY
U+W
SciTegic.value.DoubleValue
-4.289

@<SCITEGIC>MOL_PROPERTY
U
SciTegic.value.DoubleValue
49.209

@<SCITEGIC>MOL_PROPERTY
W
SciTegic.value.DoubleValue
-53.498

@<SCITEGIC>MOL_PROPERTY
W(PB)
SciTegic.value.DoubleValue
-55.784

@<SCITEGIC>MOL_PROPERTY
W(SA)
SciTegic.value.DoubleValue
2.286

@<SCITEGIC>MOL_PROPERTY
Valence
SciTegic.value.DoubleValue
3.465

@<SCITEGIC>MOL_PROPERTY
Coulomb
SciTegic.value.DoubleValue
44.958

@<SCITEGIC>MOL_PROPERTY
VdW
SciTegic.value.DoubleValue
0.786

@<SCITEGIC>MOL_PROPERTY
VdW6
SciTegic.value.DoubleValue
-7.903

@<SCITEGIC>MOL_PROPERTY
VdW12
SciTegic.value.DoubleValue
8.690

@<SCITEGIC>MOL_PROPERTY
Bond
SciTegic.value.DoubleValue
0.237

@<SCITEGIC>MOL_PROPERTY
Angle
SciTegic.value.DoubleValue
1.213

@<SCITEGIC>MOL_PROPERTY
Pdih
SciTegic.value.DoubleValue
2.015

@<SCITEGIC>MOL_PROPERTY
Idih
SciTegic.value.DoubleValue
0.000

@<SCITEGIC>MOL_PROPERTY
Tether
SciTegic.value.DoubleValue
0.000

@<TRIPOS>MOLECULE
guest-s14_vm2.mol2 : vm2 ligand conformer 75
          26          25           1
SMALL
USER_CHARGES
 
@<TRIPOS>ATOM
       1    C1      20.336702   17.951356   20.014825 C.3        1 MOL1        -0.2400
       2    H1      21.055975   17.775825   19.204466 H          1 MOL1         0.0971
       3    H2      20.630630   17.317039   20.860376 H          1 MOL1         0.0971
       4    H3      19.349305   17.623412   19.664902 H          1 MOL1         0.0971
       5    C2      20.318311   19.445748   20.408148 C.3        1 MOL1        -0.1385
       6    H4      20.138366   20.046467   19.505688 H          1 MOL1         0.0960
       7    H5      21.309464   19.745230   20.773938 H          1 MOL1         0.0960
       8    C3      19.231019   19.794567   21.456539 C.3        1 MOL1        -0.1409
       9    H6      19.269168   20.873548   21.660222 H          1 MOL1         0.0960
      10    H7      18.242190   19.607330   21.015726 H          1 MOL1         0.0960
      11    C4      19.328779   19.024578   22.799146 C.3        1 MOL1        -0.1409
      12    H8      19.187333   17.949759   22.624913 H          1 MOL1         0.0960
      13    H9      18.488451   19.340781   23.430919 H          1 MOL1         0.0960
      14    C5      20.661376   19.262544   23.553745 C.3        1 MOL1        -0.1409
      15    H10     21.500568   18.919229   22.934924 H          1 MOL1         0.0960
      16    H11     20.810619   20.339380   23.713285 H          1 MOL1         0.0960
      17    C6      20.729627   18.524875   24.911719 C.3        1 MOL1        -0.1450
      18    H12     21.734676   18.652633   25.335377 H          1 MOL1         0.0960
      19    H13     20.589852   17.447159   24.753702 H          1 MOL1         0.0960
      20    C7      19.689582   19.039991   25.924392 C.3        1 MOL1         0.0172
      21    H14     19.828239   20.113234   26.080279 H          1 MOL1         0.0934
      22    H15     18.681101   18.875534   25.536558 H          1 MOL1         0.0934
      23    N1      19.785603   18.355342   27.272487 N.4        1 MOL1        -0.5956
      24    H16     19.085430   18.712233   27.931854 H          1 MOL1         0.3624
      25    H17     20.703451   18.495121   27.707469 H          1 MOL1         0.3624
      26    H18     19.637607   17.343503   27.198578 H          1 MOL1         0.3624
@<TRIPOS>BOND
    1     1     2    1
    2     1     3    1
    3     1     4    1
    4     1     5    1
    5     5     6    1
    6     5     7    1
    7     5     8    1
    8     8     9    1
    9     8    10    1
   10     8    11    1
   11    11    12    1
   12    11    13    1
   13    11    14    1
   14    14    15    1
   15    14    16    1
   16    14    17    1
   17    17    18    1
   18    17    19    1
   19    17    20    1
   20    20    21    1
   21    20    22    1
   22    20    23    1
   23    23    24    1
   24    23    25    1
   25    23    26    1
@<TRIPOS>SUBSTRUCTURE
       1 MOL1            1 RESIDUE      1      MOL     
@<SCITEGIC>MOL_PROPERTY
VM2 Rank
SciTegic.value.IntegerValue
75

@<SCITEGIC>MOL_PROPERTY
Conf_Id
SciTegic.value.IntegerValue
1094

@<SCITEGIC>MOL_PROPERTY
Probability
SciTegic.value.DoubleValue
0.36

@<SCITEGIC>MOL_PROPERTY
Sum Probability
SciTegic.value.DoubleValue
94.71

@<SCITEGIC>MOL_PROPERTY
Delta G
SciTegic.value.DoubleValue
1.801

@<SCITEGIC>MOL_PROPERTY
G
SciTegic.value.DoubleValue
50.063

@<SCITEGIC>MOL_PROPERTY
E
SciTegic.value.DoubleValue
17.196

@<SCITEGIC>MOL_PROPERTY
-TS
SciTegic.value.DoubleValue
32.866

@<SCITEGIC>MOL_PROPERTY
U+W
SciTegic.value.DoubleValue
-4.266

@<SCITEGIC>MOL_PROPERTY
U
SciTegic.value.DoubleValue
49.209

@<SCITEGIC>MOL_PROPERTY
W
SciTegic.value.DoubleValue
-53.475

@<SCITEGIC>MOL_PROPERTY
W(PB)
SciTegic.value.DoubleValue
-55.751

@<SCITEGIC>MOL_PROPERTY
W(SA)
SciTegic.value.DoubleValue
2.276

@<SCITEGIC>MOL_PROPERTY
Valence
SciTegic.value.DoubleValue
3.465

@<SCITEGIC>MOL_PROPERTY
Coulomb
SciTegic.value.DoubleValue
44.958

@<SCITEGIC>MOL_PROPERTY
VdW
SciTegic.value.DoubleValue
0.787

@<SCITEGIC>MOL_PROPERTY
VdW6
SciTegic.value.DoubleValue
-7.904

@<SCITEGIC>MOL_PROPERTY
VdW12
SciTegic.value.DoubleValue
8.690

@<SCITEGIC>MOL_PROPERTY
Bond
SciTegic.value.DoubleValue
0.237

@<SCITEGIC>MOL_PROPERTY
Angle
SciTegic.value.DoubleValue
1.213

@<SCITEGIC>MOL_PROPERTY
Pdih
SciTegic.value.DoubleValue
2.015

@<SCITEGIC>MOL_PROPERTY
Idih
SciTegic.value.DoubleValue
0.000

@<SCITEGIC>MOL_PROPERTY
Tether
SciTegic.value.DoubleValue
0.000

@<TRIPOS>MOLECULE
guest-s14_vm2.mol2 : vm2 ligand conformer 76
          26          25           1
SMALL
USER_CHARGES
 
@<TRIPOS>ATOM
       1    C1      20.376858   19.176758   19.597094 C.3        1 MOL1        -0.2400
       2    H1      21.023277   18.968892   18.734620 H          1 MOL1         0.0971
       3    H2      19.336511   19.027768   19.280088 H          1 MOL1         0.0971
       4    H3      20.508939   20.233549   19.859608 H          1 MOL1         0.0971
       5    C2      20.736713   18.247060   20.778321 C.3        1 MOL1        -0.1385
       6    H4      21.769887   18.439523   21.099633 H          1 MOL1         0.0960
       7    H5      20.713417   17.206044   20.426834 H          1 MOL1         0.0960
       8    C3      19.778401   18.382939   21.986372 C.3        1 MOL1        -0.1409
       9    H6      18.747532   18.186815   21.661048 H          1 MOL1         0.0960
      10    H7      20.031348   17.595991   22.708446 H          1 MOL1         0.0960
      11    C4      19.853948   19.766256   22.681187 C.3        1 MOL1        -0.1409
      12    H8      19.608402   20.552676   21.956052 H          1 MOL1         0.0960
      13    H9      20.885014   19.962976   23.003808 H          1 MOL1         0.0960
      14    C5      18.884777   19.910587   23.883460 C.3        1 MOL1        -0.1409
      15    H10     18.965700   20.932846   24.278285 H          1 MOL1         0.0960
      16    H11     17.850784   19.806267   23.526791 H          1 MOL1         0.0960
      17    C6      19.120900   18.908928   25.041442 C.3        1 MOL1        -0.1450
      18    H12     18.901802   17.887113   24.706731 H          1 MOL1         0.0960
      19    H13     18.407607   19.126528   25.847477 H          1 MOL1         0.0960
      20    C7      20.552469   18.975608   25.605122 C.3        1 MOL1         0.0172
      21    H14     21.269779   18.719203   24.821094 H          1 MOL1         0.0934
      22    H15     20.765589   19.991387   25.948792 H          1 MOL1         0.0934
      23    N1      20.776934   18.030865   26.768003 N.4        1 MOL1        -0.5956
      24    H16     20.618184   17.053413   26.502600 H          1 MOL1         0.3624
      25    H17     20.150324   18.236087   27.553119 H          1 MOL1         0.3624
      26    H18     21.735670   18.090837   27.127939 H          1 MOL1         0.3624
@<TRIPOS>BOND
    1     1     2    1
    2     1     3    1
    3     1     4    1
    4     1     5    1
    5     5     6    1
    6     5     7    1
    7     5     8    1
    8     8     9    1
    9     8    10    1
   10     8    11    1
   11    11    12    1
   12    11    13    1
   13    11    14    1
   14    14    15    1
   15    14    16    1
   16    14    17    1
   17    17    18    1
   18    17    19    1
   19    17    20    1
   20    20    21    1
   21    20    22    1
   22    20    23    1
   23    23    24    1
   24    23    25    1
   25    23    26    1
@<TRIPOS>SUBSTRUCTURE
       1 MOL1            1 RESIDUE      1      MOL     
@<SCITEGIC>MOL_PROPERTY
VM2 Rank
SciTegic.value.IntegerValue
76

@<SCITEGIC>MOL_PROPERTY
Conf_Id
SciTegic.value.IntegerValue
539

@<SCITEGIC>MOL_PROPERTY
Probability
SciTegic.value.DoubleValue
0.34

@<SCITEGIC>MOL_PROPERTY
Sum Probability
SciTegic.value.DoubleValue
95.05

@<SCITEGIC>MOL_PROPERTY
Delta G
SciTegic.value.DoubleValue
1.843

@<SCITEGIC>MOL_PROPERTY
G
SciTegic.value.DoubleValue
50.105

@<SCITEGIC>MOL_PROPERTY
E
SciTegic.value.DoubleValue
17.343

@<SCITEGIC>MOL_PROPERTY
-TS
SciTegic.value.DoubleValue
32.762

@<SCITEGIC>MOL_PROPERTY
U+W
SciTegic.value.DoubleValue
-4.119

@<SCITEGIC>MOL_PROPERTY
U
SciTegic.value.DoubleValue
49.638

@<SCITEGIC>MOL_PROPERTY
W
SciTegic.value.DoubleValue
-53.757

@<SCITEGIC>MOL_PROPERTY
W(PB)
SciTegic.value.DoubleValue
-56.037

@<SCITEGIC>MOL_PROPERTY
W(SA)
SciTegic.value.DoubleValue
2.280

@<SCITEGIC>MOL_PROPERTY
Valence
SciTegic.value.DoubleValue
3.491

@<SCITEGIC>MOL_PROPERTY
Coulomb
SciTegic.value.DoubleValue
45.360

@<SCITEGIC>MOL_PROPERTY
VdW
SciTegic.value.DoubleValue
0.787

@<SCITEGIC>MOL_PROPERTY
VdW6
SciTegic.value.DoubleValue
-7.914

@<SCITEGIC>MOL_PROPERTY
VdW12
SciTegic.value.DoubleValue
8.701

@<SCITEGIC>MOL_PROPERTY
Bond
SciTegic.value.DoubleValue
0.240

@<SCITEGIC>MOL_PROPERTY
Angle
SciTegic.value.DoubleValue
1.203

@<SCITEGIC>MOL_PROPERTY
Pdih
SciTegic.value.DoubleValue
2.047

@<SCITEGIC>MOL_PROPERTY
Idih
SciTegic.value.DoubleValue
0.000

@<SCITEGIC>MOL_PROPERTY
Tether
SciTegic.value.DoubleValue
0.000

@<TRIPOS>MOLECULE
guest-s14_vm2.mol2 : vm2 ligand conformer 77
          26          25           1
SMALL
USER_CHARGES
 
@<TRIPOS>ATOM
       1    C1      19.806738   18.801117   19.578058 C.3        1 MOL1        -0.2400
       2    H1      20.367991   19.707005   19.314671 H          1 MOL1         0.0971
       3    H2      19.783295   18.151994   18.693175 H          1 MOL1         0.0971
       4    H3      18.772314   19.089601   19.801467 H          1 MOL1         0.0971
       5    C2      20.463348   18.066950   20.769273 C.3        1 MOL1        -0.1385
       6    H4      21.444603   17.687562   20.451462 H          1 MOL1         0.0960
       7    H5      19.864811   17.184707   21.035976 H          1 MOL1         0.0960
       8    C3      20.659578   18.963343   22.015942 C.3        1 MOL1        -0.1409
       9    H6      21.248727   18.397871   22.749294 H          1 MOL1         0.0960
      10    H7      21.260719   19.842168   21.745222 H          1 MOL1         0.0960
      11    C4      19.327485   19.419502   22.663626 C.3        1 MOL1        -0.1409
      12    H8      18.725918   18.540801   22.931737 H          1 MOL1         0.0960
      13    H9      18.735969   19.977950   21.926866 H          1 MOL1         0.0960
      14    C5      19.520507   20.329512   23.904679 C.3        1 MOL1        -0.1409
      15    H10     20.039868   21.248524   23.599850 H          1 MOL1         0.0960
      16    H11     18.531747   20.647077   24.263783 H          1 MOL1         0.0960
      17    C6      20.293322   19.681449   25.080589 C.3        1 MOL1        -0.1450
      18    H12     20.336746   20.397589   25.911906 H          1 MOL1         0.0960
      19    H13     21.333276   19.489151   24.787921 H          1 MOL1         0.0960
      20    C7      19.642472   18.376145   25.574703 C.3        1 MOL1         0.0172
      21    H14     18.610047   18.571306   25.876942 H          1 MOL1         0.0934
      22    H15     19.631921   17.640375   24.766306 H          1 MOL1         0.0934
      23    N1      20.367550   17.760981   26.754130 N.4        1 MOL1        -0.5956
      24    H16     19.918429   16.893393   27.067031 H          1 MOL1         0.3624
      25    H17     20.389347   18.393217   27.560954 H          1 MOL1         0.3624
      26    H18     21.339753   17.528647   26.526328 H          1 MOL1         0.3624
@<TRIPOS>BOND
    1     1     2    1
    2     1     3    1
    3     1     4    1
    4     1     5    1
    5     5     6    1
    6     5     7    1
    7     5     8    1
    8     8     9    1
    9     8    10    1
   10     8    11    1
   11    11    12    1
   12    11    13    1
   13    11    14    1
   14    14    15    1
   15    14    16    1
   16    14    17    1
   17    17    18    1
   18    17    19    1
   19    17    20    1
   20    20    21    1
   21    20    22    1
   22    20    23    1
   23    23    24    1
   24    23    25    1
   25    23    26    1
@<TRIPOS>SUBSTRUCTURE
       1 MOL1            1 RESIDUE      1      MOL     
@<SCITEGIC>MOL_PROPERTY
VM2 Rank
SciTegic.value.IntegerValue
77

@<SCITEGIC>MOL_PROPERTY
Conf_Id
SciTegic.value.IntegerValue
1361

@<SCITEGIC>MOL_PROPERTY
Probability
SciTegic.value.DoubleValue
0.34

@<SCITEGIC>MOL_PROPERTY
Sum Probability
SciTegic.value.DoubleValue
95.39

@<SCITEGIC>MOL_PROPERTY
Delta G
SciTegic.value.DoubleValue
1.845

@<SCITEGIC>MOL_PROPERTY
G
SciTegic.value.DoubleValue
50.106

@<SCITEGIC>MOL_PROPERTY
E
SciTegic.value.DoubleValue
17.345

@<SCITEGIC>MOL_PROPERTY
-TS
SciTegic.value.DoubleValue
32.761

@<SCITEGIC>MOL_PROPERTY
U+W
SciTegic.value.DoubleValue
-4.117

@<SCITEGIC>MOL_PROPERTY
U
SciTegic.value.DoubleValue
49.639

@<SCITEGIC>MOL_PROPERTY
W
SciTegic.value.DoubleValue
-53.756

@<SCITEGIC>MOL_PROPERTY
W(PB)
SciTegic.value.DoubleValue
-56.049

@<SCITEGIC>MOL_PROPERTY
W(SA)
SciTegic.value.DoubleValue
2.294

@<SCITEGIC>MOL_PROPERTY
Valence
SciTegic.value.DoubleValue
3.490

@<SCITEGIC>MOL_PROPERTY
Coulomb
SciTegic.value.DoubleValue
45.361

@<SCITEGIC>MOL_PROPERTY
VdW
SciTegic.value.DoubleValue
0.787

@<SCITEGIC>MOL_PROPERTY
VdW6
SciTegic.value.DoubleValue
-7.915

@<SCITEGIC>MOL_PROPERTY
VdW12
SciTegic.value.DoubleValue
8.702

@<SCITEGIC>MOL_PROPERTY
Bond
SciTegic.value.DoubleValue
0.240

@<SCITEGIC>MOL_PROPERTY
Angle
SciTegic.value.DoubleValue
1.203

@<SCITEGIC>MOL_PROPERTY
Pdih
SciTegic.value.DoubleValue
2.047

@<SCITEGIC>MOL_PROPERTY
Idih
SciTegic.value.DoubleValue
0.000

@<SCITEGIC>MOL_PROPERTY
Tether
SciTegic.value.DoubleValue
0.000

@<TRIPOS>MOLECULE
guest-s14_vm2.mol2 : vm2 ligand conformer 78
          26          25           1
SMALL
USER_CHARGES
 
@<TRIPOS>ATOM
       1    C1      19.072902   19.198021   20.075502 C.3        1 MOL1        -0.2400
       2    H1      19.781630   19.369264   19.254947 H          1 MOL1         0.0971
       3    H2      18.120465   18.875665   19.635312 H          1 MOL1         0.0971
       4    H3      18.896096   20.154862   20.582248 H          1 MOL1         0.0971
       5    C2      19.606257   18.128578   21.055294 C.3        1 MOL1        -0.1385
       6    H4      19.663452   17.164926   20.530231 H          1 MOL1         0.0960
       7    H5      18.887561   17.983498   21.872880 H          1 MOL1         0.0960
       8    C3      21.007320   18.463623   21.626840 C.3        1 MOL1        -0.1409
       9    H6      21.339817   17.634476   22.265291 H          1 MOL1         0.0960
      10    H7      21.727326   18.502587   20.797917 H          1 MOL1         0.0960
      11    C4      21.095813   19.794706   22.421165 C.3        1 MOL1        -0.1409
      12    H8      20.934600   20.637231   21.735541 H          1 MOL1         0.0960
      13    H9      22.122223   19.912340   22.794897 H          1 MOL1         0.0960
      14    C5      20.110968   19.921665   23.611942 C.3        1 MOL1        -0.1409
      15    H10     20.255400   20.906544   24.077368 H          1 MOL1         0.0960
      16    H11     19.075761   19.910069   23.245711 H          1 MOL1         0.0960
      17    C6      20.297964   18.826191   24.687439 C.3        1 MOL1        -0.1450
      18    H12     21.341857   18.817247   25.028037 H          1 MOL1         0.0960
      19    H13     20.088211   17.837811   24.259396 H          1 MOL1         0.0960
      20    C7      19.368582   19.058954   25.891479 C.3        1 MOL1         0.0172
      21    H14     19.581558   20.034093   26.337785 H          1 MOL1         0.0934
      22    H15     18.327005   19.052775   25.559025 H          1 MOL1         0.0934
      23    N1      19.521195   18.007262   26.971339 N.4        1 MOL1        -0.5956
      24    H16     20.475070   17.980440   27.346316 H          1 MOL1         0.3624
      25    H17     19.307267   17.067227   26.622482 H          1 MOL1         0.3624
      26    H18     18.893730   18.181538   27.764007 H          1 MOL1         0.3624
@<TRIPOS>BOND
    1     1     2    1
    2     1     3    1
    3     1     4    1
    4     1     5    1
    5     5     6    1
    6     5     7    1
    7     5     8    1
    8     8     9    1
    9     8    10    1
   10     8    11    1
   11    11    12    1
   12    11    13    1
   13    11    14    1
   14    14    15    1
   15    14    16    1
   16    14    17    1
   17    17    18    1
   18    17    19    1
   19    17    20    1
   20    20    21    1
   21    20    22    1
   22    20    23    1
   23    23    24    1
   24    23    25    1
   25    23    26    1
@<TRIPOS>SUBSTRUCTURE
       1 MOL1            1 RESIDUE      1      MOL     
@<SCITEGIC>MOL_PROPERTY
VM2 Rank
SciTegic.value.IntegerValue
78

@<SCITEGIC>MOL_PROPERTY
Conf_Id
SciTegic.value.IntegerValue
954

@<SCITEGIC>MOL_PROPERTY
Probability
SciTegic.value.DoubleValue
0.32

@<SCITEGIC>MOL_PROPERTY
Sum Probability
SciTegic.value.DoubleValue
95.71

@<SCITEGIC>MOL_PROPERTY
Delta G
SciTegic.value.DoubleValue
1.878

@<SCITEGIC>MOL_PROPERTY
G
SciTegic.value.DoubleValue
50.140

@<SCITEGIC>MOL_PROPERTY
E
SciTegic.value.DoubleValue
17.022

@<SCITEGIC>MOL_PROPERTY
-TS
SciTegic.value.DoubleValue
33.118

@<SCITEGIC>MOL_PROPERTY
U+W
SciTegic.value.DoubleValue
-4.440

@<SCITEGIC>MOL_PROPERTY
U
SciTegic.value.DoubleValue
49.278

@<SCITEGIC>MOL_PROPERTY
W
SciTegic.value.DoubleValue
-53.718

@<SCITEGIC>MOL_PROPERTY
W(PB)
SciTegic.value.DoubleValue
-55.975

@<SCITEGIC>MOL_PROPERTY
W(SA)
SciTegic.value.DoubleValue
2.257

@<SCITEGIC>MOL_PROPERTY
Valence
SciTegic.value.DoubleValue
3.566

@<SCITEGIC>MOL_PROPERTY
Coulomb
SciTegic.value.DoubleValue
45.108

@<SCITEGIC>MOL_PROPERTY
VdW
SciTegic.value.DoubleValue
0.605

@<SCITEGIC>MOL_PROPERTY
VdW6
SciTegic.value.DoubleValue
-8.326

@<SCITEGIC>MOL_PROPERTY
VdW12
SciTegic.value.DoubleValue
8.930

@<SCITEGIC>MOL_PROPERTY
Bond
SciTegic.value.DoubleValue
0.252

@<SCITEGIC>MOL_PROPERTY
Angle
SciTegic.value.DoubleValue
1.371

@<SCITEGIC>MOL_PROPERTY
Pdih
SciTegic.value.DoubleValue
1.943

@<SCITEGIC>MOL_PROPERTY
Idih
SciTegic.value.DoubleValue
0.000

@<SCITEGIC>MOL_PROPERTY
Tether
SciTegic.value.DoubleValue
0.000

@<TRIPOS>MOLECULE
guest-s14_vm2.mol2 : vm2 ligand conformer 79
          26          25           1
SMALL
USER_CHARGES
 
@<TRIPOS>ATOM
       1    C1      20.277358   19.992065   20.115739 C.3        1 MOL1        -0.2400
       2    H1      19.444415   20.516324   20.600460 H          1 MOL1         0.0971
       3    H2      20.968164   20.753140   19.730551 H          1 MOL1         0.0971
       4    H3      19.879928   19.433909   19.258161 H          1 MOL1         0.0971
       5    C2      21.004248   19.050297   21.102081 C.3        1 MOL1        -0.1385
       6    H4      21.381761   19.628025   21.956325 H          1 MOL1         0.0960
       7    H5      21.891261   18.633720   20.604830 H          1 MOL1         0.0960
       8    C3      20.119367   17.878222   21.597183 C.3        1 MOL1        -0.1409
       9    H6      19.839251   17.257819   20.734817 H          1 MOL1         0.0960
      10    H7      20.720442   17.226140   22.244606 H          1 MOL1         0.0960
      11    C4      18.825170   18.297694   22.345289 C.3        1 MOL1        -0.1409
      12    H8      18.296392   17.389995   22.667012 H          1 MOL1         0.0960
      13    H9      18.146697   18.799203   21.642378 H          1 MOL1         0.0960
      14    C5      19.040122   19.215666   23.576190 C.3        1 MOL1        -0.1409
      15    H10     19.474522   20.173085   23.259083 H          1 MOL1         0.0960
      16    H11     18.057205   19.457194   24.003986 H          1 MOL1         0.0960
      17    C6      19.922732   18.578801   24.674885 C.3        1 MOL1        -0.1450
      18    H12     20.932769   18.394670   24.287545 H          1 MOL1         0.0960
      19    H13     19.504940   17.606121   24.966683 H          1 MOL1         0.0960
      20    C7      20.018188   19.487230   25.913146 C.3        1 MOL1         0.0172
      21    H14     20.448654   20.451538   25.629849 H          1 MOL1         0.0934
      22    H15     19.018194   19.662687   26.318942 H          1 MOL1         0.0934
      23    N1      20.873816   18.899024   27.016487 N.4        1 MOL1        -0.5956
      24    H16     20.923485   19.519719   27.831765 H          1 MOL1         0.3624
      25    H17     21.837410   18.735295   26.706951 H          1 MOL1         0.3624
      26    H18     20.506138   18.000940   27.347336 H          1 MOL1         0.3624
@<TRIPOS>BOND
    1     1     2    1
    2     1     3    1
    3     1     4    1
    4     1     5    1
    5     5     6    1
    6     5     7    1
    7     5     8    1
    8     8     9    1
    9     8    10    1
   10     8    11    1
   11    11    12    1
   12    11    13    1
   13    11    14    1
   14    14    15    1
   15    14    16    1
   16    14    17    1
   17    17    18    1
   18    17    19    1
   19    17    20    1
   20    20    21    1
   21    20    22    1
   22    20    23    1
   23    23    24    1
   24    23    25    1
   25    23    26    1
@<TRIPOS>SUBSTRUCTURE
       1 MOL1            1 RESIDUE      1      MOL     
@<SCITEGIC>MOL_PROPERTY
VM2 Rank
SciTegic.value.IntegerValue
79

@<SCITEGIC>MOL_PROPERTY
Conf_Id
SciTegic.value.IntegerValue
1301

@<SCITEGIC>MOL_PROPERTY
Probability
SciTegic.value.DoubleValue
0.32

@<SCITEGIC>MOL_PROPERTY
Sum Probability
SciTegic.value.DoubleValue
96.03

@<SCITEGIC>MOL_PROPERTY
Delta G
SciTegic.value.DoubleValue
1.884

@<SCITEGIC>MOL_PROPERTY
G
SciTegic.value.DoubleValue
50.146

@<SCITEGIC>MOL_PROPERTY
E
SciTegic.value.DoubleValue
17.028

@<SCITEGIC>MOL_PROPERTY
-TS
SciTegic.value.DoubleValue
33.118

@<SCITEGIC>MOL_PROPERTY
U+W
SciTegic.value.DoubleValue
-4.434

@<SCITEGIC>MOL_PROPERTY
U
SciTegic.value.DoubleValue
49.278

@<SCITEGIC>MOL_PROPERTY
W
SciTegic.value.DoubleValue
-53.712

@<SCITEGIC>MOL_PROPERTY
W(PB)
SciTegic.value.DoubleValue
-55.986

@<SCITEGIC>MOL_PROPERTY
W(SA)
SciTegic.value.DoubleValue
2.274

@<SCITEGIC>MOL_PROPERTY
Valence
SciTegic.value.DoubleValue
3.566

@<SCITEGIC>MOL_PROPERTY
Coulomb
SciTegic.value.DoubleValue
45.108

@<SCITEGIC>MOL_PROPERTY
VdW
SciTegic.value.DoubleValue
0.605

@<SCITEGIC>MOL_PROPERTY
VdW6
SciTegic.value.DoubleValue
-8.326

@<SCITEGIC>MOL_PROPERTY
VdW12
SciTegic.value.DoubleValue
8.930

@<SCITEGIC>MOL_PROPERTY
Bond
SciTegic.value.DoubleValue
0.252

@<SCITEGIC>MOL_PROPERTY
Angle
SciTegic.value.DoubleValue
1.371

@<SCITEGIC>MOL_PROPERTY
Pdih
SciTegic.value.DoubleValue
1.943

@<SCITEGIC>MOL_PROPERTY
Idih
SciTegic.value.DoubleValue
0.000

@<SCITEGIC>MOL_PROPERTY
Tether
SciTegic.value.DoubleValue
0.000

@<TRIPOS>MOLECULE
guest-s14_vm2.mol2 : vm2 ligand conformer 80
          26          25           1
SMALL
USER_CHARGES
 
@<TRIPOS>ATOM
       1    C1      18.577914   19.016975   20.470947 C.3        1 MOL1        -0.2400
       2    H1      18.102493   19.877598   20.959104 H          1 MOL1         0.0971
       3    H2      18.202035   18.965381   19.440919 H          1 MOL1         0.0971
       4    H3      18.252006   18.105313   20.986821 H          1 MOL1         0.0971
       5    C2      20.117381   19.154090   20.478583 C.3        1 MOL1        -0.1385
       6    H4      20.399961   20.011459   19.851827 H          1 MOL1         0.0960
       7    H5      20.569922   18.268763   20.010485 H          1 MOL1         0.0960
       8    C3      20.707645   19.357778   21.894595 C.3        1 MOL1        -0.1409
       9    H6      21.784807   19.552405   21.800190 H          1 MOL1         0.0960
      10    H7      20.266525   20.258996   22.340362 H          1 MOL1         0.0960
      11    C4      20.493359   18.141065   22.829663 C.3        1 MOL1        -0.1409
      12    H8      20.844427   17.232857   22.320790 H          1 MOL1         0.0960
      13    H9      19.421988   17.991809   23.013634 H          1 MOL1         0.0960
      14    C5      21.241675   18.265297   24.181946 C.3        1 MOL1        -0.1409
      15    H10     21.080873   17.346626   24.761939 H          1 MOL1         0.0960
      16    H11     22.322741   18.310279   23.991103 H          1 MOL1         0.0960
      17    C6      20.834238   19.491164   25.041005 C.3        1 MOL1        -0.1450
      18    H12     21.151844   20.414625   24.540157 H          1 MOL1         0.0960
      19    H13     21.381637   19.463142   25.992456 H          1 MOL1         0.0960
      20    C7      19.322347   19.577637   25.331041 C.3        1 MOL1         0.0172
      21    H14     19.114105   20.481746   25.909557 H          1 MOL1         0.0934
      22    H15     18.769500   19.641091   24.390113 H          1 MOL1         0.0934
      23    N1      18.786441   18.394993   26.113219 N.4        1 MOL1        -0.5956
      24    H16     19.247078   18.301889   27.024248 H          1 MOL1         0.3624
      25    H17     18.929480   17.514087   25.609871 H          1 MOL1         0.3624
      26    H18     17.780286   18.480860   26.293056 H          1 MOL1         0.3624
@<TRIPOS>BOND
    1     1     2    1
    2     1     3    1
    3     1     4    1
    4     1     5    1
    5     5     6    1
    6     5     7    1
    7     5     8    1
    8     8     9    1
    9     8    10    1
   10     8    11    1
   11    11    12    1
   12    11    13    1
   13    11    14    1
   14    14    15    1
   15    14    16    1
   16    14    17    1
   17    17    18    1
   18    17    19    1
   19    17    20    1
   20    20    21    1
   21    20    22    1
   22    20    23    1
   23    23    24    1
   24    23    25    1
   25    23    26    1
@<TRIPOS>SUBSTRUCTURE
       1 MOL1            1 RESIDUE      1      MOL     
@<SCITEGIC>MOL_PROPERTY
VM2 Rank
SciTegic.value.IntegerValue
80

@<SCITEGIC>MOL_PROPERTY
Conf_Id
SciTegic.value.IntegerValue
1056

@<SCITEGIC>MOL_PROPERTY
Probability
SciTegic.value.DoubleValue
0.24

@<SCITEGIC>MOL_PROPERTY
Sum Probability
SciTegic.value.DoubleValue
96.27

@<SCITEGIC>MOL_PROPERTY
Delta G
SciTegic.value.DoubleValue
2.042

@<SCITEGIC>MOL_PROPERTY
G
SciTegic.value.DoubleValue
50.303

@<SCITEGIC>MOL_PROPERTY
E
SciTegic.value.DoubleValue
17.276

@<SCITEGIC>MOL_PROPERTY
-TS
SciTegic.value.DoubleValue
33.027

@<SCITEGIC>MOL_PROPERTY
U+W
SciTegic.value.DoubleValue
-4.186

@<SCITEGIC>MOL_PROPERTY
U
SciTegic.value.DoubleValue
49.857

@<SCITEGIC>MOL_PROPERTY
W
SciTegic.value.DoubleValue
-54.043

@<SCITEGIC>MOL_PROPERTY
W(PB)
SciTegic.value.DoubleValue
-56.303

@<SCITEGIC>MOL_PROPERTY
W(SA)
SciTegic.value.DoubleValue
2.260

@<SCITEGIC>MOL_PROPERTY
Valence
SciTegic.value.DoubleValue
3.483

@<SCITEGIC>MOL_PROPERTY
Coulomb
SciTegic.value.DoubleValue
45.719

@<SCITEGIC>MOL_PROPERTY
VdW
SciTegic.value.DoubleValue
0.655

@<SCITEGIC>MOL_PROPERTY
VdW6
SciTegic.value.DoubleValue
-8.796

@<SCITEGIC>MOL_PROPERTY
VdW12
SciTegic.value.DoubleValue
9.451

@<SCITEGIC>MOL_PROPERTY
Bond
SciTegic.value.DoubleValue
0.257

@<SCITEGIC>MOL_PROPERTY
Angle
SciTegic.value.DoubleValue
1.140

@<SCITEGIC>MOL_PROPERTY
Pdih
SciTegic.value.DoubleValue
2.086

@<SCITEGIC>MOL_PROPERTY
Idih
SciTegic.value.DoubleValue
0.000

@<SCITEGIC>MOL_PROPERTY
Tether
SciTegic.value.DoubleValue
0.000

@<TRIPOS>MOLECULE
guest-s14_vm2.mol2 : vm2 ligand conformer 81
          26          25           1
SMALL
USER_CHARGES
 
@<TRIPOS>ATOM
       1    C1      20.618006   20.363732   20.539024 C.3        1 MOL1        -0.2400
       2    H1      20.860635   20.720440   19.529670 H          1 MOL1         0.0971
       3    H2      19.990738   21.124125   21.022068 H          1 MOL1         0.0971
       4    H3      21.559382   20.288768   21.097293 H          1 MOL1         0.0971
       5    C2      19.888514   19.002848   20.470819 C.3        1 MOL1        -0.1385
       6    H4      20.546546   18.253133   20.009696 H          1 MOL1         0.0960
       7    H5      19.019212   19.099650   19.805461 H          1 MOL1         0.0960
       8    C3      19.404072   18.497166   21.850888 C.3        1 MOL1        -0.1409
       9    H6      18.728016   19.243320   22.288712 H          1 MOL1         0.0960
      10    H7      18.807611   17.586840   21.700514 H          1 MOL1         0.0960
      11    C4      20.562441   18.186777   22.831957 C.3        1 MOL1        -0.1409
      12    H8      21.110796   19.106867   23.070073 H          1 MOL1         0.0960
      13    H9      21.283117   17.522533   22.335525 H          1 MOL1         0.0960
      14    C5      20.092054   17.506556   24.143489 C.3        1 MOL1        -0.1409
      15    H10     19.635881   16.536829   23.901241 H          1 MOL1         0.0960
      16    H11     20.972169   17.274976   24.758283 H          1 MOL1         0.0960
      17    C6      19.085437   18.336908   24.982524 C.3        1 MOL1        -0.1450
      18    H12     18.852270   17.793641   25.907826 H          1 MOL1         0.0960
      19    H13     18.135809   18.423971   24.439266 H          1 MOL1         0.0960
      20    C7      19.585155   19.751098   25.339957 C.3        1 MOL1         0.0172
      21    H14     19.787488   20.312973   24.424332 H          1 MOL1         0.0934
      22    H15     18.809133   20.280467   25.899433 H          1 MOL1         0.0934
      23    N1      20.845321   19.753916   26.182343 N.4        1 MOL1        -0.5956
      24    H16     21.622091   19.291286   25.700240 H          1 MOL1         0.3624
      25    H17     20.707772   19.265991   27.073319 H          1 MOL1         0.3624
      26    H18     21.152471   20.706600   26.406206 H          1 MOL1         0.3624
@<TRIPOS>BOND
    1     1     2    1
    2     1     3    1
    3     1     4    1
    4     1     5    1
    5     5     6    1
    6     5     7    1
    7     5     8    1
    8     8     9    1
    9     8    10    1
   10     8    11    1
   11    11    12    1
   12    11    13    1
   13    11    14    1
   14    14    15    1
   15    14    16    1
   16    14    17    1
   17    17    18    1
   18    17    19    1
   19    17    20    1
   20    20    21    1
   21    20    22    1
   22    20    23    1
   23    23    24    1
   24    23    25    1
   25    23    26    1
@<TRIPOS>SUBSTRUCTURE
       1 MOL1            1 RESIDUE      1      MOL     
@<SCITEGIC>MOL_PROPERTY
VM2 Rank
SciTegic.value.IntegerValue
81

@<SCITEGIC>MOL_PROPERTY
Conf_Id
SciTegic.value.IntegerValue
846

@<SCITEGIC>MOL_PROPERTY
Probability
SciTegic.value.DoubleValue
0.24

@<SCITEGIC>MOL_PROPERTY
Sum Probability
SciTegic.value.DoubleValue
96.50

@<SCITEGIC>MOL_PROPERTY
Delta G
SciTegic.value.DoubleValue
2.057

@<SCITEGIC>MOL_PROPERTY
G
SciTegic.value.DoubleValue
50.318

@<SCITEGIC>MOL_PROPERTY
E
SciTegic.value.DoubleValue
17.291

@<SCITEGIC>MOL_PROPERTY
-TS
SciTegic.value.DoubleValue
33.027

@<SCITEGIC>MOL_PROPERTY
U+W
SciTegic.value.DoubleValue
-4.170

@<SCITEGIC>MOL_PROPERTY
U
SciTegic.value.DoubleValue
49.857

@<SCITEGIC>MOL_PROPERTY
W
SciTegic.value.DoubleValue
-54.027

@<SCITEGIC>MOL_PROPERTY
W(PB)
SciTegic.value.DoubleValue
-56.274

@<SCITEGIC>MOL_PROPERTY
W(SA)
SciTegic.value.DoubleValue
2.247

@<SCITEGIC>MOL_PROPERTY
Valence
SciTegic.value.DoubleValue
3.483

@<SCITEGIC>MOL_PROPERTY
Coulomb
SciTegic.value.DoubleValue
45.719

@<SCITEGIC>MOL_PROPERTY
VdW
SciTegic.value.DoubleValue
0.655

@<SCITEGIC>MOL_PROPERTY
VdW6
SciTegic.value.DoubleValue
-8.795

@<SCITEGIC>MOL_PROPERTY
VdW12
SciTegic.value.DoubleValue
9.450

@<SCITEGIC>MOL_PROPERTY
Bond
SciTegic.value.DoubleValue
0.257

@<SCITEGIC>MOL_PROPERTY
Angle
SciTegic.value.DoubleValue
1.140

@<SCITEGIC>MOL_PROPERTY
Pdih
SciTegic.value.DoubleValue
2.086

@<SCITEGIC>MOL_PROPERTY
Idih
SciTegic.value.DoubleValue
0.000

@<SCITEGIC>MOL_PROPERTY
Tether
SciTegic.value.DoubleValue
0.000

@<TRIPOS>MOLECULE
guest-s14_vm2.mol2 : vm2 ligand conformer 82
          26          25           1
SMALL
USER_CHARGES
 
@<TRIPOS>ATOM
       1    C1      19.322844   19.545492   19.745955 C.3        1 MOL1        -0.2400
       2    H1      18.548896   20.226334   20.123654 H          1 MOL1         0.0971
       3    H2      20.107534   20.149134   19.271536 H          1 MOL1         0.0971
       4    H3      18.868155   18.915042   18.970844 H          1 MOL1         0.0971
       5    C2      19.901295   18.678008   20.883873 C.3        1 MOL1        -0.1385
       6    H4      20.649904   17.987252   20.471489 H          1 MOL1         0.0960
       7    H5      19.096935   18.061057   21.305973 H          1 MOL1         0.0960
       8    C3      20.545390   19.545235   21.990920 C.3        1 MOL1        -0.1409
       9    H6      21.299422   20.201845   21.535437 H          1 MOL1         0.0960
      10    H7      19.789792   20.211658   22.427301 H          1 MOL1         0.0960
      11    C4      21.231143   18.716013   23.107223 C.3        1 MOL1        -0.1409
      12    H8      21.711347   19.405279   23.814561 H          1 MOL1         0.0960
      13    H9      22.049036   18.131653   22.663701 H          1 MOL1         0.0960
      14    C5      20.295680   17.750523   23.883953 C.3        1 MOL1        -0.1409
      15    H10     19.944153   16.958743   23.209287 H          1 MOL1         0.0960
      16    H11     20.884160   17.234388   24.654245 H          1 MOL1         0.0960
      17    C6      19.068459   18.428087   24.547885 C.3        1 MOL1        -0.1450
      18    H12     18.494121   17.673258   25.101055 H          1 MOL1         0.0960
      19    H13     18.392907   18.809472   23.771538 H          1 MOL1         0.0960
      20    C7      19.433188   19.583574   25.501268 C.3        1 MOL1         0.0172
      21    H14     19.980087   20.355122   24.953105 H          1 MOL1         0.0934
      22    H15     18.517584   20.031436   25.896912 H          1 MOL1         0.0934
      23    N1      20.283000   19.152069   26.679922 N.4        1 MOL1        -0.5956
      24    H16     21.172334   18.745082   26.374516 H          1 MOL1         0.3624
      25    H17     19.808004   18.447363   27.253138 H          1 MOL1         0.3624
      26    H18     20.507157   19.939840   27.297366 H          1 MOL1         0.3624
@<TRIPOS>BOND
    1     1     2    1
    2     1     3    1
    3     1     4    1
    4     1     5    1
    5     5     6    1
    6     5     7    1
    7     5     8    1
    8     8     9    1
    9     8    10    1
   10     8    11    1
   11    11    12    1
   12    11    13    1
   13    11    14    1
   14    14    15    1
   15    14    16    1
   16    14    17    1
   17    17    18    1
   18    17    19    1
   19    17    20    1
   20    20    21    1
   21    20    22    1
   22    20    23    1
   23    23    24    1
   24    23    25    1
   25    23    26    1
@<TRIPOS>SUBSTRUCTURE
       1 MOL1            1 RESIDUE      1      MOL     
@<SCITEGIC>MOL_PROPERTY
VM2 Rank
SciTegic.value.IntegerValue
82

@<SCITEGIC>MOL_PROPERTY
Conf_Id
SciTegic.value.IntegerValue
534

@<SCITEGIC>MOL_PROPERTY
Probability
SciTegic.value.DoubleValue
0.21

@<SCITEGIC>MOL_PROPERTY
Sum Probability
SciTegic.value.DoubleValue
96.71

@<SCITEGIC>MOL_PROPERTY
Delta G
SciTegic.value.DoubleValue
2.130

@<SCITEGIC>MOL_PROPERTY
G
SciTegic.value.DoubleValue
50.391

@<SCITEGIC>MOL_PROPERTY
E
SciTegic.value.DoubleValue
17.162

@<SCITEGIC>MOL_PROPERTY
-TS
SciTegic.value.DoubleValue
33.230

@<SCITEGIC>MOL_PROPERTY
U+W
SciTegic.value.DoubleValue
-4.300

@<SCITEGIC>MOL_PROPERTY
U
SciTegic.value.DoubleValue
49.635

@<SCITEGIC>MOL_PROPERTY
W
SciTegic.value.DoubleValue
-53.935

@<SCITEGIC>MOL_PROPERTY
W(PB)
SciTegic.value.DoubleValue
-56.177

@<SCITEGIC>MOL_PROPERTY
W(SA)
SciTegic.value.DoubleValue
2.243

@<SCITEGIC>MOL_PROPERTY
Valence
SciTegic.value.DoubleValue
3.475

@<SCITEGIC>MOL_PROPERTY
Coulomb
SciTegic.value.DoubleValue
45.628

@<SCITEGIC>MOL_PROPERTY
VdW
SciTegic.value.DoubleValue
0.532

@<SCITEGIC>MOL_PROPERTY
VdW6
SciTegic.value.DoubleValue
-9.030

@<SCITEGIC>MOL_PROPERTY
VdW12
SciTegic.value.DoubleValue
9.562

@<SCITEGIC>MOL_PROPERTY
Bond
SciTegic.value.DoubleValue
0.265

@<SCITEGIC>MOL_PROPERTY
Angle
SciTegic.value.DoubleValue
1.304

@<SCITEGIC>MOL_PROPERTY
Pdih
SciTegic.value.DoubleValue
1.905

@<SCITEGIC>MOL_PROPERTY
Idih
SciTegic.value.DoubleValue
0.000

@<SCITEGIC>MOL_PROPERTY
Tether
SciTegic.value.DoubleValue
0.000

@<TRIPOS>MOLECULE
guest-s14_vm2.mol2 : vm2 ligand conformer 83
          26          25           1
SMALL
USER_CHARGES
 
@<TRIPOS>ATOM
       1    C1      19.874782   19.909613   19.764411 C.3        1 MOL1        -0.2400
       2    H1      19.034615   19.440975   19.235549 H          1 MOL1         0.0971
       3    H2      19.535201   20.877125   20.156584 H          1 MOL1         0.0971
       4    H3      20.668488   20.102896   19.031144 H          1 MOL1         0.0971
       5    C2      20.391741   19.001656   20.900349 C.3        1 MOL1        -0.1385
       6    H4      21.254357   19.484673   21.378242 H          1 MOL1         0.0960
       7    H5      20.751890   18.054543   20.475038 H          1 MOL1         0.0960
       8    C3      19.290765   18.717521   21.948973 C.3        1 MOL1        -0.1409
       9    H6      18.954692   19.660730   22.399407 H          1 MOL1         0.0960
      10    H7      18.412960   18.297504   21.438864 H          1 MOL1         0.0960
      11    C4      19.731432   17.726584   23.057059 C.3        1 MOL1        -0.1409
      12    H8      19.967921   16.758670   22.594076 H          1 MOL1         0.0960
      13    H9      18.876902   17.535279   23.719775 H          1 MOL1         0.0960
      14    C5      20.949276   18.181661   23.905780 C.3        1 MOL1        -0.1409
      15    H10     21.156581   17.414096   24.663356 H          1 MOL1         0.0960
      16    H11     21.845973   18.213309   23.272852 H          1 MOL1         0.0960
      17    C6      20.777563   19.555580   24.604943 C.3        1 MOL1        -0.1450
      18    H12     20.728427   20.350209   23.849502 H          1 MOL1         0.0960
      19    H13     21.670607   19.768835   25.207122 H          1 MOL1         0.0960
      20    C7      19.528646   19.646530   25.504415 C.3        1 MOL1         0.0172
      21    H14     19.458070   20.651962   25.928174 H          1 MOL1         0.0934
      22    H15     18.630787   19.464807   24.908014 H          1 MOL1         0.0934
      23    N1      19.536794   18.659855   26.655072 N.4        1 MOL1        -0.5956
      24    H16     20.343842   18.801132   27.271125 H          1 MOL1         0.3624
      25    H17     19.575984   17.691896   26.321388 H          1 MOL1         0.3624
      26    H18     18.696430   18.745340   27.236920 H          1 MOL1         0.3624
@<TRIPOS>BOND
    1     1     2    1
    2     1     3    1
    3     1     4    1
    4     1     5    1
    5     5     6    1
    6     5     7    1
    7     5     8    1
    8     8     9    1
    9     8    10    1
   10     8    11    1
   11    11    12    1
   12    11    13    1
   13    11    14    1
   14    14    15    1
   15    14    16    1
   16    14    17    1
   17    17    18    1
   18    17    19    1
   19    17    20    1
   20    20    21    1
   21    20    22    1
   22    20    23    1
   23    23    24    1
   24    23    25    1
   25    23    26    1
@<TRIPOS>SUBSTRUCTURE
       1 MOL1            1 RESIDUE      1      MOL     
@<SCITEGIC>MOL_PROPERTY
VM2 Rank
SciTegic.value.IntegerValue
83

@<SCITEGIC>MOL_PROPERTY
Conf_Id
SciTegic.value.IntegerValue
461

@<SCITEGIC>MOL_PROPERTY
Probability
SciTegic.value.DoubleValue
0.21

@<SCITEGIC>MOL_PROPERTY
Sum Probability
SciTegic.value.DoubleValue
96.92

@<SCITEGIC>MOL_PROPERTY
Delta G
SciTegic.value.DoubleValue
2.133

@<SCITEGIC>MOL_PROPERTY
G
SciTegic.value.DoubleValue
50.395

@<SCITEGIC>MOL_PROPERTY
E
SciTegic.value.DoubleValue
17.165

@<SCITEGIC>MOL_PROPERTY
-TS
SciTegic.value.DoubleValue
33.230

@<SCITEGIC>MOL_PROPERTY
U+W
SciTegic.value.DoubleValue
-4.297

@<SCITEGIC>MOL_PROPERTY
U
SciTegic.value.DoubleValue
49.634

@<SCITEGIC>MOL_PROPERTY
W
SciTegic.value.DoubleValue
-53.931

@<SCITEGIC>MOL_PROPERTY
W(PB)
SciTegic.value.DoubleValue
-56.188

@<SCITEGIC>MOL_PROPERTY
W(SA)
SciTegic.value.DoubleValue
2.257

@<SCITEGIC>MOL_PROPERTY
Valence
SciTegic.value.DoubleValue
3.475

@<SCITEGIC>MOL_PROPERTY
Coulomb
SciTegic.value.DoubleValue
45.628

@<SCITEGIC>MOL_PROPERTY
VdW
SciTegic.value.DoubleValue
0.532

@<SCITEGIC>MOL_PROPERTY
VdW6
SciTegic.value.DoubleValue
-9.030

@<SCITEGIC>MOL_PROPERTY
VdW12
SciTegic.value.DoubleValue
9.562

@<SCITEGIC>MOL_PROPERTY
Bond
SciTegic.value.DoubleValue
0.265

@<SCITEGIC>MOL_PROPERTY
Angle
SciTegic.value.DoubleValue
1.304

@<SCITEGIC>MOL_PROPERTY
Pdih
SciTegic.value.DoubleValue
1.905

@<SCITEGIC>MOL_PROPERTY
Idih
SciTegic.value.DoubleValue
0.000

@<SCITEGIC>MOL_PROPERTY
Tether
SciTegic.value.DoubleValue
0.000

@<TRIPOS>MOLECULE
guest-s14_vm2.mol2 : vm2 ligand conformer 84
          26          25           1
SMALL
USER_CHARGES
 
@<TRIPOS>ATOM
       1    C1      19.212131   19.718628   20.174921 C.3        1 MOL1        -0.2400
       2    H1      19.216071   18.980833   19.362168 H          1 MOL1         0.0971
       3    H2      18.341757   19.522124   20.813223 H          1 MOL1         0.0971
       4    H3      19.076721   20.711523   19.726995 H          1 MOL1         0.0971
       5    C2      20.529424   19.663142   20.981044 C.3        1 MOL1        -0.1385
       6    H4      20.497754   20.400339   21.794405 H          1 MOL1         0.0960
       7    H5      21.357332   19.971386   20.327485 H          1 MOL1         0.0960
       8    C3      20.844364   18.254974   21.546487 C.3        1 MOL1        -0.1409
       9    H6      20.971897   17.557495   20.707266 H          1 MOL1         0.0960
      10    H7      21.817656   18.283476   22.053857 H          1 MOL1         0.0960
      11    C4      19.774796   17.675869   22.511605 C.3        1 MOL1        -0.1409
      12    H8      20.117627   16.694322   22.866641 H          1 MOL1         0.0960
      13    H9      18.851183   17.479056   21.951116 H          1 MOL1         0.0960
      14    C5      19.436737   18.562471   23.738009 C.3        1 MOL1        -0.1409
      15    H10     19.000450   19.513272   23.404264 H          1 MOL1         0.0960
      16    H11     18.652491   18.056578   24.316269 H          1 MOL1         0.0960
      17    C6      20.654616   18.838652   24.654764 C.3        1 MOL1        -0.1450
      18    H12     21.428582   19.374785   24.091549 H          1 MOL1         0.0960
      19    H13     21.102531   17.890858   24.981467 H          1 MOL1         0.0960
      20    C7      20.289685   19.687731   25.887732 C.3        1 MOL1         0.0172
      21    H14     21.200152   19.930467   26.442415 H          1 MOL1         0.0934
      22    H15     19.826823   20.624470   25.565762 H          1 MOL1         0.0934
      23    N1      19.339246   18.997533   26.846438 N.4        1 MOL1        -0.5956
      24    H16     19.128914   19.583416   27.661772 H          1 MOL1         0.3624
      25    H17     19.729117   18.118561   27.201952 H          1 MOL1         0.3624
      26    H18     18.444934   18.773538   26.399401 H          1 MOL1         0.3624
@<TRIPOS>BOND
    1     1     2    1
    2     1     3    1
    3     1     4    1
    4     1     5    1
    5     5     6    1
    6     5     7    1
    7     5     8    1
    8     8     9    1
    9     8    10    1
   10     8    11    1
   11    11    12    1
   12    11    13    1
   13    11    14    1
   14    14    15    1
   15    14    16    1
   16    14    17    1
   17    17    18    1
   18    17    19    1
   19    17    20    1
   20    20    21    1
   21    20    22    1
   22    20    23    1
   23    23    24    1
   24    23    25    1
   25    23    26    1
@<TRIPOS>SUBSTRUCTURE
       1 MOL1            1 RESIDUE      1      MOL     
@<SCITEGIC>MOL_PROPERTY
VM2 Rank
SciTegic.value.IntegerValue
84

@<SCITEGIC>MOL_PROPERTY
Conf_Id
SciTegic.value.IntegerValue
266

@<SCITEGIC>MOL_PROPERTY
Probability
SciTegic.value.DoubleValue
0.20

@<SCITEGIC>MOL_PROPERTY
Sum Probability
SciTegic.value.DoubleValue
97.12

@<SCITEGIC>MOL_PROPERTY
Delta G
SciTegic.value.DoubleValue
2.167

@<SCITEGIC>MOL_PROPERTY
G
SciTegic.value.DoubleValue
50.429

@<SCITEGIC>MOL_PROPERTY
E
SciTegic.value.DoubleValue
17.212

@<SCITEGIC>MOL_PROPERTY
-TS
SciTegic.value.DoubleValue
33.217

@<SCITEGIC>MOL_PROPERTY
U+W
SciTegic.value.DoubleValue
-4.250

@<SCITEGIC>MOL_PROPERTY
U
SciTegic.value.DoubleValue
49.638

@<SCITEGIC>MOL_PROPERTY
W
SciTegic.value.DoubleValue
-53.888

@<SCITEGIC>MOL_PROPERTY
W(PB)
SciTegic.value.DoubleValue
-56.127

@<SCITEGIC>MOL_PROPERTY
W(SA)
SciTegic.value.DoubleValue
2.239

@<SCITEGIC>MOL_PROPERTY
Valence
SciTegic.value.DoubleValue
3.691

@<SCITEGIC>MOL_PROPERTY
Coulomb
SciTegic.value.DoubleValue
45.199

@<SCITEGIC>MOL_PROPERTY
VdW
SciTegic.value.DoubleValue
0.747

@<SCITEGIC>MOL_PROPERTY
VdW6
SciTegic.value.DoubleValue
-8.826

@<SCITEGIC>MOL_PROPERTY
VdW12
SciTegic.value.DoubleValue
9.573

@<SCITEGIC>MOL_PROPERTY
Bond
SciTegic.value.DoubleValue
0.278

@<SCITEGIC>MOL_PROPERTY
Angle
SciTegic.value.DoubleValue
1.445

@<SCITEGIC>MOL_PROPERTY
Pdih
SciTegic.value.DoubleValue
1.968

@<SCITEGIC>MOL_PROPERTY
Idih
SciTegic.value.DoubleValue
0.000

@<SCITEGIC>MOL_PROPERTY
Tether
SciTegic.value.DoubleValue
0.000

@<TRIPOS>MOLECULE
guest-s14_vm2.mol2 : vm2 ligand conformer 85
          26          25           1
SMALL
USER_CHARGES
 
@<TRIPOS>ATOM
       1    C1      19.738739   20.066109   20.192431 C.3        1 MOL1        -0.2400
       2    H1      20.230604   20.768955   20.876294 H          1 MOL1         0.0971
       3    H2      20.453025   19.797110   19.403535 H          1 MOL1         0.0971
       4    H3      18.900410   20.594917   19.720858 H          1 MOL1         0.0971
       5    C2      19.235863   18.809200   20.937730 C.3        1 MOL1        -0.1385
       6    H4      18.658616   18.189840   20.237183 H          1 MOL1         0.0960
       7    H5      18.533030   19.103433   21.728599 H          1 MOL1         0.0960
       8    C3      20.379925   17.948386   21.531001 C.3        1 MOL1        -0.1409
       9    H6      19.948630   17.049774   21.991451 H          1 MOL1         0.0960
      10    H7      21.009882   17.582477   20.708626 H          1 MOL1         0.0960
      11    C4      21.286268   18.673657   22.562171 C.3        1 MOL1        -0.1409
      12    H8      21.855198   19.462036   22.051564 H          1 MOL1         0.0960
      13    H9      22.037225   17.961542   22.930914 H          1 MOL1         0.0960
      14    C5      20.547034   19.295523   23.775113 C.3        1 MOL1        -0.1409
      15    H10     21.292309   19.799247   24.404542 H          1 MOL1         0.0960
      16    H11     19.860004   20.080799   23.432932 H          1 MOL1         0.0960
      17    C6      19.773180   18.257077   24.625242 C.3        1 MOL1        -0.1450
      18    H12     20.453159   17.462397   24.959589 H          1 MOL1         0.0960
      19    H13     19.003319   17.774394   24.010421 H          1 MOL1         0.0960
      20    C7      19.078877   18.888619   25.847295 C.3        1 MOL1         0.0172
      21    H14     18.414805   19.692630   25.518721 H          1 MOL1         0.0934
      22    H15     18.472988   18.130634   26.351178 H          1 MOL1         0.0934
      23    N1      20.041116   19.460428   26.870017 N.4        1 MOL1        -0.5956
      24    H16     19.547419   19.859173   27.675955 H          1 MOL1         0.3624
      25    H17     20.618437   20.207637   26.472288 H          1 MOL1         0.3624
      26    H18     20.679194   18.745187   27.233703 H          1 MOL1         0.3624
@<TRIPOS>BOND
    1     1     2    1
    2     1     3    1
    3     1     4    1
    4     1     5    1
    5     5     6    1
    6     5     7    1
    7     5     8    1
    8     8     9    1
    9     8    10    1
   10     8    11    1
   11    11    12    1
   12    11    13    1
   13    11    14    1
   14    14    15    1
   15    14    16    1
   16    14    17    1
   17    17    18    1
   18    17    19    1
   19    17    20    1
   20    20    21    1
   21    20    22    1
   22    20    23    1
   23    23    24    1
   24    23    25    1
   25    23    26    1
@<TRIPOS>SUBSTRUCTURE
       1 MOL1            1 RESIDUE      1      MOL     
@<SCITEGIC>MOL_PROPERTY
VM2 Rank
SciTegic.value.IntegerValue
85

@<SCITEGIC>MOL_PROPERTY
Conf_Id
SciTegic.value.IntegerValue
850

@<SCITEGIC>MOL_PROPERTY
Probability
SciTegic.value.DoubleValue
0.19

@<SCITEGIC>MOL_PROPERTY
Sum Probability
SciTegic.value.DoubleValue
97.31

@<SCITEGIC>MOL_PROPERTY
Delta G
SciTegic.value.DoubleValue
2.185

@<SCITEGIC>MOL_PROPERTY
G
SciTegic.value.DoubleValue
50.446

@<SCITEGIC>MOL_PROPERTY
E
SciTegic.value.DoubleValue
17.229

@<SCITEGIC>MOL_PROPERTY
-TS
SciTegic.value.DoubleValue
33.217

@<SCITEGIC>MOL_PROPERTY
U+W
SciTegic.value.DoubleValue
-4.233

@<SCITEGIC>MOL_PROPERTY
U
SciTegic.value.DoubleValue
49.638

@<SCITEGIC>MOL_PROPERTY
W
SciTegic.value.DoubleValue
-53.870

@<SCITEGIC>MOL_PROPERTY
W(PB)
SciTegic.value.DoubleValue
-56.099

@<SCITEGIC>MOL_PROPERTY
W(SA)
SciTegic.value.DoubleValue
2.229

@<SCITEGIC>MOL_PROPERTY
Valence
SciTegic.value.DoubleValue
3.692

@<SCITEGIC>MOL_PROPERTY
Coulomb
SciTegic.value.DoubleValue
45.199

@<SCITEGIC>MOL_PROPERTY
VdW
SciTegic.value.DoubleValue
0.747

@<SCITEGIC>MOL_PROPERTY
VdW6
SciTegic.value.DoubleValue
-8.826

@<SCITEGIC>MOL_PROPERTY
VdW12
SciTegic.value.DoubleValue
9.573

@<SCITEGIC>MOL_PROPERTY
Bond
SciTegic.value.DoubleValue
0.278

@<SCITEGIC>MOL_PROPERTY
Angle
SciTegic.value.DoubleValue
1.445

@<SCITEGIC>MOL_PROPERTY
Pdih
SciTegic.value.DoubleValue
1.969

@<SCITEGIC>MOL_PROPERTY
Idih
SciTegic.value.DoubleValue
0.000

@<SCITEGIC>MOL_PROPERTY
Tether
SciTegic.value.DoubleValue
0.000

@<TRIPOS>MOLECULE
guest-s14_vm2.mol2 : vm2 ligand conformer 86
          26          25           1
SMALL
USER_CHARGES
 
@<TRIPOS>ATOM
       1    C1      19.269840   19.273621   19.994065 C.3        1 MOL1        -0.2400
       2    H1      18.812290   18.775335   19.129659 H          1 MOL1         0.0971
       3    H2      18.478139   19.443919   20.734277 H          1 MOL1         0.0971
       4    H3      19.644898   20.249643   19.659921 H          1 MOL1         0.0971
       5    C2      20.411520   18.409436   20.575435 C.3        1 MOL1        -0.1385
       6    H4      21.116644   18.166189   19.768406 H          1 MOL1         0.0960
       7    H5      20.009585   17.447804   20.921231 H          1 MOL1         0.0960
       8    C3      21.192874   19.107023   21.718161 C.3        1 MOL1        -0.1409
       9    H6      21.997480   18.439265   22.055466 H          1 MOL1         0.0960
      10    H7      21.692500   19.997365   21.312191 H          1 MOL1         0.0960
      11    C4      20.342950   19.531687   22.943821 C.3        1 MOL1        -0.1409
      12    H8      19.599441   20.281088   22.641912 H          1 MOL1         0.0960
      13    H9      21.008310   20.037049   23.655877 H          1 MOL1         0.0960
      14    C5      19.635632   18.345926   23.647655 C.3        1 MOL1        -0.1409
      15    H10     18.948269   17.859340   22.943571 H          1 MOL1         0.0960
      16    H11     20.375911   17.585110   23.928430 H          1 MOL1         0.0960
      17    C6      18.820071   18.775073   24.893355 C.3        1 MOL1        -0.1450
      18    H12     18.302448   17.899106   25.306311 H          1 MOL1         0.0960
      19    H13     18.034151   19.477925   24.586480 H          1 MOL1         0.0960
      20    C7      19.663727   19.430695   26.005620 C.3        1 MOL1         0.0172
      21    H14     20.143224   20.335128   25.622797 H          1 MOL1         0.0934
      22    H15     19.010742   19.718419   26.834062 H          1 MOL1         0.0934
      23    N1      20.744386   18.525537   26.562889 N.4        1 MOL1        -0.5956
      24    H16     21.411083   18.243729   25.837555 H          1 MOL1         0.3624
      25    H17     20.352192   17.667866   26.964700 H          1 MOL1         0.3624
      26    H18     21.282271   18.986030   27.305028 H          1 MOL1         0.3624
@<TRIPOS>BOND
    1     1     2    1
    2     1     3    1
    3     1     4    1
    4     1     5    1
    5     5     6    1
    6     5     7    1
    7     5     8    1
    8     8     9    1
    9     8    10    1
   10     8    11    1
   11    11    12    1
   12    11    13    1
   13    11    14    1
   14    14    15    1
   15    14    16    1
   16    14    17    1
   17    17    18    1
   18    17    19    1
   19    17    20    1
   20    20    21    1
   21    20    22    1
   22    20    23    1
   23    23    24    1
   24    23    25    1
   25    23    26    1
@<TRIPOS>SUBSTRUCTURE
       1 MOL1            1 RESIDUE      1      MOL     
@<SCITEGIC>MOL_PROPERTY
VM2 Rank
SciTegic.value.IntegerValue
86

@<SCITEGIC>MOL_PROPERTY
Conf_Id
SciTegic.value.IntegerValue
541

@<SCITEGIC>MOL_PROPERTY
Probability
SciTegic.value.DoubleValue
0.18

@<SCITEGIC>MOL_PROPERTY
Sum Probability
SciTegic.value.DoubleValue
97.49

@<SCITEGIC>MOL_PROPERTY
Delta G
SciTegic.value.DoubleValue
2.205

@<SCITEGIC>MOL_PROPERTY
G
SciTegic.value.DoubleValue
50.466

@<SCITEGIC>MOL_PROPERTY
E
SciTegic.value.DoubleValue
17.411

@<SCITEGIC>MOL_PROPERTY
-TS
SciTegic.value.DoubleValue
33.055

@<SCITEGIC>MOL_PROPERTY
U+W
SciTegic.value.DoubleValue
-4.051

@<SCITEGIC>MOL_PROPERTY
U
SciTegic.value.DoubleValue
49.822

@<SCITEGIC>MOL_PROPERTY
W
SciTegic.value.DoubleValue
-53.873

@<SCITEGIC>MOL_PROPERTY
W(PB)
SciTegic.value.DoubleValue
-56.118

@<SCITEGIC>MOL_PROPERTY
W(SA)
SciTegic.value.DoubleValue
2.246

@<SCITEGIC>MOL_PROPERTY
Valence
SciTegic.value.DoubleValue
3.548

@<SCITEGIC>MOL_PROPERTY
Coulomb
SciTegic.value.DoubleValue
45.475

@<SCITEGIC>MOL_PROPERTY
VdW
SciTegic.value.DoubleValue
0.799

@<SCITEGIC>MOL_PROPERTY
VdW6
SciTegic.value.DoubleValue
-8.640

@<SCITEGIC>MOL_PROPERTY
VdW12
SciTegic.value.DoubleValue
9.439

@<SCITEGIC>MOL_PROPERTY
Bond
SciTegic.value.DoubleValue
0.263

@<SCITEGIC>MOL_PROPERTY
Angle
SciTegic.value.DoubleValue
1.337

@<SCITEGIC>MOL_PROPERTY
Pdih
SciTegic.value.DoubleValue
1.948

@<SCITEGIC>MOL_PROPERTY
Idih
SciTegic.value.DoubleValue
0.000

@<SCITEGIC>MOL_PROPERTY
Tether
SciTegic.value.DoubleValue
0.000

@<TRIPOS>MOLECULE
guest-s14_vm2.mol2 : vm2 ligand conformer 87
          26          25           1
SMALL
USER_CHARGES
 
@<TRIPOS>ATOM
       1    C1      20.707249   18.925159   19.725625 C.3        1 MOL1        -0.2400
       2    H1      21.666978   19.210391   20.173668 H          1 MOL1         0.0971
       3    H2      20.926433   18.327008   18.831704 H          1 MOL1         0.0971
       4    H3      20.193678   19.839072   19.400027 H          1 MOL1         0.0971
       5    C2      19.834342   18.119110   20.714262 C.3        1 MOL1        -0.1385
       6    H4      20.383243   17.228978   21.052050 H          1 MOL1         0.0960
       7    H5      18.947872   17.748952   20.180461 H          1 MOL1         0.0960
       8    C3      19.366639   18.942211   21.938974 C.3        1 MOL1        -0.1409
       9    H6      18.814872   19.828402   21.596636 H          1 MOL1         0.0960
      10    H7      18.651806   18.330754   22.504479 H          1 MOL1         0.0960
      11    C4      20.527024   19.375676   22.870312 C.3        1 MOL1        -0.1409
      12    H8      21.241582   19.985586   22.302852 H          1 MOL1         0.0960
      13    H9      21.082810   18.489990   23.205287 H          1 MOL1         0.0960
      14    C5      20.060920   20.206062   24.094486 C.3        1 MOL1        -0.1409
      15    H10     20.945616   20.528294   24.659931 H          1 MOL1         0.0960
      16    H11     19.583315   21.129821   23.739902 H          1 MOL1         0.0960
      17    C6      19.084009   19.473741   25.051819 C.3        1 MOL1        -0.1450
      18    H12     18.123590   19.310308   24.546752 H          1 MOL1         0.0960
      19    H13     18.863471   20.124533   25.908288 H          1 MOL1         0.0960
      20    C7      19.611068   18.120586   25.569896 C.3        1 MOL1         0.0172
      21    H14     18.855192   17.656481   26.209204 H          1 MOL1         0.0934
      22    H15     19.800545   17.451382   24.726572 H          1 MOL1         0.0934
      23    N1      20.889749   18.236455   26.375627 N.4        1 MOL1        -0.5956
      24    H16     21.648940   18.644064   25.821242 H          1 MOL1         0.3624
      25    H17     21.215158   17.322442   26.708445 H          1 MOL1         0.3624
      26    H18     20.765556   18.829838   27.202247 H          1 MOL1         0.3624
@<TRIPOS>BOND
    1     1     2    1
    2     1     3    1
    3     1     4    1
    4     1     5    1
    5     5     6    1
    6     5     7    1
    7     5     8    1
    8     8     9    1
    9     8    10    1
   10     8    11    1
   11    11    12    1
   12    11    13    1
   13    11    14    1
   14    14    15    1
   15    14    16    1
   16    14    17    1
   17    17    18    1
   18    17    19    1
   19    17    20    1
   20    20    21    1
   21    20    22    1
   22    20    23    1
   23    23    24    1
   24    23    25    1
   25    23    26    1
@<TRIPOS>SUBSTRUCTURE
       1 MOL1            1 RESIDUE      1      MOL     
@<SCITEGIC>MOL_PROPERTY
VM2 Rank
SciTegic.value.IntegerValue
87

@<SCITEGIC>MOL_PROPERTY
Conf_Id
SciTegic.value.IntegerValue
1259

@<SCITEGIC>MOL_PROPERTY
Probability
SciTegic.value.DoubleValue
0.18

@<SCITEGIC>MOL_PROPERTY
Sum Probability
SciTegic.value.DoubleValue
97.67

@<SCITEGIC>MOL_PROPERTY
Delta G
SciTegic.value.DoubleValue
2.219

@<SCITEGIC>MOL_PROPERTY
G
SciTegic.value.DoubleValue
50.480

@<SCITEGIC>MOL_PROPERTY
E
SciTegic.value.DoubleValue
17.503

@<SCITEGIC>MOL_PROPERTY
-TS
SciTegic.value.DoubleValue
32.977

@<SCITEGIC>MOL_PROPERTY
U+W
SciTegic.value.DoubleValue
-3.959

@<SCITEGIC>MOL_PROPERTY
U
SciTegic.value.DoubleValue
49.925

@<SCITEGIC>MOL_PROPERTY
W
SciTegic.value.DoubleValue
-53.884

@<SCITEGIC>MOL_PROPERTY
W(PB)
SciTegic.value.DoubleValue
-56.157

@<SCITEGIC>MOL_PROPERTY
W(SA)
SciTegic.value.DoubleValue
2.273

@<SCITEGIC>MOL_PROPERTY
Valence
SciTegic.value.DoubleValue
3.593

@<SCITEGIC>MOL_PROPERTY
Coulomb
SciTegic.value.DoubleValue
45.559

@<SCITEGIC>MOL_PROPERTY
VdW
SciTegic.value.DoubleValue
0.774

@<SCITEGIC>MOL_PROPERTY
VdW6
SciTegic.value.DoubleValue
-8.638

@<SCITEGIC>MOL_PROPERTY
VdW12
SciTegic.value.DoubleValue
9.412

@<SCITEGIC>MOL_PROPERTY
Bond
SciTegic.value.DoubleValue
0.265

@<SCITEGIC>MOL_PROPERTY
Angle
SciTegic.value.DoubleValue
1.266

@<SCITEGIC>MOL_PROPERTY
Pdih
SciTegic.value.DoubleValue
2.061

@<SCITEGIC>MOL_PROPERTY
Idih
SciTegic.value.DoubleValue
0.000

@<SCITEGIC>MOL_PROPERTY
Tether
SciTegic.value.DoubleValue
0.000

@<TRIPOS>MOLECULE
guest-s14_vm2.mol2 : vm2 ligand conformer 88
          26          25           1
SMALL
USER_CHARGES
 
@<TRIPOS>ATOM
       1    C1      20.134906   19.843516   20.023029 C.3        1 MOL1        -0.2400
       2    H1      20.255675   20.614944   20.793757 H          1 MOL1         0.0971
       3    H2      20.812721   20.093258   19.196570 H          1 MOL1         0.0971
       4    H3      19.106754   19.895085   19.641998 H          1 MOL1         0.0971
       5    C2      20.451930   18.436009   20.576797 C.3        1 MOL1        -0.1385
       6    H4      21.476890   18.414468   20.970314 H          1 MOL1         0.0960
       7    H5      20.435378   17.717301   19.745623 H          1 MOL1         0.0960
       8    C3      19.450718   17.959137   21.659910 C.3        1 MOL1        -0.1409
       9    H6      18.455576   17.864585   21.203949 H          1 MOL1         0.0960
      10    H7      19.731493   16.946245   21.979726 H          1 MOL1         0.0960
      11    C4      19.338124   18.869650   22.910204 C.3        1 MOL1        -0.1409
      12    H8      18.579211   18.436487   23.574688 H          1 MOL1         0.0960
      13    H9      18.956590   19.857572   22.620385 H          1 MOL1         0.0960
      14    C5      20.672381   19.029190   23.682226 C.3        1 MOL1        -0.1409
      15    H10     21.066663   18.040377   23.951443 H          1 MOL1         0.0960
      16    H11     21.422330   19.489736   23.026148 H          1 MOL1         0.0960
      17    C6      20.541213   19.909326   24.950778 C.3        1 MOL1        -0.1450
      18    H12     20.219202   20.917917   24.659409 H          1 MOL1         0.0960
      19    H13     21.529953   20.026078   25.413971 H          1 MOL1         0.0960
      20    C7      19.555697   19.359433   26.002016 C.3        1 MOL1         0.0172
      21    H14     19.509715   20.047313   26.850660 H          1 MOL1         0.0934
      22    H15     18.554448   19.287861   25.569758 H          1 MOL1         0.0934
      23    N1      19.936031   17.992739   26.536038 N.4        1 MOL1        -0.5956
      24    H16     19.267146   17.657915   27.237915 H          1 MOL1         0.3624
      25    H17     20.859122   18.002037   26.981780 H          1 MOL1         0.3624
      26    H18     19.966415   17.291443   25.789532 H          1 MOL1         0.3624
@<TRIPOS>BOND
    1     1     2    1
    2     1     3    1
    3     1     4    1
    4     1     5    1
    5     5     6    1
    6     5     7    1
    7     5     8    1
    8     8     9    1
    9     8    10    1
   10     8    11    1
   11    11    12    1
   12    11    13    1
   13    11    14    1
   14    14    15    1
   15    14    16    1
   16    14    17    1
   17    17    18    1
   18    17    19    1
   19    17    20    1
   20    20    21    1
   21    20    22    1
   22    20    23    1
   23    23    24    1
   24    23    25    1
   25    23    26    1
@<TRIPOS>SUBSTRUCTURE
       1 MOL1            1 RESIDUE      1      MOL     
@<SCITEGIC>MOL_PROPERTY
VM2 Rank
SciTegic.value.IntegerValue
88

@<SCITEGIC>MOL_PROPERTY
Conf_Id
SciTegic.value.IntegerValue
700

@<SCITEGIC>MOL_PROPERTY
Probability
SciTegic.value.DoubleValue
0.18

@<SCITEGIC>MOL_PROPERTY
Sum Probability
SciTegic.value.DoubleValue
97.85

@<SCITEGIC>MOL_PROPERTY
Delta G
SciTegic.value.DoubleValue
2.225

@<SCITEGIC>MOL_PROPERTY
G
SciTegic.value.DoubleValue
50.486

@<SCITEGIC>MOL_PROPERTY
E
SciTegic.value.DoubleValue
17.431

@<SCITEGIC>MOL_PROPERTY
-TS
SciTegic.value.DoubleValue
33.055

@<SCITEGIC>MOL_PROPERTY
U+W
SciTegic.value.DoubleValue
-4.031

@<SCITEGIC>MOL_PROPERTY
U
SciTegic.value.DoubleValue
49.821

@<SCITEGIC>MOL_PROPERTY
W
SciTegic.value.DoubleValue
-53.852

@<SCITEGIC>MOL_PROPERTY
W(PB)
SciTegic.value.DoubleValue
-56.098

@<SCITEGIC>MOL_PROPERTY
W(SA)
SciTegic.value.DoubleValue
2.246

@<SCITEGIC>MOL_PROPERTY
Valence
SciTegic.value.DoubleValue
3.548

@<SCITEGIC>MOL_PROPERTY
Coulomb
SciTegic.value.DoubleValue
45.474

@<SCITEGIC>MOL_PROPERTY
VdW
SciTegic.value.DoubleValue
0.799

@<SCITEGIC>MOL_PROPERTY
VdW6
SciTegic.value.DoubleValue
-8.640

@<SCITEGIC>MOL_PROPERTY
VdW12
SciTegic.value.DoubleValue
9.439

@<SCITEGIC>MOL_PROPERTY
Bond
SciTegic.value.DoubleValue
0.263

@<SCITEGIC>MOL_PROPERTY
Angle
SciTegic.value.DoubleValue
1.337

@<SCITEGIC>MOL_PROPERTY
Pdih
SciTegic.value.DoubleValue
1.948

@<SCITEGIC>MOL_PROPERTY
Idih
SciTegic.value.DoubleValue
0.000

@<SCITEGIC>MOL_PROPERTY
Tether
SciTegic.value.DoubleValue
0.000

@<TRIPOS>MOLECULE
guest-s14_vm2.mol2 : vm2 ligand conformer 89
          26          25           1
SMALL
USER_CHARGES
 
@<TRIPOS>ATOM
       1    C1      20.431551   19.214705   19.895491 C.3        1 MOL1        -0.2400
       2    H1      19.502219   19.087918   19.325236 H          1 MOL1         0.0971
       3    H2      20.473312   20.248824   20.259383 H          1 MOL1         0.0971
       4    H3      21.272196   19.073128   19.204052 H          1 MOL1         0.0971
       5    C2      20.511175   18.201332   21.059477 C.3        1 MOL1        -0.1385
       6    H4      21.440814   18.357167   21.622828 H          1 MOL1         0.0960
       7    H5      20.578425   17.187268   20.641476 H          1 MOL1         0.0960
       8    C3      19.290270   18.262868   22.012132 C.3        1 MOL1        -0.1409
       9    H6      18.384734   18.010701   21.443443 H          1 MOL1         0.0960
      10    H7      19.389785   17.475396   22.770862 H          1 MOL1         0.0960
      11    C4      19.069698   19.630170   22.713322 C.3        1 MOL1        -0.1409
      12    H8      18.185068   19.555506   23.359777 H          1 MOL1         0.0960
      13    H9      18.812543   20.386332   21.959775 H          1 MOL1         0.0960
      14    C5      20.273168   20.145376   23.547681 C.3        1 MOL1        -0.1409
      15    H10     21.114786   20.369076   22.878744 H          1 MOL1         0.0960
      16    H11     19.996425   21.104623   24.006477 H          1 MOL1         0.0960
      17    C6      20.752361   19.179285   24.659347 C.3        1 MOL1        -0.1450
      18    H12     21.593769   19.641670   25.192217 H          1 MOL1         0.0960
      19    H13     21.140706   18.255232   24.212597 H          1 MOL1         0.0960
      20    C7      19.641487   18.839599   25.670186 C.3        1 MOL1         0.0172
      21    H14     19.263886   19.759487   26.124651 H          1 MOL1         0.0934
      22    H15     18.813797   18.344369   25.155825 H          1 MOL1         0.0934
      23    N1      20.111289   17.925664   26.783364 N.4        1 MOL1        -0.5956
      24    H16     19.356799   17.712037   27.444737 H          1 MOL1         0.3624
      25    H17     20.873362   18.345348   27.325806 H          1 MOL1         0.3624
      26    H18     20.455111   17.029659   26.422851 H          1 MOL1         0.3624
@<TRIPOS>BOND
    1     1     2    1
    2     1     3    1
    3     1     4    1
    4     1     5    1
    5     5     6    1
    6     5     7    1
    7     5     8    1
    8     8     9    1
    9     8    10    1
   10     8    11    1
   11    11    12    1
   12    11    13    1
   13    11    14    1
   14    14    15    1
   15    14    16    1
   16    14    17    1
   17    17    18    1
   18    17    19    1
   19    17    20    1
   20    20    21    1
   21    20    22    1
   22    20    23    1
   23    23    24    1
   24    23    25    1
   25    23    26    1
@<TRIPOS>SUBSTRUCTURE
       1 MOL1            1 RESIDUE      1      MOL     
@<SCITEGIC>MOL_PROPERTY
VM2 Rank
SciTegic.value.IntegerValue
89

@<SCITEGIC>MOL_PROPERTY
Conf_Id
SciTegic.value.IntegerValue
210

@<SCITEGIC>MOL_PROPERTY
Probability
SciTegic.value.DoubleValue
0.16

@<SCITEGIC>MOL_PROPERTY
Sum Probability
SciTegic.value.DoubleValue
98.02

@<SCITEGIC>MOL_PROPERTY
Delta G
SciTegic.value.DoubleValue
2.276

@<SCITEGIC>MOL_PROPERTY
G
SciTegic.value.DoubleValue
50.537

@<SCITEGIC>MOL_PROPERTY
E
SciTegic.value.DoubleValue
17.205

@<SCITEGIC>MOL_PROPERTY
-TS
SciTegic.value.DoubleValue
33.332

@<SCITEGIC>MOL_PROPERTY
U+W
SciTegic.value.DoubleValue
-4.257

@<SCITEGIC>MOL_PROPERTY
U
SciTegic.value.DoubleValue
49.825

@<SCITEGIC>MOL_PROPERTY
W
SciTegic.value.DoubleValue
-54.082

@<SCITEGIC>MOL_PROPERTY
W(PB)
SciTegic.value.DoubleValue
-56.298

@<SCITEGIC>MOL_PROPERTY
W(SA)
SciTegic.value.DoubleValue
2.217

@<SCITEGIC>MOL_PROPERTY
Valence
SciTegic.value.DoubleValue
3.797

@<SCITEGIC>MOL_PROPERTY
Coulomb
SciTegic.value.DoubleValue
45.507

@<SCITEGIC>MOL_PROPERTY
VdW
SciTegic.value.DoubleValue
0.521

@<SCITEGIC>MOL_PROPERTY
VdW6
SciTegic.value.DoubleValue
-9.174

@<SCITEGIC>MOL_PROPERTY
VdW12
SciTegic.value.DoubleValue
9.695

@<SCITEGIC>MOL_PROPERTY
Bond
SciTegic.value.DoubleValue
0.280

@<SCITEGIC>MOL_PROPERTY
Angle
SciTegic.value.DoubleValue
1.536

@<SCITEGIC>MOL_PROPERTY
Pdih
SciTegic.value.DoubleValue
1.980

@<SCITEGIC>MOL_PROPERTY
Idih
SciTegic.value.DoubleValue
0.000

@<SCITEGIC>MOL_PROPERTY
Tether
SciTegic.value.DoubleValue
0.000

@<TRIPOS>MOLECULE
guest-s14_vm2.mol2 : vm2 ligand conformer 90
          26          25           1
SMALL
USER_CHARGES
 
@<TRIPOS>ATOM
       1    C1      20.953659   19.891263   20.447598 C.3        1 MOL1        -0.2400
       2    H1      20.367294   19.816054   19.522697 H          1 MOL1         0.0971
       3    H2      20.551489   20.720336   21.042956 H          1 MOL1         0.0971
       4    H3      21.984014   20.150793   20.172240 H          1 MOL1         0.0971
       5    C2      20.921835   18.561520   21.234296 C.3        1 MOL1        -0.1385
       6    H4      21.504084   18.664216   22.159646 H          1 MOL1         0.0960
       7    H5      21.431146   17.788189   20.642569 H          1 MOL1         0.0960
       8    C3      19.486858   18.072218   21.555853 C.3        1 MOL1        -0.1409
       9    H6      18.959553   17.877851   20.611823 H          1 MOL1         0.0960
      10    H7      19.546949   17.100618   22.063864 H          1 MOL1         0.0960
      11    C4      18.631239   19.048081   22.407979 C.3        1 MOL1        -0.1409
      12    H8      17.651040   18.586852   22.590971 H          1 MOL1         0.0960
      13    H9      18.424735   19.954496   21.823449 H          1 MOL1         0.0960
      14    C5      19.254410   19.458370   23.766932 C.3        1 MOL1        -0.1409
      15    H10     20.183041   20.016677   23.593241 H          1 MOL1         0.0960
      16    H11     18.568733   20.157372   24.265518 H          1 MOL1         0.0960
      17    C6      19.520766   18.257923   24.708765 C.3        1 MOL1        -0.1450
      18    H12     20.272788   17.588074   24.272921 H          1 MOL1         0.0960
      19    H13     18.599871   17.669789   24.817081 H          1 MOL1         0.0960
      20    C7      19.987679   18.697242   26.109686 C.3        1 MOL1         0.0172
      21    H14     19.244851   19.366389   26.552202 H          1 MOL1         0.0934
      22    H15     20.081344   17.818334   26.753327 H          1 MOL1         0.0934
      23    N1      21.324556   19.412384   26.109891 N.4        1 MOL1        -0.5956
      24    H16     21.296105   20.269618   25.549373 H          1 MOL1         0.3624
      25    H17     22.071342   18.823477   25.727390 H          1 MOL1         0.3624
      26    H18     21.611248   19.682238   27.057143 H          1 MOL1         0.3624
@<TRIPOS>BOND
    1     1     2    1
    2     1     3    1
    3     1     4    1
    4     1     5    1
    5     5     6    1
    6     5     7    1
    7     5     8    1
    8     8     9    1
    9     8    10    1
   10     8    11    1
   11    11    12    1
   12    11    13    1
   13    11    14    1
   14    14    15    1
   15    14    16    1
   16    14    17    1
   17    17    18    1
   18    17    19    1
   19    17    20    1
   20    20    21    1
   21    20    22    1
   22    20    23    1
   23    23    24    1
   24    23    25    1
   25    23    26    1
@<TRIPOS>SUBSTRUCTURE
       1 MOL1            1 RESIDUE      1      MOL     
@<SCITEGIC>MOL_PROPERTY
VM2 Rank
SciTegic.value.IntegerValue
90

@<SCITEGIC>MOL_PROPERTY
Conf_Id
SciTegic.value.IntegerValue
851

@<SCITEGIC>MOL_PROPERTY
Probability
SciTegic.value.DoubleValue
0.16

@<SCITEGIC>MOL_PROPERTY
Sum Probability
SciTegic.value.DoubleValue
98.18

@<SCITEGIC>MOL_PROPERTY
Delta G
SciTegic.value.DoubleValue
2.285

@<SCITEGIC>MOL_PROPERTY
G
SciTegic.value.DoubleValue
50.546

@<SCITEGIC>MOL_PROPERTY
E
SciTegic.value.DoubleValue
17.315

@<SCITEGIC>MOL_PROPERTY
-TS
SciTegic.value.DoubleValue
33.231

@<SCITEGIC>MOL_PROPERTY
U+W
SciTegic.value.DoubleValue
-4.146

@<SCITEGIC>MOL_PROPERTY
U
SciTegic.value.DoubleValue
50.091

@<SCITEGIC>MOL_PROPERTY
W
SciTegic.value.DoubleValue
-54.237

@<SCITEGIC>MOL_PROPERTY
W(PB)
SciTegic.value.DoubleValue
-56.466

@<SCITEGIC>MOL_PROPERTY
W(SA)
SciTegic.value.DoubleValue
2.229

@<SCITEGIC>MOL_PROPERTY
Valence
SciTegic.value.DoubleValue
3.653

@<SCITEGIC>MOL_PROPERTY
Coulomb
SciTegic.value.DoubleValue
45.797

@<SCITEGIC>MOL_PROPERTY
VdW
SciTegic.value.DoubleValue
0.641

@<SCITEGIC>MOL_PROPERTY
VdW6
SciTegic.value.DoubleValue
-8.932

@<SCITEGIC>MOL_PROPERTY
VdW12
SciTegic.value.DoubleValue
9.573

@<SCITEGIC>MOL_PROPERTY
Bond
SciTegic.value.DoubleValue
0.273

@<SCITEGIC>MOL_PROPERTY
Angle
SciTegic.value.DoubleValue
1.380

@<SCITEGIC>MOL_PROPERTY
Pdih
SciTegic.value.DoubleValue
2.000

@<SCITEGIC>MOL_PROPERTY
Idih
SciTegic.value.DoubleValue
0.000

@<SCITEGIC>MOL_PROPERTY
Tether
SciTegic.value.DoubleValue
0.000

@<TRIPOS>MOLECULE
guest-s14_vm2.mol2 : vm2 ligand conformer 91
          26          25           1
SMALL
USER_CHARGES
 
@<TRIPOS>ATOM
       1    C1      18.884050   18.527516   20.378354 C.3        1 MOL1        -0.2400
       2    H1      18.253217   17.692415   20.047499 H          1 MOL1         0.0971
       3    H2      18.253310   19.205990   20.966058 H          1 MOL1         0.0971
       4    H3      19.226866   19.064557   19.484494 H          1 MOL1         0.0971
       5    C2      20.080878   18.007401   21.206129 C.3        1 MOL1        -0.1385
       6    H4      20.618137   17.252484   20.615341 H          1 MOL1         0.0960
       7    H5      19.714423   17.484952   22.099768 H          1 MOL1         0.0960
       8    C3      21.079691   19.121856   21.609036 C.3        1 MOL1        -0.1409
       9    H6      21.924522   18.667348   22.143244 H          1 MOL1         0.0960
      10    H7      21.509537   19.558255   20.697000 H          1 MOL1         0.0960
      11    C4      20.480586   20.266719   22.469775 C.3        1 MOL1        -0.1409
      12    H8      19.756744   20.832249   21.867997 H          1 MOL1         0.0960
      13    H9      21.281157   20.978965   22.712259 H          1 MOL1         0.0960
      14    C5      19.795490   19.814840   23.785025 C.3        1 MOL1        -0.1409
      15    H10     19.400216   20.705181   24.293351 H          1 MOL1         0.0960
      16    H11     18.925621   19.188014   23.551256 H          1 MOL1         0.0960
      17    C6      20.749128   19.067237   24.749771 C.3        1 MOL1        -0.1450
      18    H12     21.646438   19.677127   24.918734 H          1 MOL1         0.0960
      19    H13     21.088519   18.125510   24.300148 H          1 MOL1         0.0960
      20    C7      20.096949   18.769160   26.113370 C.3        1 MOL1         0.0172
      21    H14     20.837144   18.316184   26.778539 H          1 MOL1         0.0934
      22    H15     19.754358   19.701975   26.569284 H          1 MOL1         0.0934
      23    N1      18.914229   17.824271   26.029539 N.4        1 MOL1        -0.5956
      24    H16     18.509625   17.638651   26.953736 H          1 MOL1         0.3624
      25    H17     19.178806   16.917669   25.630939 H          1 MOL1         0.3624
      26    H18     18.164415   18.206248   25.444977 H          1 MOL1         0.3624
@<TRIPOS>BOND
    1     1     2    1
    2     1     3    1
    3     1     4    1
    4     1     5    1
    5     5     6    1
    6     5     7    1
    7     5     8    1
    8     8     9    1
    9     8    10    1
   10     8    11    1
   11    11    12    1
   12    11    13    1
   13    11    14    1
   14    14    15    1
   15    14    16    1
   16    14    17    1
   17    17    18    1
   18    17    19    1
   19    17    20    1
   20    20    21    1
   21    20    22    1
   22    20    23    1
   23    23    24    1
   24    23    25    1
   25    23    26    1
@<TRIPOS>SUBSTRUCTURE
       1 MOL1            1 RESIDUE      1      MOL     
@<SCITEGIC>MOL_PROPERTY
VM2 Rank
SciTegic.value.IntegerValue
91

@<SCITEGIC>MOL_PROPERTY
Conf_Id
SciTegic.value.IntegerValue
1093

@<SCITEGIC>MOL_PROPERTY
Probability
SciTegic.value.DoubleValue
0.16

@<SCITEGIC>MOL_PROPERTY
Sum Probability
SciTegic.value.DoubleValue
98.34

@<SCITEGIC>MOL_PROPERTY
Delta G
SciTegic.value.DoubleValue
2.289

@<SCITEGIC>MOL_PROPERTY
G
SciTegic.value.DoubleValue
50.550

@<SCITEGIC>MOL_PROPERTY
E
SciTegic.value.DoubleValue
17.319

@<SCITEGIC>MOL_PROPERTY
-TS
SciTegic.value.DoubleValue
33.231

@<SCITEGIC>MOL_PROPERTY
U+W
SciTegic.value.DoubleValue
-4.143

@<SCITEGIC>MOL_PROPERTY
U
SciTegic.value.DoubleValue
50.091

@<SCITEGIC>MOL_PROPERTY
W
SciTegic.value.DoubleValue
-54.233

@<SCITEGIC>MOL_PROPERTY
W(PB)
SciTegic.value.DoubleValue
-56.461

@<SCITEGIC>MOL_PROPERTY
W(SA)
SciTegic.value.DoubleValue
2.228

@<SCITEGIC>MOL_PROPERTY
Valence
SciTegic.value.DoubleValue
3.653

@<SCITEGIC>MOL_PROPERTY
Coulomb
SciTegic.value.DoubleValue
45.797

@<SCITEGIC>MOL_PROPERTY
VdW
SciTegic.value.DoubleValue
0.641

@<SCITEGIC>MOL_PROPERTY
VdW6
SciTegic.value.DoubleValue
-8.932

@<SCITEGIC>MOL_PROPERTY
VdW12
SciTegic.value.DoubleValue
9.573

@<SCITEGIC>MOL_PROPERTY
Bond
SciTegic.value.DoubleValue
0.273

@<SCITEGIC>MOL_PROPERTY
Angle
SciTegic.value.DoubleValue
1.380

@<SCITEGIC>MOL_PROPERTY
Pdih
SciTegic.value.DoubleValue
2.000

@<SCITEGIC>MOL_PROPERTY
Idih
SciTegic.value.DoubleValue
0.000

@<SCITEGIC>MOL_PROPERTY
Tether
SciTegic.value.DoubleValue
0.000

@<TRIPOS>MOLECULE
guest-s14_vm2.mol2 : vm2 ligand conformer 92
          26          25           1
SMALL
USER_CHARGES
 
@<TRIPOS>ATOM
       1    C1      19.736176   18.756657   19.872290 C.3        1 MOL1        -0.2400
       2    H1      19.567564   17.950150   19.147077 H          1 MOL1         0.0971
       3    H2      18.753328   19.115599   20.202039 H          1 MOL1         0.0971
       4    H3      20.244743   19.577396   19.350112 H          1 MOL1         0.0971
       5    C2      20.581181   18.247463   21.061751 C.3        1 MOL1        -0.1385
       6    H4      21.505206   17.797952   20.672276 H          1 MOL1         0.0960
       7    H5      20.046111   17.438176   21.576175 H          1 MOL1         0.0960
       8    C3      20.960845   19.363472   22.067897 C.3        1 MOL1        -0.1409
       9    H6      21.609364   18.937674   22.844945 H          1 MOL1         0.0960
      10    H7      21.575211   20.112683   21.549988 H          1 MOL1         0.0960
      11    C4      19.759677   20.084702   22.736369 C.3        1 MOL1        -0.1409
      12    H8      19.201696   20.642696   21.972797 H          1 MOL1         0.0960
      13    H9      20.146302   20.847562   23.425293 H          1 MOL1         0.0960
      14    C5      18.774206   19.157722   23.497605 C.3        1 MOL1        -0.1409
      15    H10     17.981030   19.776724   23.939135 H          1 MOL1         0.0960
      16    H11     18.268771   18.493890   22.783671 H          1 MOL1         0.0960
      17    C6      19.420870   18.301998   24.614887 C.3        1 MOL1        -0.1450
      18    H12     20.137256   17.594065   24.179119 H          1 MOL1         0.0960
      19    H13     18.640411   17.695817   25.093581 H          1 MOL1         0.0960
      20    C7      20.122825   19.156752   25.686276 C.3        1 MOL1         0.0172
      21    H14     20.927181   19.736792   25.226432 H          1 MOL1         0.0934
      22    H15     19.405671   19.852943   26.129361 H          1 MOL1         0.0934
      23    N1      20.725220   18.330233   26.803926 N.4        1 MOL1        -0.5956
      24    H16     20.014741   17.779726   27.297175 H          1 MOL1         0.3624
      25    H17     21.187454   18.918301   27.505939 H          1 MOL1         0.3624
      26    H18     21.429370   17.671621   26.455489 H          1 MOL1         0.3624
@<TRIPOS>BOND
    1     1     2    1
    2     1     3    1
    3     1     4    1
    4     1     5    1
    5     5     6    1
    6     5     7    1
    7     5     8    1
    8     8     9    1
    9     8    10    1
   10     8    11    1
   11    11    12    1
   12    11    13    1
   13    11    14    1
   14    14    15    1
   15    14    16    1
   16    14    17    1
   17    17    18    1
   18    17    19    1
   19    17    20    1
   20    20    21    1
   21    20    22    1
   22    20    23    1
   23    23    24    1
   24    23    25    1
   25    23    26    1
@<TRIPOS>SUBSTRUCTURE
       1 MOL1            1 RESIDUE      1      MOL     
@<SCITEGIC>MOL_PROPERTY
VM2 Rank
SciTegic.value.IntegerValue
92

@<SCITEGIC>MOL_PROPERTY
Conf_Id
SciTegic.value.IntegerValue
1360

@<SCITEGIC>MOL_PROPERTY
Probability
SciTegic.value.DoubleValue
0.15

@<SCITEGIC>MOL_PROPERTY
Sum Probability
SciTegic.value.DoubleValue
98.49

@<SCITEGIC>MOL_PROPERTY
Delta G
SciTegic.value.DoubleValue
2.314

@<SCITEGIC>MOL_PROPERTY
G
SciTegic.value.DoubleValue
50.575

@<SCITEGIC>MOL_PROPERTY
E
SciTegic.value.DoubleValue
17.243

@<SCITEGIC>MOL_PROPERTY
-TS
SciTegic.value.DoubleValue
33.332

@<SCITEGIC>MOL_PROPERTY
U+W
SciTegic.value.DoubleValue
-4.219

@<SCITEGIC>MOL_PROPERTY
U
SciTegic.value.DoubleValue
49.825

@<SCITEGIC>MOL_PROPERTY
W
SciTegic.value.DoubleValue
-54.043

@<SCITEGIC>MOL_PROPERTY
W(PB)
SciTegic.value.DoubleValue
-56.276

@<SCITEGIC>MOL_PROPERTY
W(SA)
SciTegic.value.DoubleValue
2.232

@<SCITEGIC>MOL_PROPERTY
Valence
SciTegic.value.DoubleValue
3.796

@<SCITEGIC>MOL_PROPERTY
Coulomb
SciTegic.value.DoubleValue
45.507

@<SCITEGIC>MOL_PROPERTY
VdW
SciTegic.value.DoubleValue
0.521

@<SCITEGIC>MOL_PROPERTY
VdW6
SciTegic.value.DoubleValue
-9.174

@<SCITEGIC>MOL_PROPERTY
VdW12
SciTegic.value.DoubleValue
9.695

@<SCITEGIC>MOL_PROPERTY
Bond
SciTegic.value.DoubleValue
0.280

@<SCITEGIC>MOL_PROPERTY
Angle
SciTegic.value.DoubleValue
1.536

@<SCITEGIC>MOL_PROPERTY
Pdih
SciTegic.value.DoubleValue
1.980

@<SCITEGIC>MOL_PROPERTY
Idih
SciTegic.value.DoubleValue
0.000

@<SCITEGIC>MOL_PROPERTY
Tether
SciTegic.value.DoubleValue
0.000

@<TRIPOS>MOLECULE
guest-s14_vm2.mol2 : vm2 ligand conformer 93
          26          25           1
SMALL
USER_CHARGES
 
@<TRIPOS>ATOM
       1    C1      20.877777   20.356756   21.004553 C.3        1 MOL1        -0.2400
       2    H1      21.822195   20.646585   20.526067 H          1 MOL1         0.0971
       3    H2      20.080100   20.977888   20.576900 H          1 MOL1         0.0971
       4    H3      20.962238   20.592843   22.072131 H          1 MOL1         0.0971
       5    C2      20.593965   18.854851   20.776240 C.3        1 MOL1        -0.1385
       6    H4      21.395441   18.253074   21.225038 H          1 MOL1         0.0960
       7    H5      20.632415   18.648396   19.697552 H          1 MOL1         0.0960
       8    C3      19.214156   18.399203   21.315823 C.3        1 MOL1        -0.1409
       9    H6      18.425315   18.934767   20.769903 H          1 MOL1         0.0960
      10    H7      19.074546   17.335639   21.078191 H          1 MOL1         0.0960
      11    C4      18.996780   18.608846   22.836508 C.3        1 MOL1        -0.1409
      12    H8      17.981505   18.273761   23.089491 H          1 MOL1         0.0960
      13    H9      19.027377   19.681014   23.068238 H          1 MOL1         0.0960
      14    C5      20.014112   17.839243   23.716021 C.3        1 MOL1        -0.1409
      15    H10     20.022512   16.782577   23.415293 H          1 MOL1         0.0960
      16    H11     21.029157   18.216496   23.538719 H          1 MOL1         0.0960
      17    C6      19.689839   17.919898   25.228698 C.3        1 MOL1        -0.1450
      18    H12     20.418502   17.319391   25.789254 H          1 MOL1         0.0960
      19    H13     18.709098   17.461957   25.413813 H          1 MOL1         0.0960
      20    C7      19.679666   19.355987   25.790657 C.3        1 MOL1         0.0172
      21    H14     18.930794   19.953716   25.264768 H          1 MOL1         0.0934
      22    H15     19.409766   19.329433   26.849872 H          1 MOL1         0.0934
      23    N1      21.014707   20.064216   25.672499 N.4        1 MOL1        -0.5956
      24    H16     21.314004   20.143860   24.696011 H          1 MOL1         0.3624
      25    H17     21.754611   19.565906   26.177738 H          1 MOL1         0.3624
      26    H18     20.977042   21.014555   26.056838 H          1 MOL1         0.3624
@<TRIPOS>BOND
    1     1     2    1
    2     1     3    1
    3     1     4    1
    4     1     5    1
    5     5     6    1
    6     5     7    1
    7     5     8    1
    8     8     9    1
    9     8    10    1
   10     8    11    1
   11    11    12    1
   12    11    13    1
   13    11    14    1
   14    14    15    1
   15    14    16    1
   16    14    17    1
   17    17    18    1
   18    17    19    1
   19    17    20    1
   20    20    21    1
   21    20    22    1
   22    20    23    1
   23    23    24    1
   24    23    25    1
   25    23    26    1
@<TRIPOS>SUBSTRUCTURE
       1 MOL1            1 RESIDUE      1      MOL     
@<SCITEGIC>MOL_PROPERTY
VM2 Rank
SciTegic.value.IntegerValue
93

@<SCITEGIC>MOL_PROPERTY
Conf_Id
SciTegic.value.IntegerValue
538

@<SCITEGIC>MOL_PROPERTY
Probability
SciTegic.value.DoubleValue
0.09

@<SCITEGIC>MOL_PROPERTY
Sum Probability
SciTegic.value.DoubleValue
98.58

@<SCITEGIC>MOL_PROPERTY
Delta G
SciTegic.value.DoubleValue
2.625

@<SCITEGIC>MOL_PROPERTY
G
SciTegic.value.DoubleValue
50.886

@<SCITEGIC>MOL_PROPERTY
E
SciTegic.value.DoubleValue
17.833

@<SCITEGIC>MOL_PROPERTY
-TS
SciTegic.value.DoubleValue
33.053

@<SCITEGIC>MOL_PROPERTY
U+W
SciTegic.value.DoubleValue
-3.629

@<SCITEGIC>MOL_PROPERTY
U
SciTegic.value.DoubleValue
50.414

@<SCITEGIC>MOL_PROPERTY
W
SciTegic.value.DoubleValue
-54.043

@<SCITEGIC>MOL_PROPERTY
W(PB)
SciTegic.value.DoubleValue
-56.257

@<SCITEGIC>MOL_PROPERTY
W(SA)
SciTegic.value.DoubleValue
2.213

@<SCITEGIC>MOL_PROPERTY
Valence
SciTegic.value.DoubleValue
3.472

@<SCITEGIC>MOL_PROPERTY
Coulomb
SciTegic.value.DoubleValue
46.374

@<SCITEGIC>MOL_PROPERTY
VdW
SciTegic.value.DoubleValue
0.568

@<SCITEGIC>MOL_PROPERTY
VdW6
SciTegic.value.DoubleValue
-8.862

@<SCITEGIC>MOL_PROPERTY
VdW12
SciTegic.value.DoubleValue
9.430

@<SCITEGIC>MOL_PROPERTY
Bond
SciTegic.value.DoubleValue
0.255

@<SCITEGIC>MOL_PROPERTY
Angle
SciTegic.value.DoubleValue
1.219

@<SCITEGIC>MOL_PROPERTY
Pdih
SciTegic.value.DoubleValue
1.997

@<SCITEGIC>MOL_PROPERTY
Idih
SciTegic.value.DoubleValue
0.000

@<SCITEGIC>MOL_PROPERTY
Tether
SciTegic.value.DoubleValue
0.000

@<TRIPOS>MOLECULE
guest-s14_vm2.mol2 : vm2 ligand conformer 94
          26          25           1
SMALL
USER_CHARGES
 
@<TRIPOS>ATOM
       1    C1      20.591142   19.203120   19.955914 C.3        1 MOL1        -0.2400
       2    H1      19.947486   19.961316   19.491414 H          1 MOL1         0.0971
       3    H2      21.402490   19.718183   20.485049 H          1 MOL1         0.0971
       4    H3      21.045085   18.609315   19.152084 H          1 MOL1         0.0971
       5    C2      19.780881   18.295238   20.908459 C.3        1 MOL1        -0.1385
       6    H4      20.447863   17.555978   21.371571 H          1 MOL1         0.0960
       7    H5      19.056722   17.718517   20.316384 H          1 MOL1         0.0960
       8    C3      19.011433   19.081378   22.000217 C.3        1 MOL1        -0.1409
       9    H6      18.283510   19.743889   21.512179 H          1 MOL1         0.0960
      10    H7      18.415327   18.375877   22.593970 H          1 MOL1         0.0960
      11    C4      19.898022   19.933108   22.948010 C.3        1 MOL1        -0.1409
      12    H8      19.249022   20.442029   23.672956 H          1 MOL1         0.0960
      13    H9      20.374144   20.737989   22.372537 H          1 MOL1         0.0960
      14    C5      20.997611   19.143404   23.707616 C.3        1 MOL1        -0.1409
      15    H10     21.731180   18.754734   22.988921 H          1 MOL1         0.0960
      16    H11     21.556720   19.841739   24.344515 H          1 MOL1         0.0960
      17    C6      20.471659   17.969884   24.574962 C.3        1 MOL1        -0.1450
      18    H12     21.316051   17.497492   25.094046 H          1 MOL1         0.0960
      19    H13     20.045711   17.193780   23.926463 H          1 MOL1         0.0960
      20    C7      19.410622   18.386899   25.612930 C.3        1 MOL1         0.0172
      21    H14     18.550913   18.830053   25.103670 H          1 MOL1         0.0934
      22    H15     19.065869   17.502723   26.155897 H          1 MOL1         0.0934
      23    N1      19.919630   19.385969   26.632891 N.4        1 MOL1        -0.5956
      24    H16     19.194074   19.642017   27.311166 H          1 MOL1         0.3624
      25    H17     20.235261   20.252552   26.186535 H          1 MOL1         0.3624
      26    H18     20.711651   19.013907   27.166804 H          1 MOL1         0.3624
@<TRIPOS>BOND
    1     1     2    1
    2     1     3    1
    3     1     4    1
    4     1     5    1
    5     5     6    1
    6     5     7    1
    7     5     8    1
    8     8     9    1
    9     8    10    1
   10     8    11    1
   11    11    12    1
   12    11    13    1
   13    11    14    1
   14    14    15    1
   15    14    16    1
   16    14    17    1
   17    17    18    1
   18    17    19    1
   19    17    20    1
   20    20    21    1
   21    20    22    1
   22    20    23    1
   23    23    24    1
   24    23    25    1
   25    23    26    1
@<TRIPOS>SUBSTRUCTURE
       1 MOL1            1 RESIDUE      1      MOL     
@<SCITEGIC>MOL_PROPERTY
VM2 Rank
SciTegic.value.IntegerValue
94

@<SCITEGIC>MOL_PROPERTY
Conf_Id
SciTegic.value.IntegerValue
506

@<SCITEGIC>MOL_PROPERTY
Probability
SciTegic.value.DoubleValue
0.08

@<SCITEGIC>MOL_PROPERTY
Sum Probability
SciTegic.value.DoubleValue
98.67

@<SCITEGIC>MOL_PROPERTY
Delta G
SciTegic.value.DoubleValue
2.670

@<SCITEGIC>MOL_PROPERTY
G
SciTegic.value.DoubleValue
50.931

@<SCITEGIC>MOL_PROPERTY
E
SciTegic.value.DoubleValue
17.404

@<SCITEGIC>MOL_PROPERTY
-TS
SciTegic.value.DoubleValue
33.527

@<SCITEGIC>MOL_PROPERTY
U+W
SciTegic.value.DoubleValue
-4.058

@<SCITEGIC>MOL_PROPERTY
U
SciTegic.value.DoubleValue
50.052

@<SCITEGIC>MOL_PROPERTY
W
SciTegic.value.DoubleValue
-54.110

@<SCITEGIC>MOL_PROPERTY
W(PB)
SciTegic.value.DoubleValue
-56.309

@<SCITEGIC>MOL_PROPERTY
W(SA)
SciTegic.value.DoubleValue
2.199

@<SCITEGIC>MOL_PROPERTY
Valence
SciTegic.value.DoubleValue
3.895

@<SCITEGIC>MOL_PROPERTY
Coulomb
SciTegic.value.DoubleValue
45.624

@<SCITEGIC>MOL_PROPERTY
VdW
SciTegic.value.DoubleValue
0.532

@<SCITEGIC>MOL_PROPERTY
VdW6
SciTegic.value.DoubleValue
-9.866

@<SCITEGIC>MOL_PROPERTY
VdW12
SciTegic.value.DoubleValue
10.399

@<SCITEGIC>MOL_PROPERTY
Bond
SciTegic.value.DoubleValue
0.306

@<SCITEGIC>MOL_PROPERTY
Angle
SciTegic.value.DoubleValue
1.609

@<SCITEGIC>MOL_PROPERTY
Pdih
SciTegic.value.DoubleValue
1.981

@<SCITEGIC>MOL_PROPERTY
Idih
SciTegic.value.DoubleValue
0.000

@<SCITEGIC>MOL_PROPERTY
Tether
SciTegic.value.DoubleValue
0.000

@<TRIPOS>MOLECULE
guest-s14_vm2.mol2 : vm2 ligand conformer 95
          26          25           1
SMALL
USER_CHARGES
 
@<TRIPOS>ATOM
       1    C1      19.681487   18.603161   19.925580 C.3        1 MOL1        -0.2400
       2    H1      20.085952   17.976841   19.120010 H          1 MOL1         0.0971
       3    H2      18.865333   18.044663   20.400486 H          1 MOL1         0.0971
       4    H3      19.259266   19.507482   19.468583 H          1 MOL1         0.0971
       5    C2      20.789386   18.960334   20.941999 C.3        1 MOL1        -0.1385
       6    H4      21.630912   19.416267   20.402068 H          1 MOL1         0.0960
       7    H5      21.185037   18.042100   21.396039 H          1 MOL1         0.0960
       8    C3      20.318827   19.943551   22.043756 C.3        1 MOL1        -0.1409
       9    H6      21.173344   20.194663   22.685910 H          1 MOL1         0.0960
      10    H7      20.018907   20.888320   21.570012 H          1 MOL1         0.0960
      11    C4      19.144277   19.436040   22.922767 C.3        1 MOL1        -0.1409
      12    H8      18.244770   19.333753   22.301382 H          1 MOL1         0.0960
      13    H9      18.898051   20.210572   23.661158 H          1 MOL1         0.0960
      14    C5      19.402415   18.091425   23.654276 C.3        1 MOL1        -0.1409
      15    H10     18.511771   17.833660   24.242681 H          1 MOL1         0.0960
      16    H11     19.504827   17.286472   22.914497 H          1 MOL1         0.0960
      17    C6      20.646404   18.085236   24.580836 C.3        1 MOL1        -0.1450
      18    H12     21.556720   18.190523   23.977050 H          1 MOL1         0.0960
      19    H13     20.724600   17.107458   25.074226 H          1 MOL1         0.0960
      20    C7      20.631574   19.192239   25.653870 C.3        1 MOL1         0.0172
      21    H14     21.553816   19.143745   26.239151 H          1 MOL1         0.0934
      22    H15     20.585665   20.172252   25.171899 H          1 MOL1         0.0934
      23    N1      19.466629   19.087014   26.617916 N.4        1 MOL1        -0.5956
      24    H16     19.472687   18.196456   27.125518 H          1 MOL1         0.3624
      25    H17     18.567479   19.152299   26.130995 H          1 MOL1         0.3624
      26    H18     19.484677   19.833530   27.321079 H          1 MOL1         0.3624
@<TRIPOS>BOND
    1     1     2    1
    2     1     3    1
    3     1     4    1
    4     1     5    1
    5     5     6    1
    6     5     7    1
    7     5     8    1
    8     8     9    1
    9     8    10    1
   10     8    11    1
   11    11    12    1
   12    11    13    1
   13    11    14    1
   14    14    15    1
   15    14    16    1
   16    14    17    1
   17    17    18    1
   18    17    19    1
   19    17    20    1
   20    20    21    1
   21    20    22    1
   22    20    23    1
   23    23    24    1
   24    23    25    1
   25    23    26    1
@<TRIPOS>SUBSTRUCTURE
       1 MOL1            1 RESIDUE      1      MOL     
@<SCITEGIC>MOL_PROPERTY
VM2 Rank
SciTegic.value.IntegerValue
95

@<SCITEGIC>MOL_PROPERTY
Conf_Id
SciTegic.value.IntegerValue
842

@<SCITEGIC>MOL_PROPERTY
Probability
SciTegic.value.DoubleValue
0.08

@<SCITEGIC>MOL_PROPERTY
Sum Probability
SciTegic.value.DoubleValue
98.75

@<SCITEGIC>MOL_PROPERTY
Delta G
SciTegic.value.DoubleValue
2.709

@<SCITEGIC>MOL_PROPERTY
G
SciTegic.value.DoubleValue
50.970

@<SCITEGIC>MOL_PROPERTY
E
SciTegic.value.DoubleValue
17.443

@<SCITEGIC>MOL_PROPERTY
-TS
SciTegic.value.DoubleValue
33.527

@<SCITEGIC>MOL_PROPERTY
U+W
SciTegic.value.DoubleValue
-4.019

@<SCITEGIC>MOL_PROPERTY
U
SciTegic.value.DoubleValue
50.052

@<SCITEGIC>MOL_PROPERTY
W
SciTegic.value.DoubleValue
-54.071

@<SCITEGIC>MOL_PROPERTY
W(PB)
SciTegic.value.DoubleValue
-56.267

@<SCITEGIC>MOL_PROPERTY
W(SA)
SciTegic.value.DoubleValue
2.196

@<SCITEGIC>MOL_PROPERTY
Valence
SciTegic.value.DoubleValue
3.895

@<SCITEGIC>MOL_PROPERTY
Coulomb
SciTegic.value.DoubleValue
45.624

@<SCITEGIC>MOL_PROPERTY
VdW
SciTegic.value.DoubleValue
0.532

@<SCITEGIC>MOL_PROPERTY
VdW6
SciTegic.value.DoubleValue
-9.866

@<SCITEGIC>MOL_PROPERTY
VdW12
SciTegic.value.DoubleValue
10.398

@<SCITEGIC>MOL_PROPERTY
Bond
SciTegic.value.DoubleValue
0.306

@<SCITEGIC>MOL_PROPERTY
Angle
SciTegic.value.DoubleValue
1.609

@<SCITEGIC>MOL_PROPERTY
Pdih
SciTegic.value.DoubleValue
1.981

@<SCITEGIC>MOL_PROPERTY
Idih
SciTegic.value.DoubleValue
0.000

@<SCITEGIC>MOL_PROPERTY
Tether
SciTegic.value.DoubleValue
0.000

@<TRIPOS>MOLECULE
guest-s14_vm2.mol2 : vm2 ligand conformer 96
          26          25           1
SMALL
USER_CHARGES
 
@<TRIPOS>ATOM
       1    C1      19.906891   18.596374   19.192354 C.3        1 MOL1        -0.2400
       2    H1      20.594924   19.394011   18.883115 H          1 MOL1         0.0971
       3    H2      20.061626   17.739817   18.523468 H          1 MOL1         0.0971
       4    H3      18.879677   18.955719   19.047633 H          1 MOL1         0.0971
       5    C2      20.151210   18.191668   20.661571 C.3        1 MOL1        -0.1385
       6    H4      21.174659   17.805405   20.767782 H          1 MOL1         0.0960
       7    H5      19.472581   17.370136   20.930688 H          1 MOL1         0.0960
       8    C3      19.939718   19.380558   21.625039 C.3        1 MOL1        -0.1409
       9    H6      20.617717   20.199907   21.348587 H          1 MOL1         0.0960
      10    H7      18.915963   19.764219   21.514398 H          1 MOL1         0.0960
      11    C4      20.184966   18.979759   23.097322 C.3        1 MOL1        -0.1409
      12    H8      21.211909   18.604722   23.207512 H          1 MOL1         0.0960
      13    H9      19.505269   18.158497   23.355928 H          1 MOL1         0.0960
      14    C5      19.959102   20.169525   24.060104 C.3        1 MOL1        -0.1409
      15    H10     20.533135   21.033853   23.698359 H          1 MOL1         0.0960
      16    H11     18.902500   20.469783   24.029979 H          1 MOL1         0.0960
      17    C6      20.375638   19.895300   25.527862 C.3        1 MOL1        -0.1450
      18    H12     20.247129   20.827651   26.093612 H          1 MOL1         0.0960
      19    H13     21.445617   19.654558   25.583223 H          1 MOL1         0.0960
      20    C7      19.550131   18.799949   26.234317 C.3        1 MOL1         0.0172
      21    H14     19.623065   18.941667   27.316028 H          1 MOL1         0.0934
      22    H15     18.497739   18.887401   25.951259 H          1 MOL1         0.0934
      23    N1      20.013344   17.385867   25.942431 N.4        1 MOL1        -0.5956
      24    H16     19.968937   17.169771   24.942756 H          1 MOL1         0.3624
      25    H17     19.438212   16.689525   26.429011 H          1 MOL1         0.3624
      26    H18     20.982000   17.234770   26.242389 H          1 MOL1         0.3624
@<TRIPOS>BOND
    1     1     2    1
    2     1     3    1
    3     1     4    1
    4     1     5    1
    5     5     6    1
    6     5     7    1
    7     5     8    1
    8     8     9    1
    9     8    10    1
   10     8    11    1
   11    11    12    1
   12    11    13    1
   13    11    14    1
   14    14    15    1
   15    14    16    1
   16    14    17    1
   17    17    18    1
   18    17    19    1
   19    17    20    1
   20    20    21    1
   21    20    22    1
   22    20    23    1
   23    23    24    1
   24    23    25    1
   25    23    26    1
@<TRIPOS>SUBSTRUCTURE
       1 MOL1            1 RESIDUE      1      MOL     
@<SCITEGIC>MOL_PROPERTY
VM2 Rank
SciTegic.value.IntegerValue
96

@<SCITEGIC>MOL_PROPERTY
Conf_Id
SciTegic.value.IntegerValue
1179

@<SCITEGIC>MOL_PROPERTY
Probability
SciTegic.value.DoubleValue
0.07

@<SCITEGIC>MOL_PROPERTY
Sum Probability
SciTegic.value.DoubleValue
98.82

@<SCITEGIC>MOL_PROPERTY
Delta G
SciTegic.value.DoubleValue
2.776

@<SCITEGIC>MOL_PROPERTY
G
SciTegic.value.DoubleValue
51.037

@<SCITEGIC>MOL_PROPERTY
E
SciTegic.value.DoubleValue
18.537

@<SCITEGIC>MOL_PROPERTY
-TS
SciTegic.value.DoubleValue
32.500

@<SCITEGIC>MOL_PROPERTY
U+W
SciTegic.value.DoubleValue
-2.925

@<SCITEGIC>MOL_PROPERTY
U
SciTegic.value.DoubleValue
50.881

@<SCITEGIC>MOL_PROPERTY
W
SciTegic.value.DoubleValue
-53.806

@<SCITEGIC>MOL_PROPERTY
W(PB)
SciTegic.value.DoubleValue
-56.130

@<SCITEGIC>MOL_PROPERTY
W(SA)
SciTegic.value.DoubleValue
2.324

@<SCITEGIC>MOL_PROPERTY
Valence
SciTegic.value.DoubleValue
3.754

@<SCITEGIC>MOL_PROPERTY
Coulomb
SciTegic.value.DoubleValue
46.575

@<SCITEGIC>MOL_PROPERTY
VdW
SciTegic.value.DoubleValue
0.553

@<SCITEGIC>MOL_PROPERTY
VdW6
SciTegic.value.DoubleValue
-7.277

@<SCITEGIC>MOL_PROPERTY
VdW12
SciTegic.value.DoubleValue
7.829

@<SCITEGIC>MOL_PROPERTY
Bond
SciTegic.value.DoubleValue
0.187

@<SCITEGIC>MOL_PROPERTY
Angle
SciTegic.value.DoubleValue
0.957

@<SCITEGIC>MOL_PROPERTY
Pdih
SciTegic.value.DoubleValue
2.610

@<SCITEGIC>MOL_PROPERTY
Idih
SciTegic.value.DoubleValue
0.000

@<SCITEGIC>MOL_PROPERTY
Tether
SciTegic.value.DoubleValue
0.000

@<TRIPOS>MOLECULE
guest-s14_vm2.mol2 : vm2 ligand conformer 97
          26          25           1
SMALL
USER_CHARGES
 
@<TRIPOS>ATOM
       1    C1      20.543111   19.015752   19.213588 C.3        1 MOL1        -0.2400
       2    H1      20.623805   20.105301   19.105825 H          1 MOL1         0.0971
       3    H2      21.299893   18.555995   18.564786 H          1 MOL1         0.0971
       4    H3      19.554483   18.708329   18.848419 H          1 MOL1         0.0971
       5    C2      20.750376   18.586621   20.681567 C.3        1 MOL1        -0.1385
       6    H4      21.759100   18.877225   21.006991 H          1 MOL1         0.0960
       7    H5      20.697698   17.491080   20.751866 H          1 MOL1         0.0960
       8    C3      19.697020   19.220633   21.616944 C.3        1 MOL1        -0.1409
       9    H6      19.752468   20.315566   21.542389 H          1 MOL1         0.0960
      10    H7      18.690889   18.930035   21.284236 H          1 MOL1         0.0960
      11    C4      19.900102   18.791980   23.087800 C.3        1 MOL1        -0.1409
      12    H8      20.909435   19.084061   23.402875 H          1 MOL1         0.0960
      13    H9      19.835652   17.697528   23.161468 H          1 MOL1         0.0960
      14    C5      18.851482   19.439370   24.023099 C.3        1 MOL1        -0.1409
      15    H10     18.992472   20.529091   24.032996 H          1 MOL1         0.0960
      16    H11     17.848943   19.264411   23.608680 H          1 MOL1         0.0960
      17    C6      18.871273   18.903589   25.477596 C.3        1 MOL1        -0.1450
      18    H12     18.669207   17.824294   25.490450 H          1 MOL1         0.0960
      19    H13     18.039245   19.372163   26.019843 H          1 MOL1         0.0960
      20    C7      20.168765   19.207762   26.254983 C.3        1 MOL1         0.0172
      21    H14     20.515299   20.217391   26.018631 H          1 MOL1         0.0934
      22    H15     19.959598   19.163557   27.327269 H          1 MOL1         0.0934
      23    N1      21.298871   18.233292   25.985423 N.4        1 MOL1        -0.5956
      24    H16     22.141758   18.471756   26.519376 H          1 MOL1         0.3624
      25    H17     21.561317   18.219424   24.996005 H          1 MOL1         0.3624
      26    H18     21.042920   17.274925   26.244504 H          1 MOL1         0.3624
@<TRIPOS>BOND
    1     1     2    1
    2     1     3    1
    3     1     4    1
    4     1     5    1
    5     5     6    1
    6     5     7    1
    7     5     8    1
    8     8     9    1
    9     8    10    1
   10     8    11    1
   11    11    12    1
   12    11    13    1
   13    11    14    1
   14    14    15    1
   15    14    16    1
   16    14    17    1
   17    17    18    1
   18    17    19    1
   19    17    20    1
   20    20    21    1
   21    20    22    1
   22    20    23    1
   23    23    24    1
   24    23    25    1
   25    23    26    1
@<TRIPOS>SUBSTRUCTURE
       1 MOL1            1 RESIDUE      1      MOL     
@<SCITEGIC>MOL_PROPERTY
VM2 Rank
SciTegic.value.IntegerValue
97

@<SCITEGIC>MOL_PROPERTY
Conf_Id
SciTegic.value.IntegerValue
452

@<SCITEGIC>MOL_PROPERTY
Probability
SciTegic.value.DoubleValue
0.07

@<SCITEGIC>MOL_PROPERTY
Sum Probability
SciTegic.value.DoubleValue
98.89

@<SCITEGIC>MOL_PROPERTY
Delta G
SciTegic.value.DoubleValue
2.784

@<SCITEGIC>MOL_PROPERTY
G
SciTegic.value.DoubleValue
51.045

@<SCITEGIC>MOL_PROPERTY
E
SciTegic.value.DoubleValue
18.545

@<SCITEGIC>MOL_PROPERTY
-TS
SciTegic.value.DoubleValue
32.500

@<SCITEGIC>MOL_PROPERTY
U+W
SciTegic.value.DoubleValue
-2.917

@<SCITEGIC>MOL_PROPERTY
U
SciTegic.value.DoubleValue
50.881

@<SCITEGIC>MOL_PROPERTY
W
SciTegic.value.DoubleValue
-53.798

@<SCITEGIC>MOL_PROPERTY
W(PB)
SciTegic.value.DoubleValue
-56.115

@<SCITEGIC>MOL_PROPERTY
W(SA)
SciTegic.value.DoubleValue
2.317

@<SCITEGIC>MOL_PROPERTY
Valence
SciTegic.value.DoubleValue
3.754

@<SCITEGIC>MOL_PROPERTY
Coulomb
SciTegic.value.DoubleValue
46.574

@<SCITEGIC>MOL_PROPERTY
VdW
SciTegic.value.DoubleValue
0.553

@<SCITEGIC>MOL_PROPERTY
VdW6
SciTegic.value.DoubleValue
-7.276

@<SCITEGIC>MOL_PROPERTY
VdW12
SciTegic.value.DoubleValue
7.829

@<SCITEGIC>MOL_PROPERTY
Bond
SciTegic.value.DoubleValue
0.187

@<SCITEGIC>MOL_PROPERTY
Angle
SciTegic.value.DoubleValue
0.957

@<SCITEGIC>MOL_PROPERTY
Pdih
SciTegic.value.DoubleValue
2.610

@<SCITEGIC>MOL_PROPERTY
Idih
SciTegic.value.DoubleValue
0.000

@<SCITEGIC>MOL_PROPERTY
Tether
SciTegic.value.DoubleValue
0.000

@<TRIPOS>MOLECULE
guest-s14_vm2.mol2 : vm2 ligand conformer 98
          26          25           1
SMALL
USER_CHARGES
 
@<TRIPOS>ATOM
       1    C1      20.564700   20.447316   20.073307 C.3        1 MOL1        -0.2400
       2    H1      21.404717   20.900872   20.615420 H          1 MOL1         0.0971
       3    H2      20.820843   20.433203   19.005960 H          1 MOL1         0.0971
       4    H3      19.686559   21.093764   20.200604 H          1 MOL1         0.0971
       5    C2      20.280714   19.018931   20.584433 C.3        1 MOL1        -0.1385
       6    H4      21.164376   18.388016   20.414022 H          1 MOL1         0.0960
       7    H5      19.459987   18.579814   20.000070 H          1 MOL1         0.0960
       8    C3      19.916174   19.011007   22.085546 C.3        1 MOL1        -0.1409
       9    H6      20.743004   19.458901   22.651330 H          1 MOL1         0.0960
      10    H7      19.029130   19.638077   22.250115 H          1 MOL1         0.0960
      11    C4      19.645732   17.579068   22.603685 C.3        1 MOL1        -0.1409
      12    H8      20.571018   16.989419   22.544828 H          1 MOL1         0.0960
      13    H9      18.927652   17.086885   21.933222 H          1 MOL1         0.0960
      14    C5      19.081732   17.511187   24.046736 C.3        1 MOL1        -0.1409
      15    H10     18.101917   18.006590   24.092936 H          1 MOL1         0.0960
      16    H11     18.891210   16.454024   24.278215 H          1 MOL1         0.0960
      17    C6      20.017380   18.083086   25.141546 C.3        1 MOL1        -0.1450
      18    H12     21.064057   17.853515   24.901470 H          1 MOL1         0.0960
      19    H13     19.797794   17.573952   26.089480 H          1 MOL1         0.0960
      20    C7      19.836850   19.598048   25.360066 C.3        1 MOL1         0.0172
      21    H14     20.052415   20.142616   24.439012 H          1 MOL1         0.0934
      22    H15     18.801794   19.805674   25.644533 H          1 MOL1         0.0934
      23    N1      20.737719   20.150358   26.445680 N.4        1 MOL1        -0.5956
      24    H16     21.729614   20.011086   26.226934 H          1 MOL1         0.3624
      25    H17     20.562863   19.702702   27.351337 H          1 MOL1         0.3624
      26    H18     20.599731   21.158022   26.579523 H          1 MOL1         0.3624
@<TRIPOS>BOND
    1     1     2    1
    2     1     3    1
    3     1     4    1
    4     1     5    1
    5     5     6    1
    6     5     7    1
    7     5     8    1
    8     8     9    1
    9     8    10    1
   10     8    11    1
   11    11    12    1
   12    11    13    1
   13    11    14    1
   14    14    15    1
   15    14    16    1
   16    14    17    1
   17    17    18    1
   18    17    19    1
   19    17    20    1
   20    20    21    1
   21    20    22    1
   22    20    23    1
   23    23    24    1
   24    23    25    1
   25    23    26    1
@<TRIPOS>SUBSTRUCTURE
       1 MOL1            1 RESIDUE      1      MOL     
@<SCITEGIC>MOL_PROPERTY
VM2 Rank
SciTegic.value.IntegerValue
98

@<SCITEGIC>MOL_PROPERTY
Conf_Id
SciTegic.value.IntegerValue
1107

@<SCITEGIC>MOL_PROPERTY
Probability
SciTegic.value.DoubleValue
0.06

@<SCITEGIC>MOL_PROPERTY
Sum Probability
SciTegic.value.DoubleValue
98.95

@<SCITEGIC>MOL_PROPERTY
Delta G
SciTegic.value.DoubleValue
2.861

@<SCITEGIC>MOL_PROPERTY
G
SciTegic.value.DoubleValue
51.122

@<SCITEGIC>MOL_PROPERTY
E
SciTegic.value.DoubleValue
18.433

@<SCITEGIC>MOL_PROPERTY
-TS
SciTegic.value.DoubleValue
32.689

@<SCITEGIC>MOL_PROPERTY
U+W
SciTegic.value.DoubleValue
-3.028

@<SCITEGIC>MOL_PROPERTY
U
SciTegic.value.DoubleValue
50.863

@<SCITEGIC>MOL_PROPERTY
W
SciTegic.value.DoubleValue
-53.891

@<SCITEGIC>MOL_PROPERTY
W(PB)
SciTegic.value.DoubleValue
-56.212

@<SCITEGIC>MOL_PROPERTY
W(SA)
SciTegic.value.DoubleValue
2.321

@<SCITEGIC>MOL_PROPERTY
Valence
SciTegic.value.DoubleValue
4.548

@<SCITEGIC>MOL_PROPERTY
Coulomb
SciTegic.value.DoubleValue
45.757

@<SCITEGIC>MOL_PROPERTY
VdW
SciTegic.value.DoubleValue
0.558

@<SCITEGIC>MOL_PROPERTY
VdW6
SciTegic.value.DoubleValue
-7.490

@<SCITEGIC>MOL_PROPERTY
VdW12
SciTegic.value.DoubleValue
8.048

@<SCITEGIC>MOL_PROPERTY
Bond
SciTegic.value.DoubleValue
0.198

@<SCITEGIC>MOL_PROPERTY
Angle
SciTegic.value.DoubleValue
1.148

@<SCITEGIC>MOL_PROPERTY
Pdih
SciTegic.value.DoubleValue
3.202

@<SCITEGIC>MOL_PROPERTY
Idih
SciTegic.value.DoubleValue
0.000

@<SCITEGIC>MOL_PROPERTY
Tether
SciTegic.value.DoubleValue
0.000

@<TRIPOS>MOLECULE
guest-s14_vm2.mol2 : vm2 ligand conformer 99
          26          25           1
SMALL
USER_CHARGES
 
@<TRIPOS>ATOM
       1    C1      18.543738   19.113756   20.005769 C.3        1 MOL1        -0.2400
       2    H1      18.288302   20.171125   20.153944 H          1 MOL1         0.0971
       3    H2      18.505894   18.905716   18.928586 H          1 MOL1         0.0971
       4    H3      17.772398   18.503926   20.494002 H          1 MOL1         0.0971
       5    C2      19.943610   18.796526   20.573137 C.3        1 MOL1        -0.1385
       6    H4      20.696088   19.395602   20.041365 H          1 MOL1         0.0960
       7    H5      20.184604   17.741522   20.381200 H          1 MOL1         0.0960
       8    C3      20.024030   19.082167   22.089131 C.3        1 MOL1        -0.1409
       9    H6      19.788212   20.138958   22.275493 H          1 MOL1         0.0960
      10    H7      19.261920   18.481560   22.601801 H          1 MOL1         0.0960
      11    C4      21.421500   18.750822   22.663013 C.3        1 MOL1        -0.1409
      12    H8      22.186518   19.237313   22.042142 H          1 MOL1         0.0960
      13    H9      21.603027   17.670386   22.579265 H          1 MOL1         0.0960
      14    C5      21.637905   19.197882   24.132165 C.3        1 MOL1        -0.1409
      15    H10     22.673059   18.949498   24.404626 H          1 MOL1         0.0960
      16    H11     21.564948   20.291691   24.208699 H          1 MOL1         0.0960
      17    C6      20.694545   18.529885   25.164138 C.3        1 MOL1        -0.1450
      18    H12     21.204315   18.501899   26.136436 H          1 MOL1         0.0960
      19    H13     20.505993   17.485321   24.882702 H          1 MOL1         0.0960
      20    C7      19.363471   19.285690   25.344287 C.3        1 MOL1         0.0172
      21    H14     19.565569   20.309582   25.670126 H          1 MOL1         0.0934
      22    H15     18.821455   19.330449   24.397936 H          1 MOL1         0.0934
      23    N1      18.452201   18.642272   26.369361 N.4        1 MOL1        -0.5956
      24    H16     18.889932   18.598784   27.295474 H          1 MOL1         0.3624
      25    H17     18.201202   17.682922   26.109076 H          1 MOL1         0.3624
      26    H18     17.574405   19.161791   26.478518 H          1 MOL1         0.3624
@<TRIPOS>BOND
    1     1     2    1
    2     1     3    1
    3     1     4    1
    4     1     5    1
    5     5     6    1
    6     5     7    1
    7     5     8    1
    8     8     9    1
    9     8    10    1
   10     8    11    1
   11    11    12    1
   12    11    13    1
   13    11    14    1
   14    14    15    1
   15    14    16    1
   16    14    17    1
   17    17    18    1
   18    17    19    1
   19    17    20    1
   20    20    21    1
   21    20    22    1
   22    20    23    1
   23    23    24    1
   24    23    25    1
   25    23    26    1
@<TRIPOS>SUBSTRUCTURE
       1 MOL1            1 RESIDUE      1      MOL     
@<SCITEGIC>MOL_PROPERTY
VM2 Rank
SciTegic.value.IntegerValue
99

@<SCITEGIC>MOL_PROPERTY
Conf_Id
SciTegic.value.IntegerValue
1059

@<SCITEGIC>MOL_PROPERTY
Probability
SciTegic.value.DoubleValue
0.06

@<SCITEGIC>MOL_PROPERTY
Sum Probability
SciTegic.value.DoubleValue
99.01

@<SCITEGIC>MOL_PROPERTY
Delta G
SciTegic.value.DoubleValue
2.871

@<SCITEGIC>MOL_PROPERTY
G
SciTegic.value.DoubleValue
51.132

@<SCITEGIC>MOL_PROPERTY
E
SciTegic.value.DoubleValue
18.443

@<SCITEGIC>MOL_PROPERTY
-TS
SciTegic.value.DoubleValue
32.689

@<SCITEGIC>MOL_PROPERTY
U+W
SciTegic.value.DoubleValue
-3.019

@<SCITEGIC>MOL_PROPERTY
U
SciTegic.value.DoubleValue
50.863

@<SCITEGIC>MOL_PROPERTY
W
SciTegic.value.DoubleValue
-53.881

@<SCITEGIC>MOL_PROPERTY
W(PB)
SciTegic.value.DoubleValue
-56.199

@<SCITEGIC>MOL_PROPERTY
W(SA)
SciTegic.value.DoubleValue
2.318

@<SCITEGIC>MOL_PROPERTY
Valence
SciTegic.value.DoubleValue
4.548

@<SCITEGIC>MOL_PROPERTY
Coulomb
SciTegic.value.DoubleValue
45.757

@<SCITEGIC>MOL_PROPERTY
VdW
SciTegic.value.DoubleValue
0.558

@<SCITEGIC>MOL_PROPERTY
VdW6
SciTegic.value.DoubleValue
-7.490

@<SCITEGIC>MOL_PROPERTY
VdW12
SciTegic.value.DoubleValue
8.047

@<SCITEGIC>MOL_PROPERTY
Bond
SciTegic.value.DoubleValue
0.198

@<SCITEGIC>MOL_PROPERTY
Angle
SciTegic.value.DoubleValue
1.148

@<SCITEGIC>MOL_PROPERTY
Pdih
SciTegic.value.DoubleValue
3.203

@<SCITEGIC>MOL_PROPERTY
Idih
SciTegic.value.DoubleValue
0.000

@<SCITEGIC>MOL_PROPERTY
Tether
SciTegic.value.DoubleValue
0.000

@<TRIPOS>MOLECULE
guest-s14_vm2.mol2 : vm2 ligand conformer 100
          26          25           1
SMALL
USER_CHARGES
 
@<TRIPOS>ATOM
       1    C1      19.840810   20.459200   20.451256 C.3        1 MOL1        -0.2400
       2    H1      18.871575   20.414851   19.937777 H          1 MOL1         0.0971
       3    H2      19.663369   20.801023   21.476784 H          1 MOL1         0.0971
       4    H3      20.449428   21.221297   19.947578 H          1 MOL1         0.0971
       5    C2      20.550616   19.085764   20.408976 C.3        1 MOL1        -0.1385
       6    H4      21.549023   19.157333   20.862455 H          1 MOL1         0.0960
       7    H5      20.715994   18.823124   19.354658 H          1 MOL1         0.0960
       8    C3      19.734652   17.949847   21.078287 C.3        1 MOL1        -0.1409
       9    H6      18.658367   18.152733   20.991051 H          1 MOL1         0.0960
      10    H7      19.907732   17.025041   20.510673 H          1 MOL1         0.0960
      11    C4      20.105459   17.664776   22.556697 C.3        1 MOL1        -0.1409
      12    H8      21.159229   17.359255   22.615898 H          1 MOL1         0.0960
      13    H9      19.517491   16.801279   22.897279 H          1 MOL1         0.0960
      14    C5      19.859491   18.851437   23.517073 C.3        1 MOL1        -0.1409
      15    H10     20.538204   19.676728   23.265320 H          1 MOL1         0.0960
      16    H11     18.833321   19.223034   23.389350 H          1 MOL1         0.0960
      17    C6      20.083455   18.452733   24.992409 C.3        1 MOL1        -0.1450
      18    H12     21.107930   18.079198   25.122928 H          1 MOL1         0.0960
      19    H13     19.404282   17.632906   25.261975 H          1 MOL1         0.0960
      20    C7      19.848132   19.643119   25.938769 C.3        1 MOL1         0.0172
      21    H14     20.533656   20.456255   25.685130 H          1 MOL1         0.0934
      22    H15     18.823889   20.008024   25.823685 H          1 MOL1         0.0934
      23    N1      20.058385   19.292125   27.397534 N.4        1 MOL1        -0.5956
      24    H16     21.013649   18.966610   27.578484 H          1 MOL1         0.3624
      25    H17     19.422763   18.549704   27.707430 H          1 MOL1         0.3624
      26    H18     19.896702   20.098639   28.010582 H          1 MOL1         0.3624
@<TRIPOS>BOND
    1     1     2    1
    2     1     3    1
    3     1     4    1
    4     1     5    1
    5     5     6    1
    6     5     7    1
    7     5     8    1
    8     8     9    1
    9     8    10    1
   10     8    11    1
   11    11    12    1
   12    11    13    1
   13    11    14    1
   14    14    15    1
   15    14    16    1
   16    14    17    1
   17    17    18    1
   18    17    19    1
   19    17    20    1
   20    20    21    1
   21    20    22    1
   22    20    23    1
   23    23    24    1
   24    23    25    1
   25    23    26    1
@<TRIPOS>SUBSTRUCTURE
       1 MOL1            1 RESIDUE      1      MOL     
@<SCITEGIC>MOL_PROPERTY
VM2 Rank
SciTegic.value.IntegerValue
100

@<SCITEGIC>MOL_PROPERTY
Conf_Id
SciTegic.value.IntegerValue
727

@<SCITEGIC>MOL_PROPERTY
Probability
SciTegic.value.DoubleValue
0.03

@<SCITEGIC>MOL_PROPERTY
Sum Probability
SciTegic.value.DoubleValue
99.04

@<SCITEGIC>MOL_PROPERTY
Delta G
SciTegic.value.DoubleValue
3.307

@<SCITEGIC>MOL_PROPERTY
G
SciTegic.value.DoubleValue
51.568

@<SCITEGIC>MOL_PROPERTY
E
SciTegic.value.DoubleValue
18.875

@<SCITEGIC>MOL_PROPERTY
-TS
SciTegic.value.DoubleValue
32.693

@<SCITEGIC>MOL_PROPERTY
U+W
SciTegic.value.DoubleValue
-2.586

@<SCITEGIC>MOL_PROPERTY
U
SciTegic.value.DoubleValue
50.680

@<SCITEGIC>MOL_PROPERTY
W
SciTegic.value.DoubleValue
-53.266

@<SCITEGIC>MOL_PROPERTY
W(PB)
SciTegic.value.DoubleValue
-55.566

@<SCITEGIC>MOL_PROPERTY
W(SA)
SciTegic.value.DoubleValue
2.299

@<SCITEGIC>MOL_PROPERTY
Valence
SciTegic.value.DoubleValue
5.154

@<SCITEGIC>MOL_PROPERTY
Coulomb
SciTegic.value.DoubleValue
44.813

@<SCITEGIC>MOL_PROPERTY
VdW
SciTegic.value.DoubleValue
0.713

@<SCITEGIC>MOL_PROPERTY
VdW6
SciTegic.value.DoubleValue
-7.314

@<SCITEGIC>MOL_PROPERTY
VdW12
SciTegic.value.DoubleValue
8.027

@<SCITEGIC>MOL_PROPERTY
Bond
SciTegic.value.DoubleValue
0.213

@<SCITEGIC>MOL_PROPERTY
Angle
SciTegic.value.DoubleValue
1.193

@<SCITEGIC>MOL_PROPERTY
Pdih
SciTegic.value.DoubleValue
3.747

@<SCITEGIC>MOL_PROPERTY
Idih
SciTegic.value.DoubleValue
0.000

@<SCITEGIC>MOL_PROPERTY
Tether
SciTegic.value.DoubleValue
0.000

@<TRIPOS>MOLECULE
guest-s14_vm2.mol2 : vm2 ligand conformer 101
          26          25           1
SMALL
USER_CHARGES
 
@<TRIPOS>ATOM
       1    C1      18.799422   19.772238   20.416493 C.3        1 MOL1        -0.2400
       2    H1      19.244483   20.660845   19.950291 H          1 MOL1         0.0971
       3    H2      17.883928   19.528966   19.861886 H          1 MOL1         0.0971
       4    H3      18.507364   20.038429   21.438197 H          1 MOL1         0.0971
       5    C2      19.784386   18.580314   20.383381 C.3        1 MOL1        -0.1385
       6    H4      20.009776   18.357274   19.331066 H          1 MOL1         0.0960
       7    H5      19.305677   17.677481   20.787502 H          1 MOL1         0.0960
       8    C3      21.116938   18.861685   21.124475 C.3        1 MOL1        -0.1409
       9    H6      21.924921   18.355704   20.578073 H          1 MOL1         0.0960
      10    H7      21.357060   19.932961   21.081222 H          1 MOL1         0.0960
      11    C4      21.164473   18.363372   22.592085 C.3        1 MOL1        -0.1409
      12    H8      22.172565   18.552837   22.986019 H          1 MOL1         0.0960
      13    H9      21.028854   17.273186   22.611543 H          1 MOL1         0.0960
      14    C5      20.126212   19.027357   23.525965 C.3        1 MOL1        -0.1409
      15    H10     20.193468   20.120326   23.434751 H          1 MOL1         0.0960
      16    H11     19.113473   18.736722   23.217692 H          1 MOL1         0.0960
      17    C6      20.335936   18.619302   25.000837 C.3        1 MOL1        -0.1450
      18    H12     21.343027   18.911915   25.326725 H          1 MOL1         0.0960
      19    H13     20.270941   17.527046   25.094992 H          1 MOL1         0.0960
      20    C7      19.290792   19.275467   25.920138 C.3        1 MOL1         0.0172
      21    H14     19.362931   20.363637   25.841680 H          1 MOL1         0.0934
      22    H15     18.286604   18.973931   25.610056 H          1 MOL1         0.0934
      23    N1      19.462842   18.899265   27.377626 N.4        1 MOL1        -0.5956
      24    H16     19.378444   17.887967   27.523857 H          1 MOL1         0.3624
      25    H17     18.756982   19.346824   27.972511 H          1 MOL1         0.3624
      26    H18     20.379903   19.181021   27.739361 H          1 MOL1         0.3624
@<TRIPOS>BOND
    1     1     2    1
    2     1     3    1
    3     1     4    1
    4     1     5    1
    5     5     6    1
    6     5     7    1
    7     5     8    1
    8     8     9    1
    9     8    10    1
   10     8    11    1
   11    11    12    1
   12    11    13    1
   13    11    14    1
   14    14    15    1
   15    14    16    1
   16    14    17    1
   17    17    18    1
   18    17    19    1
   19    17    20    1
   20    20    21    1
   21    20    22    1
   22    20    23    1
   23    23    24    1
   24    23    25    1
   25    23    26    1
@<TRIPOS>SUBSTRUCTURE
       1 MOL1            1 RESIDUE      1      MOL     
@<SCITEGIC>MOL_PROPERTY
VM2 Rank
SciTegic.value.IntegerValue
101

@<SCITEGIC>MOL_PROPERTY
Conf_Id
SciTegic.value.IntegerValue
935

@<SCITEGIC>MOL_PROPERTY
Probability
SciTegic.value.DoubleValue
0.03

@<SCITEGIC>MOL_PROPERTY
Sum Probability
SciTegic.value.DoubleValue
99.07

@<SCITEGIC>MOL_PROPERTY
Delta G
SciTegic.value.DoubleValue
3.307

@<SCITEGIC>MOL_PROPERTY
G
SciTegic.value.DoubleValue
51.568

@<SCITEGIC>MOL_PROPERTY
E
SciTegic.value.DoubleValue
18.875

@<SCITEGIC>MOL_PROPERTY
-TS
SciTegic.value.DoubleValue
32.693

@<SCITEGIC>MOL_PROPERTY
U+W
SciTegic.value.DoubleValue
-2.587

@<SCITEGIC>MOL_PROPERTY
U
SciTegic.value.DoubleValue
50.680

@<SCITEGIC>MOL_PROPERTY
W
SciTegic.value.DoubleValue
-53.267

@<SCITEGIC>MOL_PROPERTY
W(PB)
SciTegic.value.DoubleValue
-55.569

@<SCITEGIC>MOL_PROPERTY
W(SA)
SciTegic.value.DoubleValue
2.303

@<SCITEGIC>MOL_PROPERTY
Valence
SciTegic.value.DoubleValue
5.154

@<SCITEGIC>MOL_PROPERTY
Coulomb
SciTegic.value.DoubleValue
44.813

@<SCITEGIC>MOL_PROPERTY
VdW
SciTegic.value.DoubleValue
0.713

@<SCITEGIC>MOL_PROPERTY
VdW6
SciTegic.value.DoubleValue
-7.314

@<SCITEGIC>MOL_PROPERTY
VdW12
SciTegic.value.DoubleValue
8.027

@<SCITEGIC>MOL_PROPERTY
Bond
SciTegic.value.DoubleValue
0.213

@<SCITEGIC>MOL_PROPERTY
Angle
SciTegic.value.DoubleValue
1.193

@<SCITEGIC>MOL_PROPERTY
Pdih
SciTegic.value.DoubleValue
3.747

@<SCITEGIC>MOL_PROPERTY
Idih
SciTegic.value.DoubleValue
0.000

@<SCITEGIC>MOL_PROPERTY
Tether
SciTegic.value.DoubleValue
0.000

@<TRIPOS>MOLECULE
guest-s14_vm2.mol2 : vm2 ligand conformer 102
          26          25           1
SMALL
USER_CHARGES
 
@<TRIPOS>ATOM
       1    C1      18.597925   19.020388   20.578813 C.3        1 MOL1        -0.2400
       2    H1      18.417575   20.064338   20.866033 H          1 MOL1         0.0971
       3    H2      17.912590   18.774771   19.757314 H          1 MOL1         0.0971
       4    H3      18.338016   18.373824   21.425951 H          1 MOL1         0.0971
       5    C2      20.063285   18.807951   20.140409 C.3        1 MOL1        -0.1385
       6    H4      20.228079   19.340407   19.193255 H          1 MOL1         0.0960
       7    H5      20.227796   17.743306   19.923174 H          1 MOL1         0.0960
       8    C3      21.115391   19.297102   21.168343 C.3        1 MOL1        -0.1409
       9    H6      22.108197   19.139998   20.724429 H          1 MOL1         0.0960
      10    H7      21.025049   20.382348   21.313856 H          1 MOL1         0.0960
      11    C4      21.076588   18.564987   22.535171 C.3        1 MOL1        -0.1409
      12    H8      22.106208   18.469091   22.906824 H          1 MOL1         0.0960
      13    H9      20.705130   17.539542   22.402352 H          1 MOL1         0.0960
      14    C5      20.243804   19.307527   23.608857 C.3        1 MOL1        -0.1409
      15    H10     20.665573   20.309632   23.768325 H          1 MOL1         0.0960
      16    H11     19.214007   19.454166   23.261938 H          1 MOL1         0.0960
      17    C6      20.224272   18.541786   24.950039 C.3        1 MOL1        -0.1450
      18    H12     21.251613   18.404366   25.313026 H          1 MOL1         0.0960
      19    H13     19.799352   17.540636   24.797665 H          1 MOL1         0.0960
      20    C7      19.401642   19.290020   26.013729 C.3        1 MOL1         0.0172
      21    H14     19.830760   20.281733   26.180574 H          1 MOL1         0.0934
      22    H15     18.373353   19.414491   25.663588 H          1 MOL1         0.0934
      23    N1      19.358092   18.569238   27.345638 N.4        1 MOL1        -0.5956
      24    H16     18.805488   19.084372   28.039685 H          1 MOL1         0.3624
      25    H17     20.294822   18.444266   27.743330 H          1 MOL1         0.3624
      26    H18     18.938723   17.637345   27.262416 H          1 MOL1         0.3624
@<TRIPOS>BOND
    1     1     2    1
    2     1     3    1
    3     1     4    1
    4     1     5    1
    5     5     6    1
    6     5     7    1
    7     5     8    1
    8     8     9    1
    9     8    10    1
   10     8    11    1
   11    11    12    1
   12    11    13    1
   13    11    14    1
   14    14    15    1
   15    14    16    1
   16    14    17    1
   17    17    18    1
   18    17    19    1
   19    17    20    1
   20    20    21    1
   21    20    22    1
   22    20    23    1
   23    23    24    1
   24    23    25    1
   25    23    26    1
@<TRIPOS>SUBSTRUCTURE
       1 MOL1            1 RESIDUE      1      MOL     
@<SCITEGIC>MOL_PROPERTY
VM2 Rank
SciTegic.value.IntegerValue
102

@<SCITEGIC>MOL_PROPERTY
Conf_Id
SciTegic.value.IntegerValue
1246

@<SCITEGIC>MOL_PROPERTY
Probability
SciTegic.value.DoubleValue
0.03

@<SCITEGIC>MOL_PROPERTY
Sum Probability
SciTegic.value.DoubleValue
99.09

@<SCITEGIC>MOL_PROPERTY
Delta G
SciTegic.value.DoubleValue
3.309

@<SCITEGIC>MOL_PROPERTY
G
SciTegic.value.DoubleValue
51.570

@<SCITEGIC>MOL_PROPERTY
E
SciTegic.value.DoubleValue
18.867

@<SCITEGIC>MOL_PROPERTY
-TS
SciTegic.value.DoubleValue
32.703

@<SCITEGIC>MOL_PROPERTY
U+W
SciTegic.value.DoubleValue
-2.595

@<SCITEGIC>MOL_PROPERTY
U
SciTegic.value.DoubleValue
50.662

@<SCITEGIC>MOL_PROPERTY
W
SciTegic.value.DoubleValue
-53.257

@<SCITEGIC>MOL_PROPERTY
W(PB)
SciTegic.value.DoubleValue
-55.568

@<SCITEGIC>MOL_PROPERTY
W(SA)
SciTegic.value.DoubleValue
2.312

@<SCITEGIC>MOL_PROPERTY
Valence
SciTegic.value.DoubleValue
5.128

@<SCITEGIC>MOL_PROPERTY
Coulomb
SciTegic.value.DoubleValue
44.842

@<SCITEGIC>MOL_PROPERTY
VdW
SciTegic.value.DoubleValue
0.692

@<SCITEGIC>MOL_PROPERTY
VdW6
SciTegic.value.DoubleValue
-7.327

@<SCITEGIC>MOL_PROPERTY
VdW12
SciTegic.value.DoubleValue
8.019

@<SCITEGIC>MOL_PROPERTY
Bond
SciTegic.value.DoubleValue
0.214

@<SCITEGIC>MOL_PROPERTY
Angle
SciTegic.value.DoubleValue
1.153

@<SCITEGIC>MOL_PROPERTY
Pdih
SciTegic.value.DoubleValue
3.761

@<SCITEGIC>MOL_PROPERTY
Idih
SciTegic.value.DoubleValue
0.000

@<SCITEGIC>MOL_PROPERTY
Tether
SciTegic.value.DoubleValue
0.000

@<TRIPOS>MOLECULE
guest-s14_vm2.mol2 : vm2 ligand conformer 103
          26          25           1
SMALL
USER_CHARGES
 
@<TRIPOS>ATOM
       1    C1      18.851731   18.191269   20.387686 C.3        1 MOL1        -0.2400
       2    H1      17.968189   18.223260   21.038325 H          1 MOL1         0.0971
       3    H2      18.502520   18.084451   19.352524 H          1 MOL1         0.0971
       4    H3      19.428846   17.291792   20.635102 H          1 MOL1         0.0971
       5    C2      19.702299   19.472512   20.541802 C.3        1 MOL1        -0.1385
       6    H4      19.122677   20.328771   20.169428 H          1 MOL1         0.0960
       7    H5      20.593967   19.404078   19.903063 H          1 MOL1         0.0960
       8    C3      20.123990   19.756357   22.003607 C.3        1 MOL1        -0.1409
       9    H6      20.617608   20.737322   22.036972 H          1 MOL1         0.0960
      10    H7      19.224037   19.845817   22.622365 H          1 MOL1         0.0960
      11    C4      21.087884   18.687707   22.581837 C.3        1 MOL1        -0.1409
      12    H8      21.944277   18.597975   21.899334 H          1 MOL1         0.0960
      13    H9      20.609231   17.699963   22.600698 H          1 MOL1         0.0960
      14    C5      21.628728   19.031972   23.994428 C.3        1 MOL1        -0.1409
      15    H10     22.629575   18.589180   24.093002 H          1 MOL1         0.0960
      16    H11     21.773328   20.116606   24.093830 H          1 MOL1         0.0960
      17    C6      20.766509   18.498380   25.166184 C.3        1 MOL1        -0.1450
      18    H12     21.283981   18.719785   26.109132 H          1 MOL1         0.0960
      19    H13     20.694738   17.404539   25.101095 H          1 MOL1         0.0960
      20    C7      19.351610   19.100435   25.222805 C.3        1 MOL1         0.0172
      21    H14     19.415089   20.191813   25.237217 H          1 MOL1         0.0934
      22    H15     18.787396   18.795725   24.338155 H          1 MOL1         0.0934
      23    N1      18.568248   18.660368   26.442652 N.4        1 MOL1        -0.5956
      24    H16     19.030515   18.938826   27.314392 H          1 MOL1         0.3624
      25    H17     18.451560   17.642282   26.474935 H          1 MOL1         0.3624
      26    H18     17.627737   19.069579   26.459790 H          1 MOL1         0.3624
@<TRIPOS>BOND
    1     1     2    1
    2     1     3    1
    3     1     4    1
    4     1     5    1
    5     5     6    1
    6     5     7    1
    7     5     8    1
    8     8     9    1
    9     8    10    1
   10     8    11    1
   11    11    12    1
   12    11    13    1
   13    11    14    1
   14    14    15    1
   15    14    16    1
   16    14    17    1
   17    17    18    1
   18    17    19    1
   19    17    20    1
   20    20    21    1
   21    20    22    1
   22    20    23    1
   23    23    24    1
   24    23    25    1
   25    23    26    1
@<TRIPOS>SUBSTRUCTURE
       1 MOL1            1 RESIDUE      1      MOL     
@<SCITEGIC>MOL_PROPERTY
VM2 Rank
SciTegic.value.IntegerValue
103

@<SCITEGIC>MOL_PROPERTY
Conf_Id
SciTegic.value.IntegerValue
1007

@<SCITEGIC>MOL_PROPERTY
Probability
SciTegic.value.DoubleValue
0.03

@<SCITEGIC>MOL_PROPERTY
Sum Probability
SciTegic.value.DoubleValue
99.12

@<SCITEGIC>MOL_PROPERTY
Delta G
SciTegic.value.DoubleValue
3.338

@<SCITEGIC>MOL_PROPERTY
G
SciTegic.value.DoubleValue
51.599

@<SCITEGIC>MOL_PROPERTY
E
SciTegic.value.DoubleValue
19.072

@<SCITEGIC>MOL_PROPERTY
-TS
SciTegic.value.DoubleValue
32.527

@<SCITEGIC>MOL_PROPERTY
U+W
SciTegic.value.DoubleValue
-2.390

@<SCITEGIC>MOL_PROPERTY
U
SciTegic.value.DoubleValue
51.488

@<SCITEGIC>MOL_PROPERTY
W
SciTegic.value.DoubleValue
-53.878

@<SCITEGIC>MOL_PROPERTY
W(PB)
SciTegic.value.DoubleValue
-56.160

@<SCITEGIC>MOL_PROPERTY
W(SA)
SciTegic.value.DoubleValue
2.283

@<SCITEGIC>MOL_PROPERTY
Valence
SciTegic.value.DoubleValue
5.168

@<SCITEGIC>MOL_PROPERTY
Coulomb
SciTegic.value.DoubleValue
45.587

@<SCITEGIC>MOL_PROPERTY
VdW
SciTegic.value.DoubleValue
0.733

@<SCITEGIC>MOL_PROPERTY
VdW6
SciTegic.value.DoubleValue
-7.960

@<SCITEGIC>MOL_PROPERTY
VdW12
SciTegic.value.DoubleValue
8.693

@<SCITEGIC>MOL_PROPERTY
Bond
SciTegic.value.DoubleValue
0.251

@<SCITEGIC>MOL_PROPERTY
Angle
SciTegic.value.DoubleValue
1.359

@<SCITEGIC>MOL_PROPERTY
Pdih
SciTegic.value.DoubleValue
3.558

@<SCITEGIC>MOL_PROPERTY
Idih
SciTegic.value.DoubleValue
0.000

@<SCITEGIC>MOL_PROPERTY
Tether
SciTegic.value.DoubleValue
0.000

@<TRIPOS>MOLECULE
guest-s14_vm2.mol2 : vm2 ligand conformer 104
          26          25           1
SMALL
USER_CHARGES
 
@<TRIPOS>ATOM
       1    C1      21.086888   18.612813   20.037362 C.3        1 MOL1        -0.2400
       2    H1      20.480992   17.698246   20.024502 H          1 MOL1         0.0971
       3    H2      21.350283   18.849319   18.998324 H          1 MOL1         0.0971
       4    H3      22.017438   18.401578   20.580009 H          1 MOL1         0.0971
       5    C2      20.322007   19.790273   20.683250 C.3        1 MOL1        -0.1385
       6    H4      19.385414   19.966787   20.136089 H          1 MOL1         0.0960
       7    H5      20.919820   20.705742   20.572331 H          1 MOL1         0.0960
       8    C3      20.018234   19.572983   22.185166 C.3        1 MOL1        -0.1409
       9    H6      20.965809   19.431060   22.720421 H          1 MOL1         0.0960
      10    H7      19.559337   20.487491   22.585285 H          1 MOL1         0.0960
      11    C4      19.078889   18.371114   22.451792 C.3        1 MOL1        -0.1409
      12    H8      19.601072   17.433949   22.217274 H          1 MOL1         0.0960
      13    H9      18.225080   18.427094   21.762559 H          1 MOL1         0.0960
      14    C5      18.527026   18.295522   23.899075 C.3        1 MOL1        -0.1409
      15    H10     17.920559   19.184923   24.119780 H          1 MOL1         0.0960
      16    H11     17.833579   17.444343   23.944660 H          1 MOL1         0.0960
      17    C6      19.601926   18.099473   24.997859 C.3        1 MOL1        -0.1450
      18    H12     20.393261   17.429428   24.636339 H          1 MOL1         0.0960
      19    H13     19.136314   17.595339   25.855211 H          1 MOL1         0.0960
      20    C7      20.208997   19.425720   25.495424 C.3        1 MOL1         0.0172
      21    H14     20.695216   19.952492   24.672436 H          1 MOL1         0.0934
      22    H15     19.415369   20.066334   25.889286 H          1 MOL1         0.0934
      23    N1      21.237033   19.231102   26.591072 N.4        1 MOL1        -0.5956
      24    H16     21.626054   20.124462   26.911869 H          1 MOL1         0.3624
      25    H17     22.026334   18.657086   26.277047 H          1 MOL1         0.3624
      26    H18     20.835810   18.768316   27.413280 H          1 MOL1         0.3624
@<TRIPOS>BOND
    1     1     2    1
    2     1     3    1
    3     1     4    1
    4     1     5    1
    5     5     6    1
    6     5     7    1
    7     5     8    1
    8     8     9    1
    9     8    10    1
   10     8    11    1
   11    11    12    1
   12    11    13    1
   13    11    14    1
   14    14    15    1
   15    14    16    1
   16    14    17    1
   17    17    18    1
   18    17    19    1
   19    17    20    1
   20    20    21    1
   21    20    22    1
   22    20    23    1
   23    23    24    1
   24    23    25    1
   25    23    26    1
@<TRIPOS>SUBSTRUCTURE
       1 MOL1            1 RESIDUE      1      MOL     
@<SCITEGIC>MOL_PROPERTY
VM2 Rank
SciTegic.value.IntegerValue
104

@<SCITEGIC>MOL_PROPERTY
Conf_Id
SciTegic.value.IntegerValue
1375

@<SCITEGIC>MOL_PROPERTY
Probability
SciTegic.value.DoubleValue
0.03

@<SCITEGIC>MOL_PROPERTY
Sum Probability
SciTegic.value.DoubleValue
99.15

@<SCITEGIC>MOL_PROPERTY
Delta G
SciTegic.value.DoubleValue
3.345

@<SCITEGIC>MOL_PROPERTY
G
SciTegic.value.DoubleValue
51.607

@<SCITEGIC>MOL_PROPERTY
E
SciTegic.value.DoubleValue
18.792

@<SCITEGIC>MOL_PROPERTY
-TS
SciTegic.value.DoubleValue
32.815

@<SCITEGIC>MOL_PROPERTY
U+W
SciTegic.value.DoubleValue
-2.670

@<SCITEGIC>MOL_PROPERTY
U
SciTegic.value.DoubleValue
51.327

@<SCITEGIC>MOL_PROPERTY
W
SciTegic.value.DoubleValue
-53.997

@<SCITEGIC>MOL_PROPERTY
W(PB)
SciTegic.value.DoubleValue
-56.278

@<SCITEGIC>MOL_PROPERTY
W(SA)
SciTegic.value.DoubleValue
2.281

@<SCITEGIC>MOL_PROPERTY
Valence
SciTegic.value.DoubleValue
4.992

@<SCITEGIC>MOL_PROPERTY
Coulomb
SciTegic.value.DoubleValue
45.664

@<SCITEGIC>MOL_PROPERTY
VdW
SciTegic.value.DoubleValue
0.672

@<SCITEGIC>MOL_PROPERTY
VdW6
SciTegic.value.DoubleValue
-8.113

@<SCITEGIC>MOL_PROPERTY
VdW12
SciTegic.value.DoubleValue
8.785

@<SCITEGIC>MOL_PROPERTY
Bond
SciTegic.value.DoubleValue
0.231

@<SCITEGIC>MOL_PROPERTY
Angle
SciTegic.value.DoubleValue
1.333

@<SCITEGIC>MOL_PROPERTY
Pdih
SciTegic.value.DoubleValue
3.427

@<SCITEGIC>MOL_PROPERTY
Idih
SciTegic.value.DoubleValue
0.000

@<SCITEGIC>MOL_PROPERTY
Tether
SciTegic.value.DoubleValue
0.000

@<TRIPOS>MOLECULE
guest-s14_vm2.mol2 : vm2 ligand conformer 105
          26          25           1
SMALL
USER_CHARGES
 
@<TRIPOS>ATOM
       1    C1      19.694594   18.753307   19.339569 C.3        1 MOL1        -0.2400
       2    H1      20.225733   19.655371   19.008800 H          1 MOL1         0.0971
       3    H2      20.278169   17.878198   19.025185 H          1 MOL1         0.0971
       4    H3      18.729621   18.719785   18.817331 H          1 MOL1         0.0971
       5    C2      19.486564   18.761935   20.868894 C.3        1 MOL1        -0.1385
       6    H4      18.927381   17.863550   21.165381 H          1 MOL1         0.0960
       7    H5      18.866523   19.626965   21.139557 H          1 MOL1         0.0960
       8    C3      20.833910   18.812985   21.627323 C.3        1 MOL1        -0.1409
       9    H6      21.466808   17.981103   21.288566 H          1 MOL1         0.0960
      10    H7      21.371411   19.734821   21.365426 H          1 MOL1         0.0960
      11    C4      20.680788   18.720027   23.165288 C.3        1 MOL1        -0.1409
      12    H8      21.683350   18.664836   23.611454 H          1 MOL1         0.0960
      13    H9      20.168548   17.781915   23.412613 H          1 MOL1         0.0960
      14    C5      19.915344   19.919007   23.778826 C.3        1 MOL1        -0.1409
      15    H10     20.321234   20.850796   23.361356 H          1 MOL1         0.0960
      16    H11     18.859721   19.880958   23.478484 H          1 MOL1         0.0960
      17    C6      19.998434   20.006321   25.324244 C.3        1 MOL1        -0.1450
      18    H12     19.505184   20.936670   25.635710 H          1 MOL1         0.0960
      19    H13     21.044040   20.097162   25.647204 H          1 MOL1         0.0960
      20    C7      19.314123   18.840805   26.068345 C.3        1 MOL1         0.0172
      21    H14     19.088569   19.155297   27.090947 H          1 MOL1         0.0934
      22    H15     18.371292   18.588610   25.575646 H          1 MOL1         0.0934
      23    N1      20.157244   17.584613   26.168510 N.4        1 MOL1        -0.5956
      24    H16     20.404731   17.218595   25.245057 H          1 MOL1         0.3624
      25    H17     19.666107   16.836196   26.669553 H          1 MOL1         0.3624
      26    H18     21.033830   17.755447   26.671963 H          1 MOL1         0.3624
@<TRIPOS>BOND
    1     1     2    1
    2     1     3    1
    3     1     4    1
    4     1     5    1
    5     5     6    1
    6     5     7    1
    7     5     8    1
    8     8     9    1
    9     8    10    1
   10     8    11    1
   11    11    12    1
   12    11    13    1
   13    11    14    1
   14    14    15    1
   15    14    16    1
   16    14    17    1
   17    17    18    1
   18    17    19    1
   19    17    20    1
   20    20    21    1
   21    20    22    1
   22    20    23    1
   23    23    24    1
   24    23    25    1
   25    23    26    1
@<TRIPOS>SUBSTRUCTURE
       1 MOL1            1 RESIDUE      1      MOL     
@<SCITEGIC>MOL_PROPERTY
VM2 Rank
SciTegic.value.IntegerValue
105

@<SCITEGIC>MOL_PROPERTY
Conf_Id
SciTegic.value.IntegerValue
1078

@<SCITEGIC>MOL_PROPERTY
Probability
SciTegic.value.DoubleValue
0.03

@<SCITEGIC>MOL_PROPERTY
Sum Probability
SciTegic.value.DoubleValue
99.18

@<SCITEGIC>MOL_PROPERTY
Delta G
SciTegic.value.DoubleValue
3.346

@<SCITEGIC>MOL_PROPERTY
G
SciTegic.value.DoubleValue
51.607

@<SCITEGIC>MOL_PROPERTY
E
SciTegic.value.DoubleValue
18.965

@<SCITEGIC>MOL_PROPERTY
-TS
SciTegic.value.DoubleValue
32.642

@<SCITEGIC>MOL_PROPERTY
U+W
SciTegic.value.DoubleValue
-2.497

@<SCITEGIC>MOL_PROPERTY
U
SciTegic.value.DoubleValue
51.400

@<SCITEGIC>MOL_PROPERTY
W
SciTegic.value.DoubleValue
-53.897

@<SCITEGIC>MOL_PROPERTY
W(PB)
SciTegic.value.DoubleValue
-56.162

@<SCITEGIC>MOL_PROPERTY
W(SA)
SciTegic.value.DoubleValue
2.265

@<SCITEGIC>MOL_PROPERTY
Valence
SciTegic.value.DoubleValue
4.232

@<SCITEGIC>MOL_PROPERTY
Coulomb
SciTegic.value.DoubleValue
46.515

@<SCITEGIC>MOL_PROPERTY
VdW
SciTegic.value.DoubleValue
0.654

@<SCITEGIC>MOL_PROPERTY
VdW6
SciTegic.value.DoubleValue
-7.962

@<SCITEGIC>MOL_PROPERTY
VdW12
SciTegic.value.DoubleValue
8.616

@<SCITEGIC>MOL_PROPERTY
Bond
SciTegic.value.DoubleValue
0.225

@<SCITEGIC>MOL_PROPERTY
Angle
SciTegic.value.DoubleValue
1.150

@<SCITEGIC>MOL_PROPERTY
Pdih
SciTegic.value.DoubleValue
2.857

@<SCITEGIC>MOL_PROPERTY
Idih
SciTegic.value.DoubleValue
0.000

@<SCITEGIC>MOL_PROPERTY
Tether
SciTegic.value.DoubleValue
0.000

@<TRIPOS>MOLECULE
guest-s14_vm2.mol2 : vm2 ligand conformer 106
          26          25           1
SMALL
USER_CHARGES
 
@<TRIPOS>ATOM
       1    C1      20.602972   20.343019   20.645837 C.3        1 MOL1        -0.2400
       2    H1      21.259520   20.300957   21.523570 H          1 MOL1         0.0971
       3    H2      21.135773   20.901006   19.865038 H          1 MOL1         0.0971
       4    H3      19.701456   20.911228   20.909013 H          1 MOL1         0.0971
       5    C2      20.243341   18.926736   20.146426 C.3        1 MOL1        -0.1385
       6    H4      21.166828   18.362754   19.954536 H          1 MOL1         0.0960
       7    H5      19.733627   19.014271   19.176738 H          1 MOL1         0.0960
       8    C3      19.333235   18.121490   21.108783 C.3        1 MOL1        -0.1409
       9    H6      18.365042   18.627652   21.224956 H          1 MOL1         0.0960
      10    H7      19.108532   17.161245   20.624177 H          1 MOL1         0.0960
      11    C4      19.957358   17.826683   22.497767 C.3        1 MOL1        -0.1409
      12    H8      21.051282   17.767874   22.413918 H          1 MOL1         0.0960
      13    H9      19.624013   16.831710   22.823879 H          1 MOL1         0.0960
      14    C5      19.552201   18.851309   23.585742 C.3        1 MOL1        -0.1409
      15    H10     19.837847   19.865682   23.282774 H          1 MOL1         0.0960
      16    H11     18.458729   18.853883   23.694583 H          1 MOL1         0.0960
      17    C6      20.200859   18.526343   24.949250 C.3        1 MOL1        -0.1450
      18    H12     21.294359   18.526828   24.847609 H          1 MOL1         0.0960
      19    H13     19.906965   17.517367   25.268097 H          1 MOL1         0.0960
      20    C7      19.786953   19.544196   26.026593 C.3        1 MOL1         0.0172
      21    H14     20.092593   20.548536   25.721053 H          1 MOL1         0.0934
      22    H15     18.699794   19.535756   26.142722 H          1 MOL1         0.0934
      23    N1      20.404082   19.259224   27.380603 N.4        1 MOL1        -0.5956
      24    H16     21.428573   19.279684   27.345669 H          1 MOL1         0.3624
      25    H17     20.132603   18.337338   27.737907 H          1 MOL1         0.3624
      26    H18     20.115532   19.948542   28.083465 H          1 MOL1         0.3624
@<TRIPOS>BOND
    1     1     2    1
    2     1     3    1
    3     1     4    1
    4     1     5    1
    5     5     6    1
    6     5     7    1
    7     5     8    1
    8     8     9    1
    9     8    10    1
   10     8    11    1
   11    11    12    1
   12    11    13    1
   13    11    14    1
   14    14    15    1
   15    14    16    1
   16    14    17    1
   17    17    18    1
   18    17    19    1
   19    17    20    1
   20    20    21    1
   21    20    22    1
   22    20    23    1
   23    23    24    1
   24    23    25    1
   25    23    26    1
@<TRIPOS>SUBSTRUCTURE
       1 MOL1            1 RESIDUE      1      MOL     
@<SCITEGIC>MOL_PROPERTY
VM2 Rank
SciTegic.value.IntegerValue
106

@<SCITEGIC>MOL_PROPERTY
Conf_Id
SciTegic.value.IntegerValue
1341

@<SCITEGIC>MOL_PROPERTY
Probability
SciTegic.value.DoubleValue
0.03

@<SCITEGIC>MOL_PROPERTY
Sum Probability
SciTegic.value.DoubleValue
99.20

@<SCITEGIC>MOL_PROPERTY
Delta G
SciTegic.value.DoubleValue
3.354

@<SCITEGIC>MOL_PROPERTY
G
SciTegic.value.DoubleValue
51.615

@<SCITEGIC>MOL_PROPERTY
E
SciTegic.value.DoubleValue
18.912

@<SCITEGIC>MOL_PROPERTY
-TS
SciTegic.value.DoubleValue
32.703

@<SCITEGIC>MOL_PROPERTY
U+W
SciTegic.value.DoubleValue
-2.550

@<SCITEGIC>MOL_PROPERTY
U
SciTegic.value.DoubleValue
50.662

@<SCITEGIC>MOL_PROPERTY
W
SciTegic.value.DoubleValue
-53.211

@<SCITEGIC>MOL_PROPERTY
W(PB)
SciTegic.value.DoubleValue
-55.518

@<SCITEGIC>MOL_PROPERTY
W(SA)
SciTegic.value.DoubleValue
2.307

@<SCITEGIC>MOL_PROPERTY
Valence
SciTegic.value.DoubleValue
5.128

@<SCITEGIC>MOL_PROPERTY
Coulomb
SciTegic.value.DoubleValue
44.842

@<SCITEGIC>MOL_PROPERTY
VdW
SciTegic.value.DoubleValue
0.692

@<SCITEGIC>MOL_PROPERTY
VdW6
SciTegic.value.DoubleValue
-7.327

@<SCITEGIC>MOL_PROPERTY
VdW12
SciTegic.value.DoubleValue
8.019

@<SCITEGIC>MOL_PROPERTY
Bond
SciTegic.value.DoubleValue
0.214

@<SCITEGIC>MOL_PROPERTY
Angle
SciTegic.value.DoubleValue
1.153

@<SCITEGIC>MOL_PROPERTY
Pdih
SciTegic.value.DoubleValue
3.761

@<SCITEGIC>MOL_PROPERTY
Idih
SciTegic.value.DoubleValue
0.000

@<SCITEGIC>MOL_PROPERTY
Tether
SciTegic.value.DoubleValue
0.000

@<TRIPOS>MOLECULE
guest-s14_vm2.mol2 : vm2 ligand conformer 107
          26          25           1
SMALL
USER_CHARGES
 
@<TRIPOS>ATOM
       1    C1      19.001198   18.150688   19.905414 C.3        1 MOL1        -0.2400
       2    H1      18.365150   17.256093   19.918043 H          1 MOL1         0.0971
       3    H2      18.373472   19.006711   19.625360 H          1 MOL1         0.0971
       4    H3      19.760126   18.013007   19.124202 H          1 MOL1         0.0971
       5    C2      19.657447   18.372180   21.284726 C.3        1 MOL1        -0.1385
       6    H4      20.256768   17.489879   21.549100 H          1 MOL1         0.0960
       7    H5      18.866939   18.466888   22.040724 H          1 MOL1         0.0960
       8    C3      20.549700   19.634320   21.295576 C.3        1 MOL1        -0.1409
       9    H6      21.252134   19.581393   20.452298 H          1 MOL1         0.0960
      10    H7      19.927285   20.522301   21.118560 H          1 MOL1         0.0960
      11    C4      21.368791   19.830453   22.597561 C.3        1 MOL1        -0.1409
      12    H8      21.991260   20.726012   22.463503 H          1 MOL1         0.0960
      13    H9      22.073907   18.998165   22.729127 H          1 MOL1         0.0960
      14    C5      20.516459   20.022906   23.879103 C.3        1 MOL1        -0.1409
      15    H10     21.027297   20.744998   24.531341 H          1 MOL1         0.0960
      16    H11     19.548565   20.476735   23.624707 H          1 MOL1         0.0960
      17    C6      20.306348   18.716449   24.681666 C.3        1 MOL1        -0.1450
      18    H12     21.281387   18.309935   24.981632 H          1 MOL1         0.0960
      19    H13     19.823144   17.954092   24.060323 H          1 MOL1         0.0960
      20    C7      19.451131   18.962382   25.937016 C.3        1 MOL1         0.0172
      21    H14     19.939297   19.703614   26.575556 H          1 MOL1         0.0934
      22    H15     18.472001   19.351481   25.644844 H          1 MOL1         0.0934
      23    N1      19.229927   17.709623   26.759938 N.4        1 MOL1        -0.5956
      24    H16     18.658704   17.896284   27.591382 H          1 MOL1         0.3624
      25    H17     20.113806   17.307982   27.089583 H          1 MOL1         0.3624
      26    H18     18.747801   16.980312   26.224411 H          1 MOL1         0.3624
@<TRIPOS>BOND
    1     1     2    1
    2     1     3    1
    3     1     4    1
    4     1     5    1
    5     5     6    1
    6     5     7    1
    7     5     8    1
    8     8     9    1
    9     8    10    1
   10     8    11    1
   11    11    12    1
   12    11    13    1
   13    11    14    1
   14    14    15    1
   15    14    16    1
   16    14    17    1
   17    17    18    1
   18    17    19    1
   19    17    20    1
   20    20    21    1
   21    20    22    1
   22    20    23    1
   23    23    24    1
   24    23    25    1
   25    23    26    1
@<TRIPOS>SUBSTRUCTURE
       1 MOL1            1 RESIDUE      1      MOL     
@<SCITEGIC>MOL_PROPERTY
VM2 Rank
SciTegic.value.IntegerValue
107

@<SCITEGIC>MOL_PROPERTY
Conf_Id
SciTegic.value.IntegerValue
1366

@<SCITEGIC>MOL_PROPERTY
Probability
SciTegic.value.DoubleValue
0.03

@<SCITEGIC>MOL_PROPERTY
Sum Probability
SciTegic.value.DoubleValue
99.23

@<SCITEGIC>MOL_PROPERTY
Delta G
SciTegic.value.DoubleValue
3.367

@<SCITEGIC>MOL_PROPERTY
G
SciTegic.value.DoubleValue
51.629

@<SCITEGIC>MOL_PROPERTY
E
SciTegic.value.DoubleValue
18.906

@<SCITEGIC>MOL_PROPERTY
-TS
SciTegic.value.DoubleValue
32.722

@<SCITEGIC>MOL_PROPERTY
U+W
SciTegic.value.DoubleValue
-2.556

@<SCITEGIC>MOL_PROPERTY
U
SciTegic.value.DoubleValue
51.214

@<SCITEGIC>MOL_PROPERTY
W
SciTegic.value.DoubleValue
-53.769

@<SCITEGIC>MOL_PROPERTY
W(PB)
SciTegic.value.DoubleValue
-56.071

@<SCITEGIC>MOL_PROPERTY
W(SA)
SciTegic.value.DoubleValue
2.302

@<SCITEGIC>MOL_PROPERTY
Valence
SciTegic.value.DoubleValue
5.193

@<SCITEGIC>MOL_PROPERTY
Coulomb
SciTegic.value.DoubleValue
45.364

@<SCITEGIC>MOL_PROPERTY
VdW
SciTegic.value.DoubleValue
0.656

@<SCITEGIC>MOL_PROPERTY
VdW6
SciTegic.value.DoubleValue
-7.405

@<SCITEGIC>MOL_PROPERTY
VdW12
SciTegic.value.DoubleValue
8.062

@<SCITEGIC>MOL_PROPERTY
Bond
SciTegic.value.DoubleValue
0.216

@<SCITEGIC>MOL_PROPERTY
Angle
SciTegic.value.DoubleValue
1.176

@<SCITEGIC>MOL_PROPERTY
Pdih
SciTegic.value.DoubleValue
3.801

@<SCITEGIC>MOL_PROPERTY
Idih
SciTegic.value.DoubleValue
0.000

@<SCITEGIC>MOL_PROPERTY
Tether
SciTegic.value.DoubleValue
0.000

@<TRIPOS>MOLECULE
guest-s14_vm2.mol2 : vm2 ligand conformer 108
          26          25           1
SMALL
USER_CHARGES
 
@<TRIPOS>ATOM
       1    C1      21.272944   19.790839   20.469046 C.3        1 MOL1        -0.2400
       2    H1      21.556137   20.101653   19.455087 H          1 MOL1         0.0971
       3    H2      21.558632   20.595559   21.158835 H          1 MOL1         0.0971
       4    H3      21.862436   18.899597   20.717080 H          1 MOL1         0.0971
       5    C2      19.755417   19.507368   20.543566 C.3        1 MOL1        -0.1385
       6    H4      19.499486   18.680525   19.866388 H          1 MOL1         0.0960
       7    H5      19.212485   20.387795   20.172249 H          1 MOL1         0.0960
       8    C3      19.261188   19.186314   21.974623 C.3        1 MOL1        -0.1409
       9    H6      19.501970   20.029641   22.631593 H          1 MOL1         0.0960
      10    H7      18.164912   19.116768   21.954515 H          1 MOL1         0.0960
      11    C4      19.839392   17.862946   22.540160 C.3        1 MOL1        -0.1409
      12    H8      20.933614   17.914407   22.611793 H          1 MOL1         0.0960
      13    H9      19.618739   17.061466   21.821678 H          1 MOL1         0.0960
      14    C5      19.245459   17.457785   23.914762 C.3        1 MOL1        -0.1409
      15    H10     18.187410   17.748068   23.973853 H          1 MOL1         0.0960
      16    H11     19.256066   16.360939   23.980268 H          1 MOL1         0.0960
      17    C6      20.018712   18.004570   25.141243 C.3        1 MOL1        -0.1450
      18    H12     21.055078   17.642566   25.113383 H          1 MOL1         0.0960
      19    H13     19.568657   17.587192   26.051842 H          1 MOL1         0.0960
      20    C7      20.016742   19.539779   25.244888 C.3        1 MOL1         0.0172
      21    H14     20.558794   19.965584   24.397147 H          1 MOL1         0.0934
      22    H15     18.988243   19.909974   25.222767 H          1 MOL1         0.0934
      23    N1      20.671147   20.049399   26.512713 N.4        1 MOL1        -0.5956
      24    H16     20.662380   21.074049   26.560945 H          1 MOL1         0.3624
      25    H17     21.650988   19.755592   26.581590 H          1 MOL1         0.3624
      26    H18     20.193818   19.707236   27.353095 H          1 MOL1         0.3624
@<TRIPOS>BOND
    1     1     2    1
    2     1     3    1
    3     1     4    1
    4     1     5    1
    5     5     6    1
    6     5     7    1
    7     5     8    1
    8     8     9    1
    9     8    10    1
   10     8    11    1
   11    11    12    1
   12    11    13    1
   13    11    14    1
   14    14    15    1
   15    14    16    1
   16    14    17    1
   17    17    18    1
   18    17    19    1
   19    17    20    1
   20    20    21    1
   21    20    22    1
   22    20    23    1
   23    23    24    1
   24    23    25    1
   25    23    26    1
@<TRIPOS>SUBSTRUCTURE
       1 MOL1            1 RESIDUE      1      MOL     
@<SCITEGIC>MOL_PROPERTY
VM2 Rank
SciTegic.value.IntegerValue
108

@<SCITEGIC>MOL_PROPERTY
Conf_Id
SciTegic.value.IntegerValue
1365

@<SCITEGIC>MOL_PROPERTY
Probability
SciTegic.value.DoubleValue
0.03

@<SCITEGIC>MOL_PROPERTY
Sum Probability
SciTegic.value.DoubleValue
99.26

@<SCITEGIC>MOL_PROPERTY
Delta G
SciTegic.value.DoubleValue
3.374

@<SCITEGIC>MOL_PROPERTY
G
SciTegic.value.DoubleValue
51.635

@<SCITEGIC>MOL_PROPERTY
E
SciTegic.value.DoubleValue
19.107

@<SCITEGIC>MOL_PROPERTY
-TS
SciTegic.value.DoubleValue
32.528

@<SCITEGIC>MOL_PROPERTY
U+W
SciTegic.value.DoubleValue
-2.354

@<SCITEGIC>MOL_PROPERTY
U
SciTegic.value.DoubleValue
51.488

@<SCITEGIC>MOL_PROPERTY
W
SciTegic.value.DoubleValue
-53.843

@<SCITEGIC>MOL_PROPERTY
W(PB)
SciTegic.value.DoubleValue
-56.162

@<SCITEGIC>MOL_PROPERTY
W(SA)
SciTegic.value.DoubleValue
2.319

@<SCITEGIC>MOL_PROPERTY
Valence
SciTegic.value.DoubleValue
5.168

@<SCITEGIC>MOL_PROPERTY
Coulomb
SciTegic.value.DoubleValue
45.587

@<SCITEGIC>MOL_PROPERTY
VdW
SciTegic.value.DoubleValue
0.733

@<SCITEGIC>MOL_PROPERTY
VdW6
SciTegic.value.DoubleValue
-7.960

@<SCITEGIC>MOL_PROPERTY
VdW12
SciTegic.value.DoubleValue
8.693

@<SCITEGIC>MOL_PROPERTY
Bond
SciTegic.value.DoubleValue
0.251

@<SCITEGIC>MOL_PROPERTY
Angle
SciTegic.value.DoubleValue
1.358

@<SCITEGIC>MOL_PROPERTY
Pdih
SciTegic.value.DoubleValue
3.559

@<SCITEGIC>MOL_PROPERTY
Idih
SciTegic.value.DoubleValue
0.000

@<SCITEGIC>MOL_PROPERTY
Tether
SciTegic.value.DoubleValue
0.000

@<TRIPOS>MOLECULE
guest-s14_vm2.mol2 : vm2 ligand conformer 109
          26          25           1
SMALL
USER_CHARGES
 
@<TRIPOS>ATOM
       1    C1      18.991553   17.965361   20.044824 C.3        1 MOL1        -0.2400
       2    H1      19.180680   18.537444   19.127117 H          1 MOL1         0.0971
       3    H2      18.967394   16.900564   19.779020 H          1 MOL1         0.0971
       4    H3      17.997889   18.241375   20.421183 H          1 MOL1         0.0971
       5    C2      20.080791   18.238285   21.103573 C.3        1 MOL1        -0.1385
       6    H4      21.056047   17.920047   20.709419 H          1 MOL1         0.0960
       7    H5      19.885593   17.619209   21.987372 H          1 MOL1         0.0960
       8    C3      20.141282   19.736912   21.486116 C.3        1 MOL1        -0.1409
       9    H6      20.372720   20.311149   20.578292 H          1 MOL1         0.0960
      10    H7      19.155806   20.087290   21.822542 H          1 MOL1         0.0960
      11    C4      21.216203   20.058367   22.557102 C.3        1 MOL1        -0.1409
      12    H8      21.649728   21.040346   22.322075 H          1 MOL1         0.0960
      13    H9      22.048541   19.344427   22.488481 H          1 MOL1         0.0960
      14    C5      20.684832   20.120278   24.012582 C.3        1 MOL1        -0.1409
      15    H10     21.513176   20.420757   24.669292 H          1 MOL1         0.0960
      16    H11     19.929228   20.914219   24.091800 H          1 MOL1         0.0960
      17    C6      20.089623   18.792282   24.532747 C.3        1 MOL1        -0.1450
      18    H12     20.809417   17.977484   24.378660 H          1 MOL1         0.0960
      19    H13     19.182958   18.543673   23.967098 H          1 MOL1         0.0960
      20    C7      19.733692   18.884839   26.026938 C.3        1 MOL1         0.0172
      21    H14     20.631615   19.118010   26.605569 H          1 MOL1         0.0934
      22    H15     19.006113   19.685910   26.183068 H          1 MOL1         0.0934
      23    N1      19.143024   17.602676   26.577119 N.4        1 MOL1        -0.5956
      24    H16     19.790796   16.813283   26.485317 H          1 MOL1         0.3624
      25    H17     18.277852   17.341623   26.092899 H          1 MOL1         0.3624
      26    H18     18.913783   17.686142   27.573570 H          1 MOL1         0.3624
@<TRIPOS>BOND
    1     1     2    1
    2     1     3    1
    3     1     4    1
    4     1     5    1
    5     5     6    1
    6     5     7    1
    7     5     8    1
    8     8     9    1
    9     8    10    1
   10     8    11    1
   11    11    12    1
   12    11    13    1
   13    11    14    1
   14    14    15    1
   15    14    16    1
   16    14    17    1
   17    17    18    1
   18    17    19    1
   19    17    20    1
   20    20    21    1
   21    20    22    1
   22    20    23    1
   23    23    24    1
   24    23    25    1
   25    23    26    1
@<TRIPOS>SUBSTRUCTURE
       1 MOL1            1 RESIDUE      1      MOL     
@<SCITEGIC>MOL_PROPERTY
VM2 Rank
SciTegic.value.IntegerValue
109

@<SCITEGIC>MOL_PROPERTY
Conf_Id
SciTegic.value.IntegerValue
991

@<SCITEGIC>MOL_PROPERTY
Probability
SciTegic.value.DoubleValue
0.03

@<SCITEGIC>MOL_PROPERTY
Sum Probability
SciTegic.value.DoubleValue
99.28

@<SCITEGIC>MOL_PROPERTY
Delta G
SciTegic.value.DoubleValue
3.395

@<SCITEGIC>MOL_PROPERTY
G
SciTegic.value.DoubleValue
51.656

@<SCITEGIC>MOL_PROPERTY
E
SciTegic.value.DoubleValue
18.928

@<SCITEGIC>MOL_PROPERTY
-TS
SciTegic.value.DoubleValue
32.728

@<SCITEGIC>MOL_PROPERTY
U+W
SciTegic.value.DoubleValue
-2.534

@<SCITEGIC>MOL_PROPERTY
U
SciTegic.value.DoubleValue
51.184

@<SCITEGIC>MOL_PROPERTY
W
SciTegic.value.DoubleValue
-53.717

@<SCITEGIC>MOL_PROPERTY
W(PB)
SciTegic.value.DoubleValue
-56.005

@<SCITEGIC>MOL_PROPERTY
W(SA)
SciTegic.value.DoubleValue
2.288

@<SCITEGIC>MOL_PROPERTY
Valence
SciTegic.value.DoubleValue
5.187

@<SCITEGIC>MOL_PROPERTY
Coulomb
SciTegic.value.DoubleValue
45.355

@<SCITEGIC>MOL_PROPERTY
VdW
SciTegic.value.DoubleValue
0.642

@<SCITEGIC>MOL_PROPERTY
VdW6
SciTegic.value.DoubleValue
-7.428

@<SCITEGIC>MOL_PROPERTY
VdW12
SciTegic.value.DoubleValue
8.070

@<SCITEGIC>MOL_PROPERTY
Bond
SciTegic.value.DoubleValue
0.216

@<SCITEGIC>MOL_PROPERTY
Angle
SciTegic.value.DoubleValue
1.173

@<SCITEGIC>MOL_PROPERTY
Pdih
SciTegic.value.DoubleValue
3.798

@<SCITEGIC>MOL_PROPERTY
Idih
SciTegic.value.DoubleValue
0.000

@<SCITEGIC>MOL_PROPERTY
Tether
SciTegic.value.DoubleValue
0.000

@<TRIPOS>MOLECULE
guest-s14_vm2.mol2 : vm2 ligand conformer 110
          26          25           1
SMALL
USER_CHARGES
 
@<TRIPOS>ATOM
       1    C1      20.475584   19.267959   19.365590 C.3        1 MOL1        -0.2400
       2    H1      21.064524   18.396352   19.051478 H          1 MOL1         0.0971
       3    H2      19.453815   19.146205   18.982967 H          1 MOL1         0.0971
       4    H3      20.909908   20.156890   18.889992 H          1 MOL1         0.0971
       5    C2      20.478264   19.415659   20.901937 C.3        1 MOL1        -0.1385
       6    H4      19.914988   20.318140   21.174398 H          1 MOL1         0.0960
       7    H5      21.509275   19.565613   21.251530 H          1 MOL1         0.0960
       8    C3      19.866504   18.175293   21.595050 C.3        1 MOL1        -0.1409
       9    H6      18.820853   18.053497   21.280312 H          1 MOL1         0.0960
      10    H7      20.397411   17.276159   21.252938 H          1 MOL1         0.0960
      11    C4      19.940533   18.232154   23.140597 C.3        1 MOL1        -0.1409
      12    H8      20.991889   18.324603   23.440130 H          1 MOL1         0.0960
      13    H9      19.576213   17.276100   23.541185 H          1 MOL1         0.0960
      14    C5      19.112025   19.389605   23.751961 C.3        1 MOL1        -0.1409
      15    H10     19.576096   20.353104   23.502363 H          1 MOL1         0.0960
      16    H11     18.116231   19.397584   23.287641 H          1 MOL1         0.0960
      17    C6      18.927211   19.300431   25.288431 C.3        1 MOL1        -0.1450
      18    H12     18.417439   18.366336   25.559440 H          1 MOL1         0.0960
      19    H13     18.252500   20.111212   25.593808 H          1 MOL1         0.0960
      20    C7      20.231928   19.445639   26.099003 C.3        1 MOL1         0.0172
      21    H14     20.857377   20.226783   25.658646 H          1 MOL1         0.0934
      22    H15     19.984275   19.745679   27.120835 H          1 MOL1         0.0934
      23    N1      21.048951   18.172260   26.198430 N.4        1 MOL1        -0.5956
      24    H16     21.906025   18.312270   26.744518 H          1 MOL1         0.3624
      25    H17     21.330655   17.828686   25.276160 H          1 MOL1         0.3624
      26    H18     20.523768   17.419480   26.655115 H          1 MOL1         0.3624
@<TRIPOS>BOND
    1     1     2    1
    2     1     3    1
    3     1     4    1
    4     1     5    1
    5     5     6    1
    6     5     7    1
    7     5     8    1
    8     8     9    1
    9     8    10    1
   10     8    11    1
   11    11    12    1
   12    11    13    1
   13    11    14    1
   14    14    15    1
   15    14    16    1
   16    14    17    1
   17    17    18    1
   18    17    19    1
   19    17    20    1
   20    20    21    1
   21    20    22    1
   22    20    23    1
   23    23    24    1
   24    23    25    1
   25    23    26    1
@<TRIPOS>SUBSTRUCTURE
       1 MOL1            1 RESIDUE      1      MOL     
@<SCITEGIC>MOL_PROPERTY
VM2 Rank
SciTegic.value.IntegerValue
110

@<SCITEGIC>MOL_PROPERTY
Conf_Id
SciTegic.value.IntegerValue
815

@<SCITEGIC>MOL_PROPERTY
Probability
SciTegic.value.DoubleValue
0.02

@<SCITEGIC>MOL_PROPERTY
Sum Probability
SciTegic.value.DoubleValue
99.31

@<SCITEGIC>MOL_PROPERTY
Delta G
SciTegic.value.DoubleValue
3.413

@<SCITEGIC>MOL_PROPERTY
G
SciTegic.value.DoubleValue
51.674

@<SCITEGIC>MOL_PROPERTY
E
SciTegic.value.DoubleValue
19.031

@<SCITEGIC>MOL_PROPERTY
-TS
SciTegic.value.DoubleValue
32.643

@<SCITEGIC>MOL_PROPERTY
U+W
SciTegic.value.DoubleValue
-2.431

@<SCITEGIC>MOL_PROPERTY
U
SciTegic.value.DoubleValue
51.400

@<SCITEGIC>MOL_PROPERTY
W
SciTegic.value.DoubleValue
-53.831

@<SCITEGIC>MOL_PROPERTY
W(PB)
SciTegic.value.DoubleValue
-56.115

@<SCITEGIC>MOL_PROPERTY
W(SA)
SciTegic.value.DoubleValue
2.284

@<SCITEGIC>MOL_PROPERTY
Valence
SciTegic.value.DoubleValue
4.232

@<SCITEGIC>MOL_PROPERTY
Coulomb
SciTegic.value.DoubleValue
46.514

@<SCITEGIC>MOL_PROPERTY
VdW
SciTegic.value.DoubleValue
0.653

@<SCITEGIC>MOL_PROPERTY
VdW6
SciTegic.value.DoubleValue
-7.962

@<SCITEGIC>MOL_PROPERTY
VdW12
SciTegic.value.DoubleValue
8.616

@<SCITEGIC>MOL_PROPERTY
Bond
SciTegic.value.DoubleValue
0.225

@<SCITEGIC>MOL_PROPERTY
Angle
SciTegic.value.DoubleValue
1.150

@<SCITEGIC>MOL_PROPERTY
Pdih
SciTegic.value.DoubleValue
2.857

@<SCITEGIC>MOL_PROPERTY
Idih
SciTegic.value.DoubleValue
0.000

@<SCITEGIC>MOL_PROPERTY
Tether
SciTegic.value.DoubleValue
0.000

@<TRIPOS>MOLECULE
guest-s14_vm2.mol2 : vm2 ligand conformer 111
          26          25           1
SMALL
USER_CHARGES
 
@<TRIPOS>ATOM
       1    C1      21.275262   19.649800   19.981326 C.3        1 MOL1        -0.2400
       2    H1      21.139791   18.922410   19.170296 H          1 MOL1         0.0971
       3    H2      20.748877   20.572606   19.704571 H          1 MOL1         0.0971
       4    H3      22.346206   19.880548   20.050966 H          1 MOL1         0.0971
       5    C2      20.749740   19.092326   21.321205 C.3        1 MOL1        -0.1385
       6    H4      20.938280   19.832526   22.109851 H          1 MOL1         0.0960
       7    H5      21.312141   18.185706   21.584412 H          1 MOL1         0.0960
       8    C3      19.239465   18.770626   21.251831 C.3        1 MOL1        -0.1409
       9    H6      18.676852   19.698050   21.076911 H          1 MOL1         0.0960
      10    H7      19.051196   18.130606   20.378756 H          1 MOL1         0.0960
      11    C4      18.676879   18.055762   22.507623 C.3        1 MOL1        -0.1409
      12    H8      19.158017   17.075802   22.631658 H          1 MOL1         0.0960
      13    H9      17.616050   17.841541   22.317314 H          1 MOL1         0.0960
      14    C5      18.775421   18.875062   23.820977 C.3        1 MOL1        -0.1409
      15    H10     18.750702   19.950811   23.598154 H          1 MOL1         0.0960
      16    H11     17.881221   18.670662   24.426299 H          1 MOL1         0.0960
      17    C6      20.020531   18.528063   24.672082 C.3        1 MOL1        -0.1450
      18    H12     20.939419   18.690354   24.097586 H          1 MOL1         0.0960
      19    H13     19.996932   17.462990   24.938536 H          1 MOL1         0.0960
      20    C7      20.072231   19.371810   25.957852 C.3        1 MOL1         0.0172
      21    H14     20.113051   20.433535   25.699918 H          1 MOL1         0.0934
      22    H15     19.170019   19.196085   26.549967 H          1 MOL1         0.0934
      23    N1      21.271472   19.055550   26.828104 N.4        1 MOL1        -0.5956
      24    H16     22.155571   19.227261   26.338193 H          1 MOL1         0.3624
      25    H17     21.277849   18.075199   27.128265 H          1 MOL1         0.3624
      26    H18     21.285780   19.628144   27.679202 H          1 MOL1         0.3624
@<TRIPOS>BOND
    1     1     2    1
    2     1     3    1
    3     1     4    1
    4     1     5    1
    5     5     6    1
    6     5     7    1
    7     5     8    1
    8     8     9    1
    9     8    10    1
   10     8    11    1
   11    11    12    1
   12    11    13    1
   13    11    14    1
   14    14    15    1
   15    14    16    1
   16    14    17    1
   17    17    18    1
   18    17    19    1
   19    17    20    1
   20    20    21    1
   21    20    22    1
   22    20    23    1
   23    23    24    1
   24    23    25    1
   25    23    26    1
@<TRIPOS>SUBSTRUCTURE
       1 MOL1            1 RESIDUE      1      MOL     
@<SCITEGIC>MOL_PROPERTY
VM2 Rank
SciTegic.value.IntegerValue
111

@<SCITEGIC>MOL_PROPERTY
Conf_Id
SciTegic.value.IntegerValue
743

@<SCITEGIC>MOL_PROPERTY
Probability
SciTegic.value.DoubleValue
0.02

@<SCITEGIC>MOL_PROPERTY
Sum Probability
SciTegic.value.DoubleValue
99.33

@<SCITEGIC>MOL_PROPERTY
Delta G
SciTegic.value.DoubleValue
3.421

@<SCITEGIC>MOL_PROPERTY
G
SciTegic.value.DoubleValue
51.682

@<SCITEGIC>MOL_PROPERTY
E
SciTegic.value.DoubleValue
18.960

@<SCITEGIC>MOL_PROPERTY
-TS
SciTegic.value.DoubleValue
32.722

@<SCITEGIC>MOL_PROPERTY
U+W
SciTegic.value.DoubleValue
-2.502

@<SCITEGIC>MOL_PROPERTY
U
SciTegic.value.DoubleValue
51.214

@<SCITEGIC>MOL_PROPERTY
W
SciTegic.value.DoubleValue
-53.716

@<SCITEGIC>MOL_PROPERTY
W(PB)
SciTegic.value.DoubleValue
-56.009

@<SCITEGIC>MOL_PROPERTY
W(SA)
SciTegic.value.DoubleValue
2.294

@<SCITEGIC>MOL_PROPERTY
Valence
SciTegic.value.DoubleValue
5.193

@<SCITEGIC>MOL_PROPERTY
Coulomb
SciTegic.value.DoubleValue
45.364

@<SCITEGIC>MOL_PROPERTY
VdW
SciTegic.value.DoubleValue
0.656

@<SCITEGIC>MOL_PROPERTY
VdW6
SciTegic.value.DoubleValue
-7.405

@<SCITEGIC>MOL_PROPERTY
VdW12
SciTegic.value.DoubleValue
8.062

@<SCITEGIC>MOL_PROPERTY
Bond
SciTegic.value.DoubleValue
0.216

@<SCITEGIC>MOL_PROPERTY
Angle
SciTegic.value.DoubleValue
1.176

@<SCITEGIC>MOL_PROPERTY
Pdih
SciTegic.value.DoubleValue
3.800

@<SCITEGIC>MOL_PROPERTY
Idih
SciTegic.value.DoubleValue
0.000

@<SCITEGIC>MOL_PROPERTY
Tether
SciTegic.value.DoubleValue
0.000

@<TRIPOS>MOLECULE
guest-s14_vm2.mol2 : vm2 ligand conformer 112
          26          25           1
SMALL
USER_CHARGES
 
@<TRIPOS>ATOM
       1    C1      20.025903   17.912589   20.002067 C.3        1 MOL1        -0.2400
       2    H1      19.753605   17.795483   18.945160 H          1 MOL1         0.0971
       3    H2      21.104358   18.109477   20.045410 H          1 MOL1         0.0971
       4    H3      19.829747   16.957942   20.507219 H          1 MOL1         0.0971
       5    C2      19.214180   19.059217   20.646256 C.3        1 MOL1        -0.1385
       6    H4      18.143824   18.873927   20.479611 H          1 MOL1         0.0960
       7    H5      19.444862   20.005896   20.137993 H          1 MOL1         0.0960
       8    C3      19.463075   19.206773   22.166626 C.3        1 MOL1        -0.1409
       9    H6      18.784331   19.976258   22.559316 H          1 MOL1         0.0960
      10    H7      19.196847   18.263989   22.661418 H          1 MOL1         0.0960
      11    C4      20.923265   19.588255   22.513416 C.3        1 MOL1        -0.1409
      12    H8      21.238778   20.415890   21.863309 H          1 MOL1         0.0960
      13    H9      21.590318   18.746705   22.283666 H          1 MOL1         0.0960
      14    C5      21.141870   20.020918   23.986478 C.3        1 MOL1        -0.1409
      15    H10     22.193729   20.321318   24.090410 H          1 MOL1         0.0960
      16    H11     20.552456   20.921552   24.207828 H          1 MOL1         0.0960
      17    C6      20.849168   18.922401   25.039453 C.3        1 MOL1        -0.1450
      18    H12     21.455220   19.125043   25.932558 H          1 MOL1         0.0960
      19    H13     21.170895   17.942639   24.662057 H          1 MOL1         0.0960
      20    C7      19.369546   18.871942   25.467485 C.3        1 MOL1         0.0172
      21    H14     19.074327   19.841148   25.878399 H          1 MOL1         0.0934
      22    H15     18.732996   18.658470   24.606995 H          1 MOL1         0.0934
      23    N1      19.093992   17.816905   26.519219 N.4        1 MOL1        -0.5956
      24    H16     19.638500   17.977498   27.372974 H          1 MOL1         0.3624
      25    H17     19.325961   16.875434   26.186162 H          1 MOL1         0.3624
      26    H18     18.105811   17.801689   26.794190 H          1 MOL1         0.3624
@<TRIPOS>BOND
    1     1     2    1
    2     1     3    1
    3     1     4    1
    4     1     5    1
    5     5     6    1
    6     5     7    1
    7     5     8    1
    8     8     9    1
    9     8    10    1
   10     8    11    1
   11    11    12    1
   12    11    13    1
   13    11    14    1
   14    14    15    1
   15    14    16    1
   16    14    17    1
   17    17    18    1
   18    17    19    1
   19    17    20    1
   20    20    21    1
   21    20    22    1
   22    20    23    1
   23    23    24    1
   24    23    25    1
   25    23    26    1
@<TRIPOS>SUBSTRUCTURE
       1 MOL1            1 RESIDUE      1      MOL     
@<SCITEGIC>MOL_PROPERTY
VM2 Rank
SciTegic.value.IntegerValue
112

@<SCITEGIC>MOL_PROPERTY
Conf_Id
SciTegic.value.IntegerValue
284

@<SCITEGIC>MOL_PROPERTY
Probability
SciTegic.value.DoubleValue
0.02

@<SCITEGIC>MOL_PROPERTY
Sum Probability
SciTegic.value.DoubleValue
99.35

@<SCITEGIC>MOL_PROPERTY
Delta G
SciTegic.value.DoubleValue
3.436

@<SCITEGIC>MOL_PROPERTY
G
SciTegic.value.DoubleValue
51.697

@<SCITEGIC>MOL_PROPERTY
E
SciTegic.value.DoubleValue
18.882

@<SCITEGIC>MOL_PROPERTY
-TS
SciTegic.value.DoubleValue
32.815

@<SCITEGIC>MOL_PROPERTY
U+W
SciTegic.value.DoubleValue
-2.580

@<SCITEGIC>MOL_PROPERTY
U
SciTegic.value.DoubleValue
51.328

@<SCITEGIC>MOL_PROPERTY
W
SciTegic.value.DoubleValue
-53.907

@<SCITEGIC>MOL_PROPERTY
W(PB)
SciTegic.value.DoubleValue
-56.205

@<SCITEGIC>MOL_PROPERTY
W(SA)
SciTegic.value.DoubleValue
2.297

@<SCITEGIC>MOL_PROPERTY
Valence
SciTegic.value.DoubleValue
4.992

@<SCITEGIC>MOL_PROPERTY
Coulomb
SciTegic.value.DoubleValue
45.664

@<SCITEGIC>MOL_PROPERTY
VdW
SciTegic.value.DoubleValue
0.672

@<SCITEGIC>MOL_PROPERTY
VdW6
SciTegic.value.DoubleValue
-8.113

@<SCITEGIC>MOL_PROPERTY
VdW12
SciTegic.value.DoubleValue
8.785

@<SCITEGIC>MOL_PROPERTY
Bond
SciTegic.value.DoubleValue
0.231

@<SCITEGIC>MOL_PROPERTY
Angle
SciTegic.value.DoubleValue
1.333

@<SCITEGIC>MOL_PROPERTY
Pdih
SciTegic.value.DoubleValue
3.428

@<SCITEGIC>MOL_PROPERTY
Idih
SciTegic.value.DoubleValue
0.000

@<SCITEGIC>MOL_PROPERTY
Tether
SciTegic.value.DoubleValue
0.000

@<TRIPOS>MOLECULE
guest-s14_vm2.mol2 : vm2 ligand conformer 113
          26          25           1
SMALL
USER_CHARGES
 
@<TRIPOS>ATOM
       1    C1      19.972528   18.963959   19.227398 C.3        1 MOL1        -0.2400
       2    H1      19.394163   18.075304   18.942784 H          1 MOL1         0.0971
       3    H2      19.335927   19.846781   19.083840 H          1 MOL1         0.0971
       4    H3      20.823465   19.046461   18.538820 H          1 MOL1         0.0971
       5    C2      20.461176   18.864550   20.688127 C.3        1 MOL1        -0.1385
       6    H4      21.069202   19.748723   20.919511 H          1 MOL1         0.0960
       7    H5      21.117907   17.989696   20.793082 H          1 MOL1         0.0960
       8    C3      19.277387   18.751185   21.678122 C.3        1 MOL1        -0.1409
       9    H6      18.649537   19.650479   21.612004 H          1 MOL1         0.0960
      10    H7      18.641091   17.909030   21.372662 H          1 MOL1         0.0960
      11    C4      19.711957   18.526312   23.147622 C.3        1 MOL1        -0.1409
      12    H8      20.365539   17.645079   23.206495 H          1 MOL1         0.0960
      13    H9      18.810291   18.293227   23.726614 H          1 MOL1         0.0960
      14    C5      20.418442   19.752462   23.778841 C.3        1 MOL1        -0.1409
      15    H10     21.268371   20.049338   23.151789 H          1 MOL1         0.0960
      16    H11     19.729050   20.607993   23.785729 H          1 MOL1         0.0960
      17    C6      20.955957   19.513083   25.213155 C.3        1 MOL1        -0.1450
      18    H12     21.499611   20.415630   25.522554 H          1 MOL1         0.0960
      19    H13     21.695636   18.701449   25.213810 H          1 MOL1         0.0960
      20    C7      19.866600   19.237085   26.270289 C.3        1 MOL1         0.0172
      21    H14     20.257103   19.494449   27.258607 H          1 MOL1         0.0934
      22    H15     18.993164   19.865566   26.076855 H          1 MOL1         0.0934
      23    N1      19.416954   17.790364   26.337445 N.4        1 MOL1        -0.5956
      24    H16     19.029567   17.469936   25.445660 H          1 MOL1         0.3624
      25    H17     18.692531   17.650247   27.050175 H          1 MOL1         0.3624
      26    H18     20.192614   17.162859   26.573407 H          1 MOL1         0.3624
@<TRIPOS>BOND
    1     1     2    1
    2     1     3    1
    3     1     4    1
    4     1     5    1
    5     5     6    1
    6     5     7    1
    7     5     8    1
    8     8     9    1
    9     8    10    1
   10     8    11    1
   11    11    12    1
   12    11    13    1
   13    11    14    1
   14    14    15    1
   15    14    16    1
   16    14    17    1
   17    17    18    1
   18    17    19    1
   19    17    20    1
   20    20    21    1
   21    20    22    1
   22    20    23    1
   23    23    24    1
   24    23    25    1
   25    23    26    1
@<TRIPOS>SUBSTRUCTURE
       1 MOL1            1 RESIDUE      1      MOL     
@<SCITEGIC>MOL_PROPERTY
VM2 Rank
SciTegic.value.IntegerValue
113

@<SCITEGIC>MOL_PROPERTY
Conf_Id
SciTegic.value.IntegerValue
1100

@<SCITEGIC>MOL_PROPERTY
Probability
SciTegic.value.DoubleValue
0.02

@<SCITEGIC>MOL_PROPERTY
Sum Probability
SciTegic.value.DoubleValue
99.38

@<SCITEGIC>MOL_PROPERTY
Delta G
SciTegic.value.DoubleValue
3.447

@<SCITEGIC>MOL_PROPERTY
G
SciTegic.value.DoubleValue
51.709

@<SCITEGIC>MOL_PROPERTY
E
SciTegic.value.DoubleValue
19.203

@<SCITEGIC>MOL_PROPERTY
-TS
SciTegic.value.DoubleValue
32.506

@<SCITEGIC>MOL_PROPERTY
U+W
SciTegic.value.DoubleValue
-2.259

@<SCITEGIC>MOL_PROPERTY
U
SciTegic.value.DoubleValue
51.605

@<SCITEGIC>MOL_PROPERTY
W
SciTegic.value.DoubleValue
-53.864

@<SCITEGIC>MOL_PROPERTY
W(PB)
SciTegic.value.DoubleValue
-56.158

@<SCITEGIC>MOL_PROPERTY
W(SA)
SciTegic.value.DoubleValue
2.294

@<SCITEGIC>MOL_PROPERTY
Valence
SciTegic.value.DoubleValue
4.451

@<SCITEGIC>MOL_PROPERTY
Coulomb
SciTegic.value.DoubleValue
46.417

@<SCITEGIC>MOL_PROPERTY
VdW
SciTegic.value.DoubleValue
0.736

@<SCITEGIC>MOL_PROPERTY
VdW6
SciTegic.value.DoubleValue
-7.820

@<SCITEGIC>MOL_PROPERTY
VdW12
SciTegic.value.DoubleValue
8.556

@<SCITEGIC>MOL_PROPERTY
Bond
SciTegic.value.DoubleValue
0.235

@<SCITEGIC>MOL_PROPERTY
Angle
SciTegic.value.DoubleValue
1.295

@<SCITEGIC>MOL_PROPERTY
Pdih
SciTegic.value.DoubleValue
2.922

@<SCITEGIC>MOL_PROPERTY
Idih
SciTegic.value.DoubleValue
0.000

@<SCITEGIC>MOL_PROPERTY
Tether
SciTegic.value.DoubleValue
0.000

@<TRIPOS>MOLECULE
guest-s14_vm2.mol2 : vm2 ligand conformer 114
          26          25           1
SMALL
USER_CHARGES
 
@<TRIPOS>ATOM
       1    C1      20.028160   17.655799   20.150024 C.3        1 MOL1        -0.2400
       2    H1      19.992266   16.968525   21.004263 H          1 MOL1         0.0971
       3    H2      18.998456   17.862060   19.830341 H          1 MOL1         0.0971
       4    H3      20.536459   17.134387   19.328625 H          1 MOL1         0.0971
       5    C2      20.772752   18.963301   20.503285 C.3        1 MOL1        -0.1385
       6    H4      20.889556   19.562219   19.589255 H          1 MOL1         0.0960
       7    H5      21.789305   18.728059   20.848240 H          1 MOL1         0.0960
       8    C3      20.043244   19.818673   21.567218 C.3        1 MOL1        -0.1409
       9    H6      20.581770   20.769897   21.679366 H          1 MOL1         0.0960
      10    H7      19.037593   20.073537   21.205297 H          1 MOL1         0.0960
      11    C4      19.942418   19.129138   22.948884 C.3        1 MOL1        -0.1409
      12    H8      20.948618   18.829358   23.266299 H          1 MOL1         0.0960
      13    H9      19.335736   18.217819   22.866292 H          1 MOL1         0.0960
      14    C5      19.315683   20.065076   24.009390 C.3        1 MOL1        -0.1409
      15    H10     19.981136   20.922504   24.180937 H          1 MOL1         0.0960
      16    H11     18.379834   20.479192   23.609207 H          1 MOL1         0.0960
      17    C6      18.999111   19.379444   25.363194 C.3        1 MOL1        -0.1450
      18    H12     18.283708   18.559025   25.218350 H          1 MOL1         0.0960
      19    H13     18.489822   20.113933   26.001162 H          1 MOL1         0.0960
      20    C7      20.238154   18.871115   26.129176 C.3        1 MOL1         0.0172
      21    H14     21.052966   19.594483   26.039091 H          1 MOL1         0.0934
      22    H15     19.986365   18.774414   27.188774 H          1 MOL1         0.0934
      23    N1      20.741478   17.516455   25.669828 N.4        1 MOL1        -0.5956
      24    H16     20.029660   16.787989   25.787052 H          1 MOL1         0.3624
      25    H17     21.565627   17.216867   26.202239 H          1 MOL1         0.3624
      26    H18     21.006431   17.524674   24.680981 H          1 MOL1         0.3624
@<TRIPOS>BOND
    1     1     2    1
    2     1     3    1
    3     1     4    1
    4     1     5    1
    5     5     6    1
    6     5     7    1
    7     5     8    1
    8     8     9    1
    9     8    10    1
   10     8    11    1
   11    11    12    1
   12    11    13    1
   13    11    14    1
   14    14    15    1
   15    14    16    1
   16    14    17    1
   17    17    18    1
   18    17    19    1
   19    17    20    1
   20    20    21    1
   21    20    22    1
   22    20    23    1
   23    23    24    1
   24    23    25    1
   25    23    26    1
@<TRIPOS>SUBSTRUCTURE
       1 MOL1            1 RESIDUE      1      MOL     
@<SCITEGIC>MOL_PROPERTY
VM2 Rank
SciTegic.value.IntegerValue
114

@<SCITEGIC>MOL_PROPERTY
Conf_Id
SciTegic.value.IntegerValue
523

@<SCITEGIC>MOL_PROPERTY
Probability
SciTegic.value.DoubleValue
0.02

@<SCITEGIC>MOL_PROPERTY
Sum Probability
SciTegic.value.DoubleValue
99.40

@<SCITEGIC>MOL_PROPERTY
Delta G
SciTegic.value.DoubleValue
3.495

@<SCITEGIC>MOL_PROPERTY
G
SciTegic.value.DoubleValue
51.756

@<SCITEGIC>MOL_PROPERTY
E
SciTegic.value.DoubleValue
19.127

@<SCITEGIC>MOL_PROPERTY
-TS
SciTegic.value.DoubleValue
32.629

@<SCITEGIC>MOL_PROPERTY
U+W
SciTegic.value.DoubleValue
-2.335

@<SCITEGIC>MOL_PROPERTY
U
SciTegic.value.DoubleValue
51.554

@<SCITEGIC>MOL_PROPERTY
W
SciTegic.value.DoubleValue
-53.888

@<SCITEGIC>MOL_PROPERTY
W(PB)
SciTegic.value.DoubleValue
-56.151

@<SCITEGIC>MOL_PROPERTY
W(SA)
SciTegic.value.DoubleValue
2.263

@<SCITEGIC>MOL_PROPERTY
Valence
SciTegic.value.DoubleValue
4.249

@<SCITEGIC>MOL_PROPERTY
Coulomb
SciTegic.value.DoubleValue
46.644

@<SCITEGIC>MOL_PROPERTY
VdW
SciTegic.value.DoubleValue
0.661

@<SCITEGIC>MOL_PROPERTY
VdW6
SciTegic.value.DoubleValue
-7.942

@<SCITEGIC>MOL_PROPERTY
VdW12
SciTegic.value.DoubleValue
8.603

@<SCITEGIC>MOL_PROPERTY
Bond
SciTegic.value.DoubleValue
0.222

@<SCITEGIC>MOL_PROPERTY
Angle
SciTegic.value.DoubleValue
1.190

@<SCITEGIC>MOL_PROPERTY
Pdih
SciTegic.value.DoubleValue
2.837

@<SCITEGIC>MOL_PROPERTY
Idih
SciTegic.value.DoubleValue
0.000

@<SCITEGIC>MOL_PROPERTY
Tether
SciTegic.value.DoubleValue
0.000

@<TRIPOS>MOLECULE
guest-s14_vm2.mol2 : vm2 ligand conformer 115
          26          25           1
SMALL
USER_CHARGES
 
@<TRIPOS>ATOM
       1    C1      18.990838   19.925205   20.663638 C.3        1 MOL1        -0.2400
       2    H1      18.332528   19.424358   21.384061 H          1 MOL1         0.0971
       3    H2      19.363676   20.853457   21.115508 H          1 MOL1         0.0971
       4    H3      18.378038   20.197134   19.794501 H          1 MOL1         0.0971
       5    C2      20.155759   19.006231   20.235815 C.3        1 MOL1        -0.1385
       6    H4      20.684162   19.476198   19.394579 H          1 MOL1         0.0960
       7    H5      19.750682   18.060315   19.849969 H          1 MOL1         0.0960
       8    C3      21.183368   18.711909   21.358415 C.3        1 MOL1        -0.1409
       9    H6      21.982036   18.096626   20.921436 H          1 MOL1         0.0960
      10    H7      21.669755   19.643494   21.678774 H          1 MOL1         0.0960
      11    C4      20.607279   17.955364   22.583802 C.3        1 MOL1        -0.1409
      12    H8      21.378422   17.270395   22.962736 H          1 MOL1         0.0960
      13    H9      19.765099   17.322020   22.272783 H          1 MOL1         0.0960
      14    C5      20.182692   18.890735   23.742429 C.3        1 MOL1        -0.1409
      15    H10     21.053378   19.474952   24.068529 H          1 MOL1         0.0960
      16    H11     19.432809   19.612158   23.396859 H          1 MOL1         0.0960
      17    C6      19.609359   18.094825   24.938656 C.3        1 MOL1        -0.1450
      18    H12     20.364324   17.396142   25.323137 H          1 MOL1         0.0960
      19    H13     18.762936   17.484535   24.596516 H          1 MOL1         0.0960
      20    C7      19.122251   19.006123   26.081713 C.3        1 MOL1         0.0172
      21    H14     18.374767   19.707142   25.700606 H          1 MOL1         0.0934
      22    H15     18.652509   18.395188   26.857380 H          1 MOL1         0.0934
      23    N1      20.229455   19.808607   26.736532 N.4        1 MOL1        -0.5956
      24    H16     20.691022   20.433984   26.068891 H          1 MOL1         0.3624
      25    H17     20.953863   19.202683   27.135414 H          1 MOL1         0.3624
      26    H18     19.874591   20.394016   27.500519 H          1 MOL1         0.3624
@<TRIPOS>BOND
    1     1     2    1
    2     1     3    1
    3     1     4    1
    4     1     5    1
    5     5     6    1
    6     5     7    1
    7     5     8    1
    8     8     9    1
    9     8    10    1
   10     8    11    1
   11    11    12    1
   12    11    13    1
   13    11    14    1
   14    14    15    1
   15    14    16    1
   16    14    17    1
   17    17    18    1
   18    17    19    1
   19    17    20    1
   20    20    21    1
   21    20    22    1
   22    20    23    1
   23    23    24    1
   24    23    25    1
   25    23    26    1
@<TRIPOS>SUBSTRUCTURE
       1 MOL1            1 RESIDUE      1      MOL     
@<SCITEGIC>MOL_PROPERTY
VM2 Rank
SciTegic.value.IntegerValue
115

@<SCITEGIC>MOL_PROPERTY
Conf_Id
SciTegic.value.IntegerValue
214

@<SCITEGIC>MOL_PROPERTY
Probability
SciTegic.value.DoubleValue
0.02

@<SCITEGIC>MOL_PROPERTY
Sum Probability
SciTegic.value.DoubleValue
99.42

@<SCITEGIC>MOL_PROPERTY
Delta G
SciTegic.value.DoubleValue
3.525

@<SCITEGIC>MOL_PROPERTY
G
SciTegic.value.DoubleValue
51.787

@<SCITEGIC>MOL_PROPERTY
E
SciTegic.value.DoubleValue
18.982

@<SCITEGIC>MOL_PROPERTY
-TS
SciTegic.value.DoubleValue
32.805

@<SCITEGIC>MOL_PROPERTY
U+W
SciTegic.value.DoubleValue
-2.480

@<SCITEGIC>MOL_PROPERTY
U
SciTegic.value.DoubleValue
51.297

@<SCITEGIC>MOL_PROPERTY
W
SciTegic.value.DoubleValue
-53.777

@<SCITEGIC>MOL_PROPERTY
W(PB)
SciTegic.value.DoubleValue
-56.034

@<SCITEGIC>MOL_PROPERTY
W(SA)
SciTegic.value.DoubleValue
2.257

@<SCITEGIC>MOL_PROPERTY
Valence
SciTegic.value.DoubleValue
5.228

@<SCITEGIC>MOL_PROPERTY
Coulomb
SciTegic.value.DoubleValue
45.276

@<SCITEGIC>MOL_PROPERTY
VdW
SciTegic.value.DoubleValue
0.793

@<SCITEGIC>MOL_PROPERTY
VdW6
SciTegic.value.DoubleValue
-7.860

@<SCITEGIC>MOL_PROPERTY
VdW12
SciTegic.value.DoubleValue
8.653

@<SCITEGIC>MOL_PROPERTY
Bond
SciTegic.value.DoubleValue
0.234

@<SCITEGIC>MOL_PROPERTY
Angle
SciTegic.value.DoubleValue
1.197

@<SCITEGIC>MOL_PROPERTY
Pdih
SciTegic.value.DoubleValue
3.797

@<SCITEGIC>MOL_PROPERTY
Idih
SciTegic.value.DoubleValue
0.000

@<SCITEGIC>MOL_PROPERTY
Tether
SciTegic.value.DoubleValue
0.000

@<TRIPOS>MOLECULE
guest-s14_vm2.mol2 : vm2 ligand conformer 116
          26          25           1
SMALL
USER_CHARGES
 
@<TRIPOS>ATOM
       1    C1      21.314364   18.502691   20.193135 C.3        1 MOL1        -0.2400
       2    H1      21.545615   19.539270   19.915535 H          1 MOL1         0.0971
       3    H2      21.919543   18.237649   21.068846 H          1 MOL1         0.0971
       4    H3      21.631034   17.855013   19.365387 H          1 MOL1         0.0971
       5    C2      19.804335   18.325542   20.470984 C.3        1 MOL1        -0.1385
       6    H4      19.603688   17.288791   20.775287 H          1 MOL1         0.0960
       7    H5      19.251168   18.483225   19.534534 H          1 MOL1         0.0960
       8    C3      19.256950   19.300904   21.540953 C.3        1 MOL1        -0.1409
       9    H6      19.436043   20.335936   21.218598 H          1 MOL1         0.0960
      10    H7      18.166395   19.179343   21.598633 H          1 MOL1         0.0960
      11    C4      19.865229   19.078403   22.946337 C.3        1 MOL1        -0.1409
      12    H8      20.944599   19.277553   22.920143 H          1 MOL1         0.0960
      13    H9      19.729358   18.026434   23.225552 H          1 MOL1         0.0960
      14    C5      19.203408   19.991223   24.005676 C.3        1 MOL1        -0.1409
      15    H10     19.210418   21.026359   23.637033 H          1 MOL1         0.0960
      16    H11     18.146230   19.714039   24.119620 H          1 MOL1         0.0960
      17    C6      19.894400   19.969196   25.393168 C.3        1 MOL1        -0.1450
      18    H12     19.390831   20.707386   26.031405 H          1 MOL1         0.0960
      19    H13     20.935974   20.306216   25.307096 H          1 MOL1         0.0960
      20    C7      19.837668   18.607169   26.115679 C.3        1 MOL1         0.0172
      21    H14     19.976184   18.767475   27.188345 H          1 MOL1         0.0934
      22    H15     18.857017   18.147752   25.965509 H          1 MOL1         0.0934
      23    N1      20.904646   17.623872   25.675068 N.4        1 MOL1        -0.5956
      24    H16     20.838920   17.414384   24.675127 H          1 MOL1         0.3624
      25    H17     20.830441   16.732418   26.177302 H          1 MOL1         0.3624
      26    H18     21.848172   17.985861   25.847733 H          1 MOL1         0.3624
@<TRIPOS>BOND
    1     1     2    1
    2     1     3    1
    3     1     4    1
    4     1     5    1
    5     5     6    1
    6     5     7    1
    7     5     8    1
    8     8     9    1
    9     8    10    1
   10     8    11    1
   11    11    12    1
   12    11    13    1
   13    11    14    1
   14    14    15    1
   15    14    16    1
   16    14    17    1
   17    17    18    1
   18    17    19    1
   19    17    20    1
   20    20    21    1
   21    20    22    1
   22    20    23    1
   23    23    24    1
   24    23    25    1
   25    23    26    1
@<TRIPOS>SUBSTRUCTURE
       1 MOL1            1 RESIDUE      1      MOL     
@<SCITEGIC>MOL_PROPERTY
VM2 Rank
SciTegic.value.IntegerValue
116

@<SCITEGIC>MOL_PROPERTY
Conf_Id
SciTegic.value.IntegerValue
1326

@<SCITEGIC>MOL_PROPERTY
Probability
SciTegic.value.DoubleValue
0.02

@<SCITEGIC>MOL_PROPERTY
Sum Probability
SciTegic.value.DoubleValue
99.44

@<SCITEGIC>MOL_PROPERTY
Delta G
SciTegic.value.DoubleValue
3.546

@<SCITEGIC>MOL_PROPERTY
G
SciTegic.value.DoubleValue
51.808

@<SCITEGIC>MOL_PROPERTY
E
SciTegic.value.DoubleValue
19.179

@<SCITEGIC>MOL_PROPERTY
-TS
SciTegic.value.DoubleValue
32.629

@<SCITEGIC>MOL_PROPERTY
U+W
SciTegic.value.DoubleValue
-2.283

@<SCITEGIC>MOL_PROPERTY
U
SciTegic.value.DoubleValue
51.554

@<SCITEGIC>MOL_PROPERTY
W
SciTegic.value.DoubleValue
-53.837

@<SCITEGIC>MOL_PROPERTY
W(PB)
SciTegic.value.DoubleValue
-56.125

@<SCITEGIC>MOL_PROPERTY
W(SA)
SciTegic.value.DoubleValue
2.288

@<SCITEGIC>MOL_PROPERTY
Valence
SciTegic.value.DoubleValue
4.249

@<SCITEGIC>MOL_PROPERTY
Coulomb
SciTegic.value.DoubleValue
46.644

@<SCITEGIC>MOL_PROPERTY
VdW
SciTegic.value.DoubleValue
0.661

@<SCITEGIC>MOL_PROPERTY
VdW6
SciTegic.value.DoubleValue
-7.942

@<SCITEGIC>MOL_PROPERTY
VdW12
SciTegic.value.DoubleValue
8.603

@<SCITEGIC>MOL_PROPERTY
Bond
SciTegic.value.DoubleValue
0.222

@<SCITEGIC>MOL_PROPERTY
Angle
SciTegic.value.DoubleValue
1.189

@<SCITEGIC>MOL_PROPERTY
Pdih
SciTegic.value.DoubleValue
2.837

@<SCITEGIC>MOL_PROPERTY
Idih
SciTegic.value.DoubleValue
0.000

@<SCITEGIC>MOL_PROPERTY
Tether
SciTegic.value.DoubleValue
0.000

@<TRIPOS>MOLECULE
guest-s14_vm2.mol2 : vm2 ligand conformer 117
          26          25           1
SMALL
USER_CHARGES
 
@<TRIPOS>ATOM
       1    C1      18.842923   18.088685   20.347976 C.3        1 MOL1        -0.2400
       2    H1      18.125345   18.916496   20.278277 H          1 MOL1         0.0971
       3    H2      18.699273   17.445494   19.470126 H          1 MOL1         0.0971
       4    H3      18.596958   17.493274   21.235714 H          1 MOL1         0.0971
       5    C2      20.295282   18.614898   20.400276 C.3        1 MOL1        -0.1385
       6    H4      20.533078   19.092351   19.439393 H          1 MOL1         0.0960
       7    H5      20.990980   17.770516   20.504082 H          1 MOL1         0.0960
       8    C3      20.539957   19.637781   21.535954 C.3        1 MOL1        -0.1409
       9    H6      21.556796   20.039906   21.428116 H          1 MOL1         0.0960
      10    H7      19.856422   20.489686   21.416135 H          1 MOL1         0.0960
      11    C4      20.380658   19.035950   22.952753 C.3        1 MOL1        -0.1409
      12    H8      21.034428   18.158586   23.052460 H          1 MOL1         0.0960
      13    H9      19.347322   18.694956   23.082763 H          1 MOL1         0.0960
      14    C5      20.722441   20.067703   24.053858 C.3        1 MOL1        -0.1409
      15    H10     21.702312   20.513403   23.833514 H          1 MOL1         0.0960
      16    H11     19.996814   20.892208   24.020512 H          1 MOL1         0.0960
      17    C6      20.772285   19.482285   25.488408 C.3        1 MOL1        -0.1450
      18    H12     21.094985   20.282869   26.167220 H          1 MOL1         0.0960
      19    H13     21.541631   18.701664   25.556268 H          1 MOL1         0.0960
      20    C7      19.423673   18.941576   26.007284 C.3        1 MOL1         0.0172
      21    H14     19.442499   18.928388   27.100432 H          1 MOL1         0.0934
      22    H15     18.612047   19.601887   25.690186 H          1 MOL1         0.0934
      23    N1      19.103781   17.530121   25.554491 N.4        1 MOL1        -0.5956
      24    H16     19.808574   16.859580   25.878213 H          1 MOL1         0.3624
      25    H17     19.063617   17.458104   24.534103 H          1 MOL1         0.3624
      26    H18     18.199008   17.210556   25.917432 H          1 MOL1         0.3624
@<TRIPOS>BOND
    1     1     2    1
    2     1     3    1
    3     1     4    1
    4     1     5    1
    5     5     6    1
    6     5     7    1
    7     5     8    1
    8     8     9    1
    9     8    10    1
   10     8    11    1
   11    11    12    1
   12    11    13    1
   13    11    14    1
   14    14    15    1
   15    14    16    1
   16    14    17    1
   17    17    18    1
   18    17    19    1
   19    17    20    1
   20    20    21    1
   21    20    22    1
   22    20    23    1
   23    23    24    1
   24    23    25    1
   25    23    26    1
@<TRIPOS>SUBSTRUCTURE
       1 MOL1            1 RESIDUE      1      MOL     
@<SCITEGIC>MOL_PROPERTY
VM2 Rank
SciTegic.value.IntegerValue
117

@<SCITEGIC>MOL_PROPERTY
Conf_Id
SciTegic.value.IntegerValue
654

@<SCITEGIC>MOL_PROPERTY
Probability
SciTegic.value.DoubleValue
0.02

@<SCITEGIC>MOL_PROPERTY
Sum Probability
SciTegic.value.DoubleValue
99.46

@<SCITEGIC>MOL_PROPERTY
Delta G
SciTegic.value.DoubleValue
3.569

@<SCITEGIC>MOL_PROPERTY
G
SciTegic.value.DoubleValue
51.830

@<SCITEGIC>MOL_PROPERTY
E
SciTegic.value.DoubleValue
19.221

@<SCITEGIC>MOL_PROPERTY
-TS
SciTegic.value.DoubleValue
32.609

@<SCITEGIC>MOL_PROPERTY
U+W
SciTegic.value.DoubleValue
-2.241

@<SCITEGIC>MOL_PROPERTY
U
SciTegic.value.DoubleValue
51.693

@<SCITEGIC>MOL_PROPERTY
W
SciTegic.value.DoubleValue
-53.933

@<SCITEGIC>MOL_PROPERTY
W(PB)
SciTegic.value.DoubleValue
-56.181

@<SCITEGIC>MOL_PROPERTY
W(SA)
SciTegic.value.DoubleValue
2.248

@<SCITEGIC>MOL_PROPERTY
Valence
SciTegic.value.DoubleValue
4.262

@<SCITEGIC>MOL_PROPERTY
Coulomb
SciTegic.value.DoubleValue
46.777

@<SCITEGIC>MOL_PROPERTY
VdW
SciTegic.value.DoubleValue
0.653

@<SCITEGIC>MOL_PROPERTY
VdW6
SciTegic.value.DoubleValue
-7.961

@<SCITEGIC>MOL_PROPERTY
VdW12
SciTegic.value.DoubleValue
8.615

@<SCITEGIC>MOL_PROPERTY
Bond
SciTegic.value.DoubleValue
0.225

@<SCITEGIC>MOL_PROPERTY
Angle
SciTegic.value.DoubleValue
1.192

@<SCITEGIC>MOL_PROPERTY
Pdih
SciTegic.value.DoubleValue
2.845

@<SCITEGIC>MOL_PROPERTY
Idih
SciTegic.value.DoubleValue
0.000

@<SCITEGIC>MOL_PROPERTY
Tether
SciTegic.value.DoubleValue
0.000

@<TRIPOS>MOLECULE
guest-s14_vm2.mol2 : vm2 ligand conformer 118
          26          25           1
SMALL
USER_CHARGES
 
@<TRIPOS>ATOM
       1    C1      19.398860   20.564712   20.640266 C.3        1 MOL1        -0.2400
       2    H1      18.396844   20.760550   20.237012 H          1 MOL1         0.0971
       3    H2      19.644037   21.373220   21.341255 H          1 MOL1         0.0971
       4    H3      20.111653   20.607138   19.806404 H          1 MOL1         0.0971
       5    C2      19.445214   19.190456   21.340797 C.3        1 MOL1        -0.1385
       6    H4      19.164989   18.405991   20.624056 H          1 MOL1         0.0960
       7    H5      18.692184   19.171736   22.138861 H          1 MOL1         0.0960
       8    C3      20.850275   18.891248   21.915115 C.3        1 MOL1        -0.1409
       9    H6      21.582146   18.941465   21.097141 H          1 MOL1         0.0960
      10    H7      21.147998   19.673165   22.624639 H          1 MOL1         0.0960
      11    C4      20.964616   17.497253   22.581536 C.3        1 MOL1        -0.1409
      12    H8      22.004849   17.346359   22.901407 H          1 MOL1         0.0960
      13    H9      20.774797   16.728559   21.819746 H          1 MOL1         0.0960
      14    C5      20.027164   17.233666   23.791319 C.3        1 MOL1        -0.1409
      15    H10     18.974102   17.264870   23.481513 H          1 MOL1         0.0960
      16    H11     20.202355   16.199830   24.119757 H          1 MOL1         0.0960
      17    C6      20.256487   18.163823   25.009690 C.3        1 MOL1        -0.1450
      18    H12     21.328382   18.369568   25.129947 H          1 MOL1         0.0960
      19    H13     19.939300   17.633380   25.917433 H          1 MOL1         0.0960
      20    C7      19.465253   19.483464   24.927397 C.3        1 MOL1         0.0172
      21    H14     19.761873   20.048297   24.041775 H          1 MOL1         0.0934
      22    H15     18.396729   19.265082   24.850826 H          1 MOL1         0.0934
      23    N1      19.673131   20.374378   26.134879 N.4        1 MOL1        -0.5956
      24    H16     20.656890   20.639234   26.249453 H          1 MOL1         0.3624
      25    H17     19.381637   19.914285   27.003487 H          1 MOL1         0.3624
      26    H18     19.135430   21.245031   26.063442 H          1 MOL1         0.3624
@<TRIPOS>BOND
    1     1     2    1
    2     1     3    1
    3     1     4    1
    4     1     5    1
    5     5     6    1
    6     5     7    1
    7     5     8    1
    8     8     9    1
    9     8    10    1
   10     8    11    1
   11    11    12    1
   12    11    13    1
   13    11    14    1
   14    14    15    1
   15    14    16    1
   16    14    17    1
   17    17    18    1
   18    17    19    1
   19    17    20    1
   20    20    21    1
   21    20    22    1
   22    20    23    1
   23    23    24    1
   24    23    25    1
   25    23    26    1
@<TRIPOS>SUBSTRUCTURE
       1 MOL1            1 RESIDUE      1      MOL     
@<SCITEGIC>MOL_PROPERTY
VM2 Rank
SciTegic.value.IntegerValue
118

@<SCITEGIC>MOL_PROPERTY
Conf_Id
SciTegic.value.IntegerValue
130

@<SCITEGIC>MOL_PROPERTY
Probability
SciTegic.value.DoubleValue
0.02

@<SCITEGIC>MOL_PROPERTY
Sum Probability
SciTegic.value.DoubleValue
99.47

@<SCITEGIC>MOL_PROPERTY
Delta G
SciTegic.value.DoubleValue
3.577

@<SCITEGIC>MOL_PROPERTY
G
SciTegic.value.DoubleValue
51.838

@<SCITEGIC>MOL_PROPERTY
E
SciTegic.value.DoubleValue
18.626

@<SCITEGIC>MOL_PROPERTY
-TS
SciTegic.value.DoubleValue
33.212

@<SCITEGIC>MOL_PROPERTY
U+W
SciTegic.value.DoubleValue
-2.836

@<SCITEGIC>MOL_PROPERTY
U
SciTegic.value.DoubleValue
51.403

@<SCITEGIC>MOL_PROPERTY
W
SciTegic.value.DoubleValue
-54.239

@<SCITEGIC>MOL_PROPERTY
W(PB)
SciTegic.value.DoubleValue
-56.493

@<SCITEGIC>MOL_PROPERTY
W(SA)
SciTegic.value.DoubleValue
2.255

@<SCITEGIC>MOL_PROPERTY
Valence
SciTegic.value.DoubleValue
5.068

@<SCITEGIC>MOL_PROPERTY
Coulomb
SciTegic.value.DoubleValue
46.079

@<SCITEGIC>MOL_PROPERTY
VdW
SciTegic.value.DoubleValue
0.256

@<SCITEGIC>MOL_PROPERTY
VdW6
SciTegic.value.DoubleValue
-8.820

@<SCITEGIC>MOL_PROPERTY
VdW12
SciTegic.value.DoubleValue
9.075

@<SCITEGIC>MOL_PROPERTY
Bond
SciTegic.value.DoubleValue
0.244

@<SCITEGIC>MOL_PROPERTY
Angle
SciTegic.value.DoubleValue
1.725

@<SCITEGIC>MOL_PROPERTY
Pdih
SciTegic.value.DoubleValue
3.099

@<SCITEGIC>MOL_PROPERTY
Idih
SciTegic.value.DoubleValue
0.000

@<SCITEGIC>MOL_PROPERTY
Tether
SciTegic.value.DoubleValue
0.000

@<TRIPOS>MOLECULE
guest-s14_vm2.mol2 : vm2 ligand conformer 119
          26          25           1
SMALL
USER_CHARGES
 
@<TRIPOS>ATOM
       1    C1      18.865357   20.212097   20.622244 C.3        1 MOL1        -0.2400
       2    H1      17.993601   20.282618   21.285758 H          1 MOL1         0.0971
       3    H2      19.095984   21.222418   20.260215 H          1 MOL1         0.0971
       4    H3      18.586540   19.599164   19.755195 H          1 MOL1         0.0971
       5    C2      20.077749   19.608441   21.361957 C.3        1 MOL1        -0.1385
       6    H4      20.352178   20.268758   22.194415 H          1 MOL1         0.0960
       7    H5      20.941842   19.580065   20.683602 H          1 MOL1         0.0960
       8    C3      19.776556   18.181802   21.879203 C.3        1 MOL1        -0.1409
       9    H6      18.908366   18.193336   22.549704 H          1 MOL1         0.0960
      10    H7      19.482268   17.553940   21.026901 H          1 MOL1         0.0960
      11    C4      20.982151   17.508887   22.582152 C.3        1 MOL1        -0.1409
      12    H8      21.798395   17.404934   21.854013 H          1 MOL1         0.0960
      13    H9      20.699142   16.483657   22.857798 H          1 MOL1         0.0960
      14    C5      21.534781   18.229927   23.841743 C.3        1 MOL1        -0.1409
      15    H10     22.401311   17.652924   24.193272 H          1 MOL1         0.0960
      16    H11     21.932284   19.219674   23.580434 H          1 MOL1         0.0960
      17    C6      20.533472   18.346848   25.018990 C.3        1 MOL1        -0.1450
      18    H12     21.102890   18.402282   25.956363 H          1 MOL1         0.0960
      19    H13     19.919630   17.438628   25.082905 H          1 MOL1         0.0960
      20    C7      19.633658   19.594737   24.933079 C.3        1 MOL1         0.0172
      21    H14     20.255764   20.493559   24.913054 H          1 MOL1         0.0934
      22    H15     19.039670   19.571044   24.017675 H          1 MOL1         0.0934
      23    N1      18.677276   19.716260   26.101632 N.4        1 MOL1        -0.5956
      24    H16     19.173778   19.776968   26.996580 H          1 MOL1         0.3624
      25    H17     18.043895   18.912381   26.162169 H          1 MOL1         0.3624
      26    H18     18.090464   20.554454   26.028527 H          1 MOL1         0.3624
@<TRIPOS>BOND
    1     1     2    1
    2     1     3    1
    3     1     4    1
    4     1     5    1
    5     5     6    1
    6     5     7    1
    7     5     8    1
    8     8     9    1
    9     8    10    1
   10     8    11    1
   11    11    12    1
   12    11    13    1
   13    11    14    1
   14    14    15    1
   15    14    16    1
   16    14    17    1
   17    17    18    1
   18    17    19    1
   19    17    20    1
   20    20    21    1
   21    20    22    1
   22    20    23    1
   23    23    24    1
   24    23    25    1
   25    23    26    1
@<TRIPOS>SUBSTRUCTURE
       1 MOL1            1 RESIDUE      1      MOL     
@<SCITEGIC>MOL_PROPERTY
VM2 Rank
SciTegic.value.IntegerValue
119

@<SCITEGIC>MOL_PROPERTY
Conf_Id
SciTegic.value.IntegerValue
973

@<SCITEGIC>MOL_PROPERTY
Probability
SciTegic.value.DoubleValue
0.02

@<SCITEGIC>MOL_PROPERTY
Sum Probability
SciTegic.value.DoubleValue
99.49

@<SCITEGIC>MOL_PROPERTY
Delta G
SciTegic.value.DoubleValue
3.595

@<SCITEGIC>MOL_PROPERTY
G
SciTegic.value.DoubleValue
51.857

@<SCITEGIC>MOL_PROPERTY
E
SciTegic.value.DoubleValue
18.645

@<SCITEGIC>MOL_PROPERTY
-TS
SciTegic.value.DoubleValue
33.212

@<SCITEGIC>MOL_PROPERTY
U+W
SciTegic.value.DoubleValue
-2.817

@<SCITEGIC>MOL_PROPERTY
U
SciTegic.value.DoubleValue
51.403

@<SCITEGIC>MOL_PROPERTY
W
SciTegic.value.DoubleValue
-54.220

@<SCITEGIC>MOL_PROPERTY
W(PB)
SciTegic.value.DoubleValue
-56.462

@<SCITEGIC>MOL_PROPERTY
W(SA)
SciTegic.value.DoubleValue
2.243

@<SCITEGIC>MOL_PROPERTY
Valence
SciTegic.value.DoubleValue
5.068

@<SCITEGIC>MOL_PROPERTY
Coulomb
SciTegic.value.DoubleValue
46.079

@<SCITEGIC>MOL_PROPERTY
VdW
SciTegic.value.DoubleValue
0.256

@<SCITEGIC>MOL_PROPERTY
VdW6
SciTegic.value.DoubleValue
-8.819

@<SCITEGIC>MOL_PROPERTY
VdW12
SciTegic.value.DoubleValue
9.075

@<SCITEGIC>MOL_PROPERTY
Bond
SciTegic.value.DoubleValue
0.244

@<SCITEGIC>MOL_PROPERTY
Angle
SciTegic.value.DoubleValue
1.725

@<SCITEGIC>MOL_PROPERTY
Pdih
SciTegic.value.DoubleValue
3.099

@<SCITEGIC>MOL_PROPERTY
Idih
SciTegic.value.DoubleValue
0.000

@<SCITEGIC>MOL_PROPERTY
Tether
SciTegic.value.DoubleValue
0.000

@<TRIPOS>MOLECULE
guest-s14_vm2.mol2 : vm2 ligand conformer 120
          26          25           1
SMALL
USER_CHARGES
 
@<TRIPOS>ATOM
       1    C1      18.758060   19.228766   19.940632 C.3        1 MOL1        -0.2400
       2    H1      18.154485   20.017098   20.409064 H          1 MOL1         0.0971
       3    H2      19.354098   19.684946   19.139467 H          1 MOL1         0.0971
       4    H3      18.070962   18.507089   19.480083 H          1 MOL1         0.0971
       5    C2      19.663525   18.533145   20.978976 C.3        1 MOL1        -0.1385
       6    H4      20.227516   17.729025   20.485978 H          1 MOL1         0.0960
       7    H5      19.035047   18.052355   21.738025 H          1 MOL1         0.0960
       8    C3      20.649338   19.530232   21.634519 C.3        1 MOL1        -0.1409
       9    H6      21.274489   19.962475   20.840923 H          1 MOL1         0.0960
      10    H7      20.102836   20.372110   22.081348 H          1 MOL1         0.0960
      11    C4      21.579699   18.877421   22.690059 C.3        1 MOL1        -0.1409
      12    H8      22.562766   19.364188   22.626139 H          1 MOL1         0.0960
      13    H9      21.756676   17.821723   22.442360 H          1 MOL1         0.0960
      14    C5      21.090257   19.007883   24.155554 C.3        1 MOL1        -0.1409
      15    H10     21.858847   18.580689   24.814618 H          1 MOL1         0.0960
      16    H11     21.018903   20.072199   24.416884 H          1 MOL1         0.0960
      17    C6      19.739866   18.307598   24.441141 C.3        1 MOL1        -0.1450
      18    H12     19.777197   17.275817   24.067451 H          1 MOL1         0.0960
      19    H13     18.928892   18.814997   23.903782 H          1 MOL1         0.0960
      20    C7      19.398788   18.270853   25.943224 C.3        1 MOL1         0.0172
      21    H14     18.475470   17.704451   26.092268 H          1 MOL1         0.0934
      22    H15     20.200075   17.766856   26.490322 H          1 MOL1         0.0934
      23    N1      19.201467   19.643103   26.556895 N.4        1 MOL1        -0.5956
      24    H16     18.442522   20.159050   26.100068 H          1 MOL1         0.3624
      25    H17     20.046870   20.217207   26.481635 H          1 MOL1         0.3624
      26    H18     18.966250   19.584092   27.553626 H          1 MOL1         0.3624
@<TRIPOS>BOND
    1     1     2    1
    2     1     3    1
    3     1     4    1
    4     1     5    1
    5     5     6    1
    6     5     7    1
    7     5     8    1
    8     8     9    1
    9     8    10    1
   10     8    11    1
   11    11    12    1
   12    11    13    1
   13    11    14    1
   14    14    15    1
   15    14    16    1
   16    14    17    1
   17    17    18    1
   18    17    19    1
   19    17    20    1
   20    20    21    1
   21    20    22    1
   22    20    23    1
   23    23    24    1
   24    23    25    1
   25    23    26    1
@<TRIPOS>SUBSTRUCTURE
       1 MOL1            1 RESIDUE      1      MOL     
@<SCITEGIC>MOL_PROPERTY
VM2 Rank
SciTegic.value.IntegerValue
120

@<SCITEGIC>MOL_PROPERTY
Conf_Id
SciTegic.value.IntegerValue
1051

@<SCITEGIC>MOL_PROPERTY
Probability
SciTegic.value.DoubleValue
0.02

@<SCITEGIC>MOL_PROPERTY
Sum Probability
SciTegic.value.DoubleValue
99.51

@<SCITEGIC>MOL_PROPERTY
Delta G
SciTegic.value.DoubleValue
3.620

@<SCITEGIC>MOL_PROPERTY
G
SciTegic.value.DoubleValue
51.881

@<SCITEGIC>MOL_PROPERTY
E
SciTegic.value.DoubleValue
19.050

@<SCITEGIC>MOL_PROPERTY
-TS
SciTegic.value.DoubleValue
32.831

@<SCITEGIC>MOL_PROPERTY
U+W
SciTegic.value.DoubleValue
-2.411

@<SCITEGIC>MOL_PROPERTY
U
SciTegic.value.DoubleValue
51.463

@<SCITEGIC>MOL_PROPERTY
W
SciTegic.value.DoubleValue
-53.875

@<SCITEGIC>MOL_PROPERTY
W(PB)
SciTegic.value.DoubleValue
-56.136

@<SCITEGIC>MOL_PROPERTY
W(SA)
SciTegic.value.DoubleValue
2.261

@<SCITEGIC>MOL_PROPERTY
Valence
SciTegic.value.DoubleValue
5.277

@<SCITEGIC>MOL_PROPERTY
Coulomb
SciTegic.value.DoubleValue
45.445

@<SCITEGIC>MOL_PROPERTY
VdW
SciTegic.value.DoubleValue
0.741

@<SCITEGIC>MOL_PROPERTY
VdW6
SciTegic.value.DoubleValue
-7.943

@<SCITEGIC>MOL_PROPERTY
VdW12
SciTegic.value.DoubleValue
8.684

@<SCITEGIC>MOL_PROPERTY
Bond
SciTegic.value.DoubleValue
0.235

@<SCITEGIC>MOL_PROPERTY
Angle
SciTegic.value.DoubleValue
1.187

@<SCITEGIC>MOL_PROPERTY
Pdih
SciTegic.value.DoubleValue
3.856

@<SCITEGIC>MOL_PROPERTY
Idih
SciTegic.value.DoubleValue
0.000

@<SCITEGIC>MOL_PROPERTY
Tether
SciTegic.value.DoubleValue
0.000

@<TRIPOS>MOLECULE
guest-s14_vm2.mol2 : vm2 ligand conformer 121
          26          25           1
SMALL
USER_CHARGES
 
@<TRIPOS>ATOM
       1    C1      20.198049   18.771650   19.594825 C.3        1 MOL1        -0.2400
       2    H1      21.232864   19.069663   19.804188 H          1 MOL1         0.0971
       3    H2      20.217961   18.099343   18.727337 H          1 MOL1         0.0971
       4    H3      19.631666   19.668311   19.311587 H          1 MOL1         0.0971
       5    C2      19.552843   18.067313   20.809929 C.3        1 MOL1        -0.1385
       6    H4      20.155482   17.192998   21.093023 H          1 MOL1         0.0960
       7    H5      18.568986   17.678701   20.511920 H          1 MOL1         0.0960
       8    C3      19.369452   18.994925   22.035404 C.3        1 MOL1        -0.1409
       9    H6      18.747727   19.855049   21.751190 H          1 MOL1         0.0960
      10    H7      18.800222   18.447849   22.795491 H          1 MOL1         0.0960
      11    C4      20.709408   19.499086   22.631212 C.3        1 MOL1        -0.1409
      12    H8      21.207087   20.129751   21.882853 H          1 MOL1         0.0960
      13    H9      21.387325   18.654912   22.817847 H          1 MOL1         0.0960
      14    C5      20.537226   20.338668   23.923992 C.3        1 MOL1        -0.1409
      15    H10     21.333725   21.095268   23.949554 H          1 MOL1         0.0960
      16    H11     19.593906   20.901172   23.889913 H          1 MOL1         0.0960
      17    C6      20.626700   19.522501   25.238125 C.3        1 MOL1        -0.1450
      18    H12     20.573021   20.217308   26.086826 H          1 MOL1         0.0960
      19    H13     21.607872   19.033112   25.299100 H          1 MOL1         0.0960
      20    C7      19.518979   18.465146   25.389193 C.3        1 MOL1         0.0172
      21    H14     18.539279   18.942299   25.300583 H          1 MOL1         0.0934
      22    H15     19.614499   17.717754   24.597541 H          1 MOL1         0.0934
      23    N1      19.568342   17.739711   26.718321 N.4        1 MOL1        -0.5956
      24    H16     18.823967   17.038336   26.797734 H          1 MOL1         0.3624
      25    H17     19.457554   18.382963   27.508970 H          1 MOL1         0.3624
      26    H18     20.457751   17.247572   26.852180 H          1 MOL1         0.3624
@<TRIPOS>BOND
    1     1     2    1
    2     1     3    1
    3     1     4    1
    4     1     5    1
    5     5     6    1
    6     5     7    1
    7     5     8    1
    8     8     9    1
    9     8    10    1
   10     8    11    1
   11    11    12    1
   12    11    13    1
   13    11    14    1
   14    14    15    1
   15    14    16    1
   16    14    17    1
   17    17    18    1
   18    17    19    1
   19    17    20    1
   20    20    21    1
   21    20    22    1
   22    20    23    1
   23    23    24    1
   24    23    25    1
   25    23    26    1
@<TRIPOS>SUBSTRUCTURE
       1 MOL1            1 RESIDUE      1      MOL     
@<SCITEGIC>MOL_PROPERTY
VM2 Rank
SciTegic.value.IntegerValue
121

@<SCITEGIC>MOL_PROPERTY
Conf_Id
SciTegic.value.IntegerValue
436

@<SCITEGIC>MOL_PROPERTY
Probability
SciTegic.value.DoubleValue
0.02

@<SCITEGIC>MOL_PROPERTY
Sum Probability
SciTegic.value.DoubleValue
99.53

@<SCITEGIC>MOL_PROPERTY
Delta G
SciTegic.value.DoubleValue
3.620

@<SCITEGIC>MOL_PROPERTY
G
SciTegic.value.DoubleValue
51.881

@<SCITEGIC>MOL_PROPERTY
E
SciTegic.value.DoubleValue
19.217

@<SCITEGIC>MOL_PROPERTY
-TS
SciTegic.value.DoubleValue
32.665

@<SCITEGIC>MOL_PROPERTY
U+W
SciTegic.value.DoubleValue
-2.245

@<SCITEGIC>MOL_PROPERTY
U
SciTegic.value.DoubleValue
51.521

@<SCITEGIC>MOL_PROPERTY
W
SciTegic.value.DoubleValue
-53.766

@<SCITEGIC>MOL_PROPERTY
W(PB)
SciTegic.value.DoubleValue
-56.075

@<SCITEGIC>MOL_PROPERTY
W(SA)
SciTegic.value.DoubleValue
2.309

@<SCITEGIC>MOL_PROPERTY
Valence
SciTegic.value.DoubleValue
5.275

@<SCITEGIC>MOL_PROPERTY
Coulomb
SciTegic.value.DoubleValue
45.448

@<SCITEGIC>MOL_PROPERTY
VdW
SciTegic.value.DoubleValue
0.798

@<SCITEGIC>MOL_PROPERTY
VdW6
SciTegic.value.DoubleValue
-7.889

@<SCITEGIC>MOL_PROPERTY
VdW12
SciTegic.value.DoubleValue
8.686

@<SCITEGIC>MOL_PROPERTY
Bond
SciTegic.value.DoubleValue
0.249

@<SCITEGIC>MOL_PROPERTY
Angle
SciTegic.value.DoubleValue
1.289

@<SCITEGIC>MOL_PROPERTY
Pdih
SciTegic.value.DoubleValue
3.738

@<SCITEGIC>MOL_PROPERTY
Idih
SciTegic.value.DoubleValue
0.000

@<SCITEGIC>MOL_PROPERTY
Tether
SciTegic.value.DoubleValue
0.000

@<TRIPOS>MOLECULE
guest-s14_vm2.mol2 : vm2 ligand conformer 122
          26          25           1
SMALL
USER_CHARGES
 
@<TRIPOS>ATOM
       1    C1      21.373633   19.757430   20.432512 C.3        1 MOL1        -0.2400
       2    H1      22.061784   19.662480   19.582582 H          1 MOL1         0.0971
       3    H2      20.898415   20.745044   20.370596 H          1 MOL1         0.0971
       4    H3      21.975650   19.721536   21.348689 H          1 MOL1         0.0971
       5    C2      20.317457   18.629381   20.401095 C.3        1 MOL1        -0.1385
       6    H4      20.814908   17.654279   20.498420 H          1 MOL1         0.0960
       7    H5      19.830302   18.628608   19.415965 H          1 MOL1         0.0960
       8    C3      19.228980   18.773277   21.492168 C.3        1 MOL1        -0.1409
       9    H6      18.720663   19.740711   21.378136 H          1 MOL1         0.0960
      10    H7      18.465232   18.001279   21.324834 H          1 MOL1         0.0960
      11    C4      19.778305   18.638800   22.932675 C.3        1 MOL1        -0.1409
      12    H8      20.491402   19.449346   23.121007 H          1 MOL1         0.0960
      13    H9      20.322585   17.689250   23.028790 H          1 MOL1         0.0960
      14    C5      18.645197   18.698136   23.984488 C.3        1 MOL1        -0.1409
      15    H10     18.174595   19.690795   23.959599 H          1 MOL1         0.0960
      16    H11     17.861149   17.980749   23.705254 H          1 MOL1         0.0960
      17    C6      19.096515   18.377535   25.432476 C.3        1 MOL1        -0.1450
      18    H12     19.507906   17.360927   25.488474 H          1 MOL1         0.0960
      19    H13     18.202901   18.376292   26.070683 H          1 MOL1         0.0960
      20    C7      20.098956   19.386856   26.029751 C.3        1 MOL1         0.0172
      21    H14     19.826267   20.402443   25.730546 H          1 MOL1         0.0934
      22    H15     20.052832   19.330956   27.120735 H          1 MOL1         0.0934
      23    N1      21.541956   19.137583   25.635835 N.4        1 MOL1        -0.5956
      24    H16     21.671317   19.177180   24.621097 H          1 MOL1         0.3624
      25    H17     21.865730   18.215892   25.946974 H          1 MOL1         0.3624
      26    H18     22.174129   19.831346   26.049974 H          1 MOL1         0.3624
@<TRIPOS>BOND
    1     1     2    1
    2     1     3    1
    3     1     4    1
    4     1     5    1
    5     5     6    1
    6     5     7    1
    7     5     8    1
    8     8     9    1
    9     8    10    1
   10     8    11    1
   11    11    12    1
   12    11    13    1
   13    11    14    1
   14    14    15    1
   15    14    16    1
   16    14    17    1
   17    17    18    1
   18    17    19    1
   19    17    20    1
   20    20    21    1
   21    20    22    1
   22    20    23    1
   23    23    24    1
   24    23    25    1
   25    23    26    1
@<TRIPOS>SUBSTRUCTURE
       1 MOL1            1 RESIDUE      1      MOL     
@<SCITEGIC>MOL_PROPERTY
VM2 Rank
SciTegic.value.IntegerValue
122

@<SCITEGIC>MOL_PROPERTY
Conf_Id
SciTegic.value.IntegerValue
944

@<SCITEGIC>MOL_PROPERTY
Probability
SciTegic.value.DoubleValue
0.02

@<SCITEGIC>MOL_PROPERTY
Sum Probability
SciTegic.value.DoubleValue
99.54

@<SCITEGIC>MOL_PROPERTY
Delta G
SciTegic.value.DoubleValue
3.625

@<SCITEGIC>MOL_PROPERTY
G
SciTegic.value.DoubleValue
51.886

@<SCITEGIC>MOL_PROPERTY
E
SciTegic.value.DoubleValue
19.277

@<SCITEGIC>MOL_PROPERTY
-TS
SciTegic.value.DoubleValue
32.609

@<SCITEGIC>MOL_PROPERTY
U+W
SciTegic.value.DoubleValue
-2.185

@<SCITEGIC>MOL_PROPERTY
U
SciTegic.value.DoubleValue
51.693

@<SCITEGIC>MOL_PROPERTY
W
SciTegic.value.DoubleValue
-53.878

@<SCITEGIC>MOL_PROPERTY
W(PB)
SciTegic.value.DoubleValue
-56.146

@<SCITEGIC>MOL_PROPERTY
W(SA)
SciTegic.value.DoubleValue
2.268

@<SCITEGIC>MOL_PROPERTY
Valence
SciTegic.value.DoubleValue
4.262

@<SCITEGIC>MOL_PROPERTY
Coulomb
SciTegic.value.DoubleValue
46.778

@<SCITEGIC>MOL_PROPERTY
VdW
SciTegic.value.DoubleValue
0.654

@<SCITEGIC>MOL_PROPERTY
VdW6
SciTegic.value.DoubleValue
-7.962

@<SCITEGIC>MOL_PROPERTY
VdW12
SciTegic.value.DoubleValue
8.615

@<SCITEGIC>MOL_PROPERTY
Bond
SciTegic.value.DoubleValue
0.225

@<SCITEGIC>MOL_PROPERTY
Angle
SciTegic.value.DoubleValue
1.192

@<SCITEGIC>MOL_PROPERTY
Pdih
SciTegic.value.DoubleValue
2.845

@<SCITEGIC>MOL_PROPERTY
Idih
SciTegic.value.DoubleValue
0.000

@<SCITEGIC>MOL_PROPERTY
Tether
SciTegic.value.DoubleValue
0.000

@<TRIPOS>MOLECULE
guest-s14_vm2.mol2 : vm2 ligand conformer 123
          26          25           1
SMALL
USER_CHARGES
 
@<TRIPOS>ATOM
       1    C1      20.133257   19.512211   19.662168 C.3        1 MOL1        -0.2400
       2    H1      19.872880   20.564969   19.832191 H          1 MOL1         0.0971
       3    H2      20.643056   19.445582   18.692322 H          1 MOL1         0.0971
       4    H3      19.203322   18.935959   19.584339 H          1 MOL1         0.0971
       5    C2      21.045199   18.976004   20.789295 C.3        1 MOL1        -0.1385
       6    H4      22.009942   19.499983   20.738873 H          1 MOL1         0.0960
       7    H5      21.263893   17.913042   20.615953 H          1 MOL1         0.0960
       8    C3      20.453673   19.165821   22.207255 C.3        1 MOL1        -0.1409
       9    H6      21.233875   18.900681   22.931633 H          1 MOL1         0.0960
      10    H7      20.217438   20.226649   22.367871 H          1 MOL1         0.0960
      11    C4      19.198373   18.298404   22.474148 C.3        1 MOL1        -0.1409
      12    H8      19.466928   17.236096   22.394122 H          1 MOL1         0.0960
      13    H9      18.451519   18.483757   21.691943 H          1 MOL1         0.0960
      14    C5      18.517641   18.555977   23.843764 C.3        1 MOL1        -0.1409
      15    H10     18.144049   19.588355   23.890968 H          1 MOL1         0.0960
      16    H11     17.626333   17.915375   23.895498 H          1 MOL1         0.0960
      17    C6      19.400229   18.253893   25.081071 C.3        1 MOL1        -0.1450
      18    H12     20.049136   17.390895   24.881001 H          1 MOL1         0.0960
      19    H13     18.746539   17.963548   25.914379 H          1 MOL1         0.0960
      20    C7      20.240148   19.464716   25.532758 C.3        1 MOL1         0.0172
      21    H14     20.905412   19.786096   24.729265 H          1 MOL1         0.0934
      22    H15     19.576807   20.298083   25.779439 H          1 MOL1         0.0934
      23    N1      21.092481   19.171975   26.750541 N.4        1 MOL1        -0.5956
      24    H16     21.759317   18.412833   26.576950 H          1 MOL1         0.3624
      25    H17     20.523468   18.894991   27.557194 H          1 MOL1         0.3624
      26    H18     21.639685   19.990485   27.038563 H          1 MOL1         0.3624
@<TRIPOS>BOND
    1     1     2    1
    2     1     3    1
    3     1     4    1
    4     1     5    1
    5     5     6    1
    6     5     7    1
    7     5     8    1
    8     8     9    1
    9     8    10    1
   10     8    11    1
   11    11    12    1
   12    11    13    1
   13    11    14    1
   14    14    15    1
   15    14    16    1
   16    14    17    1
   17    17    18    1
   18    17    19    1
   19    17    20    1
   20    20    21    1
   21    20    22    1
   22    20    23    1
   23    23    24    1
   24    23    25    1
   25    23    26    1
@<TRIPOS>SUBSTRUCTURE
       1 MOL1            1 RESIDUE      1      MOL     
@<SCITEGIC>MOL_PROPERTY
VM2 Rank
SciTegic.value.IntegerValue
123

@<SCITEGIC>MOL_PROPERTY
Conf_Id
SciTegic.value.IntegerValue
1187

@<SCITEGIC>MOL_PROPERTY
Probability
SciTegic.value.DoubleValue
0.02

@<SCITEGIC>MOL_PROPERTY
Sum Probability
SciTegic.value.DoubleValue
99.56

@<SCITEGIC>MOL_PROPERTY
Delta G
SciTegic.value.DoubleValue
3.640

@<SCITEGIC>MOL_PROPERTY
G
SciTegic.value.DoubleValue
51.901

@<SCITEGIC>MOL_PROPERTY
E
SciTegic.value.DoubleValue
19.156

@<SCITEGIC>MOL_PROPERTY
-TS
SciTegic.value.DoubleValue
32.745

@<SCITEGIC>MOL_PROPERTY
U+W
SciTegic.value.DoubleValue
-2.306

@<SCITEGIC>MOL_PROPERTY
U
SciTegic.value.DoubleValue
51.609

@<SCITEGIC>MOL_PROPERTY
W
SciTegic.value.DoubleValue
-53.915

@<SCITEGIC>MOL_PROPERTY
W(PB)
SciTegic.value.DoubleValue
-56.224

@<SCITEGIC>MOL_PROPERTY
W(SA)
SciTegic.value.DoubleValue
2.309

@<SCITEGIC>MOL_PROPERTY
Valence
SciTegic.value.DoubleValue
5.204

@<SCITEGIC>MOL_PROPERTY
Coulomb
SciTegic.value.DoubleValue
45.645

@<SCITEGIC>MOL_PROPERTY
VdW
SciTegic.value.DoubleValue
0.760

@<SCITEGIC>MOL_PROPERTY
VdW6
SciTegic.value.DoubleValue
-7.997

@<SCITEGIC>MOL_PROPERTY
VdW12
SciTegic.value.DoubleValue
8.757

@<SCITEGIC>MOL_PROPERTY
Bond
SciTegic.value.DoubleValue
0.240

@<SCITEGIC>MOL_PROPERTY
Angle
SciTegic.value.DoubleValue
1.456

@<SCITEGIC>MOL_PROPERTY
Pdih
SciTegic.value.DoubleValue
3.508

@<SCITEGIC>MOL_PROPERTY
Idih
SciTegic.value.DoubleValue
0.000

@<SCITEGIC>MOL_PROPERTY
Tether
SciTegic.value.DoubleValue
0.000

@<TRIPOS>MOLECULE
guest-s14_vm2.mol2 : vm2 ligand conformer 124
          26          25           1
SMALL
USER_CHARGES
 
@<TRIPOS>ATOM
       1    C1      19.591053   19.154954   19.644108 C.3        1 MOL1        -0.2400
       2    H1      20.489137   19.784293   19.627367 H          1 MOL1         0.0971
       3    H2      19.497138   18.690275   18.654063 H          1 MOL1         0.0971
       4    H3      18.718451   19.803932   19.793760 H          1 MOL1         0.0971
       5    C2      19.673028   18.071274   20.743419 C.3        1 MOL1        -0.1385
       6    H4      20.571474   17.456594   20.592663 H          1 MOL1         0.0960
       7    H5      18.815194   17.393364   20.632142 H          1 MOL1         0.0960
       8    C3      19.665168   18.645818   22.180909 C.3        1 MOL1        -0.1409
       9    H6      18.776274   19.276332   22.319766 H          1 MOL1         0.0960
      10    H7      19.568394   17.802429   22.875938 H          1 MOL1         0.0960
      11    C4      20.942640   19.448253   22.532457 C.3        1 MOL1        -0.1409
      12    H8      21.102372   20.231216   21.780496 H          1 MOL1         0.0960
      13    H9      21.816421   18.784953   22.472755 H          1 MOL1         0.0960
      14    C5      20.909772   20.133109   23.923674 C.3        1 MOL1        -0.1409
      15    H10     21.845915   20.697371   24.036470 H          1 MOL1         0.0960
      16    H11     20.106258   20.882039   23.956420 H          1 MOL1         0.0960
      17    C6      20.782749   19.165518   25.127328 C.3        1 MOL1        -0.1450
      18    H12     21.267266   19.625919   25.998697 H          1 MOL1         0.0960
      19    H13     21.329820   18.235324   24.924039 H          1 MOL1         0.0960
      20    C7      19.319679   18.857768   25.501890 C.3        1 MOL1         0.0172
      21    H14     18.803303   19.788111   25.753271 H          1 MOL1         0.0934
      22    H15     18.800713   18.398020   24.658821 H          1 MOL1         0.0934
      23    N1      19.196912   17.922306   26.687216 N.4        1 MOL1        -0.5956
      24    H16     19.640325   17.015787   26.506360 H          1 MOL1         0.3624
      25    H17     18.216777   17.733696   26.924089 H          1 MOL1         0.3624
      26    H18     19.637145   18.311060   27.527604 H          1 MOL1         0.3624
@<TRIPOS>BOND
    1     1     2    1
    2     1     3    1
    3     1     4    1
    4     1     5    1
    5     5     6    1
    6     5     7    1
    7     5     8    1
    8     8     9    1
    9     8    10    1
   10     8    11    1
   11    11    12    1
   12    11    13    1
   13    11    14    1
   14    14    15    1
   15    14    16    1
   16    14    17    1
   17    17    18    1
   18    17    19    1
   19    17    20    1
   20    20    21    1
   21    20    22    1
   22    20    23    1
   23    23    24    1
   24    23    25    1
   25    23    26    1
@<TRIPOS>SUBSTRUCTURE
       1 MOL1            1 RESIDUE      1      MOL     
@<SCITEGIC>MOL_PROPERTY
VM2 Rank
SciTegic.value.IntegerValue
124

@<SCITEGIC>MOL_PROPERTY
Conf_Id
SciTegic.value.IntegerValue
659

@<SCITEGIC>MOL_PROPERTY
Probability
SciTegic.value.DoubleValue
0.02

@<SCITEGIC>MOL_PROPERTY
Sum Probability
SciTegic.value.DoubleValue
99.58

@<SCITEGIC>MOL_PROPERTY
Delta G
SciTegic.value.DoubleValue
3.646

@<SCITEGIC>MOL_PROPERTY
G
SciTegic.value.DoubleValue
51.907

@<SCITEGIC>MOL_PROPERTY
E
SciTegic.value.DoubleValue
19.162

@<SCITEGIC>MOL_PROPERTY
-TS
SciTegic.value.DoubleValue
32.745

@<SCITEGIC>MOL_PROPERTY
U+W
SciTegic.value.DoubleValue
-2.300

@<SCITEGIC>MOL_PROPERTY
U
SciTegic.value.DoubleValue
51.609

@<SCITEGIC>MOL_PROPERTY
W
SciTegic.value.DoubleValue
-53.909

@<SCITEGIC>MOL_PROPERTY
W(PB)
SciTegic.value.DoubleValue
-56.179

@<SCITEGIC>MOL_PROPERTY
W(SA)
SciTegic.value.DoubleValue
2.270

@<SCITEGIC>MOL_PROPERTY
Valence
SciTegic.value.DoubleValue
5.204

@<SCITEGIC>MOL_PROPERTY
Coulomb
SciTegic.value.DoubleValue
45.645

@<SCITEGIC>MOL_PROPERTY
VdW
SciTegic.value.DoubleValue
0.760

@<SCITEGIC>MOL_PROPERTY
VdW6
SciTegic.value.DoubleValue
-7.997

@<SCITEGIC>MOL_PROPERTY
VdW12
SciTegic.value.DoubleValue
8.757

@<SCITEGIC>MOL_PROPERTY
Bond
SciTegic.value.DoubleValue
0.240

@<SCITEGIC>MOL_PROPERTY
Angle
SciTegic.value.DoubleValue
1.456

@<SCITEGIC>MOL_PROPERTY
Pdih
SciTegic.value.DoubleValue
3.507

@<SCITEGIC>MOL_PROPERTY
Idih
SciTegic.value.DoubleValue
0.000

@<SCITEGIC>MOL_PROPERTY
Tether
SciTegic.value.DoubleValue
0.000

@<TRIPOS>MOLECULE
guest-s14_vm2.mol2 : vm2 ligand conformer 125
          26          25           1
SMALL
USER_CHARGES
 
@<TRIPOS>ATOM
       1    C1      19.192106   20.312774   20.734561 C.3        1 MOL1        -0.2400
       2    H1      18.232629   19.950743   20.342931 H          1 MOL1         0.0971
       3    H2      19.053048   20.558193   21.793019 H          1 MOL1         0.0971
       4    H3      19.436516   21.243879   20.207109 H          1 MOL1         0.0971
       5    C2      20.306759   19.262099   20.520992 C.3        1 MOL1        -0.1385
       6    H4      21.275753   19.659852   20.853293 H          1 MOL1         0.0960
       7    H5      20.405841   19.089588   19.440099 H          1 MOL1         0.0960
       8    C3      20.015340   17.905159   21.212284 C.3        1 MOL1        -0.1409
       9    H6      18.931843   17.731454   21.267062 H          1 MOL1         0.0960
      10    H7      20.410739   17.104190   20.572358 H          1 MOL1         0.0960
      11    C4      20.654031   17.737706   22.615326 C.3        1 MOL1        -0.1409
      12    H8      21.747163   17.807274   22.528836 H          1 MOL1         0.0960
      13    H9      20.439791   16.720218   22.970512 H          1 MOL1         0.0960
      14    C5      20.155691   18.753435   23.669183 C.3        1 MOL1        -0.1409
      15    H10     20.482400   19.763608   23.390146 H          1 MOL1         0.0960
      16    H11     19.057725   18.755948   23.679834 H          1 MOL1         0.0960
      17    C6      20.695779   18.425482   25.081273 C.3        1 MOL1        -0.1450
      18    H12     21.792652   18.382255   25.049770 H          1 MOL1         0.0960
      19    H13     20.351711   17.430966   25.395132 H          1 MOL1         0.0960
      20    C7      20.278688   19.469601   26.134896 C.3        1 MOL1         0.0172
      21    H14     20.756186   19.232273   27.089478 H          1 MOL1         0.0934
      22    H15     20.614975   20.462064   25.822923 H          1 MOL1         0.0934
      23    N1      18.782606   19.532744   26.372486 N.4        1 MOL1        -0.5956
      24    H16     18.273273   19.787609   25.520759 H          1 MOL1         0.3624
      25    H17     18.539759   20.227465   27.087127 H          1 MOL1         0.3624
      26    H18     18.409666   18.632568   26.691279 H          1 MOL1         0.3624
@<TRIPOS>BOND
    1     1     2    1
    2     1     3    1
    3     1     4    1
    4     1     5    1
    5     5     6    1
    6     5     7    1
    7     5     8    1
    8     8     9    1
    9     8    10    1
   10     8    11    1
   11    11    12    1
   12    11    13    1
   13    11    14    1
   14    14    15    1
   15    14    16    1
   16    14    17    1
   17    17    18    1
   18    17    19    1
   19    17    20    1
   20    20    21    1
   21    20    22    1
   22    20    23    1
   23    23    24    1
   24    23    25    1
   25    23    26    1
@<TRIPOS>SUBSTRUCTURE
       1 MOL1            1 RESIDUE      1      MOL     
@<SCITEGIC>MOL_PROPERTY
VM2 Rank
SciTegic.value.IntegerValue
125

@<SCITEGIC>MOL_PROPERTY
Conf_Id
SciTegic.value.IntegerValue
1120

@<SCITEGIC>MOL_PROPERTY
Probability
SciTegic.value.DoubleValue
0.02

@<SCITEGIC>MOL_PROPERTY
Sum Probability
SciTegic.value.DoubleValue
99.59

@<SCITEGIC>MOL_PROPERTY
Delta G
SciTegic.value.DoubleValue
3.660

@<SCITEGIC>MOL_PROPERTY
G
SciTegic.value.DoubleValue
51.922

@<SCITEGIC>MOL_PROPERTY
E
SciTegic.value.DoubleValue
19.124

@<SCITEGIC>MOL_PROPERTY
-TS
SciTegic.value.DoubleValue
32.798

@<SCITEGIC>MOL_PROPERTY
U+W
SciTegic.value.DoubleValue
-2.338

@<SCITEGIC>MOL_PROPERTY
U
SciTegic.value.DoubleValue
51.512

@<SCITEGIC>MOL_PROPERTY
W
SciTegic.value.DoubleValue
-53.849

@<SCITEGIC>MOL_PROPERTY
W(PB)
SciTegic.value.DoubleValue
-56.118

@<SCITEGIC>MOL_PROPERTY
W(SA)
SciTegic.value.DoubleValue
2.269

@<SCITEGIC>MOL_PROPERTY
Valence
SciTegic.value.DoubleValue
5.253

@<SCITEGIC>MOL_PROPERTY
Coulomb
SciTegic.value.DoubleValue
45.470

@<SCITEGIC>MOL_PROPERTY
VdW
SciTegic.value.DoubleValue
0.789

@<SCITEGIC>MOL_PROPERTY
VdW6
SciTegic.value.DoubleValue
-7.872

@<SCITEGIC>MOL_PROPERTY
VdW12
SciTegic.value.DoubleValue
8.661

@<SCITEGIC>MOL_PROPERTY
Bond
SciTegic.value.DoubleValue
0.233

@<SCITEGIC>MOL_PROPERTY
Angle
SciTegic.value.DoubleValue
1.235

@<SCITEGIC>MOL_PROPERTY
Pdih
SciTegic.value.DoubleValue
3.785

@<SCITEGIC>MOL_PROPERTY
Idih
SciTegic.value.DoubleValue
0.000

@<SCITEGIC>MOL_PROPERTY
Tether
SciTegic.value.DoubleValue
0.000

@<TRIPOS>MOLECULE
guest-s14_vm2.mol2 : vm2 ligand conformer 126
          26          25           1
SMALL
USER_CHARGES
 
@<TRIPOS>ATOM
       1    C1      19.174559   20.301193   20.734012 C.3        1 MOL1        -0.2400
       2    H1      19.901478   21.052351   20.398768 H          1 MOL1         0.0971
       3    H2      18.247792   20.459221   20.167419 H          1 MOL1         0.0971
       4    H3      18.954320   20.493004   21.789761 H          1 MOL1         0.0971
       5    C2      19.712992   18.870161   20.501145 C.3        1 MOL1        -0.1385
       6    H4      19.882966   18.744471   19.422619 H          1 MOL1         0.0960
       7    H5      18.952277   18.126138   20.775597 H          1 MOL1         0.0960
       8    C3      21.041813   18.582707   21.246599 C.3        1 MOL1        -0.1409
       9    H6      21.652552   17.923883   20.613868 H          1 MOL1         0.0960
      10    H7      21.623546   19.508194   21.357060 H          1 MOL1         0.0960
      11    C4      20.880035   17.886875   22.622874 C.3        1 MOL1        -0.1409
      12    H8      21.882350   17.672425   23.018745 H          1 MOL1         0.0960
      13    H9      20.391694   16.912525   22.483510 H          1 MOL1         0.0960
      14    C5      20.093038   18.712080   23.667064 C.3        1 MOL1        -0.1409
      15    H10     20.520570   19.721568   23.728702 H          1 MOL1         0.0960
      16    H11     19.049816   18.817958   23.342217 H          1 MOL1         0.0960
      17    C6      20.116952   18.043436   25.061905 C.3        1 MOL1        -0.1450
      18    H12     21.150973   17.958539   25.421825 H          1 MOL1         0.0960
      19    H13     19.728167   17.019594   24.980750 H          1 MOL1         0.0960
      20    C7      19.272103   18.805213   26.101232 C.3        1 MOL1         0.0172
      21    H14     18.242938   18.896429   25.743605 H          1 MOL1         0.0934
      22    H15     19.258544   18.243757   27.039388 H          1 MOL1         0.0934
      23    N1      19.789508   20.197335   26.406169 N.4        1 MOL1        -0.5956
      24    H16     19.213155   20.671902   27.109680 H          1 MOL1         0.3624
      25    H17     19.794633   20.791796   25.571661 H          1 MOL1         0.3624
      26    H18     20.747938   20.175904   26.769464 H          1 MOL1         0.3624
@<TRIPOS>BOND
    1     1     2    1
    2     1     3    1
    3     1     4    1
    4     1     5    1
    5     5     6    1
    6     5     7    1
    7     5     8    1
    8     8     9    1
    9     8    10    1
   10     8    11    1
   11    11    12    1
   12    11    13    1
   13    11    14    1
   14    14    15    1
   15    14    16    1
   16    14    17    1
   17    17    18    1
   18    17    19    1
   19    17    20    1
   20    20    21    1
   21    20    22    1
   22    20    23    1
   23    23    24    1
   24    23    25    1
   25    23    26    1
@<TRIPOS>SUBSTRUCTURE
       1 MOL1            1 RESIDUE      1      MOL     
@<SCITEGIC>MOL_PROPERTY
VM2 Rank
SciTegic.value.IntegerValue
126

@<SCITEGIC>MOL_PROPERTY
Conf_Id
SciTegic.value.IntegerValue
1290

@<SCITEGIC>MOL_PROPERTY
Probability
SciTegic.value.DoubleValue
0.02

@<SCITEGIC>MOL_PROPERTY
Sum Probability
SciTegic.value.DoubleValue
99.61

@<SCITEGIC>MOL_PROPERTY
Delta G
SciTegic.value.DoubleValue
3.691

@<SCITEGIC>MOL_PROPERTY
G
SciTegic.value.DoubleValue
51.953

@<SCITEGIC>MOL_PROPERTY
E
SciTegic.value.DoubleValue
19.155

@<SCITEGIC>MOL_PROPERTY
-TS
SciTegic.value.DoubleValue
32.798

@<SCITEGIC>MOL_PROPERTY
U+W
SciTegic.value.DoubleValue
-2.307

@<SCITEGIC>MOL_PROPERTY
U
SciTegic.value.DoubleValue
51.512

@<SCITEGIC>MOL_PROPERTY
W
SciTegic.value.DoubleValue
-53.819

@<SCITEGIC>MOL_PROPERTY
W(PB)
SciTegic.value.DoubleValue
-56.098

@<SCITEGIC>MOL_PROPERTY
W(SA)
SciTegic.value.DoubleValue
2.279

@<SCITEGIC>MOL_PROPERTY
Valence
SciTegic.value.DoubleValue
5.253

@<SCITEGIC>MOL_PROPERTY
Coulomb
SciTegic.value.DoubleValue
45.470

@<SCITEGIC>MOL_PROPERTY
VdW
SciTegic.value.DoubleValue
0.789

@<SCITEGIC>MOL_PROPERTY
VdW6
SciTegic.value.DoubleValue
-7.872

@<SCITEGIC>MOL_PROPERTY
VdW12
SciTegic.value.DoubleValue
8.661

@<SCITEGIC>MOL_PROPERTY
Bond
SciTegic.value.DoubleValue
0.233

@<SCITEGIC>MOL_PROPERTY
Angle
SciTegic.value.DoubleValue
1.235

@<SCITEGIC>MOL_PROPERTY
Pdih
SciTegic.value.DoubleValue
3.785

@<SCITEGIC>MOL_PROPERTY
Idih
SciTegic.value.DoubleValue
0.000

@<SCITEGIC>MOL_PROPERTY
Tether
SciTegic.value.DoubleValue
0.000

@<TRIPOS>MOLECULE
guest-s14_vm2.mol2 : vm2 ligand conformer 127
          26          25           1
SMALL
USER_CHARGES
 
@<TRIPOS>ATOM
       1    C1      19.769213   20.179674   20.183003 C.3        1 MOL1        -0.2400
       2    H1      19.004903   19.782804   19.502299 H          1 MOL1         0.0971
       3    H2      19.257065   20.617628   21.046580 H          1 MOL1         0.0971
       4    H3      20.291087   20.991460   19.659984 H          1 MOL1         0.0971
       5    C2      20.767851   19.073525   20.596462 C.3        1 MOL1        -0.1385
       6    H4      21.564881   19.494063   21.225325 H          1 MOL1         0.0960
       7    H5      21.262849   18.707987   19.685821 H          1 MOL1         0.0960
       8    C3      20.096913   17.870939   21.309072 C.3        1 MOL1        -0.1409
       9    H6      19.068843   17.738138   20.944958 H          1 MOL1         0.0960
      10    H7      20.634043   16.958178   21.016210 H          1 MOL1         0.0960
      11    C4      20.110267   17.941581   22.857945 C.3        1 MOL1        -0.1409
      12    H8      21.151300   17.972432   23.206598 H          1 MOL1         0.0960
      13    H9      19.683855   17.006891   23.247544 H          1 MOL1         0.0960
      14    C5      19.323593   19.137449   23.447772 C.3        1 MOL1        -0.1409
      15    H10     19.831943   20.077431   23.196347 H          1 MOL1         0.0960
      16    H11     18.327487   19.180161   22.986249 H          1 MOL1         0.0960
      17    C6      19.157670   19.052743   24.983212 C.3        1 MOL1        -0.1450
      18    H12     18.617765   18.133338   25.246204 H          1 MOL1         0.0960
      19    H13     18.534194   19.891027   25.321544 H          1 MOL1         0.0960
      20    C7      20.504898   19.093160   25.728511 C.3        1 MOL1         0.0172
      21    H14     21.118695   18.239552   25.429478 H          1 MOL1         0.0934
      22    H15     21.040881   20.010393   25.470093 H          1 MOL1         0.0934
      23    N1      20.350595   19.049929   27.235024 N.4        1 MOL1        -0.5956
      24    H16     19.804726   19.843620   27.586119 H          1 MOL1         0.3624
      25    H17     21.258362   19.077699   27.712052 H          1 MOL1         0.3624
      26    H18     19.875918   18.196067   27.546126 H          1 MOL1         0.3624
@<TRIPOS>BOND
    1     1     2    1
    2     1     3    1
    3     1     4    1
    4     1     5    1
    5     5     6    1
    6     5     7    1
    7     5     8    1
    8     8     9    1
    9     8    10    1
   10     8    11    1
   11    11    12    1
   12    11    13    1
   13    11    14    1
   14    14    15    1
   15    14    16    1
   16    14    17    1
   17    17    18    1
   18    17    19    1
   19    17    20    1
   20    20    21    1
   21    20    22    1
   22    20    23    1
   23    23    24    1
   24    23    25    1
   25    23    26    1
@<TRIPOS>SUBSTRUCTURE
       1 MOL1            1 RESIDUE      1      MOL     
@<SCITEGIC>MOL_PROPERTY
VM2 Rank
SciTegic.value.IntegerValue
127

@<SCITEGIC>MOL_PROPERTY
Conf_Id
SciTegic.value.IntegerValue
149

@<SCITEGIC>MOL_PROPERTY
Probability
SciTegic.value.DoubleValue
0.01

@<SCITEGIC>MOL_PROPERTY
Sum Probability
SciTegic.value.DoubleValue
99.62

@<SCITEGIC>MOL_PROPERTY
Delta G
SciTegic.value.DoubleValue
3.715

@<SCITEGIC>MOL_PROPERTY
G
SciTegic.value.DoubleValue
51.976

@<SCITEGIC>MOL_PROPERTY
E
SciTegic.value.DoubleValue
19.186

@<SCITEGIC>MOL_PROPERTY
-TS
SciTegic.value.DoubleValue
32.790

@<SCITEGIC>MOL_PROPERTY
U+W
SciTegic.value.DoubleValue
-2.276

@<SCITEGIC>MOL_PROPERTY
U
SciTegic.value.DoubleValue
51.296

@<SCITEGIC>MOL_PROPERTY
W
SciTegic.value.DoubleValue
-53.572

@<SCITEGIC>MOL_PROPERTY
W(PB)
SciTegic.value.DoubleValue
-55.840

@<SCITEGIC>MOL_PROPERTY
W(SA)
SciTegic.value.DoubleValue
2.268

@<SCITEGIC>MOL_PROPERTY
Valence
SciTegic.value.DoubleValue
5.428

@<SCITEGIC>MOL_PROPERTY
Coulomb
SciTegic.value.DoubleValue
45.117

@<SCITEGIC>MOL_PROPERTY
VdW
SciTegic.value.DoubleValue
0.751

@<SCITEGIC>MOL_PROPERTY
VdW6
SciTegic.value.DoubleValue
-7.913

@<SCITEGIC>MOL_PROPERTY
VdW12
SciTegic.value.DoubleValue
8.664

@<SCITEGIC>MOL_PROPERTY
Bond
SciTegic.value.DoubleValue
0.235

@<SCITEGIC>MOL_PROPERTY
Angle
SciTegic.value.DoubleValue
1.292

@<SCITEGIC>MOL_PROPERTY
Pdih
SciTegic.value.DoubleValue
3.901

@<SCITEGIC>MOL_PROPERTY
Idih
SciTegic.value.DoubleValue
0.000

@<SCITEGIC>MOL_PROPERTY
Tether
SciTegic.value.DoubleValue
0.000

@<TRIPOS>MOLECULE
guest-s14_vm2.mol2 : vm2 ligand conformer 128
          26          25           1
SMALL
USER_CHARGES
 
@<TRIPOS>ATOM
       1    C1      18.977106   19.186916   19.725810 C.3        1 MOL1        -0.2400
       2    H1      19.601366   18.718946   18.953462 H          1 MOL1         0.0971
       3    H2      17.940232   18.866907   19.559968 H          1 MOL1         0.0971
       4    H3      19.020270   20.275145   19.587479 H          1 MOL1         0.0971
       5    C2      19.450762   18.788579   21.139734 C.3        1 MOL1        -0.1385
       6    H4      19.371132   17.698898   21.257067 H          1 MOL1         0.0960
       7    H5      18.779538   19.245026   21.879104 H          1 MOL1         0.0960
       8    C3      20.906229   19.238591   21.401341 C.3        1 MOL1        -0.1409
       9    H6      21.544532   18.872379   20.585389 H          1 MOL1         0.0960
      10    H7      20.961347   20.335278   21.362807 H          1 MOL1         0.0960
      11    C4      21.500522   18.740028   22.744035 C.3        1 MOL1        -0.1409
      12    H8      22.544302   19.080547   22.789181 H          1 MOL1         0.0960
      13    H9      21.547736   17.642329   22.752108 H          1 MOL1         0.0960
      14    C5      20.768482   19.257587   24.009726 C.3        1 MOL1        -0.1409
      15    H10     21.521025   19.448286   24.786496 H          1 MOL1         0.0960
      16    H11     20.294004   20.226504   23.801230 H          1 MOL1         0.0960
      17    C6      19.726998   18.255263   24.569370 C.3        1 MOL1        -0.1450
      18    H12     20.228297   17.325132   24.868366 H          1 MOL1         0.0960
      19    H13     19.007885   17.979266   23.789993 H          1 MOL1         0.0960
      20    C7      18.943763   18.821964   25.769221 C.3        1 MOL1         0.0172
      21    H14     18.446660   19.751262   25.478200 H          1 MOL1         0.0934
      22    H15     18.175817   18.104993   26.072156 H          1 MOL1         0.0934
      23    N1      19.807138   19.110073   26.981762 N.4        1 MOL1        -0.5956
      24    H16     19.253879   19.473467   27.765428 H          1 MOL1         0.3624
      25    H17     20.529776   19.806858   26.776280 H          1 MOL1         0.3624
      26    H18     20.284882   18.267584   27.317853 H          1 MOL1         0.3624
@<TRIPOS>BOND
    1     1     2    1
    2     1     3    1
    3     1     4    1
    4     1     5    1
    5     5     6    1
    6     5     7    1
    7     5     8    1
    8     8     9    1
    9     8    10    1
   10     8    11    1
   11    11    12    1
   12    11    13    1
   13    11    14    1
   14    14    15    1
   15    14    16    1
   16    14    17    1
   17    17    18    1
   18    17    19    1
   19    17    20    1
   20    20    21    1
   21    20    22    1
   22    20    23    1
   23    23    24    1
   24    23    25    1
   25    23    26    1
@<TRIPOS>SUBSTRUCTURE
       1 MOL1            1 RESIDUE      1      MOL     
@<SCITEGIC>MOL_PROPERTY
VM2 Rank
SciTegic.value.IntegerValue
128

@<SCITEGIC>MOL_PROPERTY
Conf_Id
SciTegic.value.IntegerValue
1368

@<SCITEGIC>MOL_PROPERTY
Probability
SciTegic.value.DoubleValue
0.01

@<SCITEGIC>MOL_PROPERTY
Sum Probability
SciTegic.value.DoubleValue
99.64

@<SCITEGIC>MOL_PROPERTY
Delta G
SciTegic.value.DoubleValue
3.725

@<SCITEGIC>MOL_PROPERTY
G
SciTegic.value.DoubleValue
51.986

@<SCITEGIC>MOL_PROPERTY
E
SciTegic.value.DoubleValue
19.141

@<SCITEGIC>MOL_PROPERTY
-TS
SciTegic.value.DoubleValue
32.845

@<SCITEGIC>MOL_PROPERTY
U+W
SciTegic.value.DoubleValue
-2.321

@<SCITEGIC>MOL_PROPERTY
U
SciTegic.value.DoubleValue
51.425

@<SCITEGIC>MOL_PROPERTY
W
SciTegic.value.DoubleValue
-53.746

@<SCITEGIC>MOL_PROPERTY
W(PB)
SciTegic.value.DoubleValue
-56.028

@<SCITEGIC>MOL_PROPERTY
W(SA)
SciTegic.value.DoubleValue
2.282

@<SCITEGIC>MOL_PROPERTY
Valence
SciTegic.value.DoubleValue
5.322

@<SCITEGIC>MOL_PROPERTY
Coulomb
SciTegic.value.DoubleValue
45.311

@<SCITEGIC>MOL_PROPERTY
VdW
SciTegic.value.DoubleValue
0.792

@<SCITEGIC>MOL_PROPERTY
VdW6
SciTegic.value.DoubleValue
-7.911

@<SCITEGIC>MOL_PROPERTY
VdW12
SciTegic.value.DoubleValue
8.703

@<SCITEGIC>MOL_PROPERTY
Bond
SciTegic.value.DoubleValue
0.240

@<SCITEGIC>MOL_PROPERTY
Angle
SciTegic.value.DoubleValue
1.176

@<SCITEGIC>MOL_PROPERTY
Pdih
SciTegic.value.DoubleValue
3.906

@<SCITEGIC>MOL_PROPERTY
Idih
SciTegic.value.DoubleValue
0.000

@<SCITEGIC>MOL_PROPERTY
Tether
SciTegic.value.DoubleValue
0.000

@<TRIPOS>MOLECULE
guest-s14_vm2.mol2 : vm2 ligand conformer 129
          26          25           1
SMALL
USER_CHARGES
 
@<TRIPOS>ATOM
       1    C1      20.340766   20.086514   19.771342 C.3        1 MOL1        -0.2400
       2    H1      19.330594   20.479781   19.597749 H          1 MOL1         0.0971
       3    H2      21.049294   20.918045   19.663824 H          1 MOL1         0.0971
       4    H3      20.561691   19.352383   18.985555 H          1 MOL1         0.0971
       5    C2      20.455000   19.451131   21.173285 C.3        1 MOL1        -0.1385
       6    H4      20.264689   20.224888   21.928690 H          1 MOL1         0.0960
       7    H5      21.481779   19.091382   21.327611 H          1 MOL1         0.0960
       8    C3      19.458297   18.283389   21.352992 C.3        1 MOL1        -0.1409
       9    H6      18.431029   18.666010   21.278373 H          1 MOL1         0.0960
      10    H7      19.582124   17.577833   20.519820 H          1 MOL1         0.0960
      11    C4      19.620688   17.499781   22.681210 C.3        1 MOL1        -0.1409
      12    H8      20.610183   17.023782   22.720738 H          1 MOL1         0.0960
      13    H9      18.896258   16.673661   22.667234 H          1 MOL1         0.0960
      14    C5      19.373561   18.337201   23.963152 C.3        1 MOL1        -0.1409
      15    H10     18.679198   19.161039   23.747394 H          1 MOL1         0.0960
      16    H11     18.867130   17.697058   24.697866 H          1 MOL1         0.0960
      17    C6      20.676892   18.882126   24.601065 C.3        1 MOL1        -0.1450
      18    H12     21.248686   19.458071   23.864820 H          1 MOL1         0.0960
      19    H13     21.320913   18.046142   24.904729 H          1 MOL1         0.0960
      20    C7      20.407738   19.787933   25.818159 C.3        1 MOL1         0.0172
      21    H14     21.353555   20.201777   26.178327 H          1 MOL1         0.0934
      22    H15     19.762509   20.619515   25.522272 H          1 MOL1         0.0934
      23    N1      19.748058   19.070924   26.979795 N.4        1 MOL1        -0.5956
      24    H16     19.594812   19.698189   27.776875 H          1 MOL1         0.3624
      25    H17     20.319027   18.289915   27.318916 H          1 MOL1         0.3624
      26    H18     18.834028   18.687771   26.719641 H          1 MOL1         0.3624
@<TRIPOS>BOND
    1     1     2    1
    2     1     3    1
    3     1     4    1
    4     1     5    1
    5     5     6    1
    6     5     7    1
    7     5     8    1
    8     8     9    1
    9     8    10    1
   10     8    11    1
   11    11    12    1
   12    11    13    1
   13    11    14    1
   14    14    15    1
   15    14    16    1
   16    14    17    1
   17    17    18    1
   18    17    19    1
   19    17    20    1
   20    20    21    1
   21    20    22    1
   22    20    23    1
   23    23    24    1
   24    23    25    1
   25    23    26    1
@<TRIPOS>SUBSTRUCTURE
       1 MOL1            1 RESIDUE      1      MOL     
@<SCITEGIC>MOL_PROPERTY
VM2 Rank
SciTegic.value.IntegerValue
129

@<SCITEGIC>MOL_PROPERTY
Conf_Id
SciTegic.value.IntegerValue
1248

@<SCITEGIC>MOL_PROPERTY
Probability
SciTegic.value.DoubleValue
0.01

@<SCITEGIC>MOL_PROPERTY
Sum Probability
SciTegic.value.DoubleValue
99.65

@<SCITEGIC>MOL_PROPERTY
Delta G
SciTegic.value.DoubleValue
3.728

@<SCITEGIC>MOL_PROPERTY
G
SciTegic.value.DoubleValue
51.989

@<SCITEGIC>MOL_PROPERTY
E
SciTegic.value.DoubleValue
19.144

@<SCITEGIC>MOL_PROPERTY
-TS
SciTegic.value.DoubleValue
32.845

@<SCITEGIC>MOL_PROPERTY
U+W
SciTegic.value.DoubleValue
-2.317

@<SCITEGIC>MOL_PROPERTY
U
SciTegic.value.DoubleValue
51.425

@<SCITEGIC>MOL_PROPERTY
W
SciTegic.value.DoubleValue
-53.743

@<SCITEGIC>MOL_PROPERTY
W(PB)
SciTegic.value.DoubleValue
-56.025

@<SCITEGIC>MOL_PROPERTY
W(SA)
SciTegic.value.DoubleValue
2.282

@<SCITEGIC>MOL_PROPERTY
Valence
SciTegic.value.DoubleValue
5.322

@<SCITEGIC>MOL_PROPERTY
Coulomb
SciTegic.value.DoubleValue
45.311

@<SCITEGIC>MOL_PROPERTY
VdW
SciTegic.value.DoubleValue
0.792

@<SCITEGIC>MOL_PROPERTY
VdW6
SciTegic.value.DoubleValue
-7.911

@<SCITEGIC>MOL_PROPERTY
VdW12
SciTegic.value.DoubleValue
8.703

@<SCITEGIC>MOL_PROPERTY
Bond
SciTegic.value.DoubleValue
0.240

@<SCITEGIC>MOL_PROPERTY
Angle
SciTegic.value.DoubleValue
1.177

@<SCITEGIC>MOL_PROPERTY
Pdih
SciTegic.value.DoubleValue
3.905

@<SCITEGIC>MOL_PROPERTY
Idih
SciTegic.value.DoubleValue
0.000

@<SCITEGIC>MOL_PROPERTY
Tether
SciTegic.value.DoubleValue
0.000

@<TRIPOS>MOLECULE
guest-s14_vm2.mol2 : vm2 ligand conformer 130
          26          25           1
SMALL
USER_CHARGES
 
@<TRIPOS>ATOM
       1    C1      18.454991   19.119085   20.749837 C.3        1 MOL1        -0.2400
       2    H1      18.193867   19.322758   21.793986 H          1 MOL1         0.0971
       3    H2      18.456122   20.074865   20.209894 H          1 MOL1         0.0971
       4    H3      17.657813   18.496903   20.322876 H          1 MOL1         0.0971
       5    C2      19.823270   18.410205   20.618343 C.3        1 MOL1        -0.1385
       6    H4      20.004979   18.221393   19.550991 H          1 MOL1         0.0960
       7    H5      19.789760   17.422164   21.098159 H          1 MOL1         0.0960
       8    C3      21.004363   19.242790   21.180432 C.3        1 MOL1        -0.1409
       9    H6      21.882775   19.061375   20.545704 H          1 MOL1         0.0960
      10    H7      20.790254   20.316492   21.088318 H          1 MOL1         0.0960
      11    C4      21.405743   18.902496   22.639058 C.3        1 MOL1        -0.1409
      12    H8      22.289165   19.501449   22.900016 H          1 MOL1         0.0960
      13    H9      21.721879   17.851660   22.694509 H          1 MOL1         0.0960
      14    C5      20.295150   19.160600   23.683513 C.3        1 MOL1        -0.1409
      15    H10     19.910777   20.183356   23.567135 H          1 MOL1         0.0960
      16    H11     19.459042   18.474632   23.500460 H          1 MOL1         0.0960
      17    C6      20.810527   18.964618   25.129000 C.3        1 MOL1        -0.1450
      18    H12     21.668725   19.627371   25.302685 H          1 MOL1         0.0960
      19    H13     21.175628   17.937548   25.262475 H          1 MOL1         0.0960
      20    C7      19.736585   19.271340   26.190610 C.3        1 MOL1         0.0172
      21    H14     20.181547   19.201370   27.186938 H          1 MOL1         0.0934
      22    H15     19.364648   20.290395   26.054269 H          1 MOL1         0.0934
      23    N1      18.550371   18.327866   26.150206 N.4        1 MOL1        -0.5956
      24    H16     18.061394   18.370623   25.250867 H          1 MOL1         0.3624
      25    H17     17.862026   18.551001   26.877358 H          1 MOL1         0.3624
      26    H18     18.834083   17.353511   26.295765 H          1 MOL1         0.3624
@<TRIPOS>BOND
    1     1     2    1
    2     1     3    1
    3     1     4    1
    4     1     5    1
    5     5     6    1
    6     5     7    1
    7     5     8    1
    8     8     9    1
    9     8    10    1
   10     8    11    1
   11    11    12    1
   12    11    13    1
   13    11    14    1
   14    14    15    1
   15    14    16    1
   16    14    17    1
   17    17    18    1
   18    17    19    1
   19    17    20    1
   20    20    21    1
   21    20    22    1
   22    20    23    1
   23    23    24    1
   24    23    25    1
   25    23    26    1
@<TRIPOS>SUBSTRUCTURE
       1 MOL1            1 RESIDUE      1      MOL     
@<SCITEGIC>MOL_PROPERTY
VM2 Rank
SciTegic.value.IntegerValue
130

@<SCITEGIC>MOL_PROPERTY
Conf_Id
SciTegic.value.IntegerValue
1070

@<SCITEGIC>MOL_PROPERTY
Probability
SciTegic.value.DoubleValue
0.01

@<SCITEGIC>MOL_PROPERTY
Sum Probability
SciTegic.value.DoubleValue
99.66

@<SCITEGIC>MOL_PROPERTY
Delta G
SciTegic.value.DoubleValue
3.733

@<SCITEGIC>MOL_PROPERTY
G
SciTegic.value.DoubleValue
51.995

@<SCITEGIC>MOL_PROPERTY
E
SciTegic.value.DoubleValue
19.192

@<SCITEGIC>MOL_PROPERTY
-TS
SciTegic.value.DoubleValue
32.802

@<SCITEGIC>MOL_PROPERTY
U+W
SciTegic.value.DoubleValue
-2.269

@<SCITEGIC>MOL_PROPERTY
U
SciTegic.value.DoubleValue
51.677

@<SCITEGIC>MOL_PROPERTY
W
SciTegic.value.DoubleValue
-53.946

@<SCITEGIC>MOL_PROPERTY
W(PB)
SciTegic.value.DoubleValue
-56.189

@<SCITEGIC>MOL_PROPERTY
W(SA)
SciTegic.value.DoubleValue
2.243

@<SCITEGIC>MOL_PROPERTY
Valence
SciTegic.value.DoubleValue
5.252

@<SCITEGIC>MOL_PROPERTY
Coulomb
SciTegic.value.DoubleValue
45.637

@<SCITEGIC>MOL_PROPERTY
VdW
SciTegic.value.DoubleValue
0.787

@<SCITEGIC>MOL_PROPERTY
VdW6
SciTegic.value.DoubleValue
-7.893

@<SCITEGIC>MOL_PROPERTY
VdW12
SciTegic.value.DoubleValue
8.680

@<SCITEGIC>MOL_PROPERTY
Bond
SciTegic.value.DoubleValue
0.235

@<SCITEGIC>MOL_PROPERTY
Angle
SciTegic.value.DoubleValue
1.222

@<SCITEGIC>MOL_PROPERTY
Pdih
SciTegic.value.DoubleValue
3.795

@<SCITEGIC>MOL_PROPERTY
Idih
SciTegic.value.DoubleValue
0.000

@<SCITEGIC>MOL_PROPERTY
Tether
SciTegic.value.DoubleValue
0.000

@<TRIPOS>MOLECULE
guest-s14_vm2.mol2 : vm2 ligand conformer 131
          26          25           1
SMALL
USER_CHARGES
 
@<TRIPOS>ATOM
       1    C1      18.923448   18.854460   19.761213 C.3        1 MOL1        -0.2400
       2    H1      18.331632   18.023661   19.355559 H          1 MOL1         0.0971
       3    H2      18.227593   19.648353   20.062405 H          1 MOL1         0.0971
       4    H3      19.556602   19.243194   18.952986 H          1 MOL1         0.0971
       5    C2      19.777237   18.382548   20.957131 C.3        1 MOL1        -0.1385
       6    H4      20.436689   17.566175   20.630897 H          1 MOL1         0.0960
       7    H5      19.117962   17.961200   21.725555 H          1 MOL1         0.0960
       8    C3      20.630415   19.535534   21.538984 C.3        1 MOL1        -0.1409
       9    H6      21.300174   19.897370   20.746551 H          1 MOL1         0.0960
      10    H7      19.991772   20.388217   21.807608 H          1 MOL1         0.0960
      11    C4      21.493702   19.110666   22.755548 C.3        1 MOL1        -0.1409
      12    H8      22.454045   19.641255   22.694900 H          1 MOL1         0.0960
      13    H9      21.742641   18.042384   22.692230 H          1 MOL1         0.0960
      14    C5      20.870777   19.431562   24.138910 C.3        1 MOL1        -0.1409
      15    H10     21.600362   19.152998   24.910586 H          1 MOL1         0.0960
      16    H11     20.727966   20.517170   24.231068 H          1 MOL1         0.0960
      17    C6      19.527819   18.712883   24.416080 C.3        1 MOL1        -0.1450
      18    H12     19.637827   17.631615   24.259904 H          1 MOL1         0.0960
      19    H13     18.771445   19.064522   23.703583 H          1 MOL1         0.0960
      20    C7      18.994206   18.976284   25.837538 C.3        1 MOL1         0.0172
      21    H14     18.909110   20.053321   26.005338 H          1 MOL1         0.0934
      22    H15     17.998254   18.536195   25.937305 H          1 MOL1         0.0934
      23    N1      19.863396   18.395064   26.935596 N.4        1 MOL1        -0.5956
      24    H16     19.471982   18.575547   27.866468 H          1 MOL1         0.3624
      25    H17     20.807044   18.794088   26.924857 H          1 MOL1         0.3624
      26    H18     19.962872   17.378789   26.844669 H          1 MOL1         0.3624
@<TRIPOS>BOND
    1     1     2    1
    2     1     3    1
    3     1     4    1
    4     1     5    1
    5     5     6    1
    6     5     7    1
    7     5     8    1
    8     8     9    1
    9     8    10    1
   10     8    11    1
   11    11    12    1
   12    11    13    1
   13    11    14    1
   14    14    15    1
   15    14    16    1
   16    14    17    1
   17    17    18    1
   18    17    19    1
   19    17    20    1
   20    20    21    1
   21    20    22    1
   22    20    23    1
   23    23    24    1
   24    23    25    1
   25    23    26    1
@<TRIPOS>SUBSTRUCTURE
       1 MOL1            1 RESIDUE      1      MOL     
@<SCITEGIC>MOL_PROPERTY
VM2 Rank
SciTegic.value.IntegerValue
131

@<SCITEGIC>MOL_PROPERTY
Conf_Id
SciTegic.value.IntegerValue
1091

@<SCITEGIC>MOL_PROPERTY
Probability
SciTegic.value.DoubleValue
0.01

@<SCITEGIC>MOL_PROPERTY
Sum Probability
SciTegic.value.DoubleValue
99.68

@<SCITEGIC>MOL_PROPERTY
Delta G
SciTegic.value.DoubleValue
3.745

@<SCITEGIC>MOL_PROPERTY
G
SciTegic.value.DoubleValue
52.007

@<SCITEGIC>MOL_PROPERTY
E
SciTegic.value.DoubleValue
19.182

@<SCITEGIC>MOL_PROPERTY
-TS
SciTegic.value.DoubleValue
32.825

@<SCITEGIC>MOL_PROPERTY
U+W
SciTegic.value.DoubleValue
-2.280

@<SCITEGIC>MOL_PROPERTY
U
SciTegic.value.DoubleValue
51.407

@<SCITEGIC>MOL_PROPERTY
W
SciTegic.value.DoubleValue
-53.687

@<SCITEGIC>MOL_PROPERTY
W(PB)
SciTegic.value.DoubleValue
-55.960

@<SCITEGIC>MOL_PROPERTY
W(SA)
SciTegic.value.DoubleValue
2.273

@<SCITEGIC>MOL_PROPERTY
Valence
SciTegic.value.DoubleValue
5.338

@<SCITEGIC>MOL_PROPERTY
Coulomb
SciTegic.value.DoubleValue
45.268

@<SCITEGIC>MOL_PROPERTY
VdW
SciTegic.value.DoubleValue
0.801

@<SCITEGIC>MOL_PROPERTY
VdW6
SciTegic.value.DoubleValue
-7.902

@<SCITEGIC>MOL_PROPERTY
VdW12
SciTegic.value.DoubleValue
8.703

@<SCITEGIC>MOL_PROPERTY
Bond
SciTegic.value.DoubleValue
0.239

@<SCITEGIC>MOL_PROPERTY
Angle
SciTegic.value.DoubleValue
1.230

@<SCITEGIC>MOL_PROPERTY
Pdih
SciTegic.value.DoubleValue
3.869

@<SCITEGIC>MOL_PROPERTY
Idih
SciTegic.value.DoubleValue
0.000

@<SCITEGIC>MOL_PROPERTY
Tether
SciTegic.value.DoubleValue
0.000

@<TRIPOS>MOLECULE
guest-s14_vm2.mol2 : vm2 ligand conformer 132
          26          25           1
SMALL
USER_CHARGES
 
@<TRIPOS>ATOM
       1    C1      21.061340   20.191711   21.010232 C.3        1 MOL1        -0.2400
       2    H1      21.645292   19.811516   21.857392 H          1 MOL1         0.0971
       3    H2      21.768225   20.641983   20.301402 H          1 MOL1         0.0971
       4    H3      20.395532   20.986272   21.371036 H          1 MOL1         0.0971
       5    C2      20.261059   19.060571   20.328462 C.3        1 MOL1        -0.1385
       6    H4      20.947509   18.253246   20.037364 H          1 MOL1         0.0960
       7    H5      19.832317   19.446933   19.393229 H          1 MOL1         0.0960
       8    C3      19.112458   18.479507   21.192191 C.3        1 MOL1        -0.1409
       9    H6      18.365798   19.258004   21.400836 H          1 MOL1         0.0960
      10    H7      18.591985   17.725792   20.585214 H          1 MOL1         0.0960
      11    C4      19.570408   17.804547   22.511432 C.3        1 MOL1        -0.1409
      12    H8      20.584935   17.399366   22.394299 H          1 MOL1         0.0960
      13    H9      18.918920   16.940880   22.703917 H          1 MOL1         0.0960
      14    C5      19.501777   18.744179   23.740161 C.3        1 MOL1        -0.1409
      15    H10     20.107447   19.639955   23.564027 H          1 MOL1         0.0960
      16    H11     18.467014   19.087216   23.878065 H          1 MOL1         0.0960
      17    C6      19.982205   18.036191   25.028982 C.3        1 MOL1        -0.1450
      18    H12     21.025640   17.713617   24.914310 H          1 MOL1         0.0960
      19    H13     19.388458   17.126023   25.187093 H          1 MOL1         0.0960
      20    C7      19.853554   18.925659   26.280662 C.3        1 MOL1         0.0172
      21    H14     18.817158   19.255244   26.393157 H          1 MOL1         0.0934
      22    H15     20.124862   18.345590   27.166928 H          1 MOL1         0.0934
      23    N1      20.738198   20.156636   26.248878 N.4        1 MOL1        -0.5956
      24    H16     20.638821   20.718424   27.101446 H          1 MOL1         0.3624
      25    H17     20.510294   20.767776   25.458707 H          1 MOL1         0.3624
      26    H18     21.729994   19.910491   26.166662 H          1 MOL1         0.3624
@<TRIPOS>BOND
    1     1     2    1
    2     1     3    1
    3     1     4    1
    4     1     5    1
    5     5     6    1
    6     5     7    1
    7     5     8    1
    8     8     9    1
    9     8    10    1
   10     8    11    1
   11    11    12    1
   12    11    13    1
   13    11    14    1
   14    14    15    1
   15    14    16    1
   16    14    17    1
   17    17    18    1
   18    17    19    1
   19    17    20    1
   20    20    21    1
   21    20    22    1
   22    20    23    1
   23    23    24    1
   24    23    25    1
   25    23    26    1
@<TRIPOS>SUBSTRUCTURE
       1 MOL1            1 RESIDUE      1      MOL     
@<SCITEGIC>MOL_PROPERTY
VM2 Rank
SciTegic.value.IntegerValue
132

@<SCITEGIC>MOL_PROPERTY
Conf_Id
SciTegic.value.IntegerValue
801

@<SCITEGIC>MOL_PROPERTY
Probability
SciTegic.value.DoubleValue
0.01

@<SCITEGIC>MOL_PROPERTY
Sum Probability
SciTegic.value.DoubleValue
99.69

@<SCITEGIC>MOL_PROPERTY
Delta G
SciTegic.value.DoubleValue
3.749

@<SCITEGIC>MOL_PROPERTY
G
SciTegic.value.DoubleValue
52.010

@<SCITEGIC>MOL_PROPERTY
E
SciTegic.value.DoubleValue
19.193

@<SCITEGIC>MOL_PROPERTY
-TS
SciTegic.value.DoubleValue
32.817

@<SCITEGIC>MOL_PROPERTY
U+W
SciTegic.value.DoubleValue
-2.269

@<SCITEGIC>MOL_PROPERTY
U
SciTegic.value.DoubleValue
51.663

@<SCITEGIC>MOL_PROPERTY
W
SciTegic.value.DoubleValue
-53.932

@<SCITEGIC>MOL_PROPERTY
W(PB)
SciTegic.value.DoubleValue
-56.204

@<SCITEGIC>MOL_PROPERTY
W(SA)
SciTegic.value.DoubleValue
2.272

@<SCITEGIC>MOL_PROPERTY
Valence
SciTegic.value.DoubleValue
5.225

@<SCITEGIC>MOL_PROPERTY
Coulomb
SciTegic.value.DoubleValue
45.676

@<SCITEGIC>MOL_PROPERTY
VdW
SciTegic.value.DoubleValue
0.761

@<SCITEGIC>MOL_PROPERTY
VdW6
SciTegic.value.DoubleValue
-7.910

@<SCITEGIC>MOL_PROPERTY
VdW12
SciTegic.value.DoubleValue
8.671

@<SCITEGIC>MOL_PROPERTY
Bond
SciTegic.value.DoubleValue
0.235

@<SCITEGIC>MOL_PROPERTY
Angle
SciTegic.value.DoubleValue
1.177

@<SCITEGIC>MOL_PROPERTY
Pdih
SciTegic.value.DoubleValue
3.813

@<SCITEGIC>MOL_PROPERTY
Idih
SciTegic.value.DoubleValue
0.000

@<SCITEGIC>MOL_PROPERTY
Tether
SciTegic.value.DoubleValue
0.000

@<TRIPOS>MOLECULE
guest-s14_vm2.mol2 : vm2 ligand conformer 133
          26          25           1
SMALL
USER_CHARGES
 
@<TRIPOS>ATOM
       1    C1      20.237572   20.450197   20.826531 C.3        1 MOL1        -0.2400
       2    H1      20.725020   21.169253   20.155549 H          1 MOL1         0.0971
       3    H2      19.152993   20.600355   20.749150 H          1 MOL1         0.0971
       4    H3      20.552864   20.691460   21.849060 H          1 MOL1         0.0971
       5    C2      20.629031   19.005893   20.445289 C.3        1 MOL1        -0.1385
       6    H4      21.708812   18.869236   20.597323 H          1 MOL1         0.0960
       7    H5      20.453431   18.865636   19.369534 H          1 MOL1         0.0960
       8    C3      19.852703   17.908280   21.216957 C.3        1 MOL1        -0.1409
       9    H6      18.780765   17.969872   20.984177 H          1 MOL1         0.0960
      10    H7      20.183934   16.935122   20.828826 H          1 MOL1         0.0960
      11    C4      20.072942   17.916084   22.752261 C.3        1 MOL1        -0.1409
      12    H8      21.072852   18.308184   22.980150 H          1 MOL1         0.0960
      13    H9      20.065630   16.876771   23.108764 H          1 MOL1         0.0960
      14    C5      18.980452   18.698285   23.526280 C.3        1 MOL1        -0.1409
      15    H10     18.942062   19.742357   23.193575 H          1 MOL1         0.0960
      16    H11     17.997725   18.266529   23.291792 H          1 MOL1         0.0960
      17    C6      19.182138   18.660910   25.059211 C.3        1 MOL1        -0.1450
      18    H12     19.197580   17.618786   25.405197 H          1 MOL1         0.0960
      19    H13     18.321085   19.140407   25.543565 H          1 MOL1         0.0960
      20    C7      20.471778   19.375159   25.505269 C.3        1 MOL1         0.0172
      21    H14     21.340998   18.879798   25.065233 H          1 MOL1         0.0934
      22    H15     20.455440   20.412727   25.160939 H          1 MOL1         0.0934
      23    N1      20.654384   19.384191   27.009201 N.4        1 MOL1        -0.5956
      24    H16     20.704275   18.435049   27.393676 H          1 MOL1         0.3624
      25    H17     19.882178   19.862215   27.484984 H          1 MOL1         0.3624
      26    H18     21.517947   19.864101   27.285427 H          1 MOL1         0.3624
@<TRIPOS>BOND
    1     1     2    1
    2     1     3    1
    3     1     4    1
    4     1     5    1
    5     5     6    1
    6     5     7    1
    7     5     8    1
    8     8     9    1
    9     8    10    1
   10     8    11    1
   11    11    12    1
   12    11    13    1
   13    11    14    1
   14    14    15    1
   15    14    16    1
   16    14    17    1
   17    17    18    1
   18    17    19    1
   19    17    20    1
   20    20    21    1
   21    20    22    1
   22    20    23    1
   23    23    24    1
   24    23    25    1
   25    23    26    1
@<TRIPOS>SUBSTRUCTURE
       1 MOL1            1 RESIDUE      1      MOL     
@<SCITEGIC>MOL_PROPERTY
VM2 Rank
SciTegic.value.IntegerValue
133

@<SCITEGIC>MOL_PROPERTY
Conf_Id
SciTegic.value.IntegerValue
159

@<SCITEGIC>MOL_PROPERTY
Probability
SciTegic.value.DoubleValue
0.01

@<SCITEGIC>MOL_PROPERTY
Sum Probability
SciTegic.value.DoubleValue
99.71

@<SCITEGIC>MOL_PROPERTY
Delta G
SciTegic.value.DoubleValue
3.769

@<SCITEGIC>MOL_PROPERTY
G
SciTegic.value.DoubleValue
52.030

@<SCITEGIC>MOL_PROPERTY
E
SciTegic.value.DoubleValue
19.242

@<SCITEGIC>MOL_PROPERTY
-TS
SciTegic.value.DoubleValue
32.788

@<SCITEGIC>MOL_PROPERTY
U+W
SciTegic.value.DoubleValue
-2.220

@<SCITEGIC>MOL_PROPERTY
U
SciTegic.value.DoubleValue
51.443

@<SCITEGIC>MOL_PROPERTY
W
SciTegic.value.DoubleValue
-53.663

@<SCITEGIC>MOL_PROPERTY
W(PB)
SciTegic.value.DoubleValue
-55.931

@<SCITEGIC>MOL_PROPERTY
W(SA)
SciTegic.value.DoubleValue
2.268

@<SCITEGIC>MOL_PROPERTY
Valence
SciTegic.value.DoubleValue
5.421

@<SCITEGIC>MOL_PROPERTY
Coulomb
SciTegic.value.DoubleValue
45.330

@<SCITEGIC>MOL_PROPERTY
VdW
SciTegic.value.DoubleValue
0.692

@<SCITEGIC>MOL_PROPERTY
VdW6
SciTegic.value.DoubleValue
-8.007

@<SCITEGIC>MOL_PROPERTY
VdW12
SciTegic.value.DoubleValue
8.699

@<SCITEGIC>MOL_PROPERTY
Bond
SciTegic.value.DoubleValue
0.240

@<SCITEGIC>MOL_PROPERTY
Angle
SciTegic.value.DoubleValue
1.285

@<SCITEGIC>MOL_PROPERTY
Pdih
SciTegic.value.DoubleValue
3.896

@<SCITEGIC>MOL_PROPERTY
Idih
SciTegic.value.DoubleValue
0.000

@<SCITEGIC>MOL_PROPERTY
Tether
SciTegic.value.DoubleValue
0.000

@<TRIPOS>MOLECULE
guest-s14_vm2.mol2 : vm2 ligand conformer 134
          26          25           1
SMALL
USER_CHARGES
 
@<TRIPOS>ATOM
       1    C1      20.560532   20.507963   20.820249 C.3        1 MOL1        -0.2400
       2    H1      20.427431   20.795990   21.868694 H          1 MOL1         0.0971
       3    H2      21.464848   21.008086   20.450129 H          1 MOL1         0.0971
       4    H3      19.707273   20.900253   20.251819 H          1 MOL1         0.0971
       5    C2      20.680594   18.975793   20.646952 C.3        1 MOL1        -0.1385
       6    H4      21.579015   18.602388   21.157813 H          1 MOL1         0.0960
       7    H5      20.832268   18.767290   19.578574 H          1 MOL1         0.0960
       8    C3      19.426041   18.201780   21.127708 C.3        1 MOL1        -0.1409
       9    H6      18.528128   18.824449   21.012824 H          1 MOL1         0.0960
      10    H7      19.277338   17.342922   20.458643 H          1 MOL1         0.0960
      11    C4      19.513270   17.654152   22.575809 C.3        1 MOL1        -0.1409
      12    H8      20.351873   16.947956   22.648649 H          1 MOL1         0.0960
      13    H9      18.604203   17.070675   22.776881 H          1 MOL1         0.0960
      14    C5      19.663533   18.743907   23.662443 C.3        1 MOL1        -0.1409
      15    H10     20.630281   19.247327   23.539563 H          1 MOL1         0.0960
      16    H11     18.880260   19.503519   23.532869 H          1 MOL1         0.0960
      17    C6      19.574226   18.148810   25.087694 C.3        1 MOL1        -0.1450
      18    H12     20.368325   17.404784   25.235410 H          1 MOL1         0.0960
      19    H13     18.620635   17.616111   25.200874 H          1 MOL1         0.0960
      20    C7      19.664447   19.223556   26.188252 C.3        1 MOL1         0.0172
      21    H14     18.880455   19.970732   26.038295 H          1 MOL1         0.0934
      22    H15     19.507994   18.756581   27.164477 H          1 MOL1         0.0934
      23    N1      20.998359   19.943040   26.231893 N.4        1 MOL1        -0.5956
      24    H16     21.775458   19.294245   26.393848 H          1 MOL1         0.3624
      25    H17     21.029618   20.640970   26.983075 H          1 MOL1         0.3624
      26    H18     21.192597   20.436692   25.355357 H          1 MOL1         0.3624
@<TRIPOS>BOND
    1     1     2    1
    2     1     3    1
    3     1     4    1
    4     1     5    1
    5     5     6    1
    6     5     7    1
    7     5     8    1
    8     8     9    1
    9     8    10    1
   10     8    11    1
   11    11    12    1
   12    11    13    1
   13    11    14    1
   14    14    15    1
   15    14    16    1
   16    14    17    1
   17    17    18    1
   18    17    19    1
   19    17    20    1
   20    20    21    1
   21    20    22    1
   22    20    23    1
   23    23    24    1
   24    23    25    1
   25    23    26    1
@<TRIPOS>SUBSTRUCTURE
       1 MOL1            1 RESIDUE      1      MOL     
@<SCITEGIC>MOL_PROPERTY
VM2 Rank
SciTegic.value.IntegerValue
134

@<SCITEGIC>MOL_PROPERTY
Conf_Id
SciTegic.value.IntegerValue
1096

@<SCITEGIC>MOL_PROPERTY
Probability
SciTegic.value.DoubleValue
0.01

@<SCITEGIC>MOL_PROPERTY
Sum Probability
SciTegic.value.DoubleValue
99.72

@<SCITEGIC>MOL_PROPERTY
Delta G
SciTegic.value.DoubleValue
3.788

@<SCITEGIC>MOL_PROPERTY
G
SciTegic.value.DoubleValue
52.050

@<SCITEGIC>MOL_PROPERTY
E
SciTegic.value.DoubleValue
19.248

@<SCITEGIC>MOL_PROPERTY
-TS
SciTegic.value.DoubleValue
32.802

@<SCITEGIC>MOL_PROPERTY
U+W
SciTegic.value.DoubleValue
-2.214

@<SCITEGIC>MOL_PROPERTY
U
SciTegic.value.DoubleValue
51.677

@<SCITEGIC>MOL_PROPERTY
W
SciTegic.value.DoubleValue
-53.891

@<SCITEGIC>MOL_PROPERTY
W(PB)
SciTegic.value.DoubleValue
-56.164

@<SCITEGIC>MOL_PROPERTY
W(SA)
SciTegic.value.DoubleValue
2.273

@<SCITEGIC>MOL_PROPERTY
Valence
SciTegic.value.DoubleValue
5.252

@<SCITEGIC>MOL_PROPERTY
Coulomb
SciTegic.value.DoubleValue
45.638

@<SCITEGIC>MOL_PROPERTY
VdW
SciTegic.value.DoubleValue
0.787

@<SCITEGIC>MOL_PROPERTY
VdW6
SciTegic.value.DoubleValue
-7.893

@<SCITEGIC>MOL_PROPERTY
VdW12
SciTegic.value.DoubleValue
8.680

@<SCITEGIC>MOL_PROPERTY
Bond
SciTegic.value.DoubleValue
0.235

@<SCITEGIC>MOL_PROPERTY
Angle
SciTegic.value.DoubleValue
1.222

@<SCITEGIC>MOL_PROPERTY
Pdih
SciTegic.value.DoubleValue
3.795

@<SCITEGIC>MOL_PROPERTY
Idih
SciTegic.value.DoubleValue
0.000

@<SCITEGIC>MOL_PROPERTY
Tether
SciTegic.value.DoubleValue
0.000

@<TRIPOS>MOLECULE
guest-s14_vm2.mol2 : vm2 ligand conformer 135
          26          25           1
SMALL
USER_CHARGES
 
@<TRIPOS>ATOM
       1    C1      21.027659   19.670576   20.288444 C.3        1 MOL1        -0.2400
       2    H1      21.647129   19.685169   19.382400 H          1 MOL1         0.0971
       3    H2      20.511102   20.636607   20.357616 H          1 MOL1         0.0971
       4    H3      21.704311   19.573055   21.146369 H          1 MOL1         0.0971
       5    C2      20.019298   18.502259   20.233723 C.3        1 MOL1        -0.1385
       6    H4      20.566417   17.549246   20.221194 H          1 MOL1         0.0960
       7    H5      19.473755   18.552141   19.281015 H          1 MOL1         0.0960
       8    C3      18.988203   18.493772   21.391154 C.3        1 MOL1        -0.1409
       9    H6      18.366924   19.399045   21.350554 H          1 MOL1         0.0960
      10    H7      18.300602   17.655062   21.214532 H          1 MOL1         0.0960
      11    C4      19.603142   18.325155   22.805033 C.3        1 MOL1        -0.1409
      12    H8      20.544256   17.761927   22.740521 H          1 MOL1         0.0960
      13    H9      18.919535   17.708181   23.403418 H          1 MOL1         0.0960
      14    C5      19.827362   19.671153   23.541187 C.3        1 MOL1        -0.1409
      15    H10     20.427305   20.345686   22.918941 H          1 MOL1         0.0960
      16    H11     18.861355   20.173031   23.690708 H          1 MOL1         0.0960
      17    C6      20.535006   19.503810   24.906381 C.3        1 MOL1        -0.1450
      18    H12     20.729808   20.497675   25.330886 H          1 MOL1         0.0960
      19    H13     21.513576   19.027990   24.758168 H          1 MOL1         0.0960
      20    C7      19.706135   18.681368   25.910787 C.3        1 MOL1         0.0172
      21    H14     18.732175   19.155423   26.059284 H          1 MOL1         0.0934
      22    H15     19.543032   17.674069   25.519052 H          1 MOL1         0.0934
      23    N1      20.374196   18.550908   27.264291 N.4        1 MOL1        -0.5956
      24    H16     20.531546   19.464446   27.702331 H          1 MOL1         0.3624
      25    H17     21.286188   18.087289   27.197175 H          1 MOL1         0.3624
      26    H18     19.806650   18.000362   27.917869 H          1 MOL1         0.3624
@<TRIPOS>BOND
    1     1     2    1
    2     1     3    1
    3     1     4    1
    4     1     5    1
    5     5     6    1
    6     5     7    1
    7     5     8    1
    8     8     9    1
    9     8    10    1
   10     8    11    1
   11    11    12    1
   12    11    13    1
   13    11    14    1
   14    14    15    1
   15    14    16    1
   16    14    17    1
   17    17    18    1
   18    17    19    1
   19    17    20    1
   20    20    21    1
   21    20    22    1
   22    20    23    1
   23    23    24    1
   24    23    25    1
   25    23    26    1
@<TRIPOS>SUBSTRUCTURE
       1 MOL1            1 RESIDUE      1      MOL     
@<SCITEGIC>MOL_PROPERTY
VM2 Rank
SciTegic.value.IntegerValue
135

@<SCITEGIC>MOL_PROPERTY
Conf_Id
SciTegic.value.IntegerValue
1060

@<SCITEGIC>MOL_PROPERTY
Probability
SciTegic.value.DoubleValue
0.01

@<SCITEGIC>MOL_PROPERTY
Sum Probability
SciTegic.value.DoubleValue
99.73

@<SCITEGIC>MOL_PROPERTY
Delta G
SciTegic.value.DoubleValue
3.797

@<SCITEGIC>MOL_PROPERTY
G
SciTegic.value.DoubleValue
52.059

@<SCITEGIC>MOL_PROPERTY
E
SciTegic.value.DoubleValue
19.234

@<SCITEGIC>MOL_PROPERTY
-TS
SciTegic.value.DoubleValue
32.824

@<SCITEGIC>MOL_PROPERTY
U+W
SciTegic.value.DoubleValue
-2.227

@<SCITEGIC>MOL_PROPERTY
U
SciTegic.value.DoubleValue
51.310

@<SCITEGIC>MOL_PROPERTY
W
SciTegic.value.DoubleValue
-53.537

@<SCITEGIC>MOL_PROPERTY
W(PB)
SciTegic.value.DoubleValue
-55.824

@<SCITEGIC>MOL_PROPERTY
W(SA)
SciTegic.value.DoubleValue
2.287

@<SCITEGIC>MOL_PROPERTY
Valence
SciTegic.value.DoubleValue
5.462

@<SCITEGIC>MOL_PROPERTY
Coulomb
SciTegic.value.DoubleValue
45.075

@<SCITEGIC>MOL_PROPERTY
VdW
SciTegic.value.DoubleValue
0.773

@<SCITEGIC>MOL_PROPERTY
VdW6
SciTegic.value.DoubleValue
-7.908

@<SCITEGIC>MOL_PROPERTY
VdW12
SciTegic.value.DoubleValue
8.681

@<SCITEGIC>MOL_PROPERTY
Bond
SciTegic.value.DoubleValue
0.240

@<SCITEGIC>MOL_PROPERTY
Angle
SciTegic.value.DoubleValue
1.238

@<SCITEGIC>MOL_PROPERTY
Pdih
SciTegic.value.DoubleValue
3.984

@<SCITEGIC>MOL_PROPERTY
Idih
SciTegic.value.DoubleValue
0.000

@<SCITEGIC>MOL_PROPERTY
Tether
SciTegic.value.DoubleValue
0.000

@<TRIPOS>MOLECULE
guest-s14_vm2.mol2 : vm2 ligand conformer 136
          26          25           1
SMALL
USER_CHARGES
 
@<TRIPOS>ATOM
       1    C1      19.060912   20.005910   20.021262 C.3        1 MOL1        -0.2400
       2    H1      18.118029   20.218592   20.541811 H          1 MOL1         0.0971
       3    H2      19.662917   20.923937   20.015223 H          1 MOL1         0.0971
       4    H3      18.821346   19.753301   18.980190 H          1 MOL1         0.0971
       5    C2      19.821638   18.848024   20.701596 C.3        1 MOL1        -0.1385
       6    H4      20.741195   18.635797   20.138320 H          1 MOL1         0.0960
       7    H5      19.208606   17.936640   20.662821 H          1 MOL1         0.0960
       8    C3      20.172045   19.178264   22.169355 C.3        1 MOL1        -0.1409
       9    H6      20.787167   20.088065   22.198773 H          1 MOL1         0.0960
      10    H7      19.246743   19.402181   22.711002 H          1 MOL1         0.0960
      11    C4      20.935155   18.015948   22.850894 C.3        1 MOL1        -0.1409
      12    H8      21.828439   17.797773   22.249227 H          1 MOL1         0.0960
      13    H9      20.328519   17.100055   22.834645 H          1 MOL1         0.0960
      14    C5      21.396189   18.322297   24.300071 C.3        1 MOL1        -0.1409
      15    H10     22.298836   17.727288   24.496658 H          1 MOL1         0.0960
      16    H11     21.714084   19.369718   24.387660 H          1 MOL1         0.0960
      17    C6      20.364322   17.967101   25.403834 C.3        1 MOL1        -0.1450
      18    H12     20.835563   18.101190   26.386572 H          1 MOL1         0.0960
      19    H13     20.112948   16.900516   25.333562 H          1 MOL1         0.0960
      20    C7      19.058639   18.784158   25.370769 C.3        1 MOL1         0.0172
      21    H14     18.532232   18.604313   24.430879 H          1 MOL1         0.0934
      22    H15     18.408210   18.457750   26.186781 H          1 MOL1         0.0934
      23    N1      19.272101   20.277298   25.523219 N.4        1 MOL1        -0.5956
      24    H16     18.386002   20.793548   25.501645 H          1 MOL1         0.3624
      25    H17     19.860834   20.651822   24.773116 H          1 MOL1         0.3624
      26    H18     19.730243   20.505723   26.411427 H          1 MOL1         0.3624
@<TRIPOS>BOND
    1     1     2    1
    2     1     3    1
    3     1     4    1
    4     1     5    1
    5     5     6    1
    6     5     7    1
    7     5     8    1
    8     8     9    1
    9     8    10    1
   10     8    11    1
   11    11    12    1
   12    11    13    1
   13    11    14    1
   14    14    15    1
   15    14    16    1
   16    14    17    1
   17    17    18    1
   18    17    19    1
   19    17    20    1
   20    20    21    1
   21    20    22    1
   22    20    23    1
   23    23    24    1
   24    23    25    1
   25    23    26    1
@<TRIPOS>SUBSTRUCTURE
       1 MOL1            1 RESIDUE      1      MOL     
@<SCITEGIC>MOL_PROPERTY
VM2 Rank
SciTegic.value.IntegerValue
136

@<SCITEGIC>MOL_PROPERTY
Conf_Id
SciTegic.value.IntegerValue
1346

@<SCITEGIC>MOL_PROPERTY
Probability
SciTegic.value.DoubleValue
0.01

@<SCITEGIC>MOL_PROPERTY
Sum Probability
SciTegic.value.DoubleValue
99.74

@<SCITEGIC>MOL_PROPERTY
Delta G
SciTegic.value.DoubleValue
3.799

@<SCITEGIC>MOL_PROPERTY
G
SciTegic.value.DoubleValue
52.061

@<SCITEGIC>MOL_PROPERTY
E
SciTegic.value.DoubleValue
19.192

@<SCITEGIC>MOL_PROPERTY
-TS
SciTegic.value.DoubleValue
32.869

@<SCITEGIC>MOL_PROPERTY
U+W
SciTegic.value.DoubleValue
-2.270

@<SCITEGIC>MOL_PROPERTY
U
SciTegic.value.DoubleValue
51.830

@<SCITEGIC>MOL_PROPERTY
W
SciTegic.value.DoubleValue
-54.100

@<SCITEGIC>MOL_PROPERTY
W(PB)
SciTegic.value.DoubleValue
-56.379

@<SCITEGIC>MOL_PROPERTY
W(SA)
SciTegic.value.DoubleValue
2.279

@<SCITEGIC>MOL_PROPERTY
Valence
SciTegic.value.DoubleValue
4.864

@<SCITEGIC>MOL_PROPERTY
Coulomb
SciTegic.value.DoubleValue
46.522

@<SCITEGIC>MOL_PROPERTY
VdW
SciTegic.value.DoubleValue
0.444

@<SCITEGIC>MOL_PROPERTY
VdW6
SciTegic.value.DoubleValue
-8.266

@<SCITEGIC>MOL_PROPERTY
VdW12
SciTegic.value.DoubleValue
8.710

@<SCITEGIC>MOL_PROPERTY
Bond
SciTegic.value.DoubleValue
0.239

@<SCITEGIC>MOL_PROPERTY
Angle
SciTegic.value.DoubleValue
1.440

@<SCITEGIC>MOL_PROPERTY
Pdih
SciTegic.value.DoubleValue
3.185

@<SCITEGIC>MOL_PROPERTY
Idih
SciTegic.value.DoubleValue
0.000

@<SCITEGIC>MOL_PROPERTY
Tether
SciTegic.value.DoubleValue
0.000

@<TRIPOS>MOLECULE
guest-s14_vm2.mol2 : vm2 ligand conformer 137
          26          25           1
SMALL
USER_CHARGES
 
@<TRIPOS>ATOM
       1    C1      19.706957   19.627105   19.884996 C.3        1 MOL1        -0.2400
       2    H1      19.218966   20.544989   20.237637 H          1 MOL1         0.0971
       3    H2      20.015722   19.789416   18.844214 H          1 MOL1         0.0971
       4    H3      18.963863   18.819917   19.887133 H          1 MOL1         0.0971
       5    C2      20.928762   19.274673   20.763416 C.3        1 MOL1        -0.1385
       6    H4      21.690868   20.057225   20.642728 H          1 MOL1         0.0960
       7    H5      21.385933   18.342461   20.403257 H          1 MOL1         0.0960
       8    C3      20.584360   19.142500   22.266460 C.3        1 MOL1        -0.1409
       9    H6      21.515777   18.981876   22.826349 H          1 MOL1         0.0960
      10    H7      20.161419   20.092862   22.615710 H          1 MOL1         0.0960
      11    C4      19.599092   17.986816   22.568551 C.3        1 MOL1        -0.1409
      12    H8      19.929624   17.088450   22.029241 H          1 MOL1         0.0960
      13    H9      18.605611   18.234005   22.171199 H          1 MOL1         0.0960
      14    C5      19.470396   17.625491   24.071119 C.3        1 MOL1        -0.1409
      15    H10     18.802292   16.756096   24.142823 H          1 MOL1         0.0960
      16    H11     20.438152   17.282703   24.459317 H          1 MOL1         0.0960
      17    C6      18.885827   18.748880   24.968964 C.3        1 MOL1        -0.1450
      18    H12     18.420252   18.291062   25.851871 H          1 MOL1         0.0960
      19    H13     18.075886   19.263392   24.435138 H          1 MOL1         0.0960
      20    C7      19.917723   19.787481   25.457270 C.3        1 MOL1         0.0172
      21    H14     20.414457   20.259226   24.608028 H          1 MOL1         0.0934
      22    H15     19.401060   20.568519   26.021660 H          1 MOL1         0.0934
      23    N1      20.987884   19.206055   26.360224 N.4        1 MOL1        -0.5956
      24    H16     21.645970   19.924017   26.682145 H          1 MOL1         0.3624
      25    H17     21.538303   18.486359   25.882088 H          1 MOL1         0.3624
      26    H18     20.584750   18.772928   27.197382 H          1 MOL1         0.3624
@<TRIPOS>BOND
    1     1     2    1
    2     1     3    1
    3     1     4    1
    4     1     5    1
    5     5     6    1
    6     5     7    1
    7     5     8    1
    8     8     9    1
    9     8    10    1
   10     8    11    1
   11    11    12    1
   12    11    13    1
   13    11    14    1
   14    14    15    1
   15    14    16    1
   16    14    17    1
   17    17    18    1
   18    17    19    1
   19    17    20    1
   20    20    21    1
   21    20    22    1
   22    20    23    1
   23    23    24    1
   24    23    25    1
   25    23    26    1
@<TRIPOS>SUBSTRUCTURE
       1 MOL1            1 RESIDUE      1      MOL     
@<SCITEGIC>MOL_PROPERTY
VM2 Rank
SciTegic.value.IntegerValue
137

@<SCITEGIC>MOL_PROPERTY
Conf_Id
SciTegic.value.IntegerValue
710

@<SCITEGIC>MOL_PROPERTY
Probability
SciTegic.value.DoubleValue
0.01

@<SCITEGIC>MOL_PROPERTY
Sum Probability
SciTegic.value.DoubleValue
99.76

@<SCITEGIC>MOL_PROPERTY
Delta G
SciTegic.value.DoubleValue
3.802

@<SCITEGIC>MOL_PROPERTY
G
SciTegic.value.DoubleValue
52.063

@<SCITEGIC>MOL_PROPERTY
E
SciTegic.value.DoubleValue
19.188

@<SCITEGIC>MOL_PROPERTY
-TS
SciTegic.value.DoubleValue
32.875

@<SCITEGIC>MOL_PROPERTY
U+W
SciTegic.value.DoubleValue
-2.274

@<SCITEGIC>MOL_PROPERTY
U
SciTegic.value.DoubleValue
51.885

@<SCITEGIC>MOL_PROPERTY
W
SciTegic.value.DoubleValue
-54.159

@<SCITEGIC>MOL_PROPERTY
W(PB)
SciTegic.value.DoubleValue
-56.421

@<SCITEGIC>MOL_PROPERTY
W(SA)
SciTegic.value.DoubleValue
2.262

@<SCITEGIC>MOL_PROPERTY
Valence
SciTegic.value.DoubleValue
5.154

@<SCITEGIC>MOL_PROPERTY
Coulomb
SciTegic.value.DoubleValue
46.017

@<SCITEGIC>MOL_PROPERTY
VdW
SciTegic.value.DoubleValue
0.714

@<SCITEGIC>MOL_PROPERTY
VdW6
SciTegic.value.DoubleValue
-8.701

@<SCITEGIC>MOL_PROPERTY
VdW12
SciTegic.value.DoubleValue
9.415

@<SCITEGIC>MOL_PROPERTY
Bond
SciTegic.value.DoubleValue
0.265

@<SCITEGIC>MOL_PROPERTY
Angle
SciTegic.value.DoubleValue
1.543

@<SCITEGIC>MOL_PROPERTY
Pdih
SciTegic.value.DoubleValue
3.346

@<SCITEGIC>MOL_PROPERTY
Idih
SciTegic.value.DoubleValue
0.000

@<SCITEGIC>MOL_PROPERTY
Tether
SciTegic.value.DoubleValue
0.000

@<TRIPOS>MOLECULE
guest-s14_vm2.mol2 : vm2 ligand conformer 138
          26          25           1
SMALL
USER_CHARGES
 
@<TRIPOS>ATOM
       1    C1      19.642507   19.584676   19.882899 C.3        1 MOL1        -0.2400
       2    H1      20.675467   19.949295   19.944450 H          1 MOL1         0.0971
       3    H2      19.420745   19.396927   18.824371 H          1 MOL1         0.0971
       4    H3      18.974332   20.383688   20.229489 H          1 MOL1         0.0971
       5    C2      19.445975   18.296478   20.713899 C.3        1 MOL1        -0.1385
       6    H4      20.139689   17.520334   20.361622 H          1 MOL1         0.0960
       7    H5      18.433677   17.908380   20.533917 H          1 MOL1         0.0960
       8    C3      19.632610   18.514620   22.234690 C.3        1 MOL1        -0.1409
       9    H6      18.909328   19.266841   22.573901 H          1 MOL1         0.0960
      10    H7      19.388586   17.578542   22.755290 H          1 MOL1         0.0960
      11    C4      21.066822   18.955086   22.617636 C.3        1 MOL1        -0.1409
      12    H8      21.248103   19.977312   22.259605 H          1 MOL1         0.0960
      13    H9      21.787437   18.314109   22.091302 H          1 MOL1         0.0960
      14    C5      21.379378   18.884715   24.134934 C.3        1 MOL1        -0.1409
      15    H10     21.296330   17.848753   24.487974 H          1 MOL1         0.0960
      16    H11     22.436891   19.153584   24.264270 H          1 MOL1         0.0960
      17    C6      20.535217   19.836791   25.024197 C.3        1 MOL1        -0.1450
      18    H12     20.405512   20.800010   24.513233 H          1 MOL1         0.0960
      19    H13     21.097401   20.056729   25.941507 H          1 MOL1         0.0960
      20    C7      19.153345   19.283347   25.431711 C.3        1 MOL1         0.0172
      21    H14     18.612562   20.048360   25.995457 H          1 MOL1         0.0934
      22    H15     18.564521   19.039325   24.546139 H          1 MOL1         0.0934
      23    N1      19.225147   18.043288   26.301034 N.4        1 MOL1        -0.5956
      24    H16     18.292309   17.711946   26.569742 H          1 MOL1         0.3624
      25    H17     19.742338   18.216930   27.168969 H          1 MOL1         0.3624
      26    H18     19.692286   17.268777   25.819939 H          1 MOL1         0.3624
@<TRIPOS>BOND
    1     1     2    1
    2     1     3    1
    3     1     4    1
    4     1     5    1
    5     5     6    1
    6     5     7    1
    7     5     8    1
    8     8     9    1
    9     8    10    1
   10     8    11    1
   11    11    12    1
   12    11    13    1
   13    11    14    1
   14    14    15    1
   15    14    16    1
   16    14    17    1
   17    17    18    1
   18    17    19    1
   19    17    20    1
   20    20    21    1
   21    20    22    1
   22    20    23    1
   23    23    24    1
   24    23    25    1
   25    23    26    1
@<TRIPOS>SUBSTRUCTURE
       1 MOL1            1 RESIDUE      1      MOL     
@<SCITEGIC>MOL_PROPERTY
VM2 Rank
SciTegic.value.IntegerValue
138

@<SCITEGIC>MOL_PROPERTY
Conf_Id
SciTegic.value.IntegerValue
418

@<SCITEGIC>MOL_PROPERTY
Probability
SciTegic.value.DoubleValue
0.01

@<SCITEGIC>MOL_PROPERTY
Sum Probability
SciTegic.value.DoubleValue
99.77

@<SCITEGIC>MOL_PROPERTY
Delta G
SciTegic.value.DoubleValue
3.813

@<SCITEGIC>MOL_PROPERTY
G
SciTegic.value.DoubleValue
52.074

@<SCITEGIC>MOL_PROPERTY
E
SciTegic.value.DoubleValue
19.200

@<SCITEGIC>MOL_PROPERTY
-TS
SciTegic.value.DoubleValue
32.875

@<SCITEGIC>MOL_PROPERTY
U+W
SciTegic.value.DoubleValue
-2.262

@<SCITEGIC>MOL_PROPERTY
U
SciTegic.value.DoubleValue
51.886

@<SCITEGIC>MOL_PROPERTY
W
SciTegic.value.DoubleValue
-54.147

@<SCITEGIC>MOL_PROPERTY
W(PB)
SciTegic.value.DoubleValue
-56.399

@<SCITEGIC>MOL_PROPERTY
W(SA)
SciTegic.value.DoubleValue
2.252

@<SCITEGIC>MOL_PROPERTY
Valence
SciTegic.value.DoubleValue
5.154

@<SCITEGIC>MOL_PROPERTY
Coulomb
SciTegic.value.DoubleValue
46.018

@<SCITEGIC>MOL_PROPERTY
VdW
SciTegic.value.DoubleValue
0.714

@<SCITEGIC>MOL_PROPERTY
VdW6
SciTegic.value.DoubleValue
-8.701

@<SCITEGIC>MOL_PROPERTY
VdW12
SciTegic.value.DoubleValue
9.415

@<SCITEGIC>MOL_PROPERTY
Bond
SciTegic.value.DoubleValue
0.265

@<SCITEGIC>MOL_PROPERTY
Angle
SciTegic.value.DoubleValue
1.543

@<SCITEGIC>MOL_PROPERTY
Pdih
SciTegic.value.DoubleValue
3.346

@<SCITEGIC>MOL_PROPERTY
Idih
SciTegic.value.DoubleValue
0.000

@<SCITEGIC>MOL_PROPERTY
Tether
SciTegic.value.DoubleValue
0.000

@<TRIPOS>MOLECULE
guest-s14_vm2.mol2 : vm2 ligand conformer 139
          26          25           1
SMALL
USER_CHARGES
 
@<TRIPOS>ATOM
       1    C1      18.879185   18.291872   20.023032 C.3        1 MOL1        -0.2400
       2    H1      18.150377   19.107007   19.924895 H          1 MOL1         0.0971
       3    H2      19.558361   18.334759   19.161584 H          1 MOL1         0.0971
       4    H3      18.331340   17.341959   19.972631 H          1 MOL1         0.0971
       5    C2      19.658320   18.401712   21.350831 C.3        1 MOL1        -0.1385
       6    H4      20.359745   17.559792   21.432694 H          1 MOL1         0.0960
       7    H5      18.948927   18.316395   22.184247 H          1 MOL1         0.0960
       8    C3      20.429078   19.737753   21.450916 C.3        1 MOL1        -0.1409
       9    H6      21.036720   19.867413   20.544673 H          1 MOL1         0.0960
      10    H7      19.713549   20.571512   21.459938 H          1 MOL1         0.0960
      11    C4      21.365085   19.848493   22.682259 C.3        1 MOL1        -0.1409
      12    H8      21.883725   20.814960   22.615936 H          1 MOL1         0.0960
      13    H9      22.154178   19.086055   22.626273 H          1 MOL1         0.0960
      14    C5      20.645190   19.780708   24.054484 C.3        1 MOL1        -0.1409
      15    H10     21.161400   20.456241   24.750790 H          1 MOL1         0.0960
      16    H11     19.622656   20.168758   23.957392 H          1 MOL1         0.0960
      17    C6      20.641128   18.361493   24.678026 C.3        1 MOL1        -0.1450
      18    H12     21.676770   18.012920   24.786285 H          1 MOL1         0.0960
      19    H13     20.142011   17.642556   24.018716 H          1 MOL1         0.0960
      20    C7      19.972022   18.326918   26.065383 C.3        1 MOL1         0.0172
      21    H14     20.084977   17.329079   26.497938 H          1 MOL1         0.0934
      22    H15     20.462995   19.043808   26.729013 H          1 MOL1         0.0934
      23    N1      18.490992   18.650052   26.036068 N.4        1 MOL1        -0.5956
      24    H16     17.969234   17.992655   25.447536 H          1 MOL1         0.3624
      25    H17     18.315004   19.590939   25.670564 H          1 MOL1         0.3624
      26    H18     18.074440   18.609152   26.972624 H          1 MOL1         0.3624
@<TRIPOS>BOND
    1     1     2    1
    2     1     3    1
    3     1     4    1
    4     1     5    1
    5     5     6    1
    6     5     7    1
    7     5     8    1
    8     8     9    1
    9     8    10    1
   10     8    11    1
   11    11    12    1
   12    11    13    1
   13    11    14    1
   14    14    15    1
   15    14    16    1
   16    14    17    1
   17    17    18    1
   18    17    19    1
   19    17    20    1
   20    20    21    1
   21    20    22    1
   22    20    23    1
   23    23    24    1
   24    23    25    1
   25    23    26    1
@<TRIPOS>SUBSTRUCTURE
       1 MOL1            1 RESIDUE      1      MOL     
@<SCITEGIC>MOL_PROPERTY
VM2 Rank
SciTegic.value.IntegerValue
139

@<SCITEGIC>MOL_PROPERTY
Conf_Id
SciTegic.value.IntegerValue
1068

@<SCITEGIC>MOL_PROPERTY
Probability
SciTegic.value.DoubleValue
0.01

@<SCITEGIC>MOL_PROPERTY
Sum Probability
SciTegic.value.DoubleValue
99.78

@<SCITEGIC>MOL_PROPERTY
Delta G
SciTegic.value.DoubleValue
3.823

@<SCITEGIC>MOL_PROPERTY
G
SciTegic.value.DoubleValue
52.084

@<SCITEGIC>MOL_PROPERTY
E
SciTegic.value.DoubleValue
19.267

@<SCITEGIC>MOL_PROPERTY
-TS
SciTegic.value.DoubleValue
32.817

@<SCITEGIC>MOL_PROPERTY
U+W
SciTegic.value.DoubleValue
-2.195

@<SCITEGIC>MOL_PROPERTY
U
SciTegic.value.DoubleValue
51.953

@<SCITEGIC>MOL_PROPERTY
W
SciTegic.value.DoubleValue
-54.148

@<SCITEGIC>MOL_PROPERTY
W(PB)
SciTegic.value.DoubleValue
-56.401

@<SCITEGIC>MOL_PROPERTY
W(SA)
SciTegic.value.DoubleValue
2.253

@<SCITEGIC>MOL_PROPERTY
Valence
SciTegic.value.DoubleValue
5.280

@<SCITEGIC>MOL_PROPERTY
Coulomb
SciTegic.value.DoubleValue
45.974

@<SCITEGIC>MOL_PROPERTY
VdW
SciTegic.value.DoubleValue
0.700

@<SCITEGIC>MOL_PROPERTY
VdW6
SciTegic.value.DoubleValue
-7.998

@<SCITEGIC>MOL_PROPERTY
VdW12
SciTegic.value.DoubleValue
8.698

@<SCITEGIC>MOL_PROPERTY
Bond
SciTegic.value.DoubleValue
0.241

@<SCITEGIC>MOL_PROPERTY
Angle
SciTegic.value.DoubleValue
1.239

@<SCITEGIC>MOL_PROPERTY
Pdih
SciTegic.value.DoubleValue
3.800

@<SCITEGIC>MOL_PROPERTY
Idih
SciTegic.value.DoubleValue
0.000

@<SCITEGIC>MOL_PROPERTY
Tether
SciTegic.value.DoubleValue
0.000

@<TRIPOS>MOLECULE
guest-s14_vm2.mol2 : vm2 ligand conformer 140
          26          25           1
SMALL
USER_CHARGES
 
@<TRIPOS>ATOM
       1    C1      19.540864   20.322797   20.037370 C.3        1 MOL1        -0.2400
       2    H1      19.690192   21.256837   20.594597 H          1 MOL1         0.0971
       3    H2      19.915504   20.475782   19.016942 H          1 MOL1         0.0971
       4    H3      18.461807   20.130591   19.974822 H          1 MOL1         0.0971
       5    C2      20.275296   19.147580   20.716878 C.3        1 MOL1        -0.1385
       6    H4      21.354664   19.353902   20.734980 H          1 MOL1         0.0960
       7    H5      20.136665   18.236462   20.118087 H          1 MOL1         0.0960
       8    C3      19.765972   18.910126   22.155750 C.3        1 MOL1        -0.1409
       9    H6      19.897157   19.831782   22.732850 H          1 MOL1         0.0960
      10    H7      18.687669   18.701587   22.128272 H          1 MOL1         0.0960
      11    C4      20.503442   17.730916   22.836490 C.3        1 MOL1        -0.1409
      12    H8      21.583433   17.928736   22.876698 H          1 MOL1         0.0960
      13    H9      20.382108   16.842732   22.200906 H          1 MOL1         0.0960
      14    C5      19.973841   17.383242   24.252527 C.3        1 MOL1        -0.1409
      15    H10     18.882767   17.500462   24.292986 H          1 MOL1         0.0960
      16    H11     20.157772   16.313734   24.425086 H          1 MOL1         0.0960
      17    C6      20.653128   18.157781   25.413502 C.3        1 MOL1        -0.1450
      18    H12     21.734930   17.971294   25.387869 H          1 MOL1         0.0960
      19    H13     20.299475   17.747404   26.368669 H          1 MOL1         0.0960
      20    C7      20.415580   19.679966   25.416029 C.3        1 MOL1         0.0172
      21    H14     20.932439   20.124198   26.271008 H          1 MOL1         0.0934
      22    H15     20.830820   20.121687   24.507566 H          1 MOL1         0.0934
      23    N1      18.952877   20.066593   25.512453 N.4        1 MOL1        -0.5956
      24    H16     18.826766   21.084549   25.516216 H          1 MOL1         0.3624
      25    H17     18.522153   19.708279   26.370982 H          1 MOL1         0.3624
      26    H18     18.412922   19.695976   24.724659 H          1 MOL1         0.3624
@<TRIPOS>BOND
    1     1     2    1
    2     1     3    1
    3     1     4    1
    4     1     5    1
    5     5     6    1
    6     5     7    1
    7     5     8    1
    8     8     9    1
    9     8    10    1
   10     8    11    1
   11    11    12    1
   12    11    13    1
   13    11    14    1
   14    14    15    1
   15    14    16    1
   16    14    17    1
   17    17    18    1
   18    17    19    1
   19    17    20    1
   20    20    21    1
   21    20    22    1
   22    20    23    1
   23    23    24    1
   24    23    25    1
   25    23    26    1
@<TRIPOS>SUBSTRUCTURE
       1 MOL1            1 RESIDUE      1      MOL     
@<SCITEGIC>MOL_PROPERTY
VM2 Rank
SciTegic.value.IntegerValue
140

@<SCITEGIC>MOL_PROPERTY
Conf_Id
SciTegic.value.IntegerValue
402

@<SCITEGIC>MOL_PROPERTY
Probability
SciTegic.value.DoubleValue
0.01

@<SCITEGIC>MOL_PROPERTY
Sum Probability
SciTegic.value.DoubleValue
99.79

@<SCITEGIC>MOL_PROPERTY
Delta G
SciTegic.value.DoubleValue
3.831

@<SCITEGIC>MOL_PROPERTY
G
SciTegic.value.DoubleValue
52.092

@<SCITEGIC>MOL_PROPERTY
E
SciTegic.value.DoubleValue
19.223

@<SCITEGIC>MOL_PROPERTY
-TS
SciTegic.value.DoubleValue
32.869

@<SCITEGIC>MOL_PROPERTY
U+W
SciTegic.value.DoubleValue
-2.239

@<SCITEGIC>MOL_PROPERTY
U
SciTegic.value.DoubleValue
51.830

@<SCITEGIC>MOL_PROPERTY
W
SciTegic.value.DoubleValue
-54.069

@<SCITEGIC>MOL_PROPERTY
W(PB)
SciTegic.value.DoubleValue
-56.350

@<SCITEGIC>MOL_PROPERTY
W(SA)
SciTegic.value.DoubleValue
2.281

@<SCITEGIC>MOL_PROPERTY
Valence
SciTegic.value.DoubleValue
4.864

@<SCITEGIC>MOL_PROPERTY
Coulomb
SciTegic.value.DoubleValue
46.522

@<SCITEGIC>MOL_PROPERTY
VdW
SciTegic.value.DoubleValue
0.444

@<SCITEGIC>MOL_PROPERTY
VdW6
SciTegic.value.DoubleValue
-8.267

@<SCITEGIC>MOL_PROPERTY
VdW12
SciTegic.value.DoubleValue
8.711

@<SCITEGIC>MOL_PROPERTY
Bond
SciTegic.value.DoubleValue
0.239

@<SCITEGIC>MOL_PROPERTY
Angle
SciTegic.value.DoubleValue
1.440

@<SCITEGIC>MOL_PROPERTY
Pdih
SciTegic.value.DoubleValue
3.185

@<SCITEGIC>MOL_PROPERTY
Idih
SciTegic.value.DoubleValue
0.000

@<SCITEGIC>MOL_PROPERTY
Tether
SciTegic.value.DoubleValue
0.000

@<TRIPOS>MOLECULE
guest-s14_vm2.mol2 : vm2 ligand conformer 141
          26          25           1
SMALL
USER_CHARGES
 
@<TRIPOS>ATOM
       1    C1      21.187284   19.814521   20.099614 C.3        1 MOL1        -0.2400
       2    H1      20.921198   19.233859   19.206728 H          1 MOL1         0.0971
       3    H2      20.729135   20.808197   20.010470 H          1 MOL1         0.0971
       4    H3      22.277226   19.944977   20.103682 H          1 MOL1         0.0971
       5    C2      20.719064   19.101547   21.385930 C.3        1 MOL1        -0.1385
       6    H4      21.037270   19.694104   22.253525 H          1 MOL1         0.0960
       7    H5      21.213321   18.122967   21.460905 H          1 MOL1         0.0960
       8    C3      19.184637   18.916969   21.409333 C.3        1 MOL1        -0.1409
       9    H6      18.699204   19.902508   21.426192 H          1 MOL1         0.0960
      10    H7      18.868989   18.437759   20.472294 H          1 MOL1         0.0960
      11    C4      18.658490   18.062952   22.591871 C.3        1 MOL1        -0.1409
      12    H8      19.051806   17.039423   22.522571 H          1 MOL1         0.0960
      13    H9      17.570230   17.969328   22.471994 H          1 MOL1         0.0960
      14    C5      18.939567   18.655365   23.997537 C.3        1 MOL1        -0.1409
      15    H10     18.988659   19.750551   23.936350 H          1 MOL1         0.0960
      16    H11     18.084199   18.425704   24.648123 H          1 MOL1         0.0960
      17    C6      20.216070   18.081019   24.663621 C.3        1 MOL1        -0.1450
      18    H12     21.102965   18.277157   24.050742 H          1 MOL1         0.0960
      19    H13     20.125271   16.988949   24.733726 H          1 MOL1         0.0960
      20    C7      20.445590   18.638877   26.081290 C.3        1 MOL1         0.0172
      21    H14     19.563674   18.449011   26.699000 H          1 MOL1         0.0934
      22    H15     21.298131   18.129040   26.538221 H          1 MOL1         0.0934
      23    N1      20.730299   20.127750   26.111804 N.4        1 MOL1        -0.5956
      24    H16     20.887520   20.465129   27.067724 H          1 MOL1         0.3624
      25    H17     19.951690   20.670997   25.726467 H          1 MOL1         0.3624
      26    H18     21.566158   20.366974   25.568774 H          1 MOL1         0.3624
@<TRIPOS>BOND
    1     1     2    1
    2     1     3    1
    3     1     4    1
    4     1     5    1
    5     5     6    1
    6     5     7    1
    7     5     8    1
    8     8     9    1
    9     8    10    1
   10     8    11    1
   11    11    12    1
   12    11    13    1
   13    11    14    1
   14    14    15    1
   15    14    16    1
   16    14    17    1
   17    17    18    1
   18    17    19    1
   19    17    20    1
   20    20    21    1
   21    20    22    1
   22    20    23    1
   23    23    24    1
   24    23    25    1
   25    23    26    1
@<TRIPOS>SUBSTRUCTURE
       1 MOL1            1 RESIDUE      1      MOL     
@<SCITEGIC>MOL_PROPERTY
VM2 Rank
SciTegic.value.IntegerValue
141

@<SCITEGIC>MOL_PROPERTY
Conf_Id
SciTegic.value.IntegerValue
560

@<SCITEGIC>MOL_PROPERTY
Probability
SciTegic.value.DoubleValue
0.01

@<SCITEGIC>MOL_PROPERTY
Sum Probability
SciTegic.value.DoubleValue
99.81

@<SCITEGIC>MOL_PROPERTY
Delta G
SciTegic.value.DoubleValue
3.864

@<SCITEGIC>MOL_PROPERTY
G
SciTegic.value.DoubleValue
52.125

@<SCITEGIC>MOL_PROPERTY
E
SciTegic.value.DoubleValue
19.308

@<SCITEGIC>MOL_PROPERTY
-TS
SciTegic.value.DoubleValue
32.817

@<SCITEGIC>MOL_PROPERTY
U+W
SciTegic.value.DoubleValue
-2.154

@<SCITEGIC>MOL_PROPERTY
U
SciTegic.value.DoubleValue
51.952

@<SCITEGIC>MOL_PROPERTY
W
SciTegic.value.DoubleValue
-54.106

@<SCITEGIC>MOL_PROPERTY
W(PB)
SciTegic.value.DoubleValue
-56.392

@<SCITEGIC>MOL_PROPERTY
W(SA)
SciTegic.value.DoubleValue
2.286

@<SCITEGIC>MOL_PROPERTY
Valence
SciTegic.value.DoubleValue
5.280

@<SCITEGIC>MOL_PROPERTY
Coulomb
SciTegic.value.DoubleValue
45.973

@<SCITEGIC>MOL_PROPERTY
VdW
SciTegic.value.DoubleValue
0.700

@<SCITEGIC>MOL_PROPERTY
VdW6
SciTegic.value.DoubleValue
-7.998

@<SCITEGIC>MOL_PROPERTY
VdW12
SciTegic.value.DoubleValue
8.698

@<SCITEGIC>MOL_PROPERTY
Bond
SciTegic.value.DoubleValue
0.241

@<SCITEGIC>MOL_PROPERTY
Angle
SciTegic.value.DoubleValue
1.239

@<SCITEGIC>MOL_PROPERTY
Pdih
SciTegic.value.DoubleValue
3.799

@<SCITEGIC>MOL_PROPERTY
Idih
SciTegic.value.DoubleValue
0.000

@<SCITEGIC>MOL_PROPERTY
Tether
SciTegic.value.DoubleValue
0.000

@<TRIPOS>MOLECULE
guest-s14_vm2.mol2 : vm2 ligand conformer 142
          26          25           1
SMALL
USER_CHARGES
 
@<TRIPOS>ATOM
       1    C1      19.065306   18.376449   20.223073 C.3        1 MOL1        -0.2400
       2    H1      18.849128   17.690373   21.051306 H          1 MOL1         0.0971
       3    H2      18.377786   19.229762   20.286364 H          1 MOL1         0.0971
       4    H3      18.850707   17.840882   19.289271 H          1 MOL1         0.0971
       5    C2      20.536998   18.843453   20.251113 C.3        1 MOL1        -0.1385
       6    H4      20.749827   19.393233   19.323641 H          1 MOL1         0.0960
       7    H5      21.197913   17.965476   20.242541 H          1 MOL1         0.0960
       8    C3      20.896004   19.751785   21.454827 C.3        1 MOL1        -0.1409
       9    H6      21.944634   20.057916   21.336143 H          1 MOL1         0.0960
      10    H7      20.310526   20.680659   21.415286 H          1 MOL1         0.0960
      11    C4      20.743528   19.077332   22.843170 C.3        1 MOL1        -0.1409
      12    H8      21.550878   19.443588   23.491308 H          1 MOL1         0.0960
      13    H9      20.894119   17.992820   22.752400 H          1 MOL1         0.0960
      14    C5      19.384991   19.379750   23.526423 C.3        1 MOL1        -0.1409
      15    H10     19.296693   20.460303   23.705353 H          1 MOL1         0.0960
      16    H11     18.558744   19.114023   22.856481 H          1 MOL1         0.0960
      17    C6      19.197042   18.621838   24.861622 C.3        1 MOL1        -0.1450
      18    H12     19.256250   17.539985   24.682573 H          1 MOL1         0.0960
      19    H13     18.188035   18.822075   25.245980 H          1 MOL1         0.0960
      20    C7      20.231430   19.027522   25.928266 C.3        1 MOL1         0.0172
      21    H14     21.238782   18.791837   25.575557 H          1 MOL1         0.0934
      22    H15     20.172038   20.104438   26.107430 H          1 MOL1         0.0934
      23    N1      20.025701   18.320872   27.252507 N.4        1 MOL1        -0.5956
      24    H16     20.096035   17.302474   27.157150 H          1 MOL1         0.3624
      25    H17     19.104576   18.523448   27.654605 H          1 MOL1         0.3624
      26    H18     20.724021   18.604632   27.948356 H          1 MOL1         0.3624
@<TRIPOS>BOND
    1     1     2    1
    2     1     3    1
    3     1     4    1
    4     1     5    1
    5     5     6    1
    6     5     7    1
    7     5     8    1
    8     8     9    1
    9     8    10    1
   10     8    11    1
   11    11    12    1
   12    11    13    1
   13    11    14    1
   14    14    15    1
   15    14    16    1
   16    14    17    1
   17    17    18    1
   18    17    19    1
   19    17    20    1
   20    20    21    1
   21    20    22    1
   22    20    23    1
   23    23    24    1
   24    23    25    1
   25    23    26    1
@<TRIPOS>SUBSTRUCTURE
       1 MOL1            1 RESIDUE      1      MOL     
@<SCITEGIC>MOL_PROPERTY
VM2 Rank
SciTegic.value.IntegerValue
142

@<SCITEGIC>MOL_PROPERTY
Conf_Id
SciTegic.value.IntegerValue
173

@<SCITEGIC>MOL_PROPERTY
Probability
SciTegic.value.DoubleValue
0.01

@<SCITEGIC>MOL_PROPERTY
Sum Probability
SciTegic.value.DoubleValue
99.82

@<SCITEGIC>MOL_PROPERTY
Delta G
SciTegic.value.DoubleValue
3.923

@<SCITEGIC>MOL_PROPERTY
G
SciTegic.value.DoubleValue
52.185

@<SCITEGIC>MOL_PROPERTY
E
SciTegic.value.DoubleValue
19.360

@<SCITEGIC>MOL_PROPERTY
-TS
SciTegic.value.DoubleValue
32.824

@<SCITEGIC>MOL_PROPERTY
U+W
SciTegic.value.DoubleValue
-2.101

@<SCITEGIC>MOL_PROPERTY
U
SciTegic.value.DoubleValue
51.310

@<SCITEGIC>MOL_PROPERTY
W
SciTegic.value.DoubleValue
-53.412

@<SCITEGIC>MOL_PROPERTY
W(PB)
SciTegic.value.DoubleValue
-55.695

@<SCITEGIC>MOL_PROPERTY
W(SA)
SciTegic.value.DoubleValue
2.284

@<SCITEGIC>MOL_PROPERTY
Valence
SciTegic.value.DoubleValue
5.462

@<SCITEGIC>MOL_PROPERTY
Coulomb
SciTegic.value.DoubleValue
45.075

@<SCITEGIC>MOL_PROPERTY
VdW
SciTegic.value.DoubleValue
0.773

@<SCITEGIC>MOL_PROPERTY
VdW6
SciTegic.value.DoubleValue
-7.908

@<SCITEGIC>MOL_PROPERTY
VdW12
SciTegic.value.DoubleValue
8.681

@<SCITEGIC>MOL_PROPERTY
Bond
SciTegic.value.DoubleValue
0.240

@<SCITEGIC>MOL_PROPERTY
Angle
SciTegic.value.DoubleValue
1.238

@<SCITEGIC>MOL_PROPERTY
Pdih
SciTegic.value.DoubleValue
3.984

@<SCITEGIC>MOL_PROPERTY
Idih
SciTegic.value.DoubleValue
0.000

@<SCITEGIC>MOL_PROPERTY
Tether
SciTegic.value.DoubleValue
0.000

@<TRIPOS>MOLECULE
guest-s14_vm2.mol2 : vm2 ligand conformer 143
          26          25           1
SMALL
USER_CHARGES
 
@<TRIPOS>ATOM
       1    C1      18.624770   19.311603   20.679791 C.3        1 MOL1        -0.2400
       2    H1      18.274772   19.599166   21.679004 H          1 MOL1         0.0971
       3    H2      18.251919   20.062047   19.970810 H          1 MOL1         0.0971
       4    H3      18.169237   18.347500   20.419171 H          1 MOL1         0.0971
       5    C2      20.167050   19.231098   20.621243 C.3        1 MOL1        -0.1385
       6    H4      20.599553   20.199279   20.907235 H          1 MOL1         0.0960
       7    H5      20.472909   19.061225   19.579490 H          1 MOL1         0.0960
       8    C3      20.759359   18.099650   21.499694 C.3        1 MOL1        -0.1409
       9    H6      20.400739   17.131984   21.122662 H          1 MOL1         0.0960
      10    H7      21.850422   18.086121   21.370971 H          1 MOL1         0.0960
      11    C4      20.431006   18.198321   23.011664 C.3        1 MOL1        -0.1409
      12    H8      20.894351   17.343030   23.522398 H          1 MOL1         0.0960
      13    H9      19.348469   18.097274   23.151194 H          1 MOL1         0.0960
      14    C5      20.931427   19.511791   23.662453 C.3        1 MOL1        -0.1409
      15    H10     21.973777   19.682699   23.360034 H          1 MOL1         0.0960
      16    H11     20.354828   20.362341   23.274857 H          1 MOL1         0.0960
      17    C6      20.869410   19.521890   25.211171 C.3        1 MOL1        -0.1450
      18    H12     21.332786   20.454230   25.560239 H          1 MOL1         0.0960
      19    H13     21.480589   18.708620   25.624537 H          1 MOL1         0.0960
      20    C7      19.442197   19.460634   25.793971 C.3        1 MOL1         0.0172
      21    H14     19.458526   19.848409   26.816151 H          1 MOL1         0.0934
      22    H15     18.772645   20.091237   25.202935 H          1 MOL1         0.0934
      23    N1      18.855780   18.064013   25.861014 N.4        1 MOL1        -0.5956
      24    H16     17.908023   18.068236   26.253578 H          1 MOL1         0.3624
      25    H17     19.420288   17.443924   26.450825 H          1 MOL1         0.3624
      26    H18     18.798020   17.631362   24.935057 H          1 MOL1         0.3624
@<TRIPOS>BOND
    1     1     2    1
    2     1     3    1
    3     1     4    1
    4     1     5    1
    5     5     6    1
    6     5     7    1
    7     5     8    1
    8     8     9    1
    9     8    10    1
   10     8    11    1
   11    11    12    1
   12    11    13    1
   13    11    14    1
   14    14    15    1
   15    14    16    1
   16    14    17    1
   17    17    18    1
   18    17    19    1
   19    17    20    1
   20    20    21    1
   21    20    22    1
   22    20    23    1
   23    23    24    1
   24    23    25    1
   25    23    26    1
@<TRIPOS>SUBSTRUCTURE
       1 MOL1            1 RESIDUE      1      MOL     
@<SCITEGIC>MOL_PROPERTY
VM2 Rank
SciTegic.value.IntegerValue
143

@<SCITEGIC>MOL_PROPERTY
Conf_Id
SciTegic.value.IntegerValue
447

@<SCITEGIC>MOL_PROPERTY
Probability
SciTegic.value.DoubleValue
0.01

@<SCITEGIC>MOL_PROPERTY
Sum Probability
SciTegic.value.DoubleValue
99.83

@<SCITEGIC>MOL_PROPERTY
Delta G
SciTegic.value.DoubleValue
3.944

@<SCITEGIC>MOL_PROPERTY
G
SciTegic.value.DoubleValue
52.205

@<SCITEGIC>MOL_PROPERTY
E
SciTegic.value.DoubleValue
19.260

@<SCITEGIC>MOL_PROPERTY
-TS
SciTegic.value.DoubleValue
32.945

@<SCITEGIC>MOL_PROPERTY
U+W
SciTegic.value.DoubleValue
-2.202

@<SCITEGIC>MOL_PROPERTY
U
SciTegic.value.DoubleValue
51.945

@<SCITEGIC>MOL_PROPERTY
W
SciTegic.value.DoubleValue
-54.147

@<SCITEGIC>MOL_PROPERTY
W(PB)
SciTegic.value.DoubleValue
-56.366

@<SCITEGIC>MOL_PROPERTY
W(SA)
SciTegic.value.DoubleValue
2.219

@<SCITEGIC>MOL_PROPERTY
Valence
SciTegic.value.DoubleValue
4.646

@<SCITEGIC>MOL_PROPERTY
Coulomb
SciTegic.value.DoubleValue
46.716

@<SCITEGIC>MOL_PROPERTY
VdW
SciTegic.value.DoubleValue
0.583

@<SCITEGIC>MOL_PROPERTY
VdW6
SciTegic.value.DoubleValue
-8.945

@<SCITEGIC>MOL_PROPERTY
VdW12
SciTegic.value.DoubleValue
9.528

@<SCITEGIC>MOL_PROPERTY
Bond
SciTegic.value.DoubleValue
0.266

@<SCITEGIC>MOL_PROPERTY
Angle
SciTegic.value.DoubleValue
1.504

@<SCITEGIC>MOL_PROPERTY
Pdih
SciTegic.value.DoubleValue
2.877

@<SCITEGIC>MOL_PROPERTY
Idih
SciTegic.value.DoubleValue
0.000

@<SCITEGIC>MOL_PROPERTY
Tether
SciTegic.value.DoubleValue
0.000

@<TRIPOS>MOLECULE
guest-s14_vm2.mol2 : vm2 ligand conformer 144
          26          25           1
SMALL
USER_CHARGES
 
@<TRIPOS>ATOM
       1    C1      19.935578   17.499887   20.329778 C.3        1 MOL1        -0.2400
       2    H1      20.315960   16.470250   20.316475 H          1 MOL1         0.0971
       3    H2      18.838980   17.454409   20.305093 H          1 MOL1         0.0971
       4    H3      20.277937   17.997199   19.412888 H          1 MOL1         0.0971
       5    C2      20.431096   18.247759   21.585545 C.3        1 MOL1        -0.1385
       6    H4      21.529965   18.247440   21.596466 H          1 MOL1         0.0960
       7    H5      20.108283   17.697516   22.476422 H          1 MOL1         0.0960
       8    C3      19.911108   19.705086   21.622314 C.3        1 MOL1        -0.1409
       9    H6      20.248296   20.208456   20.705586 H          1 MOL1         0.0960
      10    H7      18.813086   19.720221   21.588732 H          1 MOL1         0.0960
      11    C4      20.419431   20.522222   22.839161 C.3        1 MOL1        -0.1409
      12    H8      20.553558   21.562641   22.512070 H          1 MOL1         0.0960
      13    H9      21.419663   20.182591   23.139654 H          1 MOL1         0.0960
      14    C5      19.457352   20.546049   24.057615 C.3        1 MOL1        -0.1409
      15    H10     19.864694   21.235912   24.809708 H          1 MOL1         0.0960
      16    H11     18.496025   20.977746   23.746655 H          1 MOL1         0.0960
      17    C6      19.196656   19.178825   24.733244 C.3        1 MOL1        -0.1450
      18    H12     18.674874   18.510347   24.037536 H          1 MOL1         0.0960
      19    H13     18.514337   19.328914   25.580417 H          1 MOL1         0.0960
      20    C7      20.488449   18.513977   25.244466 C.3        1 MOL1         0.0172
      21    H14     21.170767   18.339964   24.408584 H          1 MOL1         0.0934
      22    H15     20.983726   19.175725   25.960098 H          1 MOL1         0.0934
      23    N1      20.241329   17.185195   25.928878 N.4        1 MOL1        -0.5956
      24    H16     21.113694   16.760000   26.261282 H          1 MOL1         0.3624
      25    H17     19.798420   16.507055   25.300589 H          1 MOL1         0.3624
      26    H18     19.628967   17.284989   26.745104 H          1 MOL1         0.3624
@<TRIPOS>BOND
    1     1     2    1
    2     1     3    1
    3     1     4    1
    4     1     5    1
    5     5     6    1
    6     5     7    1
    7     5     8    1
    8     8     9    1
    9     8    10    1
   10     8    11    1
   11    11    12    1
   12    11    13    1
   13    11    14    1
   14    14    15    1
   15    14    16    1
   16    14    17    1
   17    17    18    1
   18    17    19    1
   19    17    20    1
   20    20    21    1
   21    20    22    1
   22    20    23    1
   23    23    24    1
   24    23    25    1
   25    23    26    1
@<TRIPOS>SUBSTRUCTURE
       1 MOL1            1 RESIDUE      1      MOL     
@<SCITEGIC>MOL_PROPERTY
VM2 Rank
SciTegic.value.IntegerValue
144

@<SCITEGIC>MOL_PROPERTY
Conf_Id
SciTegic.value.IntegerValue
1084

@<SCITEGIC>MOL_PROPERTY
Probability
SciTegic.value.DoubleValue
0.01

@<SCITEGIC>MOL_PROPERTY
Sum Probability
SciTegic.value.DoubleValue
99.83

@<SCITEGIC>MOL_PROPERTY
Delta G
SciTegic.value.DoubleValue
4.015

@<SCITEGIC>MOL_PROPERTY
G
SciTegic.value.DoubleValue
52.276

@<SCITEGIC>MOL_PROPERTY
E
SciTegic.value.DoubleValue
19.190

@<SCITEGIC>MOL_PROPERTY
-TS
SciTegic.value.DoubleValue
33.086

@<SCITEGIC>MOL_PROPERTY
U+W
SciTegic.value.DoubleValue
-2.272

@<SCITEGIC>MOL_PROPERTY
U
SciTegic.value.DoubleValue
52.111

@<SCITEGIC>MOL_PROPERTY
W
SciTegic.value.DoubleValue
-54.383

@<SCITEGIC>MOL_PROPERTY
W(PB)
SciTegic.value.DoubleValue
-56.638

@<SCITEGIC>MOL_PROPERTY
W(SA)
SciTegic.value.DoubleValue
2.255

@<SCITEGIC>MOL_PROPERTY
Valence
SciTegic.value.DoubleValue
5.498

@<SCITEGIC>MOL_PROPERTY
Coulomb
SciTegic.value.DoubleValue
46.317

@<SCITEGIC>MOL_PROPERTY
VdW
SciTegic.value.DoubleValue
0.296

@<SCITEGIC>MOL_PROPERTY
VdW6
SciTegic.value.DoubleValue
-8.628

@<SCITEGIC>MOL_PROPERTY
VdW12
SciTegic.value.DoubleValue
8.924

@<SCITEGIC>MOL_PROPERTY
Bond
SciTegic.value.DoubleValue
0.245

@<SCITEGIC>MOL_PROPERTY
Angle
SciTegic.value.DoubleValue
1.578

@<SCITEGIC>MOL_PROPERTY
Pdih
SciTegic.value.DoubleValue
3.676

@<SCITEGIC>MOL_PROPERTY
Idih
SciTegic.value.DoubleValue
0.000

@<SCITEGIC>MOL_PROPERTY
Tether
SciTegic.value.DoubleValue
0.000

@<TRIPOS>MOLECULE
guest-s14_vm2.mol2 : vm2 ligand conformer 145
          26          25           1
SMALL
USER_CHARGES
 
@<TRIPOS>ATOM
       1    C1      18.430811   19.357433   21.286021 C.3        1 MOL1        -0.2400
       2    H1      17.872071   18.419891   21.402978 H          1 MOL1         0.0971
       3    H2      18.510552   19.830845   22.270083 H          1 MOL1         0.0971
       4    H3      17.833902   20.022795   20.648962 H          1 MOL1         0.0971
       5    C2      19.815770   19.100979   20.647690 C.3        1 MOL1        -0.1385
       6    H4      20.354890   20.049003   20.513352 H          1 MOL1         0.0960
       7    H5      19.650280   18.702678   19.636816 H          1 MOL1         0.0960
       8    C3      20.690975   18.089798   21.433234 C.3        1 MOL1        -0.1409
       9    H6      20.061792   17.333003   21.919672 H          1 MOL1         0.0960
      10    H7      21.296050   17.534491   20.703261 H          1 MOL1         0.0960
      11    C4      21.676156   18.726873   22.450596 C.3        1 MOL1        -0.1409
      12    H8      22.351055   19.405601   21.911179 H          1 MOL1         0.0960
      13    H9      22.317859   17.933791   22.858543 H          1 MOL1         0.0960
      14    C5      21.035493   19.499465   23.630201 C.3        1 MOL1        -0.1409
      15    H10     21.842841   19.925605   24.241824 H          1 MOL1         0.0960
      16    H11     20.466195   20.357416   23.251225 H          1 MOL1         0.0960
      17    C6      20.142383   18.616921   24.533669 C.3        1 MOL1        -0.1450
      18    H12     20.725425   17.765154   24.908234 H          1 MOL1         0.0960
      19    H13     19.306279   18.204467   23.955907 H          1 MOL1         0.0960
      20    C7      19.584666   19.418027   25.722996 C.3        1 MOL1         0.0172
      21    H14     20.410736   19.815121   26.319124 H          1 MOL1         0.0934
      22    H15     18.991085   20.258922   25.354233 H          1 MOL1         0.0934
      23    N1      18.704746   18.589505   26.636593 N.4        1 MOL1        -0.5956
      24    H16     19.213012   17.795200   27.038995 H          1 MOL1         0.3624
      25    H17     17.891517   18.208554   26.142018 H          1 MOL1         0.3624
      26    H18     18.344603   19.142163   27.422246 H          1 MOL1         0.3624
@<TRIPOS>BOND
    1     1     2    1
    2     1     3    1
    3     1     4    1
    4     1     5    1
    5     5     6    1
    6     5     7    1
    7     5     8    1
    8     8     9    1
    9     8    10    1
   10     8    11    1
   11    11    12    1
   12    11    13    1
   13    11    14    1
   14    14    15    1
   15    14    16    1
   16    14    17    1
   17    17    18    1
   18    17    19    1
   19    17    20    1
   20    20    21    1
   21    20    22    1
   22    20    23    1
   23    23    24    1
   24    23    25    1
   25    23    26    1
@<TRIPOS>SUBSTRUCTURE
       1 MOL1            1 RESIDUE      1      MOL     
@<SCITEGIC>MOL_PROPERTY
VM2 Rank
SciTegic.value.IntegerValue
145

@<SCITEGIC>MOL_PROPERTY
Conf_Id
SciTegic.value.IntegerValue
459

@<SCITEGIC>MOL_PROPERTY
Probability
SciTegic.value.DoubleValue
0.01

@<SCITEGIC>MOL_PROPERTY
Sum Probability
SciTegic.value.DoubleValue
99.84

@<SCITEGIC>MOL_PROPERTY
Delta G
SciTegic.value.DoubleValue
4.050

@<SCITEGIC>MOL_PROPERTY
G
SciTegic.value.DoubleValue
52.312

@<SCITEGIC>MOL_PROPERTY
E
SciTegic.value.DoubleValue
19.140

@<SCITEGIC>MOL_PROPERTY
-TS
SciTegic.value.DoubleValue
33.172

@<SCITEGIC>MOL_PROPERTY
U+W
SciTegic.value.DoubleValue
-2.322

@<SCITEGIC>MOL_PROPERTY
U
SciTegic.value.DoubleValue
51.692

@<SCITEGIC>MOL_PROPERTY
W
SciTegic.value.DoubleValue
-54.014

@<SCITEGIC>MOL_PROPERTY
W(PB)
SciTegic.value.DoubleValue
-56.248

@<SCITEGIC>MOL_PROPERTY
W(SA)
SciTegic.value.DoubleValue
2.234

@<SCITEGIC>MOL_PROPERTY
Valence
SciTegic.value.DoubleValue
5.738

@<SCITEGIC>MOL_PROPERTY
Coulomb
SciTegic.value.DoubleValue
45.543

@<SCITEGIC>MOL_PROPERTY
VdW
SciTegic.value.DoubleValue
0.411

@<SCITEGIC>MOL_PROPERTY
VdW6
SciTegic.value.DoubleValue
-8.566

@<SCITEGIC>MOL_PROPERTY
VdW12
SciTegic.value.DoubleValue
8.977

@<SCITEGIC>MOL_PROPERTY
Bond
SciTegic.value.DoubleValue
0.261

@<SCITEGIC>MOL_PROPERTY
Angle
SciTegic.value.DoubleValue
1.836

@<SCITEGIC>MOL_PROPERTY
Pdih
SciTegic.value.DoubleValue
3.641

@<SCITEGIC>MOL_PROPERTY
Idih
SciTegic.value.DoubleValue
0.000

@<SCITEGIC>MOL_PROPERTY
Tether
SciTegic.value.DoubleValue
0.000

@<TRIPOS>MOLECULE
guest-s14_vm2.mol2 : vm2 ligand conformer 146
          26          25           1
SMALL
USER_CHARGES
 
@<TRIPOS>ATOM
       1    C1      19.694739   19.705746   19.815829 C.3        1 MOL1        -0.2400
       2    H1      20.760611   19.961843   19.850285 H          1 MOL1         0.0971
       3    H2      19.438618   19.506408   18.767212 H          1 MOL1         0.0971
       4    H3      19.119283   20.582376   20.140432 H          1 MOL1         0.0971
       5    C2      19.373953   18.474158   20.693282 C.3        1 MOL1        -0.1385
       6    H4      19.985556   17.619515   20.371895 H          1 MOL1         0.0960
       7    H5      18.327749   18.184622   20.521682 H          1 MOL1         0.0960
       8    C3      19.575050   18.723778   22.207812 C.3        1 MOL1        -0.1409
       9    H6      18.981348   19.594194   22.518853 H          1 MOL1         0.0960
      10    H7      19.172126   17.855667   22.743880 H          1 MOL1         0.0960
      11    C4      21.057582   18.922936   22.609621 C.3        1 MOL1        -0.1409
      12    H8      21.501419   19.713950   21.992219 H          1 MOL1         0.0960
      13    H9      21.621589   18.007583   22.383769 H          1 MOL1         0.0960
      14    C5      21.276104   19.310557   24.095358 C.3        1 MOL1        -0.1409
      15    H10     22.354628   19.464419   24.238512 H          1 MOL1         0.0960
      16    H11     20.812401   20.284197   24.299763 H          1 MOL1         0.0960
      17    C6      20.804771   18.251649   25.127917 C.3        1 MOL1        -0.1450
      18    H12     21.410499   18.348481   26.038755 H          1 MOL1         0.0960
      19    H13     21.004135   17.243643   24.740759 H          1 MOL1         0.0960
      20    C7      19.318219   18.364043   25.527823 C.3        1 MOL1         0.0172
      21    H14     18.680574   18.306491   24.644067 H          1 MOL1         0.0934
      22    H15     19.059386   17.530322   26.186169 H          1 MOL1         0.0934
      23    N1      18.980581   19.646132   26.263358 N.4        1 MOL1        -0.5956
      24    H16     19.167088   20.473934   25.689293 H          1 MOL1         0.3624
      25    H17     19.527213   19.745515   27.124911 H          1 MOL1         0.3624
      26    H18     17.991014   19.682382   26.531008 H          1 MOL1         0.3624
@<TRIPOS>BOND
    1     1     2    1
    2     1     3    1
    3     1     4    1
    4     1     5    1
    5     5     6    1
    6     5     7    1
    7     5     8    1
    8     8     9    1
    9     8    10    1
   10     8    11    1
   11    11    12    1
   12    11    13    1
   13    11    14    1
   14    14    15    1
   15    14    16    1
   16    14    17    1
   17    17    18    1
   18    17    19    1
   19    17    20    1
   20    20    21    1
   21    20    22    1
   22    20    23    1
   23    23    24    1
   24    23    25    1
   25    23    26    1
@<TRIPOS>SUBSTRUCTURE
       1 MOL1            1 RESIDUE      1      MOL     
@<SCITEGIC>MOL_PROPERTY
VM2 Rank
SciTegic.value.IntegerValue
146

@<SCITEGIC>MOL_PROPERTY
Conf_Id
SciTegic.value.IntegerValue
216

@<SCITEGIC>MOL_PROPERTY
Probability
SciTegic.value.DoubleValue
0.01

@<SCITEGIC>MOL_PROPERTY
Sum Probability
SciTegic.value.DoubleValue
99.85

@<SCITEGIC>MOL_PROPERTY
Delta G
SciTegic.value.DoubleValue
4.093

@<SCITEGIC>MOL_PROPERTY
G
SciTegic.value.DoubleValue
52.355

@<SCITEGIC>MOL_PROPERTY
E
SciTegic.value.DoubleValue
19.548

@<SCITEGIC>MOL_PROPERTY
-TS
SciTegic.value.DoubleValue
32.807

@<SCITEGIC>MOL_PROPERTY
U+W
SciTegic.value.DoubleValue
-1.914

@<SCITEGIC>MOL_PROPERTY
U
SciTegic.value.DoubleValue
52.150

@<SCITEGIC>MOL_PROPERTY
W
SciTegic.value.DoubleValue
-54.064

@<SCITEGIC>MOL_PROPERTY
W(PB)
SciTegic.value.DoubleValue
-56.339

@<SCITEGIC>MOL_PROPERTY
W(SA)
SciTegic.value.DoubleValue
2.275

@<SCITEGIC>MOL_PROPERTY
Valence
SciTegic.value.DoubleValue
5.368

@<SCITEGIC>MOL_PROPERTY
Coulomb
SciTegic.value.DoubleValue
45.965

@<SCITEGIC>MOL_PROPERTY
VdW
SciTegic.value.DoubleValue
0.817

@<SCITEGIC>MOL_PROPERTY
VdW6
SciTegic.value.DoubleValue
-8.546

@<SCITEGIC>MOL_PROPERTY
VdW12
SciTegic.value.DoubleValue
9.364

@<SCITEGIC>MOL_PROPERTY
Bond
SciTegic.value.DoubleValue
0.273

@<SCITEGIC>MOL_PROPERTY
Angle
SciTegic.value.DoubleValue
1.632

@<SCITEGIC>MOL_PROPERTY
Pdih
SciTegic.value.DoubleValue
3.464

@<SCITEGIC>MOL_PROPERTY
Idih
SciTegic.value.DoubleValue
0.000

@<SCITEGIC>MOL_PROPERTY
Tether
SciTegic.value.DoubleValue
0.000

@<TRIPOS>MOLECULE
guest-s14_vm2.mol2 : vm2 ligand conformer 147
          26          25           1
SMALL
USER_CHARGES
 
@<TRIPOS>ATOM
       1    C1      20.019899   19.947591   20.294700 C.3        1 MOL1        -0.2400
       2    H1      20.223231   20.968764   19.947306 H          1 MOL1         0.0971
       3    H2      20.259099   19.259343   19.473712 H          1 MOL1         0.0971
       4    H3      18.944709   19.876457   20.501022 H          1 MOL1         0.0971
       5    C2      20.859297   19.625881   21.551562 C.3        1 MOL1        -0.1385
       6    H4      20.590731   20.318941   22.358974 H          1 MOL1         0.0960
       7    H5      21.917968   19.818225   21.328415 H          1 MOL1         0.0960
       8    C3      20.713437   18.157496   22.026700 C.3        1 MOL1        -0.1409
       9    H6      21.068079   17.494477   21.225639 H          1 MOL1         0.0960
      10    H7      21.390445   17.975619   22.870487 H          1 MOL1         0.0960
      11    C4      19.273920   17.728220   22.414488 C.3        1 MOL1        -0.1409
      12    H8      19.296179   16.677050   22.733078 H          1 MOL1         0.0960
      13    H9      18.644683   17.744000   21.514687 H          1 MOL1         0.0960
      14    C5      18.578453   18.570754   23.517934 C.3        1 MOL1        -0.1409
      15    H10     18.484287   19.619306   23.205629 H          1 MOL1         0.0960
      16    H11     17.547905   18.200581   23.608596 H          1 MOL1         0.0960
      17    C6      19.235998   18.482578   24.918666 C.3        1 MOL1        -0.1450
      18    H12     19.577514   17.456730   25.110201 H          1 MOL1         0.0960
      19    H13     18.470851   18.700367   25.675686 H          1 MOL1         0.0960
      20    C7      20.397117   19.475648   25.114955 C.3        1 MOL1         0.0172
      21    H14     21.192338   19.274590   24.395176 H          1 MOL1         0.0934
      22    H15     20.038009   20.495383   24.952257 H          1 MOL1         0.0934
      23    N1      21.002878   19.410831   26.501995 N.4        1 MOL1        -0.5956
      24    H16     20.313089   19.623041   27.230207 H          1 MOL1         0.3624
      25    H17     21.771213   20.081141   26.614364 H          1 MOL1         0.3624
      26    H18     21.384058   18.481951   26.709313 H          1 MOL1         0.3624
@<TRIPOS>BOND
    1     1     2    1
    2     1     3    1
    3     1     4    1
    4     1     5    1
    5     5     6    1
    6     5     7    1
    7     5     8    1
    8     8     9    1
    9     8    10    1
   10     8    11    1
   11    11    12    1
   12    11    13    1
   13    11    14    1
   14    14    15    1
   15    14    16    1
   16    14    17    1
   17    17    18    1
   18    17    19    1
   19    17    20    1
   20    20    21    1
   21    20    22    1
   22    20    23    1
   23    23    24    1
   24    23    25    1
   25    23    26    1
@<TRIPOS>SUBSTRUCTURE
       1 MOL1            1 RESIDUE      1      MOL     
@<SCITEGIC>MOL_PROPERTY
VM2 Rank
SciTegic.value.IntegerValue
147

@<SCITEGIC>MOL_PROPERTY
Conf_Id
SciTegic.value.IntegerValue
1082

@<SCITEGIC>MOL_PROPERTY
Probability
SciTegic.value.DoubleValue
0.01

@<SCITEGIC>MOL_PROPERTY
Sum Probability
SciTegic.value.DoubleValue
99.86

@<SCITEGIC>MOL_PROPERTY
Delta G
SciTegic.value.DoubleValue
4.112

@<SCITEGIC>MOL_PROPERTY
G
SciTegic.value.DoubleValue
52.373

@<SCITEGIC>MOL_PROPERTY
E
SciTegic.value.DoubleValue
18.962

@<SCITEGIC>MOL_PROPERTY
-TS
SciTegic.value.DoubleValue
33.411

@<SCITEGIC>MOL_PROPERTY
U+W
SciTegic.value.DoubleValue
-2.499

@<SCITEGIC>MOL_PROPERTY
U
SciTegic.value.DoubleValue
51.820

@<SCITEGIC>MOL_PROPERTY
W
SciTegic.value.DoubleValue
-54.320

@<SCITEGIC>MOL_PROPERTY
W(PB)
SciTegic.value.DoubleValue
-56.541

@<SCITEGIC>MOL_PROPERTY
W(SA)
SciTegic.value.DoubleValue
2.221

@<SCITEGIC>MOL_PROPERTY
Valence
SciTegic.value.DoubleValue
5.497

@<SCITEGIC>MOL_PROPERTY
Coulomb
SciTegic.value.DoubleValue
46.010

@<SCITEGIC>MOL_PROPERTY
VdW
SciTegic.value.DoubleValue
0.313

@<SCITEGIC>MOL_PROPERTY
VdW6
SciTegic.value.DoubleValue
-9.491

@<SCITEGIC>MOL_PROPERTY
VdW12
SciTegic.value.DoubleValue
9.804

@<SCITEGIC>MOL_PROPERTY
Bond
SciTegic.value.DoubleValue
0.285

@<SCITEGIC>MOL_PROPERTY
Angle
SciTegic.value.DoubleValue
2.062

@<SCITEGIC>MOL_PROPERTY
Pdih
SciTegic.value.DoubleValue
3.150

@<SCITEGIC>MOL_PROPERTY
Idih
SciTegic.value.DoubleValue
0.000

@<SCITEGIC>MOL_PROPERTY
Tether
SciTegic.value.DoubleValue
0.000

@<TRIPOS>MOLECULE
guest-s14_vm2.mol2 : vm2 ligand conformer 148
          26          25           1
SMALL
USER_CHARGES
 
@<TRIPOS>ATOM
       1    C1      20.863327   17.627520   20.962539 C.3        1 MOL1        -0.2400
       2    H1      21.493871   17.821534   21.838407 H          1 MOL1         0.0971
       3    H2      20.771181   16.539133   20.854337 H          1 MOL1         0.0971
       4    H3      21.385186   18.009656   20.075664 H          1 MOL1         0.0971
       5    C2      19.468189   18.277714   21.105578 C.3        1 MOL1        -0.1385
       6    H4      18.946707   17.873862   21.982484 H          1 MOL1         0.0960
       7    H5      18.857676   17.988059   20.238966 H          1 MOL1         0.0960
       8    C3      19.516228   19.823624   21.175484 C.3        1 MOL1        -0.1409
       9    H6      19.960646   20.201268   20.244332 H          1 MOL1         0.0960
      10    H7      18.487228   20.208396   21.189935 H          1 MOL1         0.0960
      11    C4      20.295085   20.429474   22.374354 C.3        1 MOL1        -0.1409
      12    H8      20.301764   21.519602   22.236816 H          1 MOL1         0.0960
      13    H9      21.350699   20.129015   22.344800 H          1 MOL1         0.0960
      14    C5      19.681354   20.133320   23.768262 C.3        1 MOL1        -0.1409
      15    H10     19.844118   21.011050   24.409261 H          1 MOL1         0.0960
      16    H11     18.591869   20.017784   23.684821 H          1 MOL1         0.0960
      17    C6      20.299749   18.904329   24.476312 C.3        1 MOL1        -0.1450
      18    H12     21.384561   19.043544   24.574103 H          1 MOL1         0.0960
      19    H13     20.146820   17.997952   23.880957 H          1 MOL1         0.0960
      20    C7      19.686516   18.696383   25.872163 C.3        1 MOL1         0.0172
      21    H14     19.854777   19.586420   26.484511 H          1 MOL1         0.0934
      22    H15     18.608185   18.540474   25.780811 H          1 MOL1         0.0934
      23    N1      20.270553   17.506635   26.606308 N.4        1 MOL1        -0.5956
      24    H16     21.281106   17.604343   26.749199 H          1 MOL1         0.3624
      25    H17     20.120890   16.630681   26.095022 H          1 MOL1         0.3624
      26    H18     19.848370   17.386925   27.533588 H          1 MOL1         0.3624
@<TRIPOS>BOND
    1     1     2    1
    2     1     3    1
    3     1     4    1
    4     1     5    1
    5     5     6    1
    6     5     7    1
    7     5     8    1
    8     8     9    1
    9     8    10    1
   10     8    11    1
   11    11    12    1
   12    11    13    1
   13    11    14    1
   14    14    15    1
   15    14    16    1
   16    14    17    1
   17    17    18    1
   18    17    19    1
   19    17    20    1
   20    20    21    1
   21    20    22    1
   22    20    23    1
   23    23    24    1
   24    23    25    1
   25    23    26    1
@<TRIPOS>SUBSTRUCTURE
       1 MOL1            1 RESIDUE      1      MOL     
@<SCITEGIC>MOL_PROPERTY
VM2 Rank
SciTegic.value.IntegerValue
148

@<SCITEGIC>MOL_PROPERTY
Conf_Id
SciTegic.value.IntegerValue
1257

@<SCITEGIC>MOL_PROPERTY
Probability
SciTegic.value.DoubleValue
0.01

@<SCITEGIC>MOL_PROPERTY
Sum Probability
SciTegic.value.DoubleValue
99.87

@<SCITEGIC>MOL_PROPERTY
Delta G
SciTegic.value.DoubleValue
4.124

@<SCITEGIC>MOL_PROPERTY
G
SciTegic.value.DoubleValue
52.386

@<SCITEGIC>MOL_PROPERTY
E
SciTegic.value.DoubleValue
19.224

@<SCITEGIC>MOL_PROPERTY
-TS
SciTegic.value.DoubleValue
33.161

@<SCITEGIC>MOL_PROPERTY
U+W
SciTegic.value.DoubleValue
-2.237

@<SCITEGIC>MOL_PROPERTY
U
SciTegic.value.DoubleValue
51.714

@<SCITEGIC>MOL_PROPERTY
W
SciTegic.value.DoubleValue
-53.952

@<SCITEGIC>MOL_PROPERTY
W(PB)
SciTegic.value.DoubleValue
-56.214

@<SCITEGIC>MOL_PROPERTY
W(SA)
SciTegic.value.DoubleValue
2.262

@<SCITEGIC>MOL_PROPERTY
Valence
SciTegic.value.DoubleValue
5.770

@<SCITEGIC>MOL_PROPERTY
Coulomb
SciTegic.value.DoubleValue
45.469

@<SCITEGIC>MOL_PROPERTY
VdW
SciTegic.value.DoubleValue
0.475

@<SCITEGIC>MOL_PROPERTY
VdW6
SciTegic.value.DoubleValue
-8.435

@<SCITEGIC>MOL_PROPERTY
VdW12
SciTegic.value.DoubleValue
8.910

@<SCITEGIC>MOL_PROPERTY
Bond
SciTegic.value.DoubleValue
0.260

@<SCITEGIC>MOL_PROPERTY
Angle
SciTegic.value.DoubleValue
1.770

@<SCITEGIC>MOL_PROPERTY
Pdih
SciTegic.value.DoubleValue
3.740

@<SCITEGIC>MOL_PROPERTY
Idih
SciTegic.value.DoubleValue
0.000

@<SCITEGIC>MOL_PROPERTY
Tether
SciTegic.value.DoubleValue
0.000

@<TRIPOS>MOLECULE
guest-s14_vm2.mol2 : vm2 ligand conformer 149
          26          25           1
SMALL
USER_CHARGES
 
@<TRIPOS>ATOM
       1    C1      21.209501   18.952697   20.267844 C.3        1 MOL1        -0.2400
       2    H1      21.544030   19.544440   19.406002 H          1 MOL1         0.0971
       3    H2      21.799556   19.271589   21.136124 H          1 MOL1         0.0971
       4    H3      21.439840   17.899301   20.062330 H          1 MOL1         0.0971
       5    C2      19.696199   19.153784   20.507969 C.3        1 MOL1        -0.1385
       6    H4      19.158918   18.940724   19.573298 H          1 MOL1         0.0960
       7    H5      19.493713   20.209005   20.733988 H          1 MOL1         0.0960
       8    C3      19.120952   18.243948   21.623769 C.3        1 MOL1        -0.1409
       9    H6      18.044293   18.440316   21.720849 H          1 MOL1         0.0960
      10    H7      19.206629   17.196926   21.301929 H          1 MOL1         0.0960
      11    C4      19.788009   18.387933   23.016717 C.3        1 MOL1        -0.1409
      12    H8      20.847567   18.106799   22.955063 H          1 MOL1         0.0960
      13    H9      19.311140   17.660381   23.684126 H          1 MOL1         0.0960
      14    C5      19.651483   19.805398   23.627019 C.3        1 MOL1        -0.1409
      15    H10     20.055569   20.545253   22.924552 H          1 MOL1         0.0960
      16    H11     18.587531   20.049051   23.752539 H          1 MOL1         0.0960
      17    C6      20.387214   19.994271   24.978416 C.3        1 MOL1        -0.1450
      18    H12     20.288617   21.048562   25.269274 H          1 MOL1         0.0960
      19    H13     21.463731   19.815541   24.855863 H          1 MOL1         0.0960
      20    C7      19.836384   19.135738   26.135922 C.3        1 MOL1         0.0172
      21    H14     20.095973   19.611120   27.085719 H          1 MOL1         0.0934
      22    H15     18.746402   19.080219   26.071508 H          1 MOL1         0.0934
      23    N1      20.391259   17.725231   26.183343 N.4        1 MOL1        -0.5956
      24    H16     21.409719   17.722279   26.300772 H          1 MOL1         0.3624
      25    H17     20.184283   17.205403   25.326060 H          1 MOL1         0.3624
      26    H18     19.999248   17.188790   26.964974 H          1 MOL1         0.3624
@<TRIPOS>BOND
    1     1     2    1
    2     1     3    1
    3     1     4    1
    4     1     5    1
    5     5     6    1
    6     5     7    1
    7     5     8    1
    8     8     9    1
    9     8    10    1
   10     8    11    1
   11    11    12    1
   12    11    13    1
   13    11    14    1
   14    14    15    1
   15    14    16    1
   16    14    17    1
   17    17    18    1
   18    17    19    1
   19    17    20    1
   20    20    21    1
   21    20    22    1
   22    20    23    1
   23    23    24    1
   24    23    25    1
   25    23    26    1
@<TRIPOS>SUBSTRUCTURE
       1 MOL1            1 RESIDUE      1      MOL     
@<SCITEGIC>MOL_PROPERTY
VM2 Rank
SciTegic.value.IntegerValue
149

@<SCITEGIC>MOL_PROPERTY
Conf_Id
SciTegic.value.IntegerValue
812

@<SCITEGIC>MOL_PROPERTY
Probability
SciTegic.value.DoubleValue
0.01

@<SCITEGIC>MOL_PROPERTY
Sum Probability
SciTegic.value.DoubleValue
99.87

@<SCITEGIC>MOL_PROPERTY
Delta G
SciTegic.value.DoubleValue
4.158

@<SCITEGIC>MOL_PROPERTY
G
SciTegic.value.DoubleValue
52.419

@<SCITEGIC>MOL_PROPERTY
E
SciTegic.value.DoubleValue
19.574

@<SCITEGIC>MOL_PROPERTY
-TS
SciTegic.value.DoubleValue
32.845

@<SCITEGIC>MOL_PROPERTY
U+W
SciTegic.value.DoubleValue
-1.888

@<SCITEGIC>MOL_PROPERTY
U
SciTegic.value.DoubleValue
52.060

@<SCITEGIC>MOL_PROPERTY
W
SciTegic.value.DoubleValue
-53.948

@<SCITEGIC>MOL_PROPERTY
W(PB)
SciTegic.value.DoubleValue
-56.191

@<SCITEGIC>MOL_PROPERTY
W(SA)
SciTegic.value.DoubleValue
2.243

@<SCITEGIC>MOL_PROPERTY
Valence
SciTegic.value.DoubleValue
4.855

@<SCITEGIC>MOL_PROPERTY
Coulomb
SciTegic.value.DoubleValue
46.488

@<SCITEGIC>MOL_PROPERTY
VdW
SciTegic.value.DoubleValue
0.717

@<SCITEGIC>MOL_PROPERTY
VdW6
SciTegic.value.DoubleValue
-8.768

@<SCITEGIC>MOL_PROPERTY
VdW12
SciTegic.value.DoubleValue
9.485

@<SCITEGIC>MOL_PROPERTY
Bond
SciTegic.value.DoubleValue
0.277

@<SCITEGIC>MOL_PROPERTY
Angle
SciTegic.value.DoubleValue
1.731

@<SCITEGIC>MOL_PROPERTY
Pdih
SciTegic.value.DoubleValue
2.847

@<SCITEGIC>MOL_PROPERTY
Idih
SciTegic.value.DoubleValue
0.000

@<SCITEGIC>MOL_PROPERTY
Tether
SciTegic.value.DoubleValue
0.000

@<TRIPOS>MOLECULE
guest-s14_vm2.mol2 : vm2 ligand conformer 150
          26          25           1
SMALL
USER_CHARGES
 
@<TRIPOS>ATOM
       1    C1      19.653275   17.927482   20.215821 C.3        1 MOL1        -0.2400
       2    H1      20.539306   17.306085   20.032106 H          1 MOL1         0.0971
       3    H2      19.087910   17.485074   21.045523 H          1 MOL1         0.0971
       4    H3      19.018377   17.880646   19.321646 H          1 MOL1         0.0971
       5    C2      20.053110   19.388936   20.519898 C.3        1 MOL1        -0.1385
       6    H4      19.153488   19.984873   20.722666 H          1 MOL1         0.0960
       7    H5      20.503684   19.826721   19.618230 H          1 MOL1         0.0960
       8    C3      21.062934   19.523285   21.688626 C.3        1 MOL1        -0.1409
       9    H6      22.005442   19.040718   21.395392 H          1 MOL1         0.0960
      10    H7      21.301947   20.586377   21.829648 H          1 MOL1         0.0960
      11    C4      20.603344   18.925060   23.043951 C.3        1 MOL1        -0.1409
      12    H8      21.427945   19.054911   23.754825 H          1 MOL1         0.0960
      13    H9      20.447269   17.843078   22.941704 H          1 MOL1         0.0960
      14    C5      19.327305   19.591826   23.616195 C.3        1 MOL1        -0.1409
      15    H10     19.516545   20.661076   23.783551 H          1 MOL1         0.0960
      16    H11     18.521677   19.534720   22.873338 H          1 MOL1         0.0960
      17    C6      18.801438   18.949569   24.925475 C.3        1 MOL1        -0.1450
      18    H12     18.547518   17.894343   24.758513 H          1 MOL1         0.0960
      19    H13     17.858763   19.447781   25.188151 H          1 MOL1         0.0960
      20    C7      19.752627   19.080571   26.133114 C.3        1 MOL1         0.0172
      21    H14     20.235661   20.061299   26.121150 H          1 MOL1         0.0934
      22    H15     19.169818   19.001060   27.054797 H          1 MOL1         0.0934
      23    N1      20.826966   18.012271   26.197921 N.4        1 MOL1        -0.5956
      24    H16     21.425536   18.023064   25.367503 H          1 MOL1         0.3624
      25    H17     20.423307   17.072478   26.267975 H          1 MOL1         0.3624
      26    H18     21.437448   18.136285   27.012981 H          1 MOL1         0.3624
@<TRIPOS>BOND
    1     1     2    1
    2     1     3    1
    3     1     4    1
    4     1     5    1
    5     5     6    1
    6     5     7    1
    7     5     8    1
    8     8     9    1
    9     8    10    1
   10     8    11    1
   11    11    12    1
   12    11    13    1
   13    11    14    1
   14    14    15    1
   15    14    16    1
   16    14    17    1
   17    17    18    1
   18    17    19    1
   19    17    20    1
   20    20    21    1
   21    20    22    1
   22    20    23    1
   23    23    24    1
   24    23    25    1
   25    23    26    1
@<TRIPOS>SUBSTRUCTURE
       1 MOL1            1 RESIDUE      1      MOL     
@<SCITEGIC>MOL_PROPERTY
VM2 Rank
SciTegic.value.IntegerValue
150

@<SCITEGIC>MOL_PROPERTY
Conf_Id
SciTegic.value.IntegerValue
147

@<SCITEGIC>MOL_PROPERTY
Probability
SciTegic.value.DoubleValue
0.01

@<SCITEGIC>MOL_PROPERTY
Sum Probability
SciTegic.value.DoubleValue
99.88

@<SCITEGIC>MOL_PROPERTY
Delta G
SciTegic.value.DoubleValue
4.177

@<SCITEGIC>MOL_PROPERTY
G
SciTegic.value.DoubleValue
52.438

@<SCITEGIC>MOL_PROPERTY
E
SciTegic.value.DoubleValue
19.593

@<SCITEGIC>MOL_PROPERTY
-TS
SciTegic.value.DoubleValue
32.846

@<SCITEGIC>MOL_PROPERTY
U+W
SciTegic.value.DoubleValue
-1.869

@<SCITEGIC>MOL_PROPERTY
U
SciTegic.value.DoubleValue
52.060

@<SCITEGIC>MOL_PROPERTY
W
SciTegic.value.DoubleValue
-53.929

@<SCITEGIC>MOL_PROPERTY
W(PB)
SciTegic.value.DoubleValue
-56.174

@<SCITEGIC>MOL_PROPERTY
W(SA)
SciTegic.value.DoubleValue
2.245

@<SCITEGIC>MOL_PROPERTY
Valence
SciTegic.value.DoubleValue
4.855

@<SCITEGIC>MOL_PROPERTY
Coulomb
SciTegic.value.DoubleValue
46.488

@<SCITEGIC>MOL_PROPERTY
VdW
SciTegic.value.DoubleValue
0.717

@<SCITEGIC>MOL_PROPERTY
VdW6
SciTegic.value.DoubleValue
-8.768

@<SCITEGIC>MOL_PROPERTY
VdW12
SciTegic.value.DoubleValue
9.485

@<SCITEGIC>MOL_PROPERTY
Bond
SciTegic.value.DoubleValue
0.277

@<SCITEGIC>MOL_PROPERTY
Angle
SciTegic.value.DoubleValue
1.730

@<SCITEGIC>MOL_PROPERTY
Pdih
SciTegic.value.DoubleValue
2.847

@<SCITEGIC>MOL_PROPERTY
Idih
SciTegic.value.DoubleValue
0.000

@<SCITEGIC>MOL_PROPERTY
Tether
SciTegic.value.DoubleValue
0.000

@<TRIPOS>MOLECULE
guest-s14_vm2.mol2 : vm2 ligand conformer 151
          26          25           1
SMALL
USER_CHARGES
 
@<TRIPOS>ATOM
       1    C1      21.213150   18.574326   20.149053 C.3        1 MOL1        -0.2400
       2    H1      21.776755   19.412570   20.575974 H          1 MOL1         0.0971
       3    H2      21.937484   17.798586   19.868894 H          1 MOL1         0.0971
       4    H3      20.724790   18.923126   19.229907 H          1 MOL1         0.0971
       5    C2      20.177448   18.010563   21.148935 C.3        1 MOL1        -0.1385
       6    H4      20.692563   17.665296   22.053281 H          1 MOL1         0.0960
       7    H5      19.714015   17.119119   20.703719 H          1 MOL1         0.0960
       8    C3      19.057178   19.022394   21.503897 C.3        1 MOL1        -0.1409
       9    H6      18.628732   19.401668   20.565886 H          1 MOL1         0.0960
      10    H7      18.234986   18.498171   22.010023 H          1 MOL1         0.0960
      11    C4      19.512141   20.229334   22.369246 C.3        1 MOL1        -0.1409
      12    H8      18.932081   21.108635   22.056815 H          1 MOL1         0.0960
      13    H9      20.560048   20.483746   22.167838 H          1 MOL1         0.0960
      14    C5      19.298394   20.050223   23.894537 C.3        1 MOL1        -0.1409
      15    H10     19.580957   20.987380   24.394129 H          1 MOL1         0.0960
      16    H11     18.228597   19.905578   24.099789 H          1 MOL1         0.0960
      17    C6      20.103071   18.887865   24.518724 C.3        1 MOL1        -0.1450
      18    H12     21.161840   18.979136   24.242117 H          1 MOL1         0.0960
      19    H13     19.740276   17.930308   24.124975 H          1 MOL1         0.0960
      20    C7      19.973487   18.876202   26.051994 C.3        1 MOL1         0.0172
      21    H14     20.345339   19.819933   26.460093 H          1 MOL1         0.0934
      22    H15     18.921741   18.771050   26.331698 H          1 MOL1         0.0934
      23    N1      20.746132   17.748092   26.704614 N.4        1 MOL1        -0.5956
      24    H16     20.424795   16.828882   26.383791 H          1 MOL1         0.3624
      25    H17     20.646560   17.759391   27.725586 H          1 MOL1         0.3624
      26    H18     21.749612   17.805069   26.502232 H          1 MOL1         0.3624
@<TRIPOS>BOND
    1     1     2    1
    2     1     3    1
    3     1     4    1
    4     1     5    1
    5     5     6    1
    6     5     7    1
    7     5     8    1
    8     8     9    1
    9     8    10    1
   10     8    11    1
   11    11    12    1
   12    11    13    1
   13    11    14    1
   14    14    15    1
   15    14    16    1
   16    14    17    1
   17    17    18    1
   18    17    19    1
   19    17    20    1
   20    20    21    1
   21    20    22    1
   22    20    23    1
   23    23    24    1
   24    23    25    1
   25    23    26    1
@<TRIPOS>SUBSTRUCTURE
       1 MOL1            1 RESIDUE      1      MOL     
@<SCITEGIC>MOL_PROPERTY
VM2 Rank
SciTegic.value.IntegerValue
151

@<SCITEGIC>MOL_PROPERTY
Conf_Id
SciTegic.value.IntegerValue
825

@<SCITEGIC>MOL_PROPERTY
Probability
SciTegic.value.DoubleValue
0.01

@<SCITEGIC>MOL_PROPERTY
Sum Probability
SciTegic.value.DoubleValue
99.89

@<SCITEGIC>MOL_PROPERTY
Delta G
SciTegic.value.DoubleValue
4.183

@<SCITEGIC>MOL_PROPERTY
G
SciTegic.value.DoubleValue
52.444

@<SCITEGIC>MOL_PROPERTY
E
SciTegic.value.DoubleValue
19.682

@<SCITEGIC>MOL_PROPERTY
-TS
SciTegic.value.DoubleValue
32.762

@<SCITEGIC>MOL_PROPERTY
U+W
SciTegic.value.DoubleValue
-1.780

@<SCITEGIC>MOL_PROPERTY
U
SciTegic.value.DoubleValue
51.960

@<SCITEGIC>MOL_PROPERTY
W
SciTegic.value.DoubleValue
-53.740

@<SCITEGIC>MOL_PROPERTY
W(PB)
SciTegic.value.DoubleValue
-56.030

@<SCITEGIC>MOL_PROPERTY
W(SA)
SciTegic.value.DoubleValue
2.290

@<SCITEGIC>MOL_PROPERTY
Valence
SciTegic.value.DoubleValue
5.882

@<SCITEGIC>MOL_PROPERTY
Coulomb
SciTegic.value.DoubleValue
45.296

@<SCITEGIC>MOL_PROPERTY
VdW
SciTegic.value.DoubleValue
0.781

@<SCITEGIC>MOL_PROPERTY
VdW6
SciTegic.value.DoubleValue
-7.930

@<SCITEGIC>MOL_PROPERTY
VdW12
SciTegic.value.DoubleValue
8.711

@<SCITEGIC>MOL_PROPERTY
Bond
SciTegic.value.DoubleValue
0.264

@<SCITEGIC>MOL_PROPERTY
Angle
SciTegic.value.DoubleValue
1.488

@<SCITEGIC>MOL_PROPERTY
Pdih
SciTegic.value.DoubleValue
4.131

@<SCITEGIC>MOL_PROPERTY
Idih
SciTegic.value.DoubleValue
0.000

@<SCITEGIC>MOL_PROPERTY
Tether
SciTegic.value.DoubleValue
0.000

@<TRIPOS>MOLECULE
guest-s14_vm2.mol2 : vm2 ligand conformer 152
          26          25           1
SMALL
USER_CHARGES
 
@<TRIPOS>ATOM
       1    C1      19.894321   20.012781   20.269268 C.3        1 MOL1        -0.2400
       2    H1      18.819886   20.169069   20.430488 H          1 MOL1         0.0971
       3    H2      20.448757   20.595068   21.015550 H          1 MOL1         0.0971
       4    H3      20.148321   20.419115   19.281727 H          1 MOL1         0.0971
       5    C2      20.256834   18.513600   20.345266 C.3        1 MOL1        -0.1385
       6    H4      21.344028   18.395815   20.236370 H          1 MOL1         0.0960
       7    H5      19.807521   17.998492   19.484726 H          1 MOL1         0.0960
       8    C3      19.785462   17.807540   21.642228 C.3        1 MOL1        -0.1409
       9    H6      18.689065   17.832096   21.708704 H          1 MOL1         0.0960
      10    H7      20.052773   16.745259   21.555528 H          1 MOL1         0.0960
      11    C4      20.417254   18.360009   22.946507 C.3        1 MOL1        -0.1409
      12    H8      21.409343   18.781560   22.734164 H          1 MOL1         0.0960
      13    H9      20.585185   17.515957   23.628573 H          1 MOL1         0.0960
      14    C5      19.527243   19.407420   23.663832 C.3        1 MOL1        -0.1409
      15    H10     19.266984   20.216432   22.971159 H          1 MOL1         0.0960
      16    H11     18.574713   18.944203   23.953583 H          1 MOL1         0.0960
      17    C6      20.206907   20.031753   24.908268 C.3        1 MOL1        -0.1450
      18    H12     19.540754   20.787716   25.344781 H          1 MOL1         0.0960
      19    H13     21.112846   20.567121   24.594425 H          1 MOL1         0.0960
      20    C7      20.589546   19.007978   25.996306 C.3        1 MOL1         0.0172
      21    H14     21.288050   18.274694   25.585139 H          1 MOL1         0.0934
      22    H15     21.086966   19.524492   26.821698 H          1 MOL1         0.0934
      23    N1      19.403435   18.257919   26.569325 N.4        1 MOL1        -0.5956
      24    H16     18.908801   17.725743   25.846763 H          1 MOL1         0.3624
      25    H17     18.722692   18.893389   26.997857 H          1 MOL1         0.3624
      26    H18     19.688429   17.590410   27.294142 H          1 MOL1         0.3624
@<TRIPOS>BOND
    1     1     2    1
    2     1     3    1
    3     1     4    1
    4     1     5    1
    5     5     6    1
    6     5     7    1
    7     5     8    1
    8     8     9    1
    9     8    10    1
   10     8    11    1
   11    11    12    1
   12    11    13    1
   13    11    14    1
   14    14    15    1
   15    14    16    1
   16    14    17    1
   17    17    18    1
   18    17    19    1
   19    17    20    1
   20    20    21    1
   21    20    22    1
   22    20    23    1
   23    23    24    1
   24    23    25    1
   25    23    26    1
@<TRIPOS>SUBSTRUCTURE
       1 MOL1            1 RESIDUE      1      MOL     
@<SCITEGIC>MOL_PROPERTY
VM2 Rank
SciTegic.value.IntegerValue
152

@<SCITEGIC>MOL_PROPERTY
Conf_Id
SciTegic.value.IntegerValue
441

@<SCITEGIC>MOL_PROPERTY
Probability
SciTegic.value.DoubleValue
0.01

@<SCITEGIC>MOL_PROPERTY
Sum Probability
SciTegic.value.DoubleValue
99.89

@<SCITEGIC>MOL_PROPERTY
Delta G
SciTegic.value.DoubleValue
4.225

@<SCITEGIC>MOL_PROPERTY
G
SciTegic.value.DoubleValue
52.487

@<SCITEGIC>MOL_PROPERTY
E
SciTegic.value.DoubleValue
19.468

@<SCITEGIC>MOL_PROPERTY
-TS
SciTegic.value.DoubleValue
33.018

@<SCITEGIC>MOL_PROPERTY
U+W
SciTegic.value.DoubleValue
-1.993

@<SCITEGIC>MOL_PROPERTY
U
SciTegic.value.DoubleValue
51.894

@<SCITEGIC>MOL_PROPERTY
W
SciTegic.value.DoubleValue
-53.888

@<SCITEGIC>MOL_PROPERTY
W(PB)
SciTegic.value.DoubleValue
-56.122

@<SCITEGIC>MOL_PROPERTY
W(SA)
SciTegic.value.DoubleValue
2.234

@<SCITEGIC>MOL_PROPERTY
Valence
SciTegic.value.DoubleValue
5.549

@<SCITEGIC>MOL_PROPERTY
Coulomb
SciTegic.value.DoubleValue
45.566

@<SCITEGIC>MOL_PROPERTY
VdW
SciTegic.value.DoubleValue
0.779

@<SCITEGIC>MOL_PROPERTY
VdW6
SciTegic.value.DoubleValue
-8.637

@<SCITEGIC>MOL_PROPERTY
VdW12
SciTegic.value.DoubleValue
9.416

@<SCITEGIC>MOL_PROPERTY
Bond
SciTegic.value.DoubleValue
0.264

@<SCITEGIC>MOL_PROPERTY
Angle
SciTegic.value.DoubleValue
1.348

@<SCITEGIC>MOL_PROPERTY
Pdih
SciTegic.value.DoubleValue
3.937

@<SCITEGIC>MOL_PROPERTY
Idih
SciTegic.value.DoubleValue
0.000

@<SCITEGIC>MOL_PROPERTY
Tether
SciTegic.value.DoubleValue
0.000

@<TRIPOS>MOLECULE
guest-s14_vm2.mol2 : vm2 ligand conformer 153
          26          25           1
SMALL
USER_CHARGES
 
@<TRIPOS>ATOM
       1    C1      18.956031   18.667053   20.012536 C.3        1 MOL1        -0.2400
       2    H1      19.694103   18.424607   19.236851 H          1 MOL1         0.0971
       3    H2      18.065058   18.051263   19.833671 H          1 MOL1         0.0971
       4    H3      18.667759   19.719611   19.893224 H          1 MOL1         0.0971
       5    C2      19.525618   18.404898   21.422787 C.3        1 MOL1        -0.1385
       6    H4      19.774353   17.338906   21.519788 H          1 MOL1         0.0960
       7    H5      18.746257   18.614778   22.163818 H          1 MOL1         0.0960
       8    C3      20.786262   19.260401   21.695150 C.3        1 MOL1        -0.1409
       9    H6      21.524322   19.034068   20.913164 H          1 MOL1         0.0960
      10    H7      20.552840   20.328765   21.589876 H          1 MOL1         0.0960
      11    C4      21.444989   18.991016   23.073708 C.3        1 MOL1        -0.1409
      12    H8      22.529523   19.123549   22.956901 H          1 MOL1         0.0960
      13    H9      21.311723   17.940575   23.364607 H          1 MOL1         0.0960
      14    C5      20.988980   19.942064   24.213184 C.3        1 MOL1        -0.1409
      15    H10     21.616088   19.756301   25.095443 H          1 MOL1         0.0960
      16    H11     21.199257   20.979326   23.918257 H          1 MOL1         0.0960
      17    C6      19.499037   19.833541   24.624727 C.3        1 MOL1        -0.1450
      18    H12     18.862995   20.178504   23.800409 H          1 MOL1         0.0960
      19    H13     19.305598   20.523920   25.456376 H          1 MOL1         0.0960
      20    C7      19.068686   18.413111   25.043467 C.3        1 MOL1         0.0172
      21    H14     18.001260   18.411414   25.280242 H          1 MOL1         0.0934
      22    H15     19.235442   17.717717   24.216974 H          1 MOL1         0.0934
      23    N1      19.811396   17.886916   26.255440 N.4        1 MOL1        -0.5956
      24    H16     20.820946   17.838327   26.087105 H          1 MOL1         0.3624
      25    H17     19.502051   16.943438   26.512752 H          1 MOL1         0.3624
      26    H18     19.669349   18.483520   27.076841 H          1 MOL1         0.3624
@<TRIPOS>BOND
    1     1     2    1
    2     1     3    1
    3     1     4    1
    4     1     5    1
    5     5     6    1
    6     5     7    1
    7     5     8    1
    8     8     9    1
    9     8    10    1
   10     8    11    1
   11    11    12    1
   12    11    13    1
   13    11    14    1
   14    14    15    1
   15    14    16    1
   16    14    17    1
   17    17    18    1
   18    17    19    1
   19    17    20    1
   20    20    21    1
   21    20    22    1
   22    20    23    1
   23    23    24    1
   24    23    25    1
   25    23    26    1
@<TRIPOS>SUBSTRUCTURE
       1 MOL1            1 RESIDUE      1      MOL     
@<SCITEGIC>MOL_PROPERTY
VM2 Rank
SciTegic.value.IntegerValue
153

@<SCITEGIC>MOL_PROPERTY
Conf_Id
SciTegic.value.IntegerValue
245

@<SCITEGIC>MOL_PROPERTY
Probability
SciTegic.value.DoubleValue
0.01

@<SCITEGIC>MOL_PROPERTY
Sum Probability
SciTegic.value.DoubleValue
99.90

@<SCITEGIC>MOL_PROPERTY
Delta G
SciTegic.value.DoubleValue
4.280

@<SCITEGIC>MOL_PROPERTY
G
SciTegic.value.DoubleValue
52.541

@<SCITEGIC>MOL_PROPERTY
E
SciTegic.value.DoubleValue
19.312

@<SCITEGIC>MOL_PROPERTY
-TS
SciTegic.value.DoubleValue
33.230

@<SCITEGIC>MOL_PROPERTY
U+W
SciTegic.value.DoubleValue
-2.150

@<SCITEGIC>MOL_PROPERTY
U
SciTegic.value.DoubleValue
52.069

@<SCITEGIC>MOL_PROPERTY
W
SciTegic.value.DoubleValue
-54.219

@<SCITEGIC>MOL_PROPERTY
W(PB)
SciTegic.value.DoubleValue
-56.444

@<SCITEGIC>MOL_PROPERTY
W(SA)
SciTegic.value.DoubleValue
2.225

@<SCITEGIC>MOL_PROPERTY
Valence
SciTegic.value.DoubleValue
5.586

@<SCITEGIC>MOL_PROPERTY
Coulomb
SciTegic.value.DoubleValue
46.106

@<SCITEGIC>MOL_PROPERTY
VdW
SciTegic.value.DoubleValue
0.377

@<SCITEGIC>MOL_PROPERTY
VdW6
SciTegic.value.DoubleValue
-9.203

@<SCITEGIC>MOL_PROPERTY
VdW12
SciTegic.value.DoubleValue
9.580

@<SCITEGIC>MOL_PROPERTY
Bond
SciTegic.value.DoubleValue
0.268

@<SCITEGIC>MOL_PROPERTY
Angle
SciTegic.value.DoubleValue
1.680

@<SCITEGIC>MOL_PROPERTY
Pdih
SciTegic.value.DoubleValue
3.637

@<SCITEGIC>MOL_PROPERTY
Idih
SciTegic.value.DoubleValue
0.000

@<SCITEGIC>MOL_PROPERTY
Tether
SciTegic.value.DoubleValue
0.000

@<TRIPOS>MOLECULE
guest-s14_vm2.mol2 : vm2 ligand conformer 154
          26          25           1
SMALL
USER_CHARGES
 
@<TRIPOS>ATOM
       1    C1      19.643154   20.059162   20.280121 C.3        1 MOL1        -0.2400
       2    H1      19.770066   20.341336   19.226947 H          1 MOL1         0.0971
       3    H2      18.688856   19.524889   20.365540 H          1 MOL1         0.0971
       4    H3      19.574508   20.982871   20.869226 H          1 MOL1         0.0971
       5    C2      20.827326   19.185421   20.752364 C.3        1 MOL1        -0.1385
       6    H4      21.765936   19.715245   20.537668 H          1 MOL1         0.0960
       7    H5      20.858255   18.256189   20.166436 H          1 MOL1         0.0960
       8    C3      20.779037   18.852289   22.262965 C.3        1 MOL1        -0.1409
       9    H6      21.706553   18.328071   22.530571 H          1 MOL1         0.0960
      10    H7      20.777070   19.789436   22.830156 H          1 MOL1         0.0960
      11    C4      19.566540   17.968882   22.655496 C.3        1 MOL1        -0.1409
      12    H8      19.558663   17.091026   21.994753 H          1 MOL1         0.0960
      13    H9      18.623609   18.498838   22.467772 H          1 MOL1         0.0960
      14    C5      19.597741   17.464931   24.122430 C.3        1 MOL1        -0.1409
      15    H10     19.045744   16.515621   24.161541 H          1 MOL1         0.0960
      16    H11     20.624654   17.215786   24.420924 H          1 MOL1         0.0960
      17    C6      18.941636   18.418984   25.156121 C.3        1 MOL1        -0.1450
      18    H12     18.907431   17.915845   26.131561 H          1 MOL1         0.0960
      19    H13     17.895899   18.595704   24.871652 H          1 MOL1         0.0960
      20    C7      19.641083   19.780449   25.330920 C.3        1 MOL1         0.0172
      21    H14     19.613790   20.334807   24.390362 H          1 MOL1         0.0934
      22    H15     19.104911   20.367634   26.081387 H          1 MOL1         0.0934
      23    N1      21.084482   19.668883   25.780583 N.4        1 MOL1        -0.5956
      24    H16     21.164163   19.188437   26.682683 H          1 MOL1         0.3624
      25    H17     21.521799   20.590022   25.891882 H          1 MOL1         0.3624
      26    H18     21.648889   19.143466   25.106178 H          1 MOL1         0.3624
@<TRIPOS>BOND
    1     1     2    1
    2     1     3    1
    3     1     4    1
    4     1     5    1
    5     5     6    1
    6     5     7    1
    7     5     8    1
    8     8     9    1
    9     8    10    1
   10     8    11    1
   11    11    12    1
   12    11    13    1
   13    11    14    1
   14    14    15    1
   15    14    16    1
   16    14    17    1
   17    17    18    1
   18    17    19    1
   19    17    20    1
   20    20    21    1
   21    20    22    1
   22    20    23    1
   23    23    24    1
   24    23    25    1
   25    23    26    1
@<TRIPOS>SUBSTRUCTURE
       1 MOL1            1 RESIDUE      1      MOL     
@<SCITEGIC>MOL_PROPERTY
VM2 Rank
SciTegic.value.IntegerValue
154

@<SCITEGIC>MOL_PROPERTY
Conf_Id
SciTegic.value.IntegerValue
843

@<SCITEGIC>MOL_PROPERTY
Probability
SciTegic.value.DoubleValue
0.01

@<SCITEGIC>MOL_PROPERTY
Sum Probability
SciTegic.value.DoubleValue
99.90

@<SCITEGIC>MOL_PROPERTY
Delta G
SciTegic.value.DoubleValue
4.288

@<SCITEGIC>MOL_PROPERTY
G
SciTegic.value.DoubleValue
52.550

@<SCITEGIC>MOL_PROPERTY
E
SciTegic.value.DoubleValue
19.600

@<SCITEGIC>MOL_PROPERTY
-TS
SciTegic.value.DoubleValue
32.950

@<SCITEGIC>MOL_PROPERTY
U+W
SciTegic.value.DoubleValue
-1.862

@<SCITEGIC>MOL_PROPERTY
U
SciTegic.value.DoubleValue
52.361

@<SCITEGIC>MOL_PROPERTY
W
SciTegic.value.DoubleValue
-54.223

@<SCITEGIC>MOL_PROPERTY
W(PB)
SciTegic.value.DoubleValue
-56.456

@<SCITEGIC>MOL_PROPERTY
W(SA)
SciTegic.value.DoubleValue
2.233

@<SCITEGIC>MOL_PROPERTY
Valence
SciTegic.value.DoubleValue
5.335

@<SCITEGIC>MOL_PROPERTY
Coulomb
SciTegic.value.DoubleValue
46.481

@<SCITEGIC>MOL_PROPERTY
VdW
SciTegic.value.DoubleValue
0.546

@<SCITEGIC>MOL_PROPERTY
VdW6
SciTegic.value.DoubleValue
-8.933

@<SCITEGIC>MOL_PROPERTY
VdW12
SciTegic.value.DoubleValue
9.479

@<SCITEGIC>MOL_PROPERTY
Bond
SciTegic.value.DoubleValue
0.278

@<SCITEGIC>MOL_PROPERTY
Angle
SciTegic.value.DoubleValue
1.663

@<SCITEGIC>MOL_PROPERTY
Pdih
SciTegic.value.DoubleValue
3.394

@<SCITEGIC>MOL_PROPERTY
Idih
SciTegic.value.DoubleValue
0.000

@<SCITEGIC>MOL_PROPERTY
Tether
SciTegic.value.DoubleValue
0.000

@<TRIPOS>MOLECULE
guest-s14_vm2.mol2 : vm2 ligand conformer 155
          26          25           1
SMALL
USER_CHARGES
 
@<TRIPOS>ATOM
       1    C1      19.252180   19.801575   20.267350 C.3        1 MOL1        -0.2400
       2    H1      18.403204   20.210270   20.830561 H          1 MOL1         0.0971
       3    H2      20.113438   20.465128   20.413502 H          1 MOL1         0.0971
       4    H3      18.992064   19.828713   19.201279 H          1 MOL1         0.0971
       5    C2      19.568312   18.354983   20.710220 C.3        1 MOL1        -0.1385
       6    H4      20.437060   17.978694   20.152168 H          1 MOL1         0.0960
       7    H5      18.723334   17.708068   20.435795 H          1 MOL1         0.0960
       8    C3      19.823059   18.221390   22.230904 C.3        1 MOL1        -0.1409
       9    H6      18.936566   18.574811   22.768659 H          1 MOL1         0.0960
      10    H7      19.928261   17.154574   22.470785 H          1 MOL1         0.0960
      11    C4      21.092088   18.975070   22.706472 C.3        1 MOL1        -0.1409
      12    H8      20.984049   20.055817   22.546714 H          1 MOL1         0.0960
      13    H9      21.932357   18.656776   22.074087 H          1 MOL1         0.0960
      14    C5      21.474429   18.702728   24.185145 C.3        1 MOL1        -0.1409
      15    H10     21.286179   17.652119   24.443027 H          1 MOL1         0.0960
      16    H11     22.561293   18.834355   24.279061 H          1 MOL1         0.0960
      17    C6      20.807556   19.649714   25.218441 C.3        1 MOL1        -0.1450
      18    H12     21.069057   20.688638   24.977661 H          1 MOL1         0.0960
      19    H13     21.237676   19.452880   26.209429 H          1 MOL1         0.0960
      20    C7      19.274264   19.538525   25.318506 C.3        1 MOL1         0.0172
      21    H14     18.910413   20.239574   26.074555 H          1 MOL1         0.0934
      22    H15     18.819650   19.810765   24.363562 H          1 MOL1         0.0934
      23    N1      18.789112   18.155014   25.703961 N.4        1 MOL1        -0.5956
      24    H16     19.157048   17.864969   26.615805 H          1 MOL1         0.3624
      25    H17     19.081611   17.450047   25.020655 H          1 MOL1         0.3624
      26    H18     17.766141   18.112980   25.766353 H          1 MOL1         0.3624
@<TRIPOS>BOND
    1     1     2    1
    2     1     3    1
    3     1     4    1
    4     1     5    1
    5     5     6    1
    6     5     7    1
    7     5     8    1
    8     8     9    1
    9     8    10    1
   10     8    11    1
   11    11    12    1
   12    11    13    1
   13    11    14    1
   14    14    15    1
   15    14    16    1
   16    14    17    1
   17    17    18    1
   18    17    19    1
   19    17    20    1
   20    20    21    1
   21    20    22    1
   22    20    23    1
   23    23    24    1
   24    23    25    1
   25    23    26    1
@<TRIPOS>SUBSTRUCTURE
       1 MOL1            1 RESIDUE      1      MOL     
@<SCITEGIC>MOL_PROPERTY
VM2 Rank
SciTegic.value.IntegerValue
155

@<SCITEGIC>MOL_PROPERTY
Conf_Id
SciTegic.value.IntegerValue
239

@<SCITEGIC>MOL_PROPERTY
Probability
SciTegic.value.DoubleValue
0.00

@<SCITEGIC>MOL_PROPERTY
Sum Probability
SciTegic.value.DoubleValue
99.91

@<SCITEGIC>MOL_PROPERTY
Delta G
SciTegic.value.DoubleValue
4.373

@<SCITEGIC>MOL_PROPERTY
G
SciTegic.value.DoubleValue
52.634

@<SCITEGIC>MOL_PROPERTY
E
SciTegic.value.DoubleValue
19.685

@<SCITEGIC>MOL_PROPERTY
-TS
SciTegic.value.DoubleValue
32.949

@<SCITEGIC>MOL_PROPERTY
U+W
SciTegic.value.DoubleValue
-1.777

@<SCITEGIC>MOL_PROPERTY
U
SciTegic.value.DoubleValue
52.361

@<SCITEGIC>MOL_PROPERTY
W
SciTegic.value.DoubleValue
-54.138

@<SCITEGIC>MOL_PROPERTY
W(PB)
SciTegic.value.DoubleValue
-56.379

@<SCITEGIC>MOL_PROPERTY
W(SA)
SciTegic.value.DoubleValue
2.241

@<SCITEGIC>MOL_PROPERTY
Valence
SciTegic.value.DoubleValue
5.335

@<SCITEGIC>MOL_PROPERTY
Coulomb
SciTegic.value.DoubleValue
46.481

@<SCITEGIC>MOL_PROPERTY
VdW
SciTegic.value.DoubleValue
0.546

@<SCITEGIC>MOL_PROPERTY
VdW6
SciTegic.value.DoubleValue
-8.933

@<SCITEGIC>MOL_PROPERTY
VdW12
SciTegic.value.DoubleValue
9.479

@<SCITEGIC>MOL_PROPERTY
Bond
SciTegic.value.DoubleValue
0.278

@<SCITEGIC>MOL_PROPERTY
Angle
SciTegic.value.DoubleValue
1.662

@<SCITEGIC>MOL_PROPERTY
Pdih
SciTegic.value.DoubleValue
3.395

@<SCITEGIC>MOL_PROPERTY
Idih
SciTegic.value.DoubleValue
0.000

@<SCITEGIC>MOL_PROPERTY
Tether
SciTegic.value.DoubleValue
0.000

@<TRIPOS>MOLECULE
guest-s14_vm2.mol2 : vm2 ligand conformer 156
          26          25           1
SMALL
USER_CHARGES
 
@<TRIPOS>ATOM
       1    C1      19.031473   19.686003   20.267827 C.3        1 MOL1        -0.2400
       2    H1      18.442923   19.342539   19.407282 H          1 MOL1         0.0971
       3    H2      18.368380   19.699035   21.139815 H          1 MOL1         0.0971
       4    H3      19.343855   20.718877   20.066234 H          1 MOL1         0.0971
       5    C2      20.259484   18.770823   20.483173 C.3        1 MOL1        -0.1385
       6    H4      20.864005   18.794428   19.565622 H          1 MOL1         0.0960
       7    H5      19.941047   17.726493   20.607850 H          1 MOL1         0.0960
       8    C3      21.150983   19.208877   21.673707 C.3        1 MOL1        -0.1409
       9    H6      22.198977   19.019254   21.403218 H          1 MOL1         0.0960
      10    H7      21.077166   20.294662   21.824433 H          1 MOL1         0.0960
      11    C4      20.872452   18.465793   23.005939 C.3        1 MOL1        -0.1409
      12    H8      21.610761   18.809601   23.741903 H          1 MOL1         0.0960
      13    H9      21.055538   17.391216   22.868540 H          1 MOL1         0.0960
      14    C5      19.444037   18.675434   23.566140 C.3        1 MOL1        -0.1409
      15    H10     19.221037   19.748742   23.628345 H          1 MOL1         0.0960
      16    H11     18.715996   18.246062   22.866161 H          1 MOL1         0.0960
      17    C6      19.224705   18.008133   24.947496 C.3        1 MOL1        -0.1450
      18    H12     19.384676   16.925590   24.856053 H          1 MOL1         0.0960
      19    H13     18.176761   18.137681   25.248866 H          1 MOL1         0.0960
      20    C7      20.138459   18.551255   26.065139 C.3        1 MOL1         0.0172
      21    H14     19.928218   18.017981   26.996217 H          1 MOL1         0.0934
      22    H15     21.185732   18.377854   25.805301 H          1 MOL1         0.0934
      23    N1      19.959407   20.032683   26.331579 N.4        1 MOL1        -0.5956
      24    H16     18.998078   20.255722   26.609018 H          1 MOL1         0.3624
      25    H17     20.173889   20.593551   25.501248 H          1 MOL1         0.3624
      26    H18     20.573150   20.361458   27.084828 H          1 MOL1         0.3624
@<TRIPOS>BOND
    1     1     2    1
    2     1     3    1
    3     1     4    1
    4     1     5    1
    5     5     6    1
    6     5     7    1
    7     5     8    1
    8     8     9    1
    9     8    10    1
   10     8    11    1
   11    11    12    1
   12    11    13    1
   13    11    14    1
   14    14    15    1
   15    14    16    1
   16    14    17    1
   17    17    18    1
   18    17    19    1
   19    17    20    1
   20    20    21    1
   21    20    22    1
   22    20    23    1
   23    23    24    1
   24    23    25    1
   25    23    26    1
@<TRIPOS>SUBSTRUCTURE
       1 MOL1            1 RESIDUE      1      MOL     
@<SCITEGIC>MOL_PROPERTY
VM2 Rank
SciTegic.value.IntegerValue
156

@<SCITEGIC>MOL_PROPERTY
Conf_Id
SciTegic.value.IntegerValue
847

@<SCITEGIC>MOL_PROPERTY
Probability
SciTegic.value.DoubleValue
0.00

@<SCITEGIC>MOL_PROPERTY
Sum Probability
SciTegic.value.DoubleValue
99.91

@<SCITEGIC>MOL_PROPERTY
Delta G
SciTegic.value.DoubleValue
4.373

@<SCITEGIC>MOL_PROPERTY
G
SciTegic.value.DoubleValue
52.635

@<SCITEGIC>MOL_PROPERTY
E
SciTegic.value.DoubleValue
19.670

@<SCITEGIC>MOL_PROPERTY
-TS
SciTegic.value.DoubleValue
32.965

@<SCITEGIC>MOL_PROPERTY
U+W
SciTegic.value.DoubleValue
-1.792

@<SCITEGIC>MOL_PROPERTY
U
SciTegic.value.DoubleValue
52.090

@<SCITEGIC>MOL_PROPERTY
W
SciTegic.value.DoubleValue
-53.882

@<SCITEGIC>MOL_PROPERTY
W(PB)
SciTegic.value.DoubleValue
-56.145

@<SCITEGIC>MOL_PROPERTY
W(SA)
SciTegic.value.DoubleValue
2.264

@<SCITEGIC>MOL_PROPERTY
Valence
SciTegic.value.DoubleValue
5.620

@<SCITEGIC>MOL_PROPERTY
Coulomb
SciTegic.value.DoubleValue
45.629

@<SCITEGIC>MOL_PROPERTY
VdW
SciTegic.value.DoubleValue
0.842

@<SCITEGIC>MOL_PROPERTY
VdW6
SciTegic.value.DoubleValue
-8.591

@<SCITEGIC>MOL_PROPERTY
VdW12
SciTegic.value.DoubleValue
9.433

@<SCITEGIC>MOL_PROPERTY
Bond
SciTegic.value.DoubleValue
0.266

@<SCITEGIC>MOL_PROPERTY
Angle
SciTegic.value.DoubleValue
1.473

@<SCITEGIC>MOL_PROPERTY
Pdih
SciTegic.value.DoubleValue
3.881

@<SCITEGIC>MOL_PROPERTY
Idih
SciTegic.value.DoubleValue
0.000

@<SCITEGIC>MOL_PROPERTY
Tether
SciTegic.value.DoubleValue
0.000

@<TRIPOS>MOLECULE
guest-s14_vm2.mol2 : vm2 ligand conformer 157
          26          25           1
SMALL
USER_CHARGES
 
@<TRIPOS>ATOM
       1    C1      20.460847   17.974467   19.997178 C.3        1 MOL1        -0.2400
       2    H1      20.140196   17.030778   19.537231 H          1 MOL1         0.0971
       3    H2      20.670430   18.686234   19.188196 H          1 MOL1         0.0971
       4    H3      21.398271   17.779000   20.531625 H          1 MOL1         0.0971
       5    C2      19.363338   18.515255   20.942337 C.3        1 MOL1        -0.1385
       6    H4      19.168608   17.781852   21.734121 H          1 MOL1         0.0960
       7    H5      18.427546   18.605197   20.373246 H          1 MOL1         0.0960
       8    C3      19.707586   19.900918   21.547244 C.3        1 MOL1        -0.1409
       9    H6      19.984483   20.574953   20.724880 H          1 MOL1         0.0960
      10    H7      18.806204   20.341242   21.995108 H          1 MOL1         0.0960
      11    C4      20.854854   19.890890   22.594178 C.3        1 MOL1        -0.1409
      12    H8      21.430707   20.819136   22.475854 H          1 MOL1         0.0960
      13    H9      21.563884   19.078755   22.391150 H          1 MOL1         0.0960
      14    C5      20.384864   19.820155   24.070121 C.3        1 MOL1        -0.1409
      15    H10     21.272372   19.901299   24.711288 H          1 MOL1         0.0960
      16    H11     19.762302   20.696535   24.297661 H          1 MOL1         0.0960
      17    C6      19.606786   18.530603   24.428381 C.3        1 MOL1        -0.1450
      18    H12     20.188768   17.645170   24.140248 H          1 MOL1         0.0960
      19    H13     18.670722   18.498305   23.857466 H          1 MOL1         0.0960
      20    C7      19.248990   18.447645   25.924959 C.3        1 MOL1         0.0172
      21    H14     18.692508   19.341105   26.220693 H          1 MOL1         0.0934
      22    H15     18.610882   17.576482   26.096530 H          1 MOL1         0.0934
      23    N1      20.453735   18.319067   26.836601 N.4        1 MOL1        -0.5956
      24    H16     20.179283   18.251346   27.822695 H          1 MOL1         0.3624
      25    H17     21.080271   19.125628   26.754669 H          1 MOL1         0.3624
      26    H18     21.006320   17.482770   26.621595 H          1 MOL1         0.3624
@<TRIPOS>BOND
    1     1     2    1
    2     1     3    1
    3     1     4    1
    4     1     5    1
    5     5     6    1
    6     5     7    1
    7     5     8    1
    8     8     9    1
    9     8    10    1
   10     8    11    1
   11    11    12    1
   12    11    13    1
   13    11    14    1
   14    14    15    1
   15    14    16    1
   16    14    17    1
   17    17    18    1
   18    17    19    1
   19    17    20    1
   20    20    21    1
   21    20    22    1
   22    20    23    1
   23    23    24    1
   24    23    25    1
   25    23    26    1
@<TRIPOS>SUBSTRUCTURE
       1 MOL1            1 RESIDUE      1      MOL     
@<SCITEGIC>MOL_PROPERTY
VM2 Rank
SciTegic.value.IntegerValue
157

@<SCITEGIC>MOL_PROPERTY
Conf_Id
SciTegic.value.IntegerValue
1369

@<SCITEGIC>MOL_PROPERTY
Probability
SciTegic.value.DoubleValue
0.00

@<SCITEGIC>MOL_PROPERTY
Sum Probability
SciTegic.value.DoubleValue
99.92

@<SCITEGIC>MOL_PROPERTY
Delta G
SciTegic.value.DoubleValue
4.418

@<SCITEGIC>MOL_PROPERTY
G
SciTegic.value.DoubleValue
52.679

@<SCITEGIC>MOL_PROPERTY
E
SciTegic.value.DoubleValue
19.809

@<SCITEGIC>MOL_PROPERTY
-TS
SciTegic.value.DoubleValue
32.870

@<SCITEGIC>MOL_PROPERTY
U+W
SciTegic.value.DoubleValue
-1.653

@<SCITEGIC>MOL_PROPERTY
U
SciTegic.value.DoubleValue
52.213

@<SCITEGIC>MOL_PROPERTY
W
SciTegic.value.DoubleValue
-53.866

@<SCITEGIC>MOL_PROPERTY
W(PB)
SciTegic.value.DoubleValue
-56.128

@<SCITEGIC>MOL_PROPERTY
W(SA)
SciTegic.value.DoubleValue
2.262

@<SCITEGIC>MOL_PROPERTY
Valence
SciTegic.value.DoubleValue
6.034

@<SCITEGIC>MOL_PROPERTY
Coulomb
SciTegic.value.DoubleValue
45.240

@<SCITEGIC>MOL_PROPERTY
VdW
SciTegic.value.DoubleValue
0.939

@<SCITEGIC>MOL_PROPERTY
VdW6
SciTegic.value.DoubleValue
-8.400

@<SCITEGIC>MOL_PROPERTY
VdW12
SciTegic.value.DoubleValue
9.339

@<SCITEGIC>MOL_PROPERTY
Bond
SciTegic.value.DoubleValue
0.287

@<SCITEGIC>MOL_PROPERTY
Angle
SciTegic.value.DoubleValue
1.514

@<SCITEGIC>MOL_PROPERTY
Pdih
SciTegic.value.DoubleValue
4.234

@<SCITEGIC>MOL_PROPERTY
Idih
SciTegic.value.DoubleValue
0.000

@<SCITEGIC>MOL_PROPERTY
Tether
SciTegic.value.DoubleValue
0.000

@<TRIPOS>MOLECULE
guest-s14_vm2.mol2 : vm2 ligand conformer 158
          26          25           1
SMALL
USER_CHARGES
 
@<TRIPOS>ATOM
       1    C1      21.100841   19.719123   19.973690 C.3        1 MOL1        -0.2400
       2    H1      20.254665   20.273465   19.547147 H          1 MOL1         0.0971
       3    H2      21.734455   20.429740   20.520268 H          1 MOL1         0.0971
       4    H3      21.690712   19.312492   19.141980 H          1 MOL1         0.0971
       5    C2      20.611049   18.585653   20.899568 C.3        1 MOL1        -0.1385
       6    H4      21.477454   18.029123   21.283298 H          1 MOL1         0.0960
       7    H5      20.010156   17.873427   20.316789 H          1 MOL1         0.0960
       8    C3      19.774959   19.131492   22.078090 C.3        1 MOL1        -0.1409
       9    H6      20.376726   19.856646   22.639675 H          1 MOL1         0.0960
      10    H7      18.906604   19.679444   21.686902 H          1 MOL1         0.0960
      11    C4      19.287665   17.996375   23.010699 C.3        1 MOL1        -0.1409
      12    H8      20.140512   17.427200   23.400371 H          1 MOL1         0.0960
      13    H9      18.703350   17.280142   22.416472 H          1 MOL1         0.0960
      14    C5      18.398363   18.491445   24.179597 C.3        1 MOL1        -0.1409
      15    H10     17.490164   18.947063   23.761446 H          1 MOL1         0.0960
      16    H11     18.056365   17.618746   24.753002 H          1 MOL1         0.0960
      17    C6      19.052830   19.503900   25.157692 C.3        1 MOL1        -0.1450
      18    H12     18.297648   19.778979   25.905882 H          1 MOL1         0.0960
      19    H13     19.310099   20.437946   24.642328 H          1 MOL1         0.0960
      20    C7      20.280604   18.955986   25.914568 C.3        1 MOL1         0.0172
      21    H14     20.432601   19.544373   26.823496 H          1 MOL1         0.0934
      22    H15     20.100224   17.918554   26.208562 H          1 MOL1         0.0934
      23    N1      21.574690   19.015025   25.127097 N.4        1 MOL1        -0.5956
      24    H16     21.836012   19.980107   24.900862 H          1 MOL1         0.3624
      25    H17     21.500121   18.504785   24.242080 H          1 MOL1         0.3624
      26    H18     22.357429   18.608249   25.650898 H          1 MOL1         0.3624
@<TRIPOS>BOND
    1     1     2    1
    2     1     3    1
    3     1     4    1
    4     1     5    1
    5     5     6    1
    6     5     7    1
    7     5     8    1
    8     8     9    1
    9     8    10    1
   10     8    11    1
   11    11    12    1
   12    11    13    1
   13    11    14    1
   14    14    15    1
   15    14    16    1
   16    14    17    1
   17    17    18    1
   18    17    19    1
   19    17    20    1
   20    20    21    1
   21    20    22    1
   22    20    23    1
   23    23    24    1
   24    23    25    1
   25    23    26    1
@<TRIPOS>SUBSTRUCTURE
       1 MOL1            1 RESIDUE      1      MOL     
@<SCITEGIC>MOL_PROPERTY
VM2 Rank
SciTegic.value.IntegerValue
158

@<SCITEGIC>MOL_PROPERTY
Conf_Id
SciTegic.value.IntegerValue
557

@<SCITEGIC>MOL_PROPERTY
Probability
SciTegic.value.DoubleValue
0.00

@<SCITEGIC>MOL_PROPERTY
Sum Probability
SciTegic.value.DoubleValue
99.92

@<SCITEGIC>MOL_PROPERTY
Delta G
SciTegic.value.DoubleValue
4.445

@<SCITEGIC>MOL_PROPERTY
G
SciTegic.value.DoubleValue
52.706

@<SCITEGIC>MOL_PROPERTY
E
SciTegic.value.DoubleValue
19.592

@<SCITEGIC>MOL_PROPERTY
-TS
SciTegic.value.DoubleValue
33.114

@<SCITEGIC>MOL_PROPERTY
U+W
SciTegic.value.DoubleValue
-1.870

@<SCITEGIC>MOL_PROPERTY
U
SciTegic.value.DoubleValue
51.717

@<SCITEGIC>MOL_PROPERTY
W
SciTegic.value.DoubleValue
-53.587

@<SCITEGIC>MOL_PROPERTY
W(PB)
SciTegic.value.DoubleValue
-55.826

@<SCITEGIC>MOL_PROPERTY
W(SA)
SciTegic.value.DoubleValue
2.239

@<SCITEGIC>MOL_PROPERTY
Valence
SciTegic.value.DoubleValue
4.225

@<SCITEGIC>MOL_PROPERTY
Coulomb
SciTegic.value.DoubleValue
47.188

@<SCITEGIC>MOL_PROPERTY
VdW
SciTegic.value.DoubleValue
0.304

@<SCITEGIC>MOL_PROPERTY
VdW6
SciTegic.value.DoubleValue
-8.652

@<SCITEGIC>MOL_PROPERTY
VdW12
SciTegic.value.DoubleValue
8.956

@<SCITEGIC>MOL_PROPERTY
Bond
SciTegic.value.DoubleValue
0.232

@<SCITEGIC>MOL_PROPERTY
Angle
SciTegic.value.DoubleValue
1.463

@<SCITEGIC>MOL_PROPERTY
Pdih
SciTegic.value.DoubleValue
2.531

@<SCITEGIC>MOL_PROPERTY
Idih
SciTegic.value.DoubleValue
0.000

@<SCITEGIC>MOL_PROPERTY
Tether
SciTegic.value.DoubleValue
0.000

@<TRIPOS>MOLECULE
guest-s14_vm2.mol2 : vm2 ligand conformer 159
          26          25           1
SMALL
USER_CHARGES
 
@<TRIPOS>ATOM
       1    C1      19.931002   20.395453   20.686609 C.3        1 MOL1        -0.2400
       2    H1      19.028652   20.654076   21.255621 H          1 MOL1         0.0971
       3    H2      20.810594   20.657652   21.287238 H          1 MOL1         0.0971
       4    H3      19.951100   21.021717   19.785365 H          1 MOL1         0.0971
       5    C2      19.938862   18.899313   20.304319 C.3        1 MOL1        -0.1385
       6    H4      20.880867   18.658321   19.792205 H          1 MOL1         0.0960
       7    H5      19.139792   18.718959   19.571712 H          1 MOL1         0.0960
       8    C3      19.735247   17.935587   21.501059 C.3        1 MOL1        -0.1409
       9    H6      18.748912   18.105899   21.949734 H          1 MOL1         0.0960
      10    H7      19.703101   16.913502   21.099139 H          1 MOL1         0.0960
      11    C4      20.855067   17.994475   22.575964 C.3        1 MOL1        -0.1409
      12    H8      21.800512   18.288459   22.099792 H          1 MOL1         0.0960
      13    H9      21.026848   16.981964   22.966551 H          1 MOL1         0.0960
      14    C5      20.564871   18.936292   23.773756 C.3        1 MOL1        -0.1409
      15    H10     21.500201   19.074056   24.332033 H          1 MOL1         0.0960
      16    H11     20.271280   19.931009   23.417754 H          1 MOL1         0.0960
      17    C6      19.479305   18.386997   24.733889 C.3        1 MOL1        -0.1450
      18    H12     19.780607   17.403639   25.118534 H          1 MOL1         0.0960
      19    H13     18.539224   18.233949   24.190321 H          1 MOL1         0.0960
      20    C7      19.197998   19.335014   25.915734 C.3        1 MOL1         0.0172
      21    H14     18.910300   20.319623   25.537352 H          1 MOL1         0.0934
      22    H15     18.366574   18.940635   26.506286 H          1 MOL1         0.0934
      23    N1      20.378648   19.515871   26.849670 N.4        1 MOL1        -0.5956
      24    H16     20.682409   18.625041   27.256057 H          1 MOL1         0.3624
      25    H17     20.153243   20.140387   27.631629 H          1 MOL1         0.3624
      26    H18     21.186806   19.919967   26.366529 H          1 MOL1         0.3624
@<TRIPOS>BOND
    1     1     2    1
    2     1     3    1
    3     1     4    1
    4     1     5    1
    5     5     6    1
    6     5     7    1
    7     5     8    1
    8     8     9    1
    9     8    10    1
   10     8    11    1
   11    11    12    1
   12    11    13    1
   13    11    14    1
   14    14    15    1
   15    14    16    1
   16    14    17    1
   17    17    18    1
   18    17    19    1
   19    17    20    1
   20    20    21    1
   21    20    22    1
   22    20    23    1
   23    23    24    1
   24    23    25    1
   25    23    26    1
@<TRIPOS>SUBSTRUCTURE
       1 MOL1            1 RESIDUE      1      MOL     
@<SCITEGIC>MOL_PROPERTY
VM2 Rank
SciTegic.value.IntegerValue
159

@<SCITEGIC>MOL_PROPERTY
Conf_Id
SciTegic.value.IntegerValue
559

@<SCITEGIC>MOL_PROPERTY
Probability
SciTegic.value.DoubleValue
0.00

@<SCITEGIC>MOL_PROPERTY
Sum Probability
SciTegic.value.DoubleValue
99.93

@<SCITEGIC>MOL_PROPERTY
Delta G
SciTegic.value.DoubleValue
4.458

@<SCITEGIC>MOL_PROPERTY
G
SciTegic.value.DoubleValue
52.719

@<SCITEGIC>MOL_PROPERTY
E
SciTegic.value.DoubleValue
19.851

@<SCITEGIC>MOL_PROPERTY
-TS
SciTegic.value.DoubleValue
32.868

@<SCITEGIC>MOL_PROPERTY
U+W
SciTegic.value.DoubleValue
-1.610

@<SCITEGIC>MOL_PROPERTY
U
SciTegic.value.DoubleValue
52.210

@<SCITEGIC>MOL_PROPERTY
W
SciTegic.value.DoubleValue
-53.820

@<SCITEGIC>MOL_PROPERTY
W(PB)
SciTegic.value.DoubleValue
-56.081

@<SCITEGIC>MOL_PROPERTY
W(SA)
SciTegic.value.DoubleValue
2.260

@<SCITEGIC>MOL_PROPERTY
Valence
SciTegic.value.DoubleValue
6.007

@<SCITEGIC>MOL_PROPERTY
Coulomb
SciTegic.value.DoubleValue
45.272

@<SCITEGIC>MOL_PROPERTY
VdW
SciTegic.value.DoubleValue
0.931

@<SCITEGIC>MOL_PROPERTY
VdW6
SciTegic.value.DoubleValue
-8.392

@<SCITEGIC>MOL_PROPERTY
VdW12
SciTegic.value.DoubleValue
9.322

@<SCITEGIC>MOL_PROPERTY
Bond
SciTegic.value.DoubleValue
0.291

@<SCITEGIC>MOL_PROPERTY
Angle
SciTegic.value.DoubleValue
1.470

@<SCITEGIC>MOL_PROPERTY
Pdih
SciTegic.value.DoubleValue
4.246

@<SCITEGIC>MOL_PROPERTY
Idih
SciTegic.value.DoubleValue
0.000

@<SCITEGIC>MOL_PROPERTY
Tether
SciTegic.value.DoubleValue
0.000

@<TRIPOS>MOLECULE
guest-s14_vm2.mol2 : vm2 ligand conformer 160
          26          25           1
SMALL
USER_CHARGES
 
@<TRIPOS>ATOM
       1    C1      19.006336   18.338510   19.903848 C.3        1 MOL1        -0.2400
       2    H1      18.849861   19.347410   19.500261 H          1 MOL1         0.0971
       3    H2      19.186487   17.661766   19.058508 H          1 MOL1         0.0971
       4    H3      18.079228   18.020476   20.398334 H          1 MOL1         0.0971
       5    C2      20.196684   18.312511   20.885833 C.3        1 MOL1        -0.1385
       6    H4      21.114091   18.600957   20.353731 H          1 MOL1         0.0960
       7    H5      20.349195   17.285482   21.245809 H          1 MOL1         0.0960
       8    C3      19.969387   19.259704   22.084610 C.3        1 MOL1        -0.1409
       9    H6      19.825872   20.285370   21.717549 H          1 MOL1         0.0960
      10    H7      19.040744   18.976211   22.595102 H          1 MOL1         0.0960
      11    C4      21.159948   19.230532   23.073255 C.3        1 MOL1        -0.1409
      12    H8      22.075038   19.502615   22.529104 H          1 MOL1         0.0960
      13    H9      21.329177   18.210758   23.440099 H          1 MOL1         0.0960
      14    C5      21.000577   20.206720   24.266540 C.3        1 MOL1        -0.1409
      15    H10     21.909773   20.158754   24.881700 H          1 MOL1         0.0960
      16    H11     20.958648   21.233380   23.877339 H          1 MOL1         0.0960
      17    C6      19.768072   19.975279   25.181651 C.3        1 MOL1        -0.1450
      18    H12     18.833158   20.123631   24.626534 H          1 MOL1         0.0960
      19    H13     19.777631   20.754281   25.955488 H          1 MOL1         0.0960
      20    C7      19.753262   18.608236   25.896831 C.3        1 MOL1         0.0172
      21    H14     20.763180   18.355246   26.230445 H          1 MOL1         0.0934
      22    H15     19.110991   18.672943   26.779301 H          1 MOL1         0.0934
      23    N1      19.226734   17.467508   25.048433 N.4        1 MOL1        -0.5956
      24    H16     19.765678   17.361833   24.183832 H          1 MOL1         0.3624
      25    H17     18.248275   17.615520   24.780919 H          1 MOL1         0.3624
      26    H18     19.268154   16.572013   25.547322 H          1 MOL1         0.3624
@<TRIPOS>BOND
    1     1     2    1
    2     1     3    1
    3     1     4    1
    4     1     5    1
    5     5     6    1
    6     5     7    1
    7     5     8    1
    8     8     9    1
    9     8    10    1
   10     8    11    1
   11    11    12    1
   12    11    13    1
   13    11    14    1
   14    14    15    1
   15    14    16    1
   16    14    17    1
   17    17    18    1
   18    17    19    1
   19    17    20    1
   20    20    21    1
   21    20    22    1
   22    20    23    1
   23    23    24    1
   24    23    25    1
   25    23    26    1
@<TRIPOS>SUBSTRUCTURE
       1 MOL1            1 RESIDUE      1      MOL     
@<SCITEGIC>MOL_PROPERTY
VM2 Rank
SciTegic.value.IntegerValue
160

@<SCITEGIC>MOL_PROPERTY
Conf_Id
SciTegic.value.IntegerValue
258

@<SCITEGIC>MOL_PROPERTY
Probability
SciTegic.value.DoubleValue
0.00

@<SCITEGIC>MOL_PROPERTY
Sum Probability
SciTegic.value.DoubleValue
99.93

@<SCITEGIC>MOL_PROPERTY
Delta G
SciTegic.value.DoubleValue
4.466

@<SCITEGIC>MOL_PROPERTY
G
SciTegic.value.DoubleValue
52.727

@<SCITEGIC>MOL_PROPERTY
E
SciTegic.value.DoubleValue
19.612

@<SCITEGIC>MOL_PROPERTY
-TS
SciTegic.value.DoubleValue
33.115

@<SCITEGIC>MOL_PROPERTY
U+W
SciTegic.value.DoubleValue
-1.850

@<SCITEGIC>MOL_PROPERTY
U
SciTegic.value.DoubleValue
51.718

@<SCITEGIC>MOL_PROPERTY
W
SciTegic.value.DoubleValue
-53.567

@<SCITEGIC>MOL_PROPERTY
W(PB)
SciTegic.value.DoubleValue
-55.822

@<SCITEGIC>MOL_PROPERTY
W(SA)
SciTegic.value.DoubleValue
2.254

@<SCITEGIC>MOL_PROPERTY
Valence
SciTegic.value.DoubleValue
4.225

@<SCITEGIC>MOL_PROPERTY
Coulomb
SciTegic.value.DoubleValue
47.188

@<SCITEGIC>MOL_PROPERTY
VdW
SciTegic.value.DoubleValue
0.304

@<SCITEGIC>MOL_PROPERTY
VdW6
SciTegic.value.DoubleValue
-8.653

@<SCITEGIC>MOL_PROPERTY
VdW12
SciTegic.value.DoubleValue
8.957

@<SCITEGIC>MOL_PROPERTY
Bond
SciTegic.value.DoubleValue
0.232

@<SCITEGIC>MOL_PROPERTY
Angle
SciTegic.value.DoubleValue
1.462

@<SCITEGIC>MOL_PROPERTY
Pdih
SciTegic.value.DoubleValue
2.531

@<SCITEGIC>MOL_PROPERTY
Idih
SciTegic.value.DoubleValue
0.000

@<SCITEGIC>MOL_PROPERTY
Tether
SciTegic.value.DoubleValue
0.000

@<TRIPOS>MOLECULE
guest-s14_vm2.mol2 : vm2 ligand conformer 161
          26          25           1
SMALL
USER_CHARGES
 
@<TRIPOS>ATOM
       1    C1      19.864193   18.987995   19.703974 C.3        1 MOL1        -0.2400
       2    H1      20.682752   19.711913   19.800123 H          1 MOL1         0.0971
       3    H2      20.007736   18.453053   18.756263 H          1 MOL1         0.0971
       4    H3      18.919388   19.542760   19.636304 H          1 MOL1         0.0971
       5    C2      19.841919   17.994023   20.887436 C.3        1 MOL1        -0.1385
       6    H4      20.809642   17.477577   20.954813 H          1 MOL1         0.0960
       7    H5      19.092946   17.216700   20.680987 H          1 MOL1         0.0960
       8    C3      19.506710   18.656590   22.245674 C.3        1 MOL1        -0.1409
       9    H6      18.532866   19.160040   22.174096 H          1 MOL1         0.0960
      10    H7      19.386976   17.860189   22.987734 H          1 MOL1         0.0960
      11    C4      20.582383   19.668357   22.718362 C.3        1 MOL1        -0.1409
      12    H8      20.639973   20.482080   21.983772 H          1 MOL1         0.0960
      13    H9      21.573799   19.195177   22.726282 H          1 MOL1         0.0960
      14    C5      20.285634   20.303618   24.102196 C.3        1 MOL1        -0.1409
      15    H10     20.723364   21.311492   24.109289 H          1 MOL1         0.0960
      16    H11     19.205616   20.454572   24.231229 H          1 MOL1         0.0960
      17    C6      20.882752   19.536340   25.311998 C.3        1 MOL1        -0.1450
      18    H12     20.731405   20.132320   26.221789 H          1 MOL1         0.0960
      19    H13     21.970153   19.452150   25.184664 H          1 MOL1         0.0960
      20    C7      20.303528   18.127996   25.544740 C.3        1 MOL1         0.0172
      21    H14     20.492108   17.500345   24.670794 H          1 MOL1         0.0934
      22    H15     20.803532   17.669189   26.402040 H          1 MOL1         0.0934
      23    N1      18.813883   18.124081   25.826619 N.4        1 MOL1        -0.5956
      24    H16     18.585688   18.667758   26.665265 H          1 MOL1         0.3624
      25    H17     18.456847   17.174621   25.978973 H          1 MOL1         0.3624
      26    H18     18.282097   18.528143   25.049798 H          1 MOL1         0.3624
@<TRIPOS>BOND
    1     1     2    1
    2     1     3    1
    3     1     4    1
    4     1     5    1
    5     5     6    1
    6     5     7    1
    7     5     8    1
    8     8     9    1
    9     8    10    1
   10     8    11    1
   11    11    12    1
   12    11    13    1
   13    11    14    1
   14    14    15    1
   15    14    16    1
   16    14    17    1
   17    17    18    1
   18    17    19    1
   19    17    20    1
   20    20    21    1
   21    20    22    1
   22    20    23    1
   23    23    24    1
   24    23    25    1
   25    23    26    1
@<TRIPOS>SUBSTRUCTURE
       1 MOL1            1 RESIDUE      1      MOL     
@<SCITEGIC>MOL_PROPERTY
VM2 Rank
SciTegic.value.IntegerValue
161

@<SCITEGIC>MOL_PROPERTY
Conf_Id
SciTegic.value.IntegerValue
1117

@<SCITEGIC>MOL_PROPERTY
Probability
SciTegic.value.DoubleValue
0.00

@<SCITEGIC>MOL_PROPERTY
Sum Probability
SciTegic.value.DoubleValue
99.93

@<SCITEGIC>MOL_PROPERTY
Delta G
SciTegic.value.DoubleValue
4.485

@<SCITEGIC>MOL_PROPERTY
G
SciTegic.value.DoubleValue
52.746

@<SCITEGIC>MOL_PROPERTY
E
SciTegic.value.DoubleValue
19.756

@<SCITEGIC>MOL_PROPERTY
-TS
SciTegic.value.DoubleValue
32.990

@<SCITEGIC>MOL_PROPERTY
U+W
SciTegic.value.DoubleValue
-1.706

@<SCITEGIC>MOL_PROPERTY
U
SciTegic.value.DoubleValue
52.488

@<SCITEGIC>MOL_PROPERTY
W
SciTegic.value.DoubleValue
-54.194

@<SCITEGIC>MOL_PROPERTY
W(PB)
SciTegic.value.DoubleValue
-56.463

@<SCITEGIC>MOL_PROPERTY
W(SA)
SciTegic.value.DoubleValue
2.269

@<SCITEGIC>MOL_PROPERTY
Valence
SciTegic.value.DoubleValue
5.467

@<SCITEGIC>MOL_PROPERTY
Coulomb
SciTegic.value.DoubleValue
46.392

@<SCITEGIC>MOL_PROPERTY
VdW
SciTegic.value.DoubleValue
0.629

@<SCITEGIC>MOL_PROPERTY
VdW6
SciTegic.value.DoubleValue
-8.780

@<SCITEGIC>MOL_PROPERTY
VdW12
SciTegic.value.DoubleValue
9.409

@<SCITEGIC>MOL_PROPERTY
Bond
SciTegic.value.DoubleValue
0.279

@<SCITEGIC>MOL_PROPERTY
Angle
SciTegic.value.DoubleValue
1.628

@<SCITEGIC>MOL_PROPERTY
Pdih
SciTegic.value.DoubleValue
3.560

@<SCITEGIC>MOL_PROPERTY
Idih
SciTegic.value.DoubleValue
0.000

@<SCITEGIC>MOL_PROPERTY
Tether
SciTegic.value.DoubleValue
0.000

@<TRIPOS>MOLECULE
guest-s14_vm2.mol2 : vm2 ligand conformer 162
          26          25           1
SMALL
USER_CHARGES
 
@<TRIPOS>ATOM
       1    C1      18.583019   19.113600   20.880841 C.3        1 MOL1        -0.2400
       2    H1      18.493827   19.932129   21.602343 H          1 MOL1         0.0971
       3    H2      18.141471   19.459586   19.937337 H          1 MOL1         0.0971
       4    H3      17.978306   18.271632   21.241730 H          1 MOL1         0.0971
       5    C2      20.052909   18.687149   20.661715 C.3        1 MOL1        -0.1385
       6    H4      20.644426   19.536428   20.292619 H          1 MOL1         0.0960
       7    H5      20.067250   17.938133   19.857562 H          1 MOL1         0.0960
       8    C3      20.724321   18.067105   21.914906 C.3        1 MOL1        -0.1409
       9    H6      19.993761   17.492700   22.499327 H          1 MOL1         0.0960
      10    H7      21.458577   17.328027   21.565709 H          1 MOL1         0.0960
      11    C4      21.487895   19.073893   22.817375 C.3        1 MOL1        -0.1409
      12    H8      22.243204   19.591203   22.209986 H          1 MOL1         0.0960
      13    H9      22.057290   18.507773   23.566665 H          1 MOL1         0.0960
      14    C5      20.622149   20.137227   23.541973 C.3        1 MOL1        -0.1409
      15    H10     21.285105   20.770053   24.148036 H          1 MOL1         0.0960
      16    H11     20.173022   20.811982   22.802778 H          1 MOL1         0.0960
      17    C6      19.516677   19.558446   24.460106 C.3        1 MOL1        -0.1450
      18    H12     18.784159   18.999525   23.865083 H          1 MOL1         0.0960
      19    H13     18.969031   20.390134   24.922741 H          1 MOL1         0.0960
      20    C7      20.081445   18.649518   25.567310 C.3        1 MOL1         0.0172
      21    H14     20.595183   17.796069   25.117187 H          1 MOL1         0.0934
      22    H15     20.803174   19.208098   26.169312 H          1 MOL1         0.0934
      23    N1      19.012585   18.112063   26.496774 N.4        1 MOL1        -0.5956
      24    H16     19.409834   17.509707   27.225925 H          1 MOL1         0.3624
      25    H17     18.315223   17.553036   25.994631 H          1 MOL1         0.3624
      26    H18     18.508229   18.865864   26.974818 H          1 MOL1         0.3624
@<TRIPOS>BOND
    1     1     2    1
    2     1     3    1
    3     1     4    1
    4     1     5    1
    5     5     6    1
    6     5     7    1
    7     5     8    1
    8     8     9    1
    9     8    10    1
   10     8    11    1
   11    11    12    1
   12    11    13    1
   13    11    14    1
   14    14    15    1
   15    14    16    1
   16    14    17    1
   17    17    18    1
   18    17    19    1
   19    17    20    1
   20    20    21    1
   21    20    22    1
   22    20    23    1
   23    23    24    1
   24    23    25    1
   25    23    26    1
@<TRIPOS>SUBSTRUCTURE
       1 MOL1            1 RESIDUE      1      MOL     
@<SCITEGIC>MOL_PROPERTY
VM2 Rank
SciTegic.value.IntegerValue
162

@<SCITEGIC>MOL_PROPERTY
Conf_Id
SciTegic.value.IntegerValue
1370

@<SCITEGIC>MOL_PROPERTY
Probability
SciTegic.value.DoubleValue
0.00

@<SCITEGIC>MOL_PROPERTY
Sum Probability
SciTegic.value.DoubleValue
99.94

@<SCITEGIC>MOL_PROPERTY
Delta G
SciTegic.value.DoubleValue
4.485

@<SCITEGIC>MOL_PROPERTY
G
SciTegic.value.DoubleValue
52.747

@<SCITEGIC>MOL_PROPERTY
E
SciTegic.value.DoubleValue
19.426

@<SCITEGIC>MOL_PROPERTY
-TS
SciTegic.value.DoubleValue
33.320

@<SCITEGIC>MOL_PROPERTY
U+W
SciTegic.value.DoubleValue
-2.036

@<SCITEGIC>MOL_PROPERTY
U
SciTegic.value.DoubleValue
52.153

@<SCITEGIC>MOL_PROPERTY
W
SciTegic.value.DoubleValue
-54.188

@<SCITEGIC>MOL_PROPERTY
W(PB)
SciTegic.value.DoubleValue
-56.391

@<SCITEGIC>MOL_PROPERTY
W(SA)
SciTegic.value.DoubleValue
2.203

@<SCITEGIC>MOL_PROPERTY
Valence
SciTegic.value.DoubleValue
5.986

@<SCITEGIC>MOL_PROPERTY
Coulomb
SciTegic.value.DoubleValue
45.782

@<SCITEGIC>MOL_PROPERTY
VdW
SciTegic.value.DoubleValue
0.385

@<SCITEGIC>MOL_PROPERTY
VdW6
SciTegic.value.DoubleValue
-9.288

@<SCITEGIC>MOL_PROPERTY
VdW12
SciTegic.value.DoubleValue
9.673

@<SCITEGIC>MOL_PROPERTY
Bond
SciTegic.value.DoubleValue
0.289

@<SCITEGIC>MOL_PROPERTY
Angle
SciTegic.value.DoubleValue
2.080

@<SCITEGIC>MOL_PROPERTY
Pdih
SciTegic.value.DoubleValue
3.617

@<SCITEGIC>MOL_PROPERTY
Idih
SciTegic.value.DoubleValue
0.000

@<SCITEGIC>MOL_PROPERTY
Tether
SciTegic.value.DoubleValue
0.000

@<TRIPOS>MOLECULE
guest-s14_vm2.mol2 : vm2 ligand conformer 163
          26          25           1
SMALL
USER_CHARGES
 
@<TRIPOS>ATOM
       1    C1      18.429606   19.348794   20.648127 C.3        1 MOL1        -0.2400
       2    H1      18.892102   19.690805   19.713082 H          1 MOL1         0.0971
       3    H2      17.567589   18.721087   20.387558 H          1 MOL1         0.0971
       4    H3      18.055008   20.229177   21.186429 H          1 MOL1         0.0971
       5    C2      19.437624   18.559651   21.509739 C.3        1 MOL1        -0.1385
       6    H4      19.769730   17.668655   20.958877 H          1 MOL1         0.0960
       7    H5      18.929289   18.200764   22.412859 H          1 MOL1         0.0960
       8    C3      20.663670   19.423933   21.887262 C.3        1 MOL1        -0.1409
       9    H6      21.136864   19.784354   20.963465 H          1 MOL1         0.0960
      10    H7      20.345118   20.324878   22.426049 H          1 MOL1         0.0960
      11    C4      21.730504   18.660610   22.711514 C.3        1 MOL1        -0.1409
      12    H8      22.592602   19.323715   22.867193 H          1 MOL1         0.0960
      13    H9      22.106782   17.823065   22.108061 H          1 MOL1         0.0960
      14    C5      21.270365   18.109457   24.088548 C.3        1 MOL1        -0.1409
      15    H10     20.488880   17.350471   23.959460 H          1 MOL1         0.0960
      16    H11     22.124007   17.571628   24.523656 H          1 MOL1         0.0960
      17    C6      20.826749   19.193313   25.107431 C.3        1 MOL1        -0.1450
      18    H12     21.459609   20.083730   24.996664 H          1 MOL1         0.0960
      19    H13     21.006656   18.822474   26.125273 H          1 MOL1         0.0960
      20    C7      19.343441   19.603761   25.000693 C.3        1 MOL1         0.0172
      21    H14     19.155576   20.450610   25.666289 H          1 MOL1         0.0934
      22    H15     19.108559   19.916059   23.981473 H          1 MOL1         0.0934
      23    N1      18.379041   18.499481   25.387686 N.4        1 MOL1        -0.5956
      24    H16     17.402285   18.803553   25.312325 H          1 MOL1         0.3624
      25    H17     18.522321   18.193471   26.355606 H          1 MOL1         0.3624
      26    H18     18.485705   17.673869   24.791116 H          1 MOL1         0.3624
@<TRIPOS>BOND
    1     1     2    1
    2     1     3    1
    3     1     4    1
    4     1     5    1
    5     5     6    1
    6     5     7    1
    7     5     8    1
    8     8     9    1
    9     8    10    1
   10     8    11    1
   11    11    12    1
   12    11    13    1
   13    11    14    1
   14    14    15    1
   15    14    16    1
   16    14    17    1
   17    17    18    1
   18    17    19    1
   19    17    20    1
   20    20    21    1
   21    20    22    1
   22    20    23    1
   23    23    24    1
   24    23    25    1
   25    23    26    1
@<TRIPOS>SUBSTRUCTURE
       1 MOL1            1 RESIDUE      1      MOL     
@<SCITEGIC>MOL_PROPERTY
VM2 Rank
SciTegic.value.IntegerValue
163

@<SCITEGIC>MOL_PROPERTY
Conf_Id
SciTegic.value.IntegerValue
701

@<SCITEGIC>MOL_PROPERTY
Probability
SciTegic.value.DoubleValue
0.00

@<SCITEGIC>MOL_PROPERTY
Sum Probability
SciTegic.value.DoubleValue
99.94

@<SCITEGIC>MOL_PROPERTY
Delta G
SciTegic.value.DoubleValue
4.495

@<SCITEGIC>MOL_PROPERTY
G
SciTegic.value.DoubleValue
52.757

@<SCITEGIC>MOL_PROPERTY
E
SciTegic.value.DoubleValue
19.305

@<SCITEGIC>MOL_PROPERTY
-TS
SciTegic.value.DoubleValue
33.452

@<SCITEGIC>MOL_PROPERTY
U+W
SciTegic.value.DoubleValue
-2.157

@<SCITEGIC>MOL_PROPERTY
U
SciTegic.value.DoubleValue
52.359

@<SCITEGIC>MOL_PROPERTY
W
SciTegic.value.DoubleValue
-54.516

@<SCITEGIC>MOL_PROPERTY
W(PB)
SciTegic.value.DoubleValue
-56.739

@<SCITEGIC>MOL_PROPERTY
W(SA)
SciTegic.value.DoubleValue
2.223

@<SCITEGIC>MOL_PROPERTY
Valence
SciTegic.value.DoubleValue
5.321

@<SCITEGIC>MOL_PROPERTY
Coulomb
SciTegic.value.DoubleValue
46.894

@<SCITEGIC>MOL_PROPERTY
VdW
SciTegic.value.DoubleValue
0.144

@<SCITEGIC>MOL_PROPERTY
VdW6
SciTegic.value.DoubleValue
-9.549

@<SCITEGIC>MOL_PROPERTY
VdW12
SciTegic.value.DoubleValue
9.694

@<SCITEGIC>MOL_PROPERTY
Bond
SciTegic.value.DoubleValue
0.274

@<SCITEGIC>MOL_PROPERTY
Angle
SciTegic.value.DoubleValue
1.814

@<SCITEGIC>MOL_PROPERTY
Pdih
SciTegic.value.DoubleValue
3.233

@<SCITEGIC>MOL_PROPERTY
Idih
SciTegic.value.DoubleValue
0.000

@<SCITEGIC>MOL_PROPERTY
Tether
SciTegic.value.DoubleValue
0.000

@<TRIPOS>MOLECULE
guest-s14_vm2.mol2 : vm2 ligand conformer 164
          26          25           1
SMALL
USER_CHARGES
 
@<TRIPOS>ATOM
       1    C1      20.176468   19.194760   19.714412 C.3        1 MOL1        -0.2400
       2    H1      19.185433   18.725792   19.749896 H          1 MOL1         0.0971
       3    H2      20.041565   20.283424   19.674265 H          1 MOL1         0.0971
       4    H3      20.655404   18.881308   18.777773 H          1 MOL1         0.0971
       5    C2      21.042929   18.786125   20.927393 C.3        1 MOL1        -0.1385
       6    H4      22.060770   19.173594   20.780149 H          1 MOL1         0.0960
       7    H5      21.133697   17.691551   20.964999 H          1 MOL1         0.0960
       8    C3      20.502993   19.313171   22.279006 C.3        1 MOL1        -0.1409
       9    H6      21.247032   19.086083   23.049770 H          1 MOL1         0.0960
      10    H7      20.426429   20.408338   22.237754 H          1 MOL1         0.0960
      11    C4      19.129287   18.709535   22.669814 C.3        1 MOL1        -0.1409
      12    H8      19.174241   17.612134   22.646141 H          1 MOL1         0.0960
      13    H9      18.393476   18.999945   21.908681 H          1 MOL1         0.0960
      14    C5      18.597854   19.190098   24.045770 C.3        1 MOL1        -0.1409
      15    H10     18.877056   20.237727   24.220101 H          1 MOL1         0.0960
      16    H11     17.499907   19.184911   24.001558 H          1 MOL1         0.0960
      17    C6      19.012019   18.302268   25.249562 C.3        1 MOL1        -0.1450
      18    H12     18.668577   17.274095   25.074498 H          1 MOL1         0.0960
      19    H13     18.481555   18.648257   26.146624 H          1 MOL1         0.0960
      20    C7      20.522188   18.272388   25.552223 C.3        1 MOL1         0.0172
      21    H14     20.707483   17.606192   26.399169 H          1 MOL1         0.0934
      22    H15     21.065458   17.878487   24.690257 H          1 MOL1         0.0934
      23    N1      21.097261   19.630655   25.902818 N.4        1 MOL1        -0.5956
      24    H16     20.648328   20.028938   26.733971 H          1 MOL1         0.3624
      25    H17     20.970987   20.302023   25.139382 H          1 MOL1         0.3624
      26    H18     22.102449   19.579899   26.100762 H          1 MOL1         0.3624
@<TRIPOS>BOND
    1     1     2    1
    2     1     3    1
    3     1     4    1
    4     1     5    1
    5     5     6    1
    6     5     7    1
    7     5     8    1
    8     8     9    1
    9     8    10    1
   10     8    11    1
   11    11    12    1
   12    11    13    1
   13    11    14    1
   14    14    15    1
   15    14    16    1
   16    14    17    1
   17    17    18    1
   18    17    19    1
   19    17    20    1
   20    20    21    1
   21    20    22    1
   22    20    23    1
   23    23    24    1
   24    23    25    1
   25    23    26    1
@<TRIPOS>SUBSTRUCTURE
       1 MOL1            1 RESIDUE      1      MOL     
@<SCITEGIC>MOL_PROPERTY
VM2 Rank
SciTegic.value.IntegerValue
164

@<SCITEGIC>MOL_PROPERTY
Conf_Id
SciTegic.value.IntegerValue
814

@<SCITEGIC>MOL_PROPERTY
Probability
SciTegic.value.DoubleValue
0.00

@<SCITEGIC>MOL_PROPERTY
Sum Probability
SciTegic.value.DoubleValue
99.95

@<SCITEGIC>MOL_PROPERTY
Delta G
SciTegic.value.DoubleValue
4.497

@<SCITEGIC>MOL_PROPERTY
G
SciTegic.value.DoubleValue
52.758

@<SCITEGIC>MOL_PROPERTY
E
SciTegic.value.DoubleValue
19.769

@<SCITEGIC>MOL_PROPERTY
-TS
SciTegic.value.DoubleValue
32.989

@<SCITEGIC>MOL_PROPERTY
U+W
SciTegic.value.DoubleValue
-1.693

@<SCITEGIC>MOL_PROPERTY
U
SciTegic.value.DoubleValue
52.488

@<SCITEGIC>MOL_PROPERTY
W
SciTegic.value.DoubleValue
-54.181

@<SCITEGIC>MOL_PROPERTY
W(PB)
SciTegic.value.DoubleValue
-56.436

@<SCITEGIC>MOL_PROPERTY
W(SA)
SciTegic.value.DoubleValue
2.255

@<SCITEGIC>MOL_PROPERTY
Valence
SciTegic.value.DoubleValue
5.467

@<SCITEGIC>MOL_PROPERTY
Coulomb
SciTegic.value.DoubleValue
46.392

@<SCITEGIC>MOL_PROPERTY
VdW
SciTegic.value.DoubleValue
0.629

@<SCITEGIC>MOL_PROPERTY
VdW6
SciTegic.value.DoubleValue
-8.780

@<SCITEGIC>MOL_PROPERTY
VdW12
SciTegic.value.DoubleValue
9.409

@<SCITEGIC>MOL_PROPERTY
Bond
SciTegic.value.DoubleValue
0.279

@<SCITEGIC>MOL_PROPERTY
Angle
SciTegic.value.DoubleValue
1.629

@<SCITEGIC>MOL_PROPERTY
Pdih
SciTegic.value.DoubleValue
3.559

@<SCITEGIC>MOL_PROPERTY
Idih
SciTegic.value.DoubleValue
0.000

@<SCITEGIC>MOL_PROPERTY
Tether
SciTegic.value.DoubleValue
0.000

@<TRIPOS>MOLECULE
guest-s14_vm2.mol2 : vm2 ligand conformer 165
          26          25           1
SMALL
USER_CHARGES
 
@<TRIPOS>ATOM
       1    C1      20.509756   20.383986   20.945137 C.3        1 MOL1        -0.2400
       2    H1      19.759621   20.766667   21.644684 H          1 MOL1         0.0971
       3    H2      21.503899   20.596128   21.359265 H          1 MOL1         0.0971
       4    H3      20.409255   20.954929   20.013048 H          1 MOL1         0.0971
       5    C2      20.333987   18.872547   20.671070 C.3        1 MOL1        -0.1385
       6    H4      21.053575   18.588554   19.890409 H          1 MOL1         0.0960
       7    H5      19.338722   18.675667   20.249072 H          1 MOL1         0.0960
       8    C3      20.581412   17.972899   21.910082 C.3        1 MOL1        -0.1409
       9    H6      20.987972   17.017753   21.549927 H          1 MOL1         0.0960
      10    H7      21.368788   18.399377   22.545188 H          1 MOL1         0.0960
      11    C4      19.314812   17.641035   22.744767 C.3        1 MOL1        -0.1409
      12    H8      19.576198   16.871816   23.483764 H          1 MOL1         0.0960
      13    H9      18.571206   17.170026   22.087328 H          1 MOL1         0.0960
      14    C5      18.644685   18.833343   23.475904 C.3        1 MOL1        -0.1409
      15    H10     18.235857   19.534669   22.738055 H          1 MOL1         0.0960
      16    H11     17.774812   18.455514   24.030753 H          1 MOL1         0.0960
      17    C6      19.567863   19.592128   24.461815 C.3        1 MOL1        -0.1450
      18    H12     18.997691   20.408984   24.923661 H          1 MOL1         0.0960
      19    H13     20.396701   20.062628   23.918965 H          1 MOL1         0.0960
      20    C7      20.129147   18.680957   25.568946 C.3        1 MOL1         0.0172
      21    H14     19.304530   18.219959   26.119218 H          1 MOL1         0.0934
      22    H15     20.732119   17.886318   25.121858 H          1 MOL1         0.0934
      23    N1      20.999338   19.422104   26.563278 N.4        1 MOL1        -0.5956
      24    H16     20.482910   20.167994   27.040843 H          1 MOL1         0.3624
      25    H17     21.810169   19.857442   26.111605 H          1 MOL1         0.3624
      26    H18     21.362441   18.797311   27.291351 H          1 MOL1         0.3624
@<TRIPOS>BOND
    1     1     2    1
    2     1     3    1
    3     1     4    1
    4     1     5    1
    5     5     6    1
    6     5     7    1
    7     5     8    1
    8     8     9    1
    9     8    10    1
   10     8    11    1
   11    11    12    1
   12    11    13    1
   13    11    14    1
   14    14    15    1
   15    14    16    1
   16    14    17    1
   17    17    18    1
   18    17    19    1
   19    17    20    1
   20    20    21    1
   21    20    22    1
   22    20    23    1
   23    23    24    1
   24    23    25    1
   25    23    26    1
@<TRIPOS>SUBSTRUCTURE
       1 MOL1            1 RESIDUE      1      MOL     
@<SCITEGIC>MOL_PROPERTY
VM2 Rank
SciTegic.value.IntegerValue
165

@<SCITEGIC>MOL_PROPERTY
Conf_Id
SciTegic.value.IntegerValue
282

@<SCITEGIC>MOL_PROPERTY
Probability
SciTegic.value.DoubleValue
0.00

@<SCITEGIC>MOL_PROPERTY
Sum Probability
SciTegic.value.DoubleValue
99.95

@<SCITEGIC>MOL_PROPERTY
Delta G
SciTegic.value.DoubleValue
4.498

@<SCITEGIC>MOL_PROPERTY
G
SciTegic.value.DoubleValue
52.759

@<SCITEGIC>MOL_PROPERTY
E
SciTegic.value.DoubleValue
19.438

@<SCITEGIC>MOL_PROPERTY
-TS
SciTegic.value.DoubleValue
33.321

@<SCITEGIC>MOL_PROPERTY
U+W
SciTegic.value.DoubleValue
-2.023

@<SCITEGIC>MOL_PROPERTY
U
SciTegic.value.DoubleValue
52.153

@<SCITEGIC>MOL_PROPERTY
W
SciTegic.value.DoubleValue
-54.176

@<SCITEGIC>MOL_PROPERTY
W(PB)
SciTegic.value.DoubleValue
-56.402

@<SCITEGIC>MOL_PROPERTY
W(SA)
SciTegic.value.DoubleValue
2.226

@<SCITEGIC>MOL_PROPERTY
Valence
SciTegic.value.DoubleValue
5.986

@<SCITEGIC>MOL_PROPERTY
Coulomb
SciTegic.value.DoubleValue
45.781

@<SCITEGIC>MOL_PROPERTY
VdW
SciTegic.value.DoubleValue
0.385

@<SCITEGIC>MOL_PROPERTY
VdW6
SciTegic.value.DoubleValue
-9.288

@<SCITEGIC>MOL_PROPERTY
VdW12
SciTegic.value.DoubleValue
9.673

@<SCITEGIC>MOL_PROPERTY
Bond
SciTegic.value.DoubleValue
0.289

@<SCITEGIC>MOL_PROPERTY
Angle
SciTegic.value.DoubleValue
2.079

@<SCITEGIC>MOL_PROPERTY
Pdih
SciTegic.value.DoubleValue
3.617

@<SCITEGIC>MOL_PROPERTY
Idih
SciTegic.value.DoubleValue
0.000

@<SCITEGIC>MOL_PROPERTY
Tether
SciTegic.value.DoubleValue
0.000

@<TRIPOS>MOLECULE
guest-s14_vm2.mol2 : vm2 ligand conformer 166
          26          25           1
SMALL
USER_CHARGES
 
@<TRIPOS>ATOM
       1    C1      20.858949   18.236826   20.010506 C.3        1 MOL1        -0.2400
       2    H1      21.872954   18.172884   19.595026 H          1 MOL1         0.0971
       3    H2      20.645102   17.282486   20.506599 H          1 MOL1         0.0971
       4    H3      20.160485   18.350046   19.171271 H          1 MOL1         0.0971
       5    C2      20.749958   19.429201   20.988602 C.3        1 MOL1        -0.1385
       6    H4      21.061775   20.341437   20.461102 H          1 MOL1         0.0960
       7    H5      21.463182   19.294277   21.810690 H          1 MOL1         0.0960
       8    C3      19.314056   19.641578   21.534098 C.3        1 MOL1        -0.1409
       9    H6      19.243358   20.629375   22.009721 H          1 MOL1         0.0960
      10    H7      18.624478   19.678659   20.679475 H          1 MOL1         0.0960
      11    C4      18.823410   18.552014   22.526325 C.3        1 MOL1        -0.1409
      12    H8      19.299777   17.586540   22.315511 H          1 MOL1         0.0960
      13    H9      17.750096   18.393331   22.352929 H          1 MOL1         0.0960
      14    C5      19.004516   18.910382   24.024014 C.3        1 MOL1        -0.1409
      15    H10     18.434048   19.821093   24.253294 H          1 MOL1         0.0960
      16    H11     18.551124   18.107813   24.620394 H          1 MOL1         0.0960
      17    C6      20.477970   19.104685   24.457472 C.3        1 MOL1        -0.1450
      18    H12     20.902338   19.968961   23.931981 H          1 MOL1         0.0960
      19    H13     21.075522   18.229513   24.169861 H          1 MOL1         0.0960
      20    C7      20.625240   19.354596   25.970915 C.3        1 MOL1         0.0172
      21    H14     21.668183   19.591160   26.198627 H          1 MOL1         0.0934
      22    H15     20.010048   20.209382   26.264654 H          1 MOL1         0.0934
      23    N1      20.226901   18.169719   26.829068 N.4        1 MOL1        -0.5956
      24    H16     20.787384   17.338615   26.614372 H          1 MOL1         0.3624
      25    H17     19.243654   17.915523   26.693376 H          1 MOL1         0.3624
      26    H18     20.351150   18.364778   27.828471 H          1 MOL1         0.3624
@<TRIPOS>BOND
    1     1     2    1
    2     1     3    1
    3     1     4    1
    4     1     5    1
    5     5     6    1
    6     5     7    1
    7     5     8    1
    8     8     9    1
    9     8    10    1
   10     8    11    1
   11    11    12    1
   12    11    13    1
   13    11    14    1
   14    14    15    1
   15    14    16    1
   16    14    17    1
   17    17    18    1
   18    17    19    1
   19    17    20    1
   20    20    21    1
   21    20    22    1
   22    20    23    1
   23    23    24    1
   24    23    25    1
   25    23    26    1
@<TRIPOS>SUBSTRUCTURE
       1 MOL1            1 RESIDUE      1      MOL     
@<SCITEGIC>MOL_PROPERTY
VM2 Rank
SciTegic.value.IntegerValue
166

@<SCITEGIC>MOL_PROPERTY
Conf_Id
SciTegic.value.IntegerValue
240

@<SCITEGIC>MOL_PROPERTY
Probability
SciTegic.value.DoubleValue
0.00

@<SCITEGIC>MOL_PROPERTY
Sum Probability
SciTegic.value.DoubleValue
99.95

@<SCITEGIC>MOL_PROPERTY
Delta G
SciTegic.value.DoubleValue
4.508

@<SCITEGIC>MOL_PROPERTY
G
SciTegic.value.DoubleValue
52.769

@<SCITEGIC>MOL_PROPERTY
E
SciTegic.value.DoubleValue
19.899

@<SCITEGIC>MOL_PROPERTY
-TS
SciTegic.value.DoubleValue
32.870

@<SCITEGIC>MOL_PROPERTY
U+W
SciTegic.value.DoubleValue
-1.563

@<SCITEGIC>MOL_PROPERTY
U
SciTegic.value.DoubleValue
52.213

@<SCITEGIC>MOL_PROPERTY
W
SciTegic.value.DoubleValue
-53.776

@<SCITEGIC>MOL_PROPERTY
W(PB)
SciTegic.value.DoubleValue
-56.014

@<SCITEGIC>MOL_PROPERTY
W(SA)
SciTegic.value.DoubleValue
2.238

@<SCITEGIC>MOL_PROPERTY
Valence
SciTegic.value.DoubleValue
6.034

@<SCITEGIC>MOL_PROPERTY
Coulomb
SciTegic.value.DoubleValue
45.240

@<SCITEGIC>MOL_PROPERTY
VdW
SciTegic.value.DoubleValue
0.939

@<SCITEGIC>MOL_PROPERTY
VdW6
SciTegic.value.DoubleValue
-8.400

@<SCITEGIC>MOL_PROPERTY
VdW12
SciTegic.value.DoubleValue
9.339

@<SCITEGIC>MOL_PROPERTY
Bond
SciTegic.value.DoubleValue
0.287

@<SCITEGIC>MOL_PROPERTY
Angle
SciTegic.value.DoubleValue
1.514

@<SCITEGIC>MOL_PROPERTY
Pdih
SciTegic.value.DoubleValue
4.234

@<SCITEGIC>MOL_PROPERTY
Idih
SciTegic.value.DoubleValue
0.000

@<SCITEGIC>MOL_PROPERTY
Tether
SciTegic.value.DoubleValue
0.000

@<TRIPOS>MOLECULE
guest-s14_vm2.mol2 : vm2 ligand conformer 167
          26          25           1
SMALL
USER_CHARGES
 
@<TRIPOS>ATOM
       1    C1      18.962811   20.102234   21.087224 C.3        1 MOL1        -0.2400
       2    H1      19.567251   21.017275   21.040150 H          1 MOL1         0.0971
       3    H2      18.089566   20.246958   20.438111 H          1 MOL1         0.0971
       4    H3      18.594422   19.990602   22.112281 H          1 MOL1         0.0971
       5    C2      19.780318   18.874095   20.623879 C.3        1 MOL1        -0.1385
       6    H4      20.046600   19.027266   19.568643 H          1 MOL1         0.0960
       7    H5      19.156792   17.969645   20.649008 H          1 MOL1         0.0960
       8    C3      21.086585   18.650773   21.429622 C.3        1 MOL1        -0.1409
       9    H6      21.835314   18.232657   20.742659 H          1 MOL1         0.0960
      10    H7      21.504329   19.611020   21.759050 H          1 MOL1         0.0960
      11    C4      20.961024   17.663516   22.621780 C.3        1 MOL1        -0.1409
      12    H8      21.960812   17.500724   23.047328 H          1 MOL1         0.0960
      13    H9      20.640447   16.685691   22.236779 H          1 MOL1         0.0960
      14    C5      20.001067   18.084496   23.762167 C.3        1 MOL1        -0.1409
      15    H10     18.976835   18.167281   23.377707 H          1 MOL1         0.0960
      16    H11     19.977377   17.272011   24.500280 H          1 MOL1         0.0960
      17    C6      20.419835   19.399007   24.467593 C.3        1 MOL1        -0.1450
      18    H12     20.454350   20.219491   23.740781 H          1 MOL1         0.0960
      19    H13     21.434927   19.299407   24.874156 H          1 MOL1         0.0960
      20    C7      19.450776   19.801868   25.595694 C.3        1 MOL1         0.0172
      21    H14     19.744730   20.776466   25.994807 H          1 MOL1         0.0934
      22    H15     18.436785   19.888899   25.196167 H          1 MOL1         0.0934
      23    N1      19.418585   18.823011   26.753040 N.4        1 MOL1        -0.5956
      24    H16     18.775159   19.127626   27.491587 H          1 MOL1         0.3624
      25    H17     20.341616   18.715050   27.185840 H          1 MOL1         0.3624
      26    H18     19.113083   17.891738   26.454351 H          1 MOL1         0.3624
@<TRIPOS>BOND
    1     1     2    1
    2     1     3    1
    3     1     4    1
    4     1     5    1
    5     5     6    1
    6     5     7    1
    7     5     8    1
    8     8     9    1
    9     8    10    1
   10     8    11    1
   11    11    12    1
   12    11    13    1
   13    11    14    1
   14    14    15    1
   15    14    16    1
   16    14    17    1
   17    17    18    1
   18    17    19    1
   19    17    20    1
   20    20    21    1
   21    20    22    1
   22    20    23    1
   23    23    24    1
   24    23    25    1
   25    23    26    1
@<TRIPOS>SUBSTRUCTURE
       1 MOL1            1 RESIDUE      1      MOL     
@<SCITEGIC>MOL_PROPERTY
VM2 Rank
SciTegic.value.IntegerValue
167

@<SCITEGIC>MOL_PROPERTY
Conf_Id
SciTegic.value.IntegerValue
1008

@<SCITEGIC>MOL_PROPERTY
Probability
SciTegic.value.DoubleValue
0.00

@<SCITEGIC>MOL_PROPERTY
Sum Probability
SciTegic.value.DoubleValue
99.96

@<SCITEGIC>MOL_PROPERTY
Delta G
SciTegic.value.DoubleValue
4.513

@<SCITEGIC>MOL_PROPERTY
G
SciTegic.value.DoubleValue
52.774

@<SCITEGIC>MOL_PROPERTY
E
SciTegic.value.DoubleValue
19.499

@<SCITEGIC>MOL_PROPERTY
-TS
SciTegic.value.DoubleValue
33.275

@<SCITEGIC>MOL_PROPERTY
U+W
SciTegic.value.DoubleValue
-1.963

@<SCITEGIC>MOL_PROPERTY
U
SciTegic.value.DoubleValue
51.929

@<SCITEGIC>MOL_PROPERTY
W
SciTegic.value.DoubleValue
-53.892

@<SCITEGIC>MOL_PROPERTY
W(PB)
SciTegic.value.DoubleValue
-56.114

@<SCITEGIC>MOL_PROPERTY
W(SA)
SciTegic.value.DoubleValue
2.222

@<SCITEGIC>MOL_PROPERTY
Valence
SciTegic.value.DoubleValue
5.867

@<SCITEGIC>MOL_PROPERTY
Coulomb
SciTegic.value.DoubleValue
45.498

@<SCITEGIC>MOL_PROPERTY
VdW
SciTegic.value.DoubleValue
0.563

@<SCITEGIC>MOL_PROPERTY
VdW6
SciTegic.value.DoubleValue
-9.057

@<SCITEGIC>MOL_PROPERTY
VdW12
SciTegic.value.DoubleValue
9.621

@<SCITEGIC>MOL_PROPERTY
Bond
SciTegic.value.DoubleValue
0.287

@<SCITEGIC>MOL_PROPERTY
Angle
SciTegic.value.DoubleValue
1.896

@<SCITEGIC>MOL_PROPERTY
Pdih
SciTegic.value.DoubleValue
3.684

@<SCITEGIC>MOL_PROPERTY
Idih
SciTegic.value.DoubleValue
0.000

@<SCITEGIC>MOL_PROPERTY
Tether
SciTegic.value.DoubleValue
0.000

@<TRIPOS>MOLECULE
guest-s14_vm2.mol2 : vm2 ligand conformer 168
          26          25           1
SMALL
USER_CHARGES
 
@<TRIPOS>ATOM
       1    C1      18.706217   18.789960   20.607606 C.3        1 MOL1        -0.2400
       2    H1      18.437874   18.122827   21.435418 H          1 MOL1         0.0971
       3    H2      17.803115   19.344527   20.321852 H          1 MOL1         0.0971
       4    H3      19.002936   18.169045   19.752422 H          1 MOL1         0.0971
       5    C2      19.838976   19.765375   21.001465 C.3        1 MOL1        -0.1385
       6    H4      19.523952   20.397463   21.841355 H          1 MOL1         0.0960
       7    H5      20.014392   20.453173   20.162536 H          1 MOL1         0.0960
       8    C3      21.171777   19.052677   21.337142 C.3        1 MOL1        -0.1409
       9    H6      21.500518   18.491602   20.451545 H          1 MOL1         0.0960
      10    H7      21.945326   19.813557   21.509720 H          1 MOL1         0.0960
      11    C4      21.140696   18.085170   22.551162 C.3        1 MOL1        -0.1409
      12    H8      22.126889   17.603677   22.605341 H          1 MOL1         0.0960
      13    H9      20.429478   17.266580   22.379258 H          1 MOL1         0.0960
      14    C5      20.870866   18.765396   23.919288 C.3        1 MOL1        -0.1409
      15    H10     21.468705   18.245285   24.679488 H          1 MOL1         0.0960
      16    H11     21.234877   19.801949   23.903545 H          1 MOL1         0.0960
      17    C6      19.383581   18.724577   24.352991 C.3        1 MOL1        -0.1450
      18    H12     19.043255   17.683094   24.424929 H          1 MOL1         0.0960
      19    H13     18.754278   19.203668   23.595615 H          1 MOL1         0.0960
      20    C7      19.137963   19.436912   25.697102 C.3        1 MOL1         0.0172
      21    H14     19.485242   20.471704   25.633877 H          1 MOL1         0.0934
      22    H15     18.065463   19.449765   25.909529 H          1 MOL1         0.0934
      23    N1      19.830923   18.778933   26.874245 N.4        1 MOL1        -0.5956
      24    H16     20.848796   18.766908   26.757282 H          1 MOL1         0.3624
      25    H17     19.528444   17.807479   26.999710 H          1 MOL1         0.3624
      26    H18     19.635629   19.269484   27.753723 H          1 MOL1         0.3624
@<TRIPOS>BOND
    1     1     2    1
    2     1     3    1
    3     1     4    1
    4     1     5    1
    5     5     6    1
    6     5     7    1
    7     5     8    1
    8     8     9    1
    9     8    10    1
   10     8    11    1
   11    11    12    1
   12    11    13    1
   13    11    14    1
   14    14    15    1
   15    14    16    1
   16    14    17    1
   17    17    18    1
   18    17    19    1
   19    17    20    1
   20    20    21    1
   21    20    22    1
   22    20    23    1
   23    23    24    1
   24    23    25    1
   25    23    26    1
@<TRIPOS>SUBSTRUCTURE
       1 MOL1            1 RESIDUE      1      MOL     
@<SCITEGIC>MOL_PROPERTY
VM2 Rank
SciTegic.value.IntegerValue
168

@<SCITEGIC>MOL_PROPERTY
Conf_Id
SciTegic.value.IntegerValue
1373

@<SCITEGIC>MOL_PROPERTY
Probability
SciTegic.value.DoubleValue
0.00

@<SCITEGIC>MOL_PROPERTY
Sum Probability
SciTegic.value.DoubleValue
99.96

@<SCITEGIC>MOL_PROPERTY
Delta G
SciTegic.value.DoubleValue
4.520

@<SCITEGIC>MOL_PROPERTY
G
SciTegic.value.DoubleValue
52.781

@<SCITEGIC>MOL_PROPERTY
E
SciTegic.value.DoubleValue
19.516

@<SCITEGIC>MOL_PROPERTY
-TS
SciTegic.value.DoubleValue
33.265

@<SCITEGIC>MOL_PROPERTY
U+W
SciTegic.value.DoubleValue
-1.946

@<SCITEGIC>MOL_PROPERTY
U
SciTegic.value.DoubleValue
51.907

@<SCITEGIC>MOL_PROPERTY
W
SciTegic.value.DoubleValue
-53.852

@<SCITEGIC>MOL_PROPERTY
W(PB)
SciTegic.value.DoubleValue
-56.076

@<SCITEGIC>MOL_PROPERTY
W(SA)
SciTegic.value.DoubleValue
2.224

@<SCITEGIC>MOL_PROPERTY
Valence
SciTegic.value.DoubleValue
5.914

@<SCITEGIC>MOL_PROPERTY
Coulomb
SciTegic.value.DoubleValue
45.360

@<SCITEGIC>MOL_PROPERTY
VdW
SciTegic.value.DoubleValue
0.633

@<SCITEGIC>MOL_PROPERTY
VdW6
SciTegic.value.DoubleValue
-8.891

@<SCITEGIC>MOL_PROPERTY
VdW12
SciTegic.value.DoubleValue
9.524

@<SCITEGIC>MOL_PROPERTY
Bond
SciTegic.value.DoubleValue
0.284

@<SCITEGIC>MOL_PROPERTY
Angle
SciTegic.value.DoubleValue
1.759

@<SCITEGIC>MOL_PROPERTY
Pdih
SciTegic.value.DoubleValue
3.870

@<SCITEGIC>MOL_PROPERTY
Idih
SciTegic.value.DoubleValue
0.000

@<SCITEGIC>MOL_PROPERTY
Tether
SciTegic.value.DoubleValue
0.000

@<TRIPOS>MOLECULE
guest-s14_vm2.mol2 : vm2 ligand conformer 169
          26          25           1
SMALL
USER_CHARGES
 
@<TRIPOS>ATOM
       1    C1      19.707373   20.474434   20.991472 C.3        1 MOL1        -0.2400
       2    H1      18.720286   20.277597   21.427234 H          1 MOL1         0.0971
       3    H2      20.335221   20.960842   21.749128 H          1 MOL1         0.0971
       4    H3      19.564870   21.184556   20.166684 H          1 MOL1         0.0971
       5    C2      20.361696   19.174101   20.476325 C.3        1 MOL1        -0.1385
       6    H4      21.254713   19.437438   19.892438 H          1 MOL1         0.0960
       7    H5      19.677843   18.673798   19.776510 H          1 MOL1         0.0960
       8    C3      20.780423   18.184196   21.593185 C.3        1 MOL1        -0.1409
       9    H6      21.280119   17.334410   21.108004 H          1 MOL1         0.0960
      10    H7      21.543137   18.646214   22.231738 H          1 MOL1         0.0960
      11    C4      19.604381   17.627474   22.441687 C.3        1 MOL1        -0.1409
      12    H8      19.822150   16.583560   22.706291 H          1 MOL1         0.0960
      13    H9      18.696451   17.589218   21.824270 H          1 MOL1         0.0960
      14    C5      19.308260   18.408552   23.748849 C.3        1 MOL1        -0.1409
      15    H10     19.161593   19.471946   23.530174 H          1 MOL1         0.0960
      16    H11     18.355430   18.045955   24.158748 H          1 MOL1         0.0960
      17    C6      20.407089   18.236941   24.828070 C.3        1 MOL1        -0.1450
      18    H12     21.359769   18.656529   24.482583 H          1 MOL1         0.0960
      19    H13     20.581131   17.166988   25.002935 H          1 MOL1         0.0960
      20    C7      20.025549   18.892748   26.169098 C.3        1 MOL1         0.0172
      21    H14     19.076305   18.481724   26.523182 H          1 MOL1         0.0934
      22    H15     20.793515   18.668158   26.914301 H          1 MOL1         0.0934
      23    N1      19.886229   20.400554   26.092314 N.4        1 MOL1        -0.5956
      24    H16     20.756447   20.847982   25.786648 H          1 MOL1         0.3624
      25    H17     19.643974   20.806942   27.002521 H          1 MOL1         0.3624
      26    H18     19.152994   20.680732   25.433788 H          1 MOL1         0.3624
@<TRIPOS>BOND
    1     1     2    1
    2     1     3    1
    3     1     4    1
    4     1     5    1
    5     5     6    1
    6     5     7    1
    7     5     8    1
    8     8     9    1
    9     8    10    1
   10     8    11    1
   11    11    12    1
   12    11    13    1
   13    11    14    1
   14    14    15    1
   15    14    16    1
   16    14    17    1
   17    17    18    1
   18    17    19    1
   19    17    20    1
   20    20    21    1
   21    20    22    1
   22    20    23    1
   23    23    24    1
   24    23    25    1
   25    23    26    1
@<TRIPOS>SUBSTRUCTURE
       1 MOL1            1 RESIDUE      1      MOL     
@<SCITEGIC>MOL_PROPERTY
VM2 Rank
SciTegic.value.IntegerValue
169

@<SCITEGIC>MOL_PROPERTY
Conf_Id
SciTegic.value.IntegerValue
799

@<SCITEGIC>MOL_PROPERTY
Probability
SciTegic.value.DoubleValue
0.00

@<SCITEGIC>MOL_PROPERTY
Sum Probability
SciTegic.value.DoubleValue
99.97

@<SCITEGIC>MOL_PROPERTY
Delta G
SciTegic.value.DoubleValue
4.524

@<SCITEGIC>MOL_PROPERTY
G
SciTegic.value.DoubleValue
52.785

@<SCITEGIC>MOL_PROPERTY
E
SciTegic.value.DoubleValue
19.969

@<SCITEGIC>MOL_PROPERTY
-TS
SciTegic.value.DoubleValue
32.816

@<SCITEGIC>MOL_PROPERTY
U+W
SciTegic.value.DoubleValue
-1.493

@<SCITEGIC>MOL_PROPERTY
U
SciTegic.value.DoubleValue
52.644

@<SCITEGIC>MOL_PROPERTY
W
SciTegic.value.DoubleValue
-54.137

@<SCITEGIC>MOL_PROPERTY
W(PB)
SciTegic.value.DoubleValue
-56.384

@<SCITEGIC>MOL_PROPERTY
W(SA)
SciTegic.value.DoubleValue
2.247

@<SCITEGIC>MOL_PROPERTY
Valence
SciTegic.value.DoubleValue
5.947

@<SCITEGIC>MOL_PROPERTY
Coulomb
SciTegic.value.DoubleValue
45.853

@<SCITEGIC>MOL_PROPERTY
VdW
SciTegic.value.DoubleValue
0.845

@<SCITEGIC>MOL_PROPERTY
VdW6
SciTegic.value.DoubleValue
-8.494

@<SCITEGIC>MOL_PROPERTY
VdW12
SciTegic.value.DoubleValue
9.339

@<SCITEGIC>MOL_PROPERTY
Bond
SciTegic.value.DoubleValue
0.292

@<SCITEGIC>MOL_PROPERTY
Angle
SciTegic.value.DoubleValue
1.527

@<SCITEGIC>MOL_PROPERTY
Pdih
SciTegic.value.DoubleValue
4.127

@<SCITEGIC>MOL_PROPERTY
Idih
SciTegic.value.DoubleValue
0.000

@<SCITEGIC>MOL_PROPERTY
Tether
SciTegic.value.DoubleValue
0.000

@<TRIPOS>MOLECULE
guest-s14_vm2.mol2 : vm2 ligand conformer 170
          26          25           1
SMALL
USER_CHARGES
 
@<TRIPOS>ATOM
       1    C1      20.363331   20.625043   20.712672 C.3        1 MOL1        -0.2400
       2    H1      19.676260   21.299216   21.240490 H          1 MOL1         0.0971
       3    H2      21.290120   21.177973   20.511884 H          1 MOL1         0.0971
       4    H3      19.911308   20.363405   19.747060 H          1 MOL1         0.0971
       5    C2      20.653089   19.361874   21.550330 C.3        1 MOL1        -0.1385
       6    H4      21.140116   19.659951   22.486697 H          1 MOL1         0.0960
       7    H5      21.367114   18.722931   21.012240 H          1 MOL1         0.0960
       8    C3      19.360774   18.564045   21.843738 C.3        1 MOL1        -0.1409
       9    H6      18.632869   19.194810   22.368864 H          1 MOL1         0.0960
      10    H7      18.887059   18.299527   20.888313 H          1 MOL1         0.0960
      11    C4      19.605491   17.258110   22.640504 C.3        1 MOL1        -0.1409
      12    H8      20.255555   16.601277   22.046190 H          1 MOL1         0.0960
      13    H9      18.651026   16.722259   22.735462 H          1 MOL1         0.0960
      14    C5      20.228214   17.421620   24.053731 C.3        1 MOL1        -0.1409
      15    H10     20.367458   16.412256   24.464922 H          1 MOL1         0.0960
      16    H11     21.237926   17.844861   23.984510 H          1 MOL1         0.0960
      17    C6      19.358929   18.224465   25.058444 C.3        1 MOL1        -0.1450
      18    H12     19.581833   17.881945   26.077702 H          1 MOL1         0.0960
      19    H13     18.297888   17.996832   24.891120 H          1 MOL1         0.0960
      20    C7      19.568230   19.752124   25.008307 C.3        1 MOL1         0.0172
      21    H14     19.420623   20.122180   23.992050 H          1 MOL1         0.0934
      22    H15     18.832932   20.237543   25.655743 H          1 MOL1         0.0934
      23    N1      20.942941   20.191719   25.473275 N.4        1 MOL1        -0.5956
      24    H16     21.049946   21.211135   25.434148 H          1 MOL1         0.3624
      25    H17     21.687356   19.787137   24.897891 H          1 MOL1         0.3624
      26    H18     21.123063   19.909893   26.442383 H          1 MOL1         0.3624
@<TRIPOS>BOND
    1     1     2    1
    2     1     3    1
    3     1     4    1
    4     1     5    1
    5     5     6    1
    6     5     7    1
    7     5     8    1
    8     8     9    1
    9     8    10    1
   10     8    11    1
   11    11    12    1
   12    11    13    1
   13    11    14    1
   14    14    15    1
   15    14    16    1
   16    14    17    1
   17    17    18    1
   18    17    19    1
   19    17    20    1
   20    20    21    1
   21    20    22    1
   22    20    23    1
   23    23    24    1
   24    23    25    1
   25    23    26    1
@<TRIPOS>SUBSTRUCTURE
       1 MOL1            1 RESIDUE      1      MOL     
@<SCITEGIC>MOL_PROPERTY
VM2 Rank
SciTegic.value.IntegerValue
170

@<SCITEGIC>MOL_PROPERTY
Conf_Id
SciTegic.value.IntegerValue
413

@<SCITEGIC>MOL_PROPERTY
Probability
SciTegic.value.DoubleValue
0.00

@<SCITEGIC>MOL_PROPERTY
Sum Probability
SciTegic.value.DoubleValue
99.97

@<SCITEGIC>MOL_PROPERTY
Delta G
SciTegic.value.DoubleValue
4.533

@<SCITEGIC>MOL_PROPERTY
G
SciTegic.value.DoubleValue
52.795

@<SCITEGIC>MOL_PROPERTY
E
SciTegic.value.DoubleValue
19.343

@<SCITEGIC>MOL_PROPERTY
-TS
SciTegic.value.DoubleValue
33.452

@<SCITEGIC>MOL_PROPERTY
U+W
SciTegic.value.DoubleValue
-2.119

@<SCITEGIC>MOL_PROPERTY
U
SciTegic.value.DoubleValue
52.359

@<SCITEGIC>MOL_PROPERTY
W
SciTegic.value.DoubleValue
-54.478

@<SCITEGIC>MOL_PROPERTY
W(PB)
SciTegic.value.DoubleValue
-56.700

@<SCITEGIC>MOL_PROPERTY
W(SA)
SciTegic.value.DoubleValue
2.222

@<SCITEGIC>MOL_PROPERTY
Valence
SciTegic.value.DoubleValue
5.321

@<SCITEGIC>MOL_PROPERTY
Coulomb
SciTegic.value.DoubleValue
46.894

@<SCITEGIC>MOL_PROPERTY
VdW
SciTegic.value.DoubleValue
0.144

@<SCITEGIC>MOL_PROPERTY
VdW6
SciTegic.value.DoubleValue
-9.549

@<SCITEGIC>MOL_PROPERTY
VdW12
SciTegic.value.DoubleValue
9.693

@<SCITEGIC>MOL_PROPERTY
Bond
SciTegic.value.DoubleValue
0.274

@<SCITEGIC>MOL_PROPERTY
Angle
SciTegic.value.DoubleValue
1.814

@<SCITEGIC>MOL_PROPERTY
Pdih
SciTegic.value.DoubleValue
3.233

@<SCITEGIC>MOL_PROPERTY
Idih
SciTegic.value.DoubleValue
0.000

@<SCITEGIC>MOL_PROPERTY
Tether
SciTegic.value.DoubleValue
0.000

@<TRIPOS>MOLECULE
guest-s14_vm2.mol2 : vm2 ligand conformer 171
          26          25           1
SMALL
USER_CHARGES
 
@<TRIPOS>ATOM
       1    C1      18.809039   18.357903   20.753005 C.3        1 MOL1        -0.2400
       2    H1      18.838533   18.926460   19.814507 H          1 MOL1         0.0971
       3    H2      18.234988   17.440189   20.571227 H          1 MOL1         0.0971
       4    H3      18.259774   18.951480   21.493500 H          1 MOL1         0.0971
       5    C2      20.236772   18.016786   21.237460 C.3        1 MOL1        -0.1385
       6    H4      20.710135   17.360365   20.494047 H          1 MOL1         0.0960
       7    H5      20.195682   17.431589   22.164632 H          1 MOL1         0.0960
       8    C3      21.133410   19.264081   21.430358 C.3        1 MOL1        -0.1409
       9    H6      22.147485   18.932504   21.692617 H          1 MOL1         0.0960
      10    H7      21.230243   19.776999   20.463565 H          1 MOL1         0.0960
      11    C4      20.652977   20.293933   22.488441 C.3        1 MOL1        -0.1409
      12    H8      19.675315   20.709477   22.211111 H          1 MOL1         0.0960
      13    H9      21.348463   21.143736   22.450339 H          1 MOL1         0.0960
      14    C5      20.629918   19.767931   23.947933 C.3        1 MOL1        -0.1409
      15    H10     21.409339   19.006132   24.080913 H          1 MOL1         0.0960
      16    H11     20.899386   20.597728   24.616123 H          1 MOL1         0.0960
      17    C6      19.248911   19.224910   24.395089 C.3        1 MOL1        -0.1450
      18    H12     18.947391   18.366556   23.785349 H          1 MOL1         0.0960
      19    H13     18.487396   20.000264   24.238503 H          1 MOL1         0.0960
      20    C7      19.227355   18.818575   25.881033 C.3        1 MOL1         0.0172
      21    H14     19.525753   19.669180   26.499749 H          1 MOL1         0.0934
      22    H15     18.211138   18.530871   26.163994 H          1 MOL1         0.0934
      23    N1      20.142617   17.654880   26.207681 N.4        1 MOL1        -0.5956
      24    H16     20.098061   17.403187   27.201132 H          1 MOL1         0.3624
      25    H17     21.121586   17.871677   25.996784 H          1 MOL1         0.3624
      26    H18     19.895732   16.814903   25.674525 H          1 MOL1         0.3624
@<TRIPOS>BOND
    1     1     2    1
    2     1     3    1
    3     1     4    1
    4     1     5    1
    5     5     6    1
    6     5     7    1
    7     5     8    1
    8     8     9    1
    9     8    10    1
   10     8    11    1
   11    11    12    1
   12    11    13    1
   13    11    14    1
   14    14    15    1
   15    14    16    1
   16    14    17    1
   17    17    18    1
   18    17    19    1
   19    17    20    1
   20    20    21    1
   21    20    22    1
   22    20    23    1
   23    23    24    1
   24    23    25    1
   25    23    26    1
@<TRIPOS>SUBSTRUCTURE
       1 MOL1            1 RESIDUE      1      MOL     
@<SCITEGIC>MOL_PROPERTY
VM2 Rank
SciTegic.value.IntegerValue
171

@<SCITEGIC>MOL_PROPERTY
Conf_Id
SciTegic.value.IntegerValue
1232

@<SCITEGIC>MOL_PROPERTY
Probability
SciTegic.value.DoubleValue
0.00

@<SCITEGIC>MOL_PROPERTY
Sum Probability
SciTegic.value.DoubleValue
99.97

@<SCITEGIC>MOL_PROPERTY
Delta G
SciTegic.value.DoubleValue
4.537

@<SCITEGIC>MOL_PROPERTY
G
SciTegic.value.DoubleValue
52.798

@<SCITEGIC>MOL_PROPERTY
E
SciTegic.value.DoubleValue
19.536

@<SCITEGIC>MOL_PROPERTY
-TS
SciTegic.value.DoubleValue
33.262

@<SCITEGIC>MOL_PROPERTY
U+W
SciTegic.value.DoubleValue
-1.926

@<SCITEGIC>MOL_PROPERTY
U
SciTegic.value.DoubleValue
52.271

@<SCITEGIC>MOL_PROPERTY
W
SciTegic.value.DoubleValue
-54.197

@<SCITEGIC>MOL_PROPERTY
W(PB)
SciTegic.value.DoubleValue
-56.414

@<SCITEGIC>MOL_PROPERTY
W(SA)
SciTegic.value.DoubleValue
2.217

@<SCITEGIC>MOL_PROPERTY
Valence
SciTegic.value.DoubleValue
5.855

@<SCITEGIC>MOL_PROPERTY
Coulomb
SciTegic.value.DoubleValue
45.879

@<SCITEGIC>MOL_PROPERTY
VdW
SciTegic.value.DoubleValue
0.537

@<SCITEGIC>MOL_PROPERTY
VdW6
SciTegic.value.DoubleValue
-9.012

@<SCITEGIC>MOL_PROPERTY
VdW12
SciTegic.value.DoubleValue
9.549

@<SCITEGIC>MOL_PROPERTY
Bond
SciTegic.value.DoubleValue
0.284

@<SCITEGIC>MOL_PROPERTY
Angle
SciTegic.value.DoubleValue
1.818

@<SCITEGIC>MOL_PROPERTY
Pdih
SciTegic.value.DoubleValue
3.753

@<SCITEGIC>MOL_PROPERTY
Idih
SciTegic.value.DoubleValue
0.000

@<SCITEGIC>MOL_PROPERTY
Tether
SciTegic.value.DoubleValue
0.000

@<TRIPOS>MOLECULE
guest-s14_vm2.mol2 : vm2 ligand conformer 172
          26          25           1
SMALL
USER_CHARGES
 
@<TRIPOS>ATOM
       1    C1      18.812236   19.883904   20.961997 C.3        1 MOL1        -0.2400
       2    H1      18.084044   19.475022   21.674303 H          1 MOL1         0.0971
       3    H2      19.359799   20.699865   21.449184 H          1 MOL1         0.0971
       4    H3      18.253927   20.319844   20.123484 H          1 MOL1         0.0971
       5    C2      19.774397   18.786929   20.456756 C.3        1 MOL1        -0.1385
       6    H4      20.534770   19.240050   19.805442 H          1 MOL1         0.0960
       7    H5      19.209530   18.088312   19.823819 H          1 MOL1         0.0960
       8    C3      20.467671   17.977783   21.582491 C.3        1 MOL1        -0.1409
       9    H6      19.714401   17.439147   22.170192 H          1 MOL1         0.0960
      10    H7      21.074961   17.199190   21.100593 H          1 MOL1         0.0960
      11    C4      21.400951   18.812591   22.501763 C.3        1 MOL1        -0.1409
      12    H8      21.821190   19.650591   21.928911 H          1 MOL1         0.0960
      13    H9      22.262095   18.193098   22.787868 H          1 MOL1         0.0960
      14    C5      20.738726   19.352023   23.796727 C.3        1 MOL1        -0.1409
      15    H10     21.426837   20.071433   24.261843 H          1 MOL1         0.0960
      16    H11     19.829899   19.912869   23.552564 H          1 MOL1         0.0960
      17    C6      20.414234   18.241704   24.827986 C.3        1 MOL1        -0.1450
      18    H12     21.320281   17.654256   25.027113 H          1 MOL1         0.0960
      19    H13     19.670564   17.543125   24.425551 H          1 MOL1         0.0960
      20    C7      19.899468   18.809199   26.164769 C.3        1 MOL1         0.0172
      21    H14     19.768892   17.992136   26.879540 H          1 MOL1         0.0934
      22    H15     20.633656   19.507492   26.575542 H          1 MOL1         0.0934
      23    N1      18.573317   19.534867   26.048510 N.4        1 MOL1        -0.5956
      24    H16     17.834529   18.922036   25.688600 H          1 MOL1         0.3624
      25    H17     18.635177   20.339345   25.417022 H          1 MOL1         0.3624
      26    H18     18.252894   19.889327   26.956257 H          1 MOL1         0.3624
@<TRIPOS>BOND
    1     1     2    1
    2     1     3    1
    3     1     4    1
    4     1     5    1
    5     5     6    1
    6     5     7    1
    7     5     8    1
    8     8     9    1
    9     8    10    1
   10     8    11    1
   11    11    12    1
   12    11    13    1
   13    11    14    1
   14    14    15    1
   15    14    16    1
   16    14    17    1
   17    17    18    1
   18    17    19    1
   19    17    20    1
   20    20    21    1
   21    20    22    1
   22    20    23    1
   23    23    24    1
   24    23    25    1
   25    23    26    1
@<TRIPOS>SUBSTRUCTURE
       1 MOL1            1 RESIDUE      1      MOL     
@<SCITEGIC>MOL_PROPERTY
VM2 Rank
SciTegic.value.IntegerValue
172

@<SCITEGIC>MOL_PROPERTY
Conf_Id
SciTegic.value.IntegerValue
445

@<SCITEGIC>MOL_PROPERTY
Probability
SciTegic.value.DoubleValue
0.00

@<SCITEGIC>MOL_PROPERTY
Sum Probability
SciTegic.value.DoubleValue
99.98

@<SCITEGIC>MOL_PROPERTY
Delta G
SciTegic.value.DoubleValue
4.571

@<SCITEGIC>MOL_PROPERTY
G
SciTegic.value.DoubleValue
52.832

@<SCITEGIC>MOL_PROPERTY
E
SciTegic.value.DoubleValue
20.017

@<SCITEGIC>MOL_PROPERTY
-TS
SciTegic.value.DoubleValue
32.815

@<SCITEGIC>MOL_PROPERTY
U+W
SciTegic.value.DoubleValue
-1.445

@<SCITEGIC>MOL_PROPERTY
U
SciTegic.value.DoubleValue
52.644

@<SCITEGIC>MOL_PROPERTY
W
SciTegic.value.DoubleValue
-54.089

@<SCITEGIC>MOL_PROPERTY
W(PB)
SciTegic.value.DoubleValue
-56.310

@<SCITEGIC>MOL_PROPERTY
W(SA)
SciTegic.value.DoubleValue
2.220

@<SCITEGIC>MOL_PROPERTY
Valence
SciTegic.value.DoubleValue
5.946

@<SCITEGIC>MOL_PROPERTY
Coulomb
SciTegic.value.DoubleValue
45.853

@<SCITEGIC>MOL_PROPERTY
VdW
SciTegic.value.DoubleValue
0.845

@<SCITEGIC>MOL_PROPERTY
VdW6
SciTegic.value.DoubleValue
-8.494

@<SCITEGIC>MOL_PROPERTY
VdW12
SciTegic.value.DoubleValue
9.339

@<SCITEGIC>MOL_PROPERTY
Bond
SciTegic.value.DoubleValue
0.292

@<SCITEGIC>MOL_PROPERTY
Angle
SciTegic.value.DoubleValue
1.529

@<SCITEGIC>MOL_PROPERTY
Pdih
SciTegic.value.DoubleValue
4.125

@<SCITEGIC>MOL_PROPERTY
Idih
SciTegic.value.DoubleValue
0.000

@<SCITEGIC>MOL_PROPERTY
Tether
SciTegic.value.DoubleValue
0.000

@<TRIPOS>MOLECULE
guest-s14_vm2.mol2 : vm2 ligand conformer 173
          26          25           1
SMALL
USER_CHARGES
 
@<TRIPOS>ATOM
       1    C1      19.019281   19.484799   20.001203 C.3        1 MOL1        -0.2400
       2    H1      18.693522   18.554480   19.517903 H          1 MOL1         0.0971
       3    H2      18.148006   19.939410   20.490479 H          1 MOL1         0.0971
       4    H3      19.360534   20.170899   19.215191 H          1 MOL1         0.0971
       5    C2      20.148855   19.216317   21.018059 C.3        1 MOL1        -0.1385
       6    H4      20.474076   20.172026   21.450251 H          1 MOL1         0.0960
       7    H5      21.016760   18.790909   20.495184 H          1 MOL1         0.0960
       8    C3      19.690512   18.253585   22.138379 C.3        1 MOL1        -0.1409
       9    H6      18.845384   18.697371   22.679018 H          1 MOL1         0.0960
      10    H7      19.306527   17.331883   21.679761 H          1 MOL1         0.0960
      11    C4      20.823700   17.872518   23.126432 C.3        1 MOL1        -0.1409
      12    H8      21.617512   17.359187   22.566349 H          1 MOL1         0.0960
      13    H9      20.451368   17.128396   23.841086 H          1 MOL1         0.0960
      14    C5      21.460004   19.060208   23.896865 C.3        1 MOL1        -0.1409
      15    H10     22.232999   18.665890   24.570835 H          1 MOL1         0.0960
      16    H11     21.996330   19.701248   23.184719 H          1 MOL1         0.0960
      17    C6      20.484423   19.942813   24.720497 C.3        1 MOL1        -0.1450
      18    H12     19.721450   20.394996   24.074285 H          1 MOL1         0.0960
      19    H13     21.061046   20.783315   25.128834 H          1 MOL1         0.0960
      20    C7      19.819476   19.217448   25.908895 C.3        1 MOL1         0.0172
      21    H14     20.557012   18.591291   26.417993 H          1 MOL1         0.0934
      22    H15     19.456280   19.961309   26.623174 H          1 MOL1         0.0934
      23    N1      18.634750   18.351313   25.530670 N.4        1 MOL1        -0.5956
      24    H16     18.240994   17.868996   26.345984 H          1 MOL1         0.3624
      25    H17     18.895969   17.633579   24.848660 H          1 MOL1         0.3624
      26    H18     17.878078   18.904913   25.116424 H          1 MOL1         0.3624
@<TRIPOS>BOND
    1     1     2    1
    2     1     3    1
    3     1     4    1
    4     1     5    1
    5     5     6    1
    6     5     7    1
    7     5     8    1
    8     8     9    1
    9     8    10    1
   10     8    11    1
   11    11    12    1
   12    11    13    1
   13    11    14    1
   14    14    15    1
   15    14    16    1
   16    14    17    1
   17    17    18    1
   18    17    19    1
   19    17    20    1
   20    20    21    1
   21    20    22    1
   22    20    23    1
   23    23    24    1
   24    23    25    1
   25    23    26    1
@<TRIPOS>SUBSTRUCTURE
       1 MOL1            1 RESIDUE      1      MOL     
@<SCITEGIC>MOL_PROPERTY
VM2 Rank
SciTegic.value.IntegerValue
173

@<SCITEGIC>MOL_PROPERTY
Conf_Id
SciTegic.value.IntegerValue
547

@<SCITEGIC>MOL_PROPERTY
Probability
SciTegic.value.DoubleValue
0.00

@<SCITEGIC>MOL_PROPERTY
Sum Probability
SciTegic.value.DoubleValue
99.98

@<SCITEGIC>MOL_PROPERTY
Delta G
SciTegic.value.DoubleValue
4.590

@<SCITEGIC>MOL_PROPERTY
G
SciTegic.value.DoubleValue
52.851

@<SCITEGIC>MOL_PROPERTY
E
SciTegic.value.DoubleValue
19.529

@<SCITEGIC>MOL_PROPERTY
-TS
SciTegic.value.DoubleValue
33.322

@<SCITEGIC>MOL_PROPERTY
U+W
SciTegic.value.DoubleValue
-1.932

@<SCITEGIC>MOL_PROPERTY
U
SciTegic.value.DoubleValue
52.118

@<SCITEGIC>MOL_PROPERTY
W
SciTegic.value.DoubleValue
-54.051

@<SCITEGIC>MOL_PROPERTY
W(PB)
SciTegic.value.DoubleValue
-56.271

@<SCITEGIC>MOL_PROPERTY
W(SA)
SciTegic.value.DoubleValue
2.220

@<SCITEGIC>MOL_PROPERTY
Valence
SciTegic.value.DoubleValue
4.669

@<SCITEGIC>MOL_PROPERTY
Coulomb
SciTegic.value.DoubleValue
47.148

@<SCITEGIC>MOL_PROPERTY
VdW
SciTegic.value.DoubleValue
0.301

@<SCITEGIC>MOL_PROPERTY
VdW6
SciTegic.value.DoubleValue
-9.413

@<SCITEGIC>MOL_PROPERTY
VdW12
SciTegic.value.DoubleValue
9.714

@<SCITEGIC>MOL_PROPERTY
Bond
SciTegic.value.DoubleValue
0.278

@<SCITEGIC>MOL_PROPERTY
Angle
SciTegic.value.DoubleValue
1.801

@<SCITEGIC>MOL_PROPERTY
Pdih
SciTegic.value.DoubleValue
2.590

@<SCITEGIC>MOL_PROPERTY
Idih
SciTegic.value.DoubleValue
0.000

@<SCITEGIC>MOL_PROPERTY
Tether
SciTegic.value.DoubleValue
0.000

@<TRIPOS>MOLECULE
guest-s14_vm2.mol2 : vm2 ligand conformer 174
          26          25           1
SMALL
USER_CHARGES
 
@<TRIPOS>ATOM
       1    C1      21.010393   20.222283   21.186273 C.3        1 MOL1        -0.2400
       2    H1      21.360830   20.180522   22.223924 H          1 MOL1         0.0971
       3    H2      21.819505   20.657225   20.585360 H          1 MOL1         0.0971
       4    H3      20.149675   20.901411   21.132541 H          1 MOL1         0.0971
       5    C2      20.645559   18.816720   20.661622 C.3        1 MOL1        -0.1385
       6    H4      21.501858   18.141988   20.800196 H          1 MOL1         0.0960
       7    H5      20.480172   18.878655   19.576919 H          1 MOL1         0.0960
       8    C3      19.383700   18.197250   21.314813 C.3        1 MOL1        -0.1409
       9    H6      18.502390   18.814693   21.093373 H          1 MOL1         0.0960
      10    H7      19.198782   17.232141   20.823118 H          1 MOL1         0.0960
      11    C4      19.497107   17.945697   22.841147 C.3        1 MOL1        -0.1409
      12    H8      20.542943   17.741734   23.105866 H          1 MOL1         0.0960
      13    H9      18.938559   17.030787   23.082512 H          1 MOL1         0.0960
      14    C5      18.921975   19.100632   23.701206 C.3        1 MOL1        -0.1409
      15    H10     19.453781   20.037031   23.499007 H          1 MOL1         0.0960
      16    H11     17.878468   19.278774   23.407231 H          1 MOL1         0.0960
      17    C6      18.955611   18.800166   25.220746 C.3        1 MOL1        -0.1450
      18    H12     18.340845   17.914238   25.428199 H          1 MOL1         0.0960
      19    H13     18.487932   19.630969   25.765576 H          1 MOL1         0.0960
      20    C7      20.371689   18.561843   25.783081 C.3        1 MOL1         0.0172
      21    H14     20.303701   18.326936   26.848768 H          1 MOL1         0.0934
      22    H15     20.832618   17.709715   25.277142 H          1 MOL1         0.0934
      23    N1      21.294966   19.754408   25.632113 N.4        1 MOL1        -0.5956
      24    H16     22.224930   19.567475   26.022750 H          1 MOL1         0.3624
      25    H17     20.928353   20.581649   26.114164 H          1 MOL1         0.3624
      26    H18     21.425058   20.007550   24.648234 H          1 MOL1         0.3624
@<TRIPOS>BOND
    1     1     2    1
    2     1     3    1
    3     1     4    1
    4     1     5    1
    5     5     6    1
    6     5     7    1
    7     5     8    1
    8     8     9    1
    9     8    10    1
   10     8    11    1
   11    11    12    1
   12    11    13    1
   13    11    14    1
   14    14    15    1
   15    14    16    1
   16    14    17    1
   17    17    18    1
   18    17    19    1
   19    17    20    1
   20    20    21    1
   21    20    22    1
   22    20    23    1
   23    23    24    1
   24    23    25    1
   25    23    26    1
@<TRIPOS>SUBSTRUCTURE
       1 MOL1            1 RESIDUE      1      MOL     
@<SCITEGIC>MOL_PROPERTY
VM2 Rank
SciTegic.value.IntegerValue
174

@<SCITEGIC>MOL_PROPERTY
Conf_Id
SciTegic.value.IntegerValue
567

@<SCITEGIC>MOL_PROPERTY
Probability
SciTegic.value.DoubleValue
0.00

@<SCITEGIC>MOL_PROPERTY
Sum Probability
SciTegic.value.DoubleValue
99.98

@<SCITEGIC>MOL_PROPERTY
Delta G
SciTegic.value.DoubleValue
4.769

@<SCITEGIC>MOL_PROPERTY
G
SciTegic.value.DoubleValue
53.030

@<SCITEGIC>MOL_PROPERTY
E
SciTegic.value.DoubleValue
20.114

@<SCITEGIC>MOL_PROPERTY
-TS
SciTegic.value.DoubleValue
32.916

@<SCITEGIC>MOL_PROPERTY
U+W
SciTegic.value.DoubleValue
-1.348

@<SCITEGIC>MOL_PROPERTY
U
SciTegic.value.DoubleValue
52.694

@<SCITEGIC>MOL_PROPERTY
W
SciTegic.value.DoubleValue
-54.042

@<SCITEGIC>MOL_PROPERTY
W(PB)
SciTegic.value.DoubleValue
-56.249

@<SCITEGIC>MOL_PROPERTY
W(SA)
SciTegic.value.DoubleValue
2.207

@<SCITEGIC>MOL_PROPERTY
Valence
SciTegic.value.DoubleValue
5.523

@<SCITEGIC>MOL_PROPERTY
Coulomb
SciTegic.value.DoubleValue
46.642

@<SCITEGIC>MOL_PROPERTY
VdW
SciTegic.value.DoubleValue
0.528

@<SCITEGIC>MOL_PROPERTY
VdW6
SciTegic.value.DoubleValue
-8.872

@<SCITEGIC>MOL_PROPERTY
VdW12
SciTegic.value.DoubleValue
9.400

@<SCITEGIC>MOL_PROPERTY
Bond
SciTegic.value.DoubleValue
0.267

@<SCITEGIC>MOL_PROPERTY
Angle
SciTegic.value.DoubleValue
1.435

@<SCITEGIC>MOL_PROPERTY
Pdih
SciTegic.value.DoubleValue
3.821

@<SCITEGIC>MOL_PROPERTY
Idih
SciTegic.value.DoubleValue
0.000

@<SCITEGIC>MOL_PROPERTY
Tether
SciTegic.value.DoubleValue
0.000

@<TRIPOS>MOLECULE
guest-s14_vm2.mol2 : vm2 ligand conformer 175
          26          25           1
SMALL
USER_CHARGES
 
@<TRIPOS>ATOM
       1    C1      18.523245   18.583095   21.103934 C.3        1 MOL1        -0.2400
       2    H1      18.376144   18.212815   22.124975 H          1 MOL1         0.0971
       3    H2      18.240331   19.643158   21.069819 H          1 MOL1         0.0971
       4    H3      17.833430   18.030192   20.453254 H          1 MOL1         0.0971
       5    C2      19.981600   18.379713   20.639377 C.3        1 MOL1        -0.1385
       6    H4      20.039690   18.589707   19.562205 H          1 MOL1         0.0960
       7    H5      20.258229   17.322781   20.758068 H          1 MOL1         0.0960
       8    C3      21.016440   19.273714   21.369138 C.3        1 MOL1        -0.1409
       9    H6      21.998128   19.077744   20.916060 H          1 MOL1         0.0960
      10    H7      20.806212   20.333573   21.170436 H          1 MOL1         0.0960
      11    C4      21.132252   19.023088   22.895444 C.3        1 MOL1        -0.1409
      12    H8      22.180926   19.166985   23.190181 H          1 MOL1         0.0960
      13    H9      20.895702   17.974127   23.117200 H          1 MOL1         0.0960
      14    C5      20.258426   19.980891   23.745968 C.3        1 MOL1        -0.1409
      15    H10     20.519377   21.018406   23.495905 H          1 MOL1         0.0960
      16    H11     19.198770   19.869070   23.490667 H          1 MOL1         0.0960
      17    C6      20.450468   19.784097   25.270699 C.3        1 MOL1        -0.1450
      18    H12     19.846877   20.525183   25.811316 H          1 MOL1         0.0960
      19    H13     21.496304   19.991463   25.533508 H          1 MOL1         0.0960
      20    C7      20.085084   18.372594   25.773138 C.3        1 MOL1         0.0172
      21    H14     20.708892   17.628023   25.272111 H          1 MOL1         0.0934
      22    H15     20.278298   18.308964   26.847435 H          1 MOL1         0.0934
      23    N1      18.633485   18.001808   25.543302 N.4        1 MOL1        -0.5956
      24    H16     18.395256   18.013136   24.547242 H          1 MOL1         0.3624
      25    H17     17.996455   18.650703   26.016836 H          1 MOL1         0.3624
      26    H18     18.420447   17.062147   25.895475 H          1 MOL1         0.3624
@<TRIPOS>BOND
    1     1     2    1
    2     1     3    1
    3     1     4    1
    4     1     5    1
    5     5     6    1
    6     5     7    1
    7     5     8    1
    8     8     9    1
    9     8    10    1
   10     8    11    1
   11    11    12    1
   12    11    13    1
   13    11    14    1
   14    14    15    1
   15    14    16    1
   16    14    17    1
   17    17    18    1
   18    17    19    1
   19    17    20    1
   20    20    21    1
   21    20    22    1
   22    20    23    1
   23    23    24    1
   24    23    25    1
   25    23    26    1
@<TRIPOS>SUBSTRUCTURE
       1 MOL1            1 RESIDUE      1      MOL     
@<SCITEGIC>MOL_PROPERTY
VM2 Rank
SciTegic.value.IntegerValue
175

@<SCITEGIC>MOL_PROPERTY
Conf_Id
SciTegic.value.IntegerValue
735

@<SCITEGIC>MOL_PROPERTY
Probability
SciTegic.value.DoubleValue
0.00

@<SCITEGIC>MOL_PROPERTY
Sum Probability
SciTegic.value.DoubleValue
99.98

@<SCITEGIC>MOL_PROPERTY
Delta G
SciTegic.value.DoubleValue
4.791

@<SCITEGIC>MOL_PROPERTY
G
SciTegic.value.DoubleValue
53.053

@<SCITEGIC>MOL_PROPERTY
E
SciTegic.value.DoubleValue
20.136

@<SCITEGIC>MOL_PROPERTY
-TS
SciTegic.value.DoubleValue
32.916

@<SCITEGIC>MOL_PROPERTY
U+W
SciTegic.value.DoubleValue
-1.325

@<SCITEGIC>MOL_PROPERTY
U
SciTegic.value.DoubleValue
52.694

@<SCITEGIC>MOL_PROPERTY
W
SciTegic.value.DoubleValue
-54.019

@<SCITEGIC>MOL_PROPERTY
W(PB)
SciTegic.value.DoubleValue
-56.229

@<SCITEGIC>MOL_PROPERTY
W(SA)
SciTegic.value.DoubleValue
2.210

@<SCITEGIC>MOL_PROPERTY
Valence
SciTegic.value.DoubleValue
5.523

@<SCITEGIC>MOL_PROPERTY
Coulomb
SciTegic.value.DoubleValue
46.643

@<SCITEGIC>MOL_PROPERTY
VdW
SciTegic.value.DoubleValue
0.528

@<SCITEGIC>MOL_PROPERTY
VdW6
SciTegic.value.DoubleValue
-8.872

@<SCITEGIC>MOL_PROPERTY
VdW12
SciTegic.value.DoubleValue
9.400

@<SCITEGIC>MOL_PROPERTY
Bond
SciTegic.value.DoubleValue
0.267

@<SCITEGIC>MOL_PROPERTY
Angle
SciTegic.value.DoubleValue
1.434

@<SCITEGIC>MOL_PROPERTY
Pdih
SciTegic.value.DoubleValue
3.822

@<SCITEGIC>MOL_PROPERTY
Idih
SciTegic.value.DoubleValue
0.000

@<SCITEGIC>MOL_PROPERTY
Tether
SciTegic.value.DoubleValue
0.000

@<TRIPOS>MOLECULE
guest-s14_vm2.mol2 : vm2 ligand conformer 176
          26          25           1
SMALL
USER_CHARGES
 
@<TRIPOS>ATOM
       1    C1      20.303428   20.630490   21.547641 C.3        1 MOL1        -0.2400
       2    H1      19.280232   21.024742   21.497561 H          1 MOL1         0.0971
       3    H2      20.592233   20.566130   22.601269 H          1 MOL1         0.0971
       4    H3      20.965967   21.363453   21.069443 H          1 MOL1         0.0971
       5    C2      20.406271   19.264150   20.831119 C.3        1 MOL1        -0.1385
       6    H4      21.439299   18.891413   20.867767 H          1 MOL1         0.0960
       7    H5      20.181920   19.425904   19.767452 H          1 MOL1         0.0960
       8    C3      19.427069   18.193266   21.378696 C.3        1 MOL1        -0.1409
       9    H6      18.497061   18.663150   21.724477 H          1 MOL1         0.0960
      10    H7      19.129875   17.551936   20.537449 H          1 MOL1         0.0960
      11    C4      20.017034   17.263547   22.473619 C.3        1 MOL1        -0.1409
      12    H8      20.894511   16.745455   22.062861 H          1 MOL1         0.0960
      13    H9      19.284098   16.475140   22.693586 H          1 MOL1         0.0960
      14    C5      20.421284   17.946506   23.803526 C.3        1 MOL1        -0.1409
      15    H10     20.849272   17.181839   24.466463 H          1 MOL1         0.0960
      16    H11     21.227867   18.665731   23.618688 H          1 MOL1         0.0960
      17    C6      19.234201   18.625927   24.531185 C.3        1 MOL1        -0.1450
      18    H12     18.425681   17.895064   24.664461 H          1 MOL1         0.0960
      19    H13     18.821709   19.439875   23.922496 H          1 MOL1         0.0960
      20    C7      19.625868   19.177368   25.915376 C.3        1 MOL1         0.0172
      21    H14     18.734935   19.564527   26.417231 H          1 MOL1         0.0934
      22    H15     20.039583   18.372148   26.528419 H          1 MOL1         0.0934
      23    N1      20.645846   20.297747   25.859836 N.4        1 MOL1        -0.5956
      24    H16     20.302436   21.098758   25.320365 H          1 MOL1         0.3624
      25    H17     21.522642   19.991014   25.427480 H          1 MOL1         0.3624
      26    H18     20.878744   20.645323   26.796488 H          1 MOL1         0.3624
@<TRIPOS>BOND
    1     1     2    1
    2     1     3    1
    3     1     4    1
    4     1     5    1
    5     5     6    1
    6     5     7    1
    7     5     8    1
    8     8     9    1
    9     8    10    1
   10     8    11    1
   11    11    12    1
   12    11    13    1
   13    11    14    1
   14    14    15    1
   15    14    16    1
   16    14    17    1
   17    17    18    1
   18    17    19    1
   19    17    20    1
   20    20    21    1
   21    20    22    1
   22    20    23    1
   23    23    24    1
   24    23    25    1
   25    23    26    1
@<TRIPOS>SUBSTRUCTURE
       1 MOL1            1 RESIDUE      1      MOL     
@<SCITEGIC>MOL_PROPERTY
VM2 Rank
SciTegic.value.IntegerValue
176

@<SCITEGIC>MOL_PROPERTY
Conf_Id
SciTegic.value.IntegerValue
809

@<SCITEGIC>MOL_PROPERTY
Probability
SciTegic.value.DoubleValue
0.00

@<SCITEGIC>MOL_PROPERTY
Sum Probability
SciTegic.value.DoubleValue
99.99

@<SCITEGIC>MOL_PROPERTY
Delta G
SciTegic.value.DoubleValue
4.818

@<SCITEGIC>MOL_PROPERTY
G
SciTegic.value.DoubleValue
53.079

@<SCITEGIC>MOL_PROPERTY
E
SciTegic.value.DoubleValue
19.768

@<SCITEGIC>MOL_PROPERTY
-TS
SciTegic.value.DoubleValue
33.311

@<SCITEGIC>MOL_PROPERTY
U+W
SciTegic.value.DoubleValue
-1.694

@<SCITEGIC>MOL_PROPERTY
U
SciTegic.value.DoubleValue
52.676

@<SCITEGIC>MOL_PROPERTY
W
SciTegic.value.DoubleValue
-54.369

@<SCITEGIC>MOL_PROPERTY
W(PB)
SciTegic.value.DoubleValue
-56.548

@<SCITEGIC>MOL_PROPERTY
W(SA)
SciTegic.value.DoubleValue
2.179

@<SCITEGIC>MOL_PROPERTY
Valence
SciTegic.value.DoubleValue
5.835

@<SCITEGIC>MOL_PROPERTY
Coulomb
SciTegic.value.DoubleValue
46.483

@<SCITEGIC>MOL_PROPERTY
VdW
SciTegic.value.DoubleValue
0.357

@<SCITEGIC>MOL_PROPERTY
VdW6
SciTegic.value.DoubleValue
-9.272

@<SCITEGIC>MOL_PROPERTY
VdW12
SciTegic.value.DoubleValue
9.629

@<SCITEGIC>MOL_PROPERTY
Bond
SciTegic.value.DoubleValue
0.284

@<SCITEGIC>MOL_PROPERTY
Angle
SciTegic.value.DoubleValue
1.858

@<SCITEGIC>MOL_PROPERTY
Pdih
SciTegic.value.DoubleValue
3.694

@<SCITEGIC>MOL_PROPERTY
Idih
SciTegic.value.DoubleValue
0.000

@<SCITEGIC>MOL_PROPERTY
Tether
SciTegic.value.DoubleValue
0.000

@<TRIPOS>MOLECULE
guest-s14_vm2.mol2 : vm2 ligand conformer 177
          26          25           1
SMALL
USER_CHARGES
 
@<TRIPOS>ATOM
       1    C1      18.408858   19.379040   21.484579 C.3        1 MOL1        -0.2400
       2    H1      17.498097   19.072601   20.954035 H          1 MOL1         0.0971
       3    H2      18.306168   19.056272   22.525231 H          1 MOL1         0.0971
       4    H3      18.449228   20.475864   21.469709 H          1 MOL1         0.0971
       5    C2      19.657609   18.769530   20.806356 C.3        1 MOL1        -0.1385
       6    H4      19.646063   19.071657   19.749723 H          1 MOL1         0.0960
       7    H5      19.594223   17.672532   20.806670 H          1 MOL1         0.0960
       8    C3      20.999632   19.232115   21.431226 C.3        1 MOL1        -0.1409
       9    H6      21.744345   19.279108   20.624679 H          1 MOL1         0.0960
      10    H7      20.915609   20.260881   21.805190 H          1 MOL1         0.0960
      11    C4      21.572581   18.291163   22.525590 C.3        1 MOL1        -0.1409
      12    H8      22.573708   18.648509   22.803472 H          1 MOL1         0.0960
      13    H9      21.724664   17.293781   22.090612 H          1 MOL1         0.0960
      14    C5      20.724901   18.146956   23.813667 C.3        1 MOL1        -0.1409
      15    H10     19.756874   17.693813   23.569506 H          1 MOL1         0.0960
      16    H11     21.229454   17.432833   24.479122 H          1 MOL1         0.0960
      17    C6      20.531051   19.482503   24.574587 C.3        1 MOL1        -0.1450
      18    H12     19.972840   20.200164   23.960970 H          1 MOL1         0.0960
      19    H13     21.512944   19.934315   24.767927 H          1 MOL1         0.0960
      20    C7      19.806323   19.296579   25.921316 C.3        1 MOL1         0.0172
      21    H14     20.355812   18.581073   26.538951 H          1 MOL1         0.0934
      22    H15     19.775741   20.252063   26.452001 H          1 MOL1         0.0934
      23    N1      18.380045   18.801115   25.783679 N.4        1 MOL1        -0.5956
      24    H16     18.338984   17.888089   25.320552 H          1 MOL1         0.3624
      25    H17     17.803479   19.448093   25.236353 H          1 MOL1         0.3624
      26    H18     17.925709   18.694793   26.697266 H          1 MOL1         0.3624
@<TRIPOS>BOND
    1     1     2    1
    2     1     3    1
    3     1     4    1
    4     1     5    1
    5     5     6    1
    6     5     7    1
    7     5     8    1
    8     8     9    1
    9     8    10    1
   10     8    11    1
   11    11    12    1
   12    11    13    1
   13    11    14    1
   14    14    15    1
   15    14    16    1
   16    14    17    1
   17    17    18    1
   18    17    19    1
   19    17    20    1
   20    20    21    1
   21    20    22    1
   22    20    23    1
   23    23    24    1
   24    23    25    1
   25    23    26    1
@<TRIPOS>SUBSTRUCTURE
       1 MOL1            1 RESIDUE      1      MOL     
@<SCITEGIC>MOL_PROPERTY
VM2 Rank
SciTegic.value.IntegerValue
177

@<SCITEGIC>MOL_PROPERTY
Conf_Id
SciTegic.value.IntegerValue
862

@<SCITEGIC>MOL_PROPERTY
Probability
SciTegic.value.DoubleValue
0.00

@<SCITEGIC>MOL_PROPERTY
Sum Probability
SciTegic.value.DoubleValue
99.99

@<SCITEGIC>MOL_PROPERTY
Delta G
SciTegic.value.DoubleValue
4.904

@<SCITEGIC>MOL_PROPERTY
G
SciTegic.value.DoubleValue
53.165

@<SCITEGIC>MOL_PROPERTY
E
SciTegic.value.DoubleValue
19.854

@<SCITEGIC>MOL_PROPERTY
-TS
SciTegic.value.DoubleValue
33.312

@<SCITEGIC>MOL_PROPERTY
U+W
SciTegic.value.DoubleValue
-1.608

@<SCITEGIC>MOL_PROPERTY
U
SciTegic.value.DoubleValue
52.676

@<SCITEGIC>MOL_PROPERTY
W
SciTegic.value.DoubleValue
-54.284

@<SCITEGIC>MOL_PROPERTY
W(PB)
SciTegic.value.DoubleValue
-56.466

@<SCITEGIC>MOL_PROPERTY
W(SA)
SciTegic.value.DoubleValue
2.182

@<SCITEGIC>MOL_PROPERTY
Valence
SciTegic.value.DoubleValue
5.835

@<SCITEGIC>MOL_PROPERTY
Coulomb
SciTegic.value.DoubleValue
46.484

@<SCITEGIC>MOL_PROPERTY
VdW
SciTegic.value.DoubleValue
0.357

@<SCITEGIC>MOL_PROPERTY
VdW6
SciTegic.value.DoubleValue
-9.273

@<SCITEGIC>MOL_PROPERTY
VdW12
SciTegic.value.DoubleValue
9.630

@<SCITEGIC>MOL_PROPERTY
Bond
SciTegic.value.DoubleValue
0.284

@<SCITEGIC>MOL_PROPERTY
Angle
SciTegic.value.DoubleValue
1.857

@<SCITEGIC>MOL_PROPERTY
Pdih
SciTegic.value.DoubleValue
3.694

@<SCITEGIC>MOL_PROPERTY
Idih
SciTegic.value.DoubleValue
0.000

@<SCITEGIC>MOL_PROPERTY
Tether
SciTegic.value.DoubleValue
0.000

@<TRIPOS>MOLECULE
guest-s14_vm2.mol2 : vm2 ligand conformer 178
          26          25           1
SMALL
USER_CHARGES
 
@<TRIPOS>ATOM
       1    C1      19.060189   17.604142   21.408289 C.3        1 MOL1        -0.2400
       2    H1      18.768650   17.726538   22.457992 H          1 MOL1         0.0971
       3    H2      18.244887   17.987041   20.780959 H          1 MOL1         0.0971
       4    H3      19.156003   16.528132   21.213952 H          1 MOL1         0.0971
       5    C2      20.387528   18.331541   21.094201 C.3        1 MOL1        -0.1385
       6    H4      20.671624   18.107028   20.056650 H          1 MOL1         0.0960
       7    H5      21.198787   17.930956   21.714584 H          1 MOL1         0.0960
       8    C3      20.299486   19.868885   21.254749 C.3        1 MOL1        -0.1409
       9    H6      21.259124   20.310928   20.953498 H          1 MOL1         0.0960
      10    H7      19.559672   20.251017   20.537937 H          1 MOL1         0.0960
      11    C4      19.927048   20.390998   22.668893 C.3        1 MOL1        -0.1409
      12    H8      18.930621   20.037239   22.959682 H          1 MOL1         0.0960
      13    H9      19.829169   21.482577   22.590548 H          1 MOL1         0.0960
      14    C5      20.977053   20.094947   23.775557 C.3        1 MOL1        -0.1409
      15    H10     21.984237   20.092644   23.336843 H          1 MOL1         0.0960
      16    H11     20.969993   20.928106   24.492090 H          1 MOL1         0.0960
      17    C6      20.753133   18.783965   24.571260 C.3        1 MOL1        -0.1450
      18    H12     21.589865   18.651959   25.269976 H          1 MOL1         0.0960
      19    H13     20.772890   17.916216   23.903868 H          1 MOL1         0.0960
      20    C7      19.436899   18.789873   25.371470 C.3        1 MOL1         0.0172
      21    H14     19.423798   19.646053   26.051280 H          1 MOL1         0.0934
      22    H15     18.587314   18.878462   24.690046 H          1 MOL1         0.0934
      23    N1      19.239663   17.534650   26.196581 N.4        1 MOL1        -0.5956
      24    H16     19.991420   17.406561   26.881860 H          1 MOL1         0.3624
      25    H17     19.216774   16.692493   25.612477 H          1 MOL1         0.3624
      26    H18     18.358719   17.558631   26.721635 H          1 MOL1         0.3624
@<TRIPOS>BOND
    1     1     2    1
    2     1     3    1
    3     1     4    1
    4     1     5    1
    5     5     6    1
    6     5     7    1
    7     5     8    1
    8     8     9    1
    9     8    10    1
   10     8    11    1
   11    11    12    1
   12    11    13    1
   13    11    14    1
   14    14    15    1
   15    14    16    1
   16    14    17    1
   17    17    18    1
   18    17    19    1
   19    17    20    1
   20    20    21    1
   21    20    22    1
   22    20    23    1
   23    23    24    1
   24    23    25    1
   25    23    26    1
@<TRIPOS>SUBSTRUCTURE
       1 MOL1            1 RESIDUE      1      MOL     
@<SCITEGIC>MOL_PROPERTY
VM2 Rank
SciTegic.value.IntegerValue
178

@<SCITEGIC>MOL_PROPERTY
Conf_Id
SciTegic.value.IntegerValue
153

@<SCITEGIC>MOL_PROPERTY
Probability
SciTegic.value.DoubleValue
0.00

@<SCITEGIC>MOL_PROPERTY
Sum Probability
SciTegic.value.DoubleValue
99.99

@<SCITEGIC>MOL_PROPERTY
Delta G
SciTegic.value.DoubleValue
4.940

@<SCITEGIC>MOL_PROPERTY
G
SciTegic.value.DoubleValue
53.202

@<SCITEGIC>MOL_PROPERTY
E
SciTegic.value.DoubleValue
19.814

@<SCITEGIC>MOL_PROPERTY
-TS
SciTegic.value.DoubleValue
33.388

@<SCITEGIC>MOL_PROPERTY
U+W
SciTegic.value.DoubleValue
-1.648

@<SCITEGIC>MOL_PROPERTY
U
SciTegic.value.DoubleValue
52.670

@<SCITEGIC>MOL_PROPERTY
W
SciTegic.value.DoubleValue
-54.319

@<SCITEGIC>MOL_PROPERTY
W(PB)
SciTegic.value.DoubleValue
-56.514

@<SCITEGIC>MOL_PROPERTY
W(SA)
SciTegic.value.DoubleValue
2.195

@<SCITEGIC>MOL_PROPERTY
Valence
SciTegic.value.DoubleValue
6.157

@<SCITEGIC>MOL_PROPERTY
Coulomb
SciTegic.value.DoubleValue
46.163

@<SCITEGIC>MOL_PROPERTY
VdW
SciTegic.value.DoubleValue
0.351

@<SCITEGIC>MOL_PROPERTY
VdW6
SciTegic.value.DoubleValue
-9.327

@<SCITEGIC>MOL_PROPERTY
VdW12
SciTegic.value.DoubleValue
9.678

@<SCITEGIC>MOL_PROPERTY
Bond
SciTegic.value.DoubleValue
0.300

@<SCITEGIC>MOL_PROPERTY
Angle
SciTegic.value.DoubleValue
2.157

@<SCITEGIC>MOL_PROPERTY
Pdih
SciTegic.value.DoubleValue
3.700

@<SCITEGIC>MOL_PROPERTY
Idih
SciTegic.value.DoubleValue
0.000

@<SCITEGIC>MOL_PROPERTY
Tether
SciTegic.value.DoubleValue
0.000

@<TRIPOS>MOLECULE
guest-s14_vm2.mol2 : vm2 ligand conformer 179
          26          25           1
SMALL
USER_CHARGES
 
@<TRIPOS>ATOM
       1    C1      18.952296   19.610730   20.635150 C.3        1 MOL1        -0.2400
       2    H1      18.483531   19.496966   19.649157 H          1 MOL1         0.0971
       3    H2      18.274805   19.166909   21.371706 H          1 MOL1         0.0971
       4    H3      19.029185   20.685467   20.844566 H          1 MOL1         0.0971
       5    C2      20.346240   18.942006   20.647798 C.3        1 MOL1        -0.1385
       6    H4      20.929843   19.370270   19.820824 H          1 MOL1         0.0960
       7    H5      20.255495   17.869199   20.428178 H          1 MOL1         0.0960
       8    C3      21.138321   19.157599   21.963823 C.3        1 MOL1        -0.1409
       9    H6      22.206315   19.184130   21.706963 H          1 MOL1         0.0960
      10    H7      20.919571   20.146313   22.387835 H          1 MOL1         0.0960
      11    C4      20.955631   18.044195   23.030542 C.3        1 MOL1        -0.1409
      12    H8      21.687340   18.207818   23.832836 H          1 MOL1         0.0960
      13    H9      21.226652   17.077869   22.583604 H          1 MOL1         0.0960
      14    C5      19.541660   17.922264   23.655721 C.3        1 MOL1        -0.1409
      15    H10     18.826181   17.609256   22.885447 H          1 MOL1         0.0960
      16    H11     19.552230   17.101446   24.385127 H          1 MOL1         0.0960
      17    C6      19.025433   19.209730   24.351036 C.3        1 MOL1        -0.1450
      18    H12     18.034928   19.014802   24.782820 H          1 MOL1         0.0960
      19    H13     18.877903   20.001064   23.605991 H          1 MOL1         0.0960
      20    C7      19.961405   19.741446   25.454771 C.3        1 MOL1         0.0172
      21    H14     20.942038   19.968527   25.028562 H          1 MOL1         0.0934
      22    H15     19.547914   20.665424   25.867958 H          1 MOL1         0.0934
      23    N1      20.160013   18.771030   26.602159 N.4        1 MOL1        -0.5956
      24    H16     20.783283   19.153268   27.321515 H          1 MOL1         0.3624
      25    H17     20.572377   17.889101   26.282856 H          1 MOL1         0.3624
      26    H18     19.273913   18.541949   27.063817 H          1 MOL1         0.3624
@<TRIPOS>BOND
    1     1     2    1
    2     1     3    1
    3     1     4    1
    4     1     5    1
    5     5     6    1
    6     5     7    1
    7     5     8    1
    8     8     9    1
    9     8    10    1
   10     8    11    1
   11    11    12    1
   12    11    13    1
   13    11    14    1
   14    14    15    1
   15    14    16    1
   16    14    17    1
   17    17    18    1
   18    17    19    1
   19    17    20    1
   20    20    21    1
   21    20    22    1
   22    20    23    1
   23    23    24    1
   24    23    25    1
   25    23    26    1
@<TRIPOS>SUBSTRUCTURE
       1 MOL1            1 RESIDUE      1      MOL     
@<SCITEGIC>MOL_PROPERTY
VM2 Rank
SciTegic.value.IntegerValue
179

@<SCITEGIC>MOL_PROPERTY
Conf_Id
SciTegic.value.IntegerValue
854

@<SCITEGIC>MOL_PROPERTY
Probability
SciTegic.value.DoubleValue
0.00

@<SCITEGIC>MOL_PROPERTY
Sum Probability
SciTegic.value.DoubleValue
99.99

@<SCITEGIC>MOL_PROPERTY
Delta G
SciTegic.value.DoubleValue
4.943

@<SCITEGIC>MOL_PROPERTY
G
SciTegic.value.DoubleValue
53.204

@<SCITEGIC>MOL_PROPERTY
E
SciTegic.value.DoubleValue
19.686

@<SCITEGIC>MOL_PROPERTY
-TS
SciTegic.value.DoubleValue
33.518

@<SCITEGIC>MOL_PROPERTY
U+W
SciTegic.value.DoubleValue
-1.776

@<SCITEGIC>MOL_PROPERTY
U
SciTegic.value.DoubleValue
52.331

@<SCITEGIC>MOL_PROPERTY
W
SciTegic.value.DoubleValue
-54.106

@<SCITEGIC>MOL_PROPERTY
W(PB)
SciTegic.value.DoubleValue
-56.300

@<SCITEGIC>MOL_PROPERTY
W(SA)
SciTegic.value.DoubleValue
2.194

@<SCITEGIC>MOL_PROPERTY
Valence
SciTegic.value.DoubleValue
6.095

@<SCITEGIC>MOL_PROPERTY
Coulomb
SciTegic.value.DoubleValue
45.826

@<SCITEGIC>MOL_PROPERTY
VdW
SciTegic.value.DoubleValue
0.409

@<SCITEGIC>MOL_PROPERTY
VdW6
SciTegic.value.DoubleValue
-9.964

@<SCITEGIC>MOL_PROPERTY
VdW12
SciTegic.value.DoubleValue
10.373

@<SCITEGIC>MOL_PROPERTY
Bond
SciTegic.value.DoubleValue
0.316

@<SCITEGIC>MOL_PROPERTY
Angle
SciTegic.value.DoubleValue
2.141

@<SCITEGIC>MOL_PROPERTY
Pdih
SciTegic.value.DoubleValue
3.638

@<SCITEGIC>MOL_PROPERTY
Idih
SciTegic.value.DoubleValue
0.000

@<SCITEGIC>MOL_PROPERTY
Tether
SciTegic.value.DoubleValue
0.000

@<TRIPOS>MOLECULE
guest-s14_vm2.mol2 : vm2 ligand conformer 180
          26          25           1
SMALL
USER_CHARGES
 
@<TRIPOS>ATOM
       1    C1      19.809813   18.505983   19.826997 C.3        1 MOL1        -0.2400
       2    H1      18.744377   18.501410   20.088109 H          1 MOL1         0.0971
       3    H2      20.067677   19.503618   19.448507 H          1 MOL1         0.0971
       4    H3      19.950916   17.789488   19.007455 H          1 MOL1         0.0971
       5    C2      20.693515   18.124697   21.036284 C.3        1 MOL1        -0.1385
       6    H4      21.732559   18.018858   20.694140 H          1 MOL1         0.0960
       7    H5      20.393442   17.138147   21.415828 H          1 MOL1         0.0960
       8    C3      20.653017   19.164292   22.182437 C.3        1 MOL1        -0.1409
       9    H6      21.399639   18.874220   22.931617 H          1 MOL1         0.0960
      10    H7      20.970009   20.143882   21.798967 H          1 MOL1         0.0960
      11    C4      19.258638   19.295050   22.846945 C.3        1 MOL1        -0.1409
      12    H8      18.894386   18.312811   23.171571 H          1 MOL1         0.0960
      13    H9      18.536498   19.643993   22.097319 H          1 MOL1         0.0960
      14    C5      19.225503   20.294761   24.031324 C.3        1 MOL1        -0.1409
      15    H10     19.481325   21.294706   23.654615 H          1 MOL1         0.0960
      16    H11     18.191289   20.369763   24.394828 H          1 MOL1         0.0960
      17    C6      20.150679   19.968628   25.234754 C.3        1 MOL1        -0.1450
      18    H12     20.022609   20.766614   25.978104 H          1 MOL1         0.0960
      19    H13     21.207123   20.008386   24.940865 H          1 MOL1         0.0960
      20    C7      19.840916   18.627700   25.932044 C.3        1 MOL1         0.0172
      21    H14     20.237527   18.653613   26.950610 H          1 MOL1         0.0934
      22    H15     18.758762   18.484646   25.992967 H          1 MOL1         0.0934
      23    N1      20.448918   17.417889   25.250216 N.4        1 MOL1        -0.5956
      24    H16     21.473116   17.461117   25.246066 H          1 MOL1         0.3624
      25    H17     20.143751   17.343431   24.275230 H          1 MOL1         0.3624
      26    H18     20.188276   16.544645   25.721399 H          1 MOL1         0.3624
@<TRIPOS>BOND
    1     1     2    1
    2     1     3    1
    3     1     4    1
    4     1     5    1
    5     5     6    1
    6     5     7    1
    7     5     8    1
    8     8     9    1
    9     8    10    1
   10     8    11    1
   11    11    12    1
   12    11    13    1
   13    11    14    1
   14    14    15    1
   15    14    16    1
   16    14    17    1
   17    17    18    1
   18    17    19    1
   19    17    20    1
   20    20    21    1
   21    20    22    1
   22    20    23    1
   23    23    24    1
   24    23    25    1
   25    23    26    1
@<TRIPOS>SUBSTRUCTURE
       1 MOL1            1 RESIDUE      1      MOL     
@<SCITEGIC>MOL_PROPERTY
VM2 Rank
SciTegic.value.IntegerValue
180

@<SCITEGIC>MOL_PROPERTY
Conf_Id
SciTegic.value.IntegerValue
1316

@<SCITEGIC>MOL_PROPERTY
Probability
SciTegic.value.DoubleValue
0.00

@<SCITEGIC>MOL_PROPERTY
Sum Probability
SciTegic.value.DoubleValue
99.99

@<SCITEGIC>MOL_PROPERTY
Delta G
SciTegic.value.DoubleValue
5.220

@<SCITEGIC>MOL_PROPERTY
G
SciTegic.value.DoubleValue
53.482

@<SCITEGIC>MOL_PROPERTY
E
SciTegic.value.DoubleValue
20.252

@<SCITEGIC>MOL_PROPERTY
-TS
SciTegic.value.DoubleValue
33.230

@<SCITEGIC>MOL_PROPERTY
U+W
SciTegic.value.DoubleValue
-1.210

@<SCITEGIC>MOL_PROPERTY
U
SciTegic.value.DoubleValue
52.436

@<SCITEGIC>MOL_PROPERTY
W
SciTegic.value.DoubleValue
-53.646

@<SCITEGIC>MOL_PROPERTY
W(PB)
SciTegic.value.DoubleValue
-55.879

@<SCITEGIC>MOL_PROPERTY
W(SA)
SciTegic.value.DoubleValue
2.233

@<SCITEGIC>MOL_PROPERTY
Valence
SciTegic.value.DoubleValue
4.797

@<SCITEGIC>MOL_PROPERTY
Coulomb
SciTegic.value.DoubleValue
47.142

@<SCITEGIC>MOL_PROPERTY
VdW
SciTegic.value.DoubleValue
0.497

@<SCITEGIC>MOL_PROPERTY
VdW6
SciTegic.value.DoubleValue
-9.252

@<SCITEGIC>MOL_PROPERTY
VdW12
SciTegic.value.DoubleValue
9.749

@<SCITEGIC>MOL_PROPERTY
Bond
SciTegic.value.DoubleValue
0.276

@<SCITEGIC>MOL_PROPERTY
Angle
SciTegic.value.DoubleValue
1.763

@<SCITEGIC>MOL_PROPERTY
Pdih
SciTegic.value.DoubleValue
2.758

@<SCITEGIC>MOL_PROPERTY
Idih
SciTegic.value.DoubleValue
0.000

@<SCITEGIC>MOL_PROPERTY
Tether
SciTegic.value.DoubleValue
0.000

@<TRIPOS>MOLECULE
guest-s14_vm2.mol2 : vm2 ligand conformer 181
          26          25           1
SMALL
USER_CHARGES
 
@<TRIPOS>ATOM
       1    C1      19.647806   20.531182   21.037364 C.3        1 MOL1        -0.2400
       2    H1      19.011853   20.726118   21.908924 H          1 MOL1         0.0971
       3    H2      20.147530   21.473597   20.778474 H          1 MOL1         0.0971
       4    H3      19.000391   20.253962   20.195370 H          1 MOL1         0.0971
       5    C2      20.692318   19.427336   21.321634 C.3        1 MOL1        -0.1385
       6    H4      21.317585   19.721887   22.171347 H          1 MOL1         0.0960
       7    H5      21.371948   19.364769   20.460333 H          1 MOL1         0.0960
       8    C3      20.066983   18.026107   21.548751 C.3        1 MOL1        -0.1409
       9    H6      19.465798   17.779865   20.662634 H          1 MOL1         0.0960
      10    H7      20.864133   17.270868   21.580029 H          1 MOL1         0.0960
      11    C4      19.166758   17.877787   22.806601 C.3        1 MOL1        -0.1409
      12    H8      18.414079   17.109290   22.582737 H          1 MOL1         0.0960
      13    H9      18.590987   18.791750   22.992427 H          1 MOL1         0.0960
      14    C5      19.905360   17.423840   24.094997 C.3        1 MOL1        -0.1409
      15    H10     19.155695   17.215183   24.870046 H          1 MOL1         0.0960
      16    H11     20.402374   16.462994   23.903175 H          1 MOL1         0.0960
      17    C6      20.947732   18.418972   24.664272 C.3        1 MOL1        -0.1450
      18    H12     21.803411   18.486213   23.981778 H          1 MOL1         0.0960
      19    H13     21.350762   18.017363   25.603387 H          1 MOL1         0.0960
      20    C7      20.387352   19.831928   24.923658 C.3        1 MOL1         0.0172
      21    H14     21.188566   20.479818   25.289348 H          1 MOL1         0.0934
      22    H15     20.006756   20.254518   23.990420 H          1 MOL1         0.0934
      23    N1      19.266691   19.861847   25.943723 N.4        1 MOL1        -0.5956
      24    H16     19.572565   19.504414   26.854472 H          1 MOL1         0.3624
      25    H17     18.470626   19.289809   25.645624 H          1 MOL1         0.3624
      26    H18     18.915447   20.813181   26.097270 H          1 MOL1         0.3624
@<TRIPOS>BOND
    1     1     2    1
    2     1     3    1
    3     1     4    1
    4     1     5    1
    5     5     6    1
    6     5     7    1
    7     5     8    1
    8     8     9    1
    9     8    10    1
   10     8    11    1
   11    11    12    1
   12    11    13    1
   13    11    14    1
   14    14    15    1
   15    14    16    1
   16    14    17    1
   17    17    18    1
   18    17    19    1
   19    17    20    1
   20    20    21    1
   21    20    22    1
   22    20    23    1
   23    23    24    1
   24    23    25    1
   25    23    26    1
@<TRIPOS>SUBSTRUCTURE
       1 MOL1            1 RESIDUE      1      MOL     
@<SCITEGIC>MOL_PROPERTY
VM2 Rank
SciTegic.value.IntegerValue
181

@<SCITEGIC>MOL_PROPERTY
Conf_Id
SciTegic.value.IntegerValue
1263

@<SCITEGIC>MOL_PROPERTY
Probability
SciTegic.value.DoubleValue
0.00

@<SCITEGIC>MOL_PROPERTY
Sum Probability
SciTegic.value.DoubleValue
99.99

@<SCITEGIC>MOL_PROPERTY
Delta G
SciTegic.value.DoubleValue
5.252

@<SCITEGIC>MOL_PROPERTY
G
SciTegic.value.DoubleValue
53.513

@<SCITEGIC>MOL_PROPERTY
E
SciTegic.value.DoubleValue
19.930

@<SCITEGIC>MOL_PROPERTY
-TS
SciTegic.value.DoubleValue
33.583

@<SCITEGIC>MOL_PROPERTY
U+W
SciTegic.value.DoubleValue
-1.532

@<SCITEGIC>MOL_PROPERTY
U
SciTegic.value.DoubleValue
52.808

@<SCITEGIC>MOL_PROPERTY
W
SciTegic.value.DoubleValue
-54.340

@<SCITEGIC>MOL_PROPERTY
W(PB)
SciTegic.value.DoubleValue
-56.522

@<SCITEGIC>MOL_PROPERTY
W(SA)
SciTegic.value.DoubleValue
2.182

@<SCITEGIC>MOL_PROPERTY
Valence
SciTegic.value.DoubleValue
6.265

@<SCITEGIC>MOL_PROPERTY
Coulomb
SciTegic.value.DoubleValue
46.221

@<SCITEGIC>MOL_PROPERTY
VdW
SciTegic.value.DoubleValue
0.323

@<SCITEGIC>MOL_PROPERTY
VdW6
SciTegic.value.DoubleValue
-10.155

@<SCITEGIC>MOL_PROPERTY
VdW12
SciTegic.value.DoubleValue
10.478

@<SCITEGIC>MOL_PROPERTY
Bond
SciTegic.value.DoubleValue
0.329

@<SCITEGIC>MOL_PROPERTY
Angle
SciTegic.value.DoubleValue
2.314

@<SCITEGIC>MOL_PROPERTY
Pdih
SciTegic.value.DoubleValue
3.622

@<SCITEGIC>MOL_PROPERTY
Idih
SciTegic.value.DoubleValue
0.000

@<SCITEGIC>MOL_PROPERTY
Tether
SciTegic.value.DoubleValue
0.000

@<TRIPOS>MOLECULE
guest-s14_vm2.mol2 : vm2 ligand conformer 182
          26          25           1
SMALL
USER_CHARGES
 
@<TRIPOS>ATOM
       1    C1      18.839149   19.935448   21.129704 C.3        1 MOL1        -0.2400
       2    H1      18.715656   20.173210   22.192644 H          1 MOL1         0.0971
       3    H2      19.326619   20.790074   20.643013 H          1 MOL1         0.0971
       4    H3      17.836866   19.828710   20.695202 H          1 MOL1         0.0971
       5    C2      19.658809   18.641134   20.924917 C.3        1 MOL1        -0.1385
       6    H4      19.677507   18.405829   19.851650 H          1 MOL1         0.0960
       7    H5      19.156615   17.791612   21.404053 H          1 MOL1         0.0960
       8    C3      21.119370   18.752284   21.426158 C.3        1 MOL1        -0.1409
       9    H6      21.647440   17.819782   21.184001 H          1 MOL1         0.0960
      10    H7      21.626285   19.537905   20.849108 H          1 MOL1         0.0960
      11    C4      21.304208   19.056575   22.937465 C.3        1 MOL1        -0.1409
      12    H8      20.868218   20.030541   23.189716 H          1 MOL1         0.0960
      13    H9      22.382888   19.175303   23.109356 H          1 MOL1         0.0960
      14    C5      20.797719   17.943584   23.896449 C.3        1 MOL1        -0.1409
      15    H10     20.906054   16.964031   23.411101 H          1 MOL1         0.0960
      16    H11     21.463147   17.906859   24.769188 H          1 MOL1         0.0960
      17    C6      19.339034   18.110054   24.401734 C.3        1 MOL1        -0.1450
      18    H12     19.085983   17.256116   25.043897 H          1 MOL1         0.0960
      19    H13     18.638034   18.067037   23.561493 H          1 MOL1         0.0960
      20    C7      19.085934   19.412550   25.188708 C.3        1 MOL1         0.0172
      21    H14     19.282025   20.277412   24.550431 H          1 MOL1         0.0934
      22    H15     18.037489   19.450827   25.496592 H          1 MOL1         0.0934
      23    N1      19.936777   19.547371   26.435865 N.4        1 MOL1        -0.5956
      24    H16     20.936529   19.552705   26.211283 H          1 MOL1         0.3624
      25    H17     19.776752   18.775178   27.090786 H          1 MOL1         0.3624
      26    H18     19.736646   20.416712   26.942096 H          1 MOL1         0.3624
@<TRIPOS>BOND
    1     1     2    1
    2     1     3    1
    3     1     4    1
    4     1     5    1
    5     5     6    1
    6     5     7    1
    7     5     8    1
    8     8     9    1
    9     8    10    1
   10     8    11    1
   11    11    12    1
   12    11    13    1
   13    11    14    1
   14    14    15    1
   15    14    16    1
   16    14    17    1
   17    17    18    1
   18    17    19    1
   19    17    20    1
   20    20    21    1
   21    20    22    1
   22    20    23    1
   23    23    24    1
   24    23    25    1
   25    23    26    1
@<TRIPOS>SUBSTRUCTURE
       1 MOL1            1 RESIDUE      1      MOL     
@<SCITEGIC>MOL_PROPERTY
VM2 Rank
SciTegic.value.IntegerValue
182

@<SCITEGIC>MOL_PROPERTY
Conf_Id
SciTegic.value.IntegerValue
566

@<SCITEGIC>MOL_PROPERTY
Probability
SciTegic.value.DoubleValue
0.00

@<SCITEGIC>MOL_PROPERTY
Sum Probability
SciTegic.value.DoubleValue
100.00

@<SCITEGIC>MOL_PROPERTY
Delta G
SciTegic.value.DoubleValue
5.270

@<SCITEGIC>MOL_PROPERTY
G
SciTegic.value.DoubleValue
53.531

@<SCITEGIC>MOL_PROPERTY
E
SciTegic.value.DoubleValue
19.959

@<SCITEGIC>MOL_PROPERTY
-TS
SciTegic.value.DoubleValue
33.572

@<SCITEGIC>MOL_PROPERTY
U+W
SciTegic.value.DoubleValue
-1.503

@<SCITEGIC>MOL_PROPERTY
U
SciTegic.value.DoubleValue
52.748

@<SCITEGIC>MOL_PROPERTY
W
SciTegic.value.DoubleValue
-54.251

@<SCITEGIC>MOL_PROPERTY
W(PB)
SciTegic.value.DoubleValue
-56.426

@<SCITEGIC>MOL_PROPERTY
W(SA)
SciTegic.value.DoubleValue
2.175

@<SCITEGIC>MOL_PROPERTY
Valence
SciTegic.value.DoubleValue
6.294

@<SCITEGIC>MOL_PROPERTY
Coulomb
SciTegic.value.DoubleValue
46.014

@<SCITEGIC>MOL_PROPERTY
VdW
SciTegic.value.DoubleValue
0.441

@<SCITEGIC>MOL_PROPERTY
VdW6
SciTegic.value.DoubleValue
-9.946

@<SCITEGIC>MOL_PROPERTY
VdW12
SciTegic.value.DoubleValue
10.387

@<SCITEGIC>MOL_PROPERTY
Bond
SciTegic.value.DoubleValue
0.331

@<SCITEGIC>MOL_PROPERTY
Angle
SciTegic.value.DoubleValue
2.251

@<SCITEGIC>MOL_PROPERTY
Pdih
SciTegic.value.DoubleValue
3.712

@<SCITEGIC>MOL_PROPERTY
Idih
SciTegic.value.DoubleValue
0.000

@<SCITEGIC>MOL_PROPERTY
Tether
SciTegic.value.DoubleValue
0.000

@<TRIPOS>MOLECULE
guest-s14_vm2.mol2 : vm2 ligand conformer 183
          26          25           1
SMALL
USER_CHARGES
 
@<TRIPOS>ATOM
       1    C1      20.374937   20.508845   20.473353 C.3        1 MOL1        -0.2400
       2    H1      21.298683   20.786805   19.949414 H          1 MOL1         0.0971
       3    H2      19.588991   20.371713   19.719201 H          1 MOL1         0.0971
       4    H3      20.086835   21.349626   21.117726 H          1 MOL1         0.0971
       5    C2      20.582785   19.221346   21.298556 C.3        1 MOL1        -0.1385
       6    H4      21.405326   19.383415   22.005601 H          1 MOL1         0.0960
       7    H5      20.897665   18.408089   20.629772 H          1 MOL1         0.0960
       8    C3      19.290852   18.809712   22.044565 C.3        1 MOL1        -0.1409
       9    H6      18.965364   19.621194   22.703400 H          1 MOL1         0.0960
      10    H7      18.486672   18.692396   21.305056 H          1 MOL1         0.0960
      11    C4      19.417522   17.475935   22.827836 C.3        1 MOL1        -0.1409
      12    H8      19.712117   16.694005   22.114271 H          1 MOL1         0.0960
      13    H9      18.426911   17.176632   23.196741 H          1 MOL1         0.0960
      14    C5      20.427142   17.462737   24.009160 C.3        1 MOL1        -0.1409
      15    H10     20.717987   16.417014   24.180048 H          1 MOL1         0.0960
      16    H11     21.359098   17.973735   23.741450 H          1 MOL1         0.0960
      17    C6      19.876328   18.003631   25.356161 C.3        1 MOL1        -0.1450
      18    H12     20.629527   17.835060   26.137237 H          1 MOL1         0.0960
      19    H13     18.999320   17.412846   25.651988 H          1 MOL1         0.0960
      20    C7      19.490209   19.495220   25.365739 C.3        1 MOL1         0.0172
      21    H14     18.650455   19.664793   24.688568 H          1 MOL1         0.0934
      22    H15     19.169749   19.777746   26.372190 H          1 MOL1         0.0934
      23    N1      20.621225   20.421574   24.965628 N.4        1 MOL1        -0.5956
      24    H16     20.939845   20.228854   24.011128 H          1 MOL1         0.3624
      25    H17     21.431023   20.320926   25.586330 H          1 MOL1         0.3624
      26    H18     20.336786   21.406593   25.000035 H          1 MOL1         0.3624
@<TRIPOS>BOND
    1     1     2    1
    2     1     3    1
    3     1     4    1
    4     1     5    1
    5     5     6    1
    6     5     7    1
    7     5     8    1
    8     8     9    1
    9     8    10    1
   10     8    11    1
   11    11    12    1
   12    11    13    1
   13    11    14    1
   14    14    15    1
   15    14    16    1
   16    14    17    1
   17    17    18    1
   18    17    19    1
   19    17    20    1
   20    20    21    1
   21    20    22    1
   22    20    23    1
   23    23    24    1
   24    23    25    1
   25    23    26    1
@<TRIPOS>SUBSTRUCTURE
       1 MOL1            1 RESIDUE      1      MOL     
@<SCITEGIC>MOL_PROPERTY
VM2 Rank
SciTegic.value.IntegerValue
183

@<SCITEGIC>MOL_PROPERTY
Conf_Id
SciTegic.value.IntegerValue
551

@<SCITEGIC>MOL_PROPERTY
Probability
SciTegic.value.DoubleValue
0.00

@<SCITEGIC>MOL_PROPERTY
Sum Probability
SciTegic.value.DoubleValue
100.00

@<SCITEGIC>MOL_PROPERTY
Delta G
SciTegic.value.DoubleValue
5.669

@<SCITEGIC>MOL_PROPERTY
G
SciTegic.value.DoubleValue
53.930

@<SCITEGIC>MOL_PROPERTY
E
SciTegic.value.DoubleValue
20.676

@<SCITEGIC>MOL_PROPERTY
-TS
SciTegic.value.DoubleValue
33.254

@<SCITEGIC>MOL_PROPERTY
U+W
SciTegic.value.DoubleValue
-0.786

@<SCITEGIC>MOL_PROPERTY
U
SciTegic.value.DoubleValue
52.899

@<SCITEGIC>MOL_PROPERTY
W
SciTegic.value.DoubleValue
-53.685

@<SCITEGIC>MOL_PROPERTY
W(PB)
SciTegic.value.DoubleValue
-55.876

@<SCITEGIC>MOL_PROPERTY
W(SA)
SciTegic.value.DoubleValue
2.192

@<SCITEGIC>MOL_PROPERTY
Valence
SciTegic.value.DoubleValue
5.554

@<SCITEGIC>MOL_PROPERTY
Coulomb
SciTegic.value.DoubleValue
47.030

@<SCITEGIC>MOL_PROPERTY
VdW
SciTegic.value.DoubleValue
0.315

@<SCITEGIC>MOL_PROPERTY
VdW6
SciTegic.value.DoubleValue
-9.413

@<SCITEGIC>MOL_PROPERTY
VdW12
SciTegic.value.DoubleValue
9.728

@<SCITEGIC>MOL_PROPERTY
Bond
SciTegic.value.DoubleValue
0.306

@<SCITEGIC>MOL_PROPERTY
Angle
SciTegic.value.DoubleValue
2.197

@<SCITEGIC>MOL_PROPERTY
Pdih
SciTegic.value.DoubleValue
3.051

@<SCITEGIC>MOL_PROPERTY
Idih
SciTegic.value.DoubleValue
0.000

@<SCITEGIC>MOL_PROPERTY
Tether
SciTegic.value.DoubleValue
0.000

@<TRIPOS>MOLECULE
guest-s14_vm2.mol2 : vm2 ligand conformer 184
          26          25           1
SMALL
USER_CHARGES
 
@<TRIPOS>ATOM
       1    C1      18.542934   19.299471   20.412027 C.3        1 MOL1        -0.2400
       2    H1      17.853253   19.875074   21.043021 H          1 MOL1         0.0971
       3    H2      19.011991   19.990950   19.699912 H          1 MOL1         0.0971
       4    H3      17.949982   18.576168   19.837292 H          1 MOL1         0.0971
       5    C2      19.606120   18.576583   21.265774 C.3        1 MOL1        -0.1385
       6    H4      20.261144   17.987943   20.608312 H          1 MOL1         0.0960
       7    H5      19.102008   17.862750   21.928395 H          1 MOL1         0.0960
       8    C3      20.455844   19.578770   22.083489 C.3        1 MOL1        -0.1409
       9    H6      20.913181   20.294318   21.386225 H          1 MOL1         0.0960
      10    H7      19.807072   20.176781   22.731551 H          1 MOL1         0.0960
      11    C4      21.595281   18.913539   22.900597 C.3        1 MOL1        -0.1409
      12    H8      22.241369   19.694646   23.324183 H          1 MOL1         0.0960
      13    H9      22.231470   18.357090   22.198453 H          1 MOL1         0.0960
      14    C5      21.156766   17.944439   24.033547 C.3        1 MOL1        -0.1409
      15    H10     20.334408   17.297456   23.707247 H          1 MOL1         0.0960
      16    H11     21.995641   17.260458   24.222728 H          1 MOL1         0.0960
      17    C6      20.813082   18.622050   25.387467 C.3        1 MOL1        -0.1450
      18    H12     21.685857   19.186401   25.741660 H          1 MOL1         0.0960
      19    H13     20.636567   17.839706   26.137522 H          1 MOL1         0.0960
      20    C7      19.593385   19.563342   25.369262 C.3        1 MOL1         0.0172
      21    H14     19.412624   19.938054   26.380388 H          1 MOL1         0.0934
      22    H15     19.798068   20.422446   24.726965 H          1 MOL1         0.0934
      23    N1      18.317588   18.900806   24.888838 N.4        1 MOL1        -0.5956
      24    H16     18.414104   18.561599   23.926885 H          1 MOL1         0.3624
      25    H17     17.522335   19.548586   24.906320 H          1 MOL1         0.3624
      26    H18     18.063984   18.098019   25.473980 H          1 MOL1         0.3624
@<TRIPOS>BOND
    1     1     2    1
    2     1     3    1
    3     1     4    1
    4     1     5    1
    5     5     6    1
    6     5     7    1
    7     5     8    1
    8     8     9    1
    9     8    10    1
   10     8    11    1
   11    11    12    1
   12    11    13    1
   13    11    14    1
   14    14    15    1
   15    14    16    1
   16    14    17    1
   17    17    18    1
   18    17    19    1
   19    17    20    1
   20    20    21    1
   21    20    22    1
   22    20    23    1
   23    23    24    1
   24    23    25    1
   25    23    26    1
@<TRIPOS>SUBSTRUCTURE
       1 MOL1            1 RESIDUE      1      MOL     
@<SCITEGIC>MOL_PROPERTY
VM2 Rank
SciTegic.value.IntegerValue
184

@<SCITEGIC>MOL_PROPERTY
Conf_Id
SciTegic.value.IntegerValue
219

@<SCITEGIC>MOL_PROPERTY
Probability
SciTegic.value.DoubleValue
0.00

@<SCITEGIC>MOL_PROPERTY
Sum Probability
SciTegic.value.DoubleValue
100.00

@<SCITEGIC>MOL_PROPERTY
Delta G
SciTegic.value.DoubleValue
5.675

@<SCITEGIC>MOL_PROPERTY
G
SciTegic.value.DoubleValue
53.936

@<SCITEGIC>MOL_PROPERTY
E
SciTegic.value.DoubleValue
20.682

@<SCITEGIC>MOL_PROPERTY
-TS
SciTegic.value.DoubleValue
33.254

@<SCITEGIC>MOL_PROPERTY
U+W
SciTegic.value.DoubleValue
-0.779

@<SCITEGIC>MOL_PROPERTY
U
SciTegic.value.DoubleValue
52.899

@<SCITEGIC>MOL_PROPERTY
W
SciTegic.value.DoubleValue
-53.678

@<SCITEGIC>MOL_PROPERTY
W(PB)
SciTegic.value.DoubleValue
-55.862

@<SCITEGIC>MOL_PROPERTY
W(SA)
SciTegic.value.DoubleValue
2.184

@<SCITEGIC>MOL_PROPERTY
Valence
SciTegic.value.DoubleValue
5.554

@<SCITEGIC>MOL_PROPERTY
Coulomb
SciTegic.value.DoubleValue
47.030

@<SCITEGIC>MOL_PROPERTY
VdW
SciTegic.value.DoubleValue
0.315

@<SCITEGIC>MOL_PROPERTY
VdW6
SciTegic.value.DoubleValue
-9.412

@<SCITEGIC>MOL_PROPERTY
VdW12
SciTegic.value.DoubleValue
9.727

@<SCITEGIC>MOL_PROPERTY
Bond
SciTegic.value.DoubleValue
0.306

@<SCITEGIC>MOL_PROPERTY
Angle
SciTegic.value.DoubleValue
2.197

@<SCITEGIC>MOL_PROPERTY
Pdih
SciTegic.value.DoubleValue
3.052

@<SCITEGIC>MOL_PROPERTY
Idih
SciTegic.value.DoubleValue
0.000

@<SCITEGIC>MOL_PROPERTY
Tether
SciTegic.value.DoubleValue
0.000

@<TRIPOS>MOLECULE
guest-s14_vm2.mol2 : vm2 ligand conformer 185
          26          25           1
SMALL
USER_CHARGES
 
@<TRIPOS>ATOM
       1    C1      18.361617   18.386038   20.812490 C.3        1 MOL1        -0.2400
       2    H1      17.639992   18.927582   21.437880 H          1 MOL1         0.0971
       3    H2      18.454006   18.919111   19.857237 H          1 MOL1         0.0971
       4    H3      17.947121   17.391089   20.604489 H          1 MOL1         0.0971
       5    C2      19.729386   18.270030   21.517388 C.3        1 MOL1        -0.1385
       6    H4      20.416216   17.691890   20.883516 H          1 MOL1         0.0960
       7    H5      19.610801   17.696664   22.444359 H          1 MOL1         0.0960
       8    C3      20.343229   19.661409   21.805676 C.3        1 MOL1        -0.1409
       9    H6      20.536362   20.152004   20.841584 H          1 MOL1         0.0960
      10    H7      19.624868   20.306423   22.328873 H          1 MOL1         0.0960
      11    C4      21.674318   19.590736   22.596811 C.3        1 MOL1        -0.1409
      12    H8      22.338007   20.376633   22.210338 H          1 MOL1         0.0960
      13    H9      22.190830   18.643884   22.387240 H          1 MOL1         0.0960
      14    C5      21.554098   19.802354   24.130574 C.3        1 MOL1        -0.1409
      15    H10     22.573433   19.813583   24.540793 H          1 MOL1         0.0960
      16    H11     21.141245   20.798793   24.340830 H          1 MOL1         0.0960
      17    C6      20.745790   18.725227   24.895739 C.3        1 MOL1        -0.1450
      18    H12     21.097122   18.699697   25.935872 H          1 MOL1         0.0960
      19    H13     20.950721   17.731311   24.477125 H          1 MOL1         0.0960
      20    C7      19.230499   19.005669   24.912072 C.3        1 MOL1         0.0172
      21    H14     19.042584   19.974212   25.383174 H          1 MOL1         0.0934
      22    H15     18.842808   19.042075   23.892153 H          1 MOL1         0.0934
      23    N1      18.442063   17.957538   25.670250 N.4        1 MOL1        -0.5956
      24    H16     17.437347   18.164347   25.672414 H          1 MOL1         0.3624
      25    H17     18.735384   17.895049   26.650653 H          1 MOL1         0.3624
      26    H18     18.554450   17.024143   25.261684 H          1 MOL1         0.3624
@<TRIPOS>BOND
    1     1     2    1
    2     1     3    1
    3     1     4    1
    4     1     5    1
    5     5     6    1
    6     5     7    1
    7     5     8    1
    8     8     9    1
    9     8    10    1
   10     8    11    1
   11    11    12    1
   12    11    13    1
   13    11    14    1
   14    14    15    1
   15    14    16    1
   16    14    17    1
   17    17    18    1
   18    17    19    1
   19    17    20    1
   20    20    21    1
   21    20    22    1
   22    20    23    1
   23    23    24    1
   24    23    25    1
   25    23    26    1
@<TRIPOS>SUBSTRUCTURE
       1 MOL1            1 RESIDUE      1      MOL     
@<SCITEGIC>MOL_PROPERTY
VM2 Rank
SciTegic.value.IntegerValue
185

@<SCITEGIC>MOL_PROPERTY
Conf_Id
SciTegic.value.IntegerValue
1307

@<SCITEGIC>MOL_PROPERTY
Probability
SciTegic.value.DoubleValue
0.00

@<SCITEGIC>MOL_PROPERTY
Sum Probability
SciTegic.value.DoubleValue
100.00

@<SCITEGIC>MOL_PROPERTY
Delta G
SciTegic.value.DoubleValue
5.823

@<SCITEGIC>MOL_PROPERTY
G
SciTegic.value.DoubleValue
54.085

@<SCITEGIC>MOL_PROPERTY
E
SciTegic.value.DoubleValue
20.802

@<SCITEGIC>MOL_PROPERTY
-TS
SciTegic.value.DoubleValue
33.283

@<SCITEGIC>MOL_PROPERTY
U+W
SciTegic.value.DoubleValue
-0.660

@<SCITEGIC>MOL_PROPERTY
U
SciTegic.value.DoubleValue
53.727

@<SCITEGIC>MOL_PROPERTY
W
SciTegic.value.DoubleValue
-54.387

@<SCITEGIC>MOL_PROPERTY
W(PB)
SciTegic.value.DoubleValue
-56.587

@<SCITEGIC>MOL_PROPERTY
W(SA)
SciTegic.value.DoubleValue
2.200

@<SCITEGIC>MOL_PROPERTY
Valence
SciTegic.value.DoubleValue
7.057

@<SCITEGIC>MOL_PROPERTY
Coulomb
SciTegic.value.DoubleValue
46.464

@<SCITEGIC>MOL_PROPERTY
VdW
SciTegic.value.DoubleValue
0.207

@<SCITEGIC>MOL_PROPERTY
VdW6
SciTegic.value.DoubleValue
-9.122

@<SCITEGIC>MOL_PROPERTY
VdW12
SciTegic.value.DoubleValue
9.328

@<SCITEGIC>MOL_PROPERTY
Bond
SciTegic.value.DoubleValue
0.248

@<SCITEGIC>MOL_PROPERTY
Angle
SciTegic.value.DoubleValue
1.758

@<SCITEGIC>MOL_PROPERTY
Pdih
SciTegic.value.DoubleValue
5.050

@<SCITEGIC>MOL_PROPERTY
Idih
SciTegic.value.DoubleValue
0.000

@<SCITEGIC>MOL_PROPERTY
Tether
SciTegic.value.DoubleValue
0.000

@<TRIPOS>MOLECULE
guest-s14_vm2.mol2 : vm2 ligand conformer 186
          26          25           1
SMALL
USER_CHARGES
 
@<TRIPOS>ATOM
       1    C1      21.267649   20.302803   20.909496 C.3        1 MOL1        -0.2400
       2    H1      22.353955   20.297759   20.751667 H          1 MOL1         0.0971
       3    H2      20.786203   20.457270   19.935042 H          1 MOL1         0.0971
       4    H3      21.024400   21.159950   21.550786 H          1 MOL1         0.0971
       5    C2      20.804436   18.979151   21.553319 C.3        1 MOL1        -0.1385
       6    H4      21.334531   18.833697   22.501965 H          1 MOL1         0.0960
       7    H5      21.095314   18.139812   20.906268 H          1 MOL1         0.0960
       8    C3      19.272004   18.954892   21.769920 C.3        1 MOL1        -0.1409
       9    H6      18.937234   19.852889   22.305973 H          1 MOL1         0.0960
      10    H7      18.790397   19.000492   20.783294 H          1 MOL1         0.0960
      11    C4      18.777528   17.680079   22.500013 C.3        1 MOL1        -0.1409
      12    H8      19.454191   16.838873   22.295725 H          1 MOL1         0.0960
      13    H9      17.813056   17.392124   22.059157 H          1 MOL1         0.0960
      14    C5      18.559035   17.826761   24.030506 C.3        1 MOL1        -0.1409
      15    H10     17.796051   18.592237   24.229120 H          1 MOL1         0.0960
      16    H11     18.129492   16.882274   24.392288 H          1 MOL1         0.0960
      17    C6      19.830158   18.121211   24.865123 C.3        1 MOL1        -0.1450
      18    H12     20.682146   17.554134   24.468080 H          1 MOL1         0.0960
      19    H13     19.667331   17.756463   25.888064 H          1 MOL1         0.0960
      20    C7      20.166608   19.623109   24.943376 C.3        1 MOL1         0.0172
      21    H14     20.332812   20.024900   23.941974 H          1 MOL1         0.0934
      22    H15     19.328782   20.162943   25.392767 H          1 MOL1         0.0934
      23    N1      21.403581   19.910994   25.769247 N.4        1 MOL1        -0.5956
      24    H16     22.235851   19.452430   25.384762 H          1 MOL1         0.3624
      25    H17     21.300196   19.586873   26.736402 H          1 MOL1         0.3624
      26    H18     21.607922   20.915318   25.811787 H          1 MOL1         0.3624
@<TRIPOS>BOND
    1     1     2    1
    2     1     3    1
    3     1     4    1
    4     1     5    1
    5     5     6    1
    6     5     7    1
    7     5     8    1
    8     8     9    1
    9     8    10    1
   10     8    11    1
   11    11    12    1
   12    11    13    1
   13    11    14    1
   14    14    15    1
   15    14    16    1
   16    14    17    1
   17    17    18    1
   18    17    19    1
   19    17    20    1
   20    20    21    1
   21    20    22    1
   22    20    23    1
   23    23    24    1
   24    23    25    1
   25    23    26    1
@<TRIPOS>SUBSTRUCTURE
       1 MOL1            1 RESIDUE      1      MOL     
@<SCITEGIC>MOL_PROPERTY
VM2 Rank
SciTegic.value.IntegerValue
186

@<SCITEGIC>MOL_PROPERTY
Conf_Id
SciTegic.value.IntegerValue
1330

@<SCITEGIC>MOL_PROPERTY
Probability
SciTegic.value.DoubleValue
0.00

@<SCITEGIC>MOL_PROPERTY
Sum Probability
SciTegic.value.DoubleValue
100.00

@<SCITEGIC>MOL_PROPERTY
Delta G
SciTegic.value.DoubleValue
5.894

@<SCITEGIC>MOL_PROPERTY
G
SciTegic.value.DoubleValue
54.155

@<SCITEGIC>MOL_PROPERTY
E
SciTegic.value.DoubleValue
20.872

@<SCITEGIC>MOL_PROPERTY
-TS
SciTegic.value.DoubleValue
33.283

@<SCITEGIC>MOL_PROPERTY
U+W
SciTegic.value.DoubleValue
-0.590

@<SCITEGIC>MOL_PROPERTY
U
SciTegic.value.DoubleValue
53.727

@<SCITEGIC>MOL_PROPERTY
W
SciTegic.value.DoubleValue
-54.316

@<SCITEGIC>MOL_PROPERTY
W(PB)
SciTegic.value.DoubleValue
-56.544

@<SCITEGIC>MOL_PROPERTY
W(SA)
SciTegic.value.DoubleValue
2.228

@<SCITEGIC>MOL_PROPERTY
Valence
SciTegic.value.DoubleValue
7.056

@<SCITEGIC>MOL_PROPERTY
Coulomb
SciTegic.value.DoubleValue
46.464

@<SCITEGIC>MOL_PROPERTY
VdW
SciTegic.value.DoubleValue
0.207

@<SCITEGIC>MOL_PROPERTY
VdW6
SciTegic.value.DoubleValue
-9.122

@<SCITEGIC>MOL_PROPERTY
VdW12
SciTegic.value.DoubleValue
9.329

@<SCITEGIC>MOL_PROPERTY
Bond
SciTegic.value.DoubleValue
0.248

@<SCITEGIC>MOL_PROPERTY
Angle
SciTegic.value.DoubleValue
1.758

@<SCITEGIC>MOL_PROPERTY
Pdih
SciTegic.value.DoubleValue
5.050

@<SCITEGIC>MOL_PROPERTY
Idih
SciTegic.value.DoubleValue
0.000

@<SCITEGIC>MOL_PROPERTY
Tether
SciTegic.value.DoubleValue
0.000

@<TRIPOS>MOLECULE
guest-s14_vm2.mol2 : vm2 ligand conformer 187
          26          25           1
SMALL
USER_CHARGES
 
@<TRIPOS>ATOM
       1    C1      18.512583   18.581324   20.793191 C.3        1 MOL1        -0.2400
       2    H1      18.146913   17.738153   21.393096 H          1 MOL1         0.0971
       3    H2      18.140048   19.512428   21.237478 H          1 MOL1         0.0971
       4    H3      18.068247   18.495269   19.793079 H          1 MOL1         0.0971
       5    C2      20.055459   18.570997   20.698063 C.3        1 MOL1        -0.1385
       6    H4      20.396112   19.430441   20.103824 H          1 MOL1         0.0960
       7    H5      20.369087   17.673337   20.146973 H          1 MOL1         0.0960
       8    C3      20.756116   18.576476   22.077492 C.3        1 MOL1        -0.1409
       9    H6      20.411105   17.712106   22.657895 H          1 MOL1         0.0960
      10    H7      21.833963   18.429441   21.923035 H          1 MOL1         0.0960
      11    C4      20.540900   19.891814   22.868674 C.3        1 MOL1        -0.1409
      12    H8      19.475089   20.075162   23.044914 H          1 MOL1         0.0960
      13    H9      20.885472   20.732634   22.250969 H          1 MOL1         0.0960
      14    C5      21.306212   19.934422   24.215577 C.3        1 MOL1        -0.1409
      15    H10     22.384236   19.876492   24.011279 H          1 MOL1         0.0960
      16    H11     21.143390   20.917345   24.678944 H          1 MOL1         0.0960
      17    C6      20.937282   18.832374   25.245031 C.3        1 MOL1        -0.1450
      18    H12     21.561451   18.985660   26.135348 H          1 MOL1         0.0960
      19    H13     21.203578   17.837359   24.866432 H          1 MOL1         0.0960
      20    C7      19.462503   18.852922   25.698336 C.3        1 MOL1         0.0172
      21    H14     19.376434   18.345075   26.662771 H          1 MOL1         0.0934
      22    H15     19.131256   19.886625   25.828595 H          1 MOL1         0.0934
      23    N1      18.509944   18.158671   24.744635 N.4        1 MOL1        -0.5956
      24    H16     18.718739   17.158079   24.665175 H          1 MOL1         0.3624
      25    H17     18.566344   18.557654   23.802389 H          1 MOL1         0.3624
      26    H18     17.535560   18.237163   25.056323 H          1 MOL1         0.3624
@<TRIPOS>BOND
    1     1     2    1
    2     1     3    1
    3     1     4    1
    4     1     5    1
    5     5     6    1
    6     5     7    1
    7     5     8    1
    8     8     9    1
    9     8    10    1
   10     8    11    1
   11    11    12    1
   12    11    13    1
   13    11    14    1
   14    14    15    1
   15    14    16    1
   16    14    17    1
   17    17    18    1
   18    17    19    1
   19    17    20    1
   20    20    21    1
   21    20    22    1
   22    20    23    1
   23    23    24    1
   24    23    25    1
   25    23    26    1
@<TRIPOS>SUBSTRUCTURE
       1 MOL1            1 RESIDUE      1      MOL     
@<SCITEGIC>MOL_PROPERTY
VM2 Rank
SciTegic.value.IntegerValue
187

@<SCITEGIC>MOL_PROPERTY
Conf_Id
SciTegic.value.IntegerValue
188

@<SCITEGIC>MOL_PROPERTY
Probability
SciTegic.value.DoubleValue
0.00

@<SCITEGIC>MOL_PROPERTY
Sum Probability
SciTegic.value.DoubleValue
100.00

@<SCITEGIC>MOL_PROPERTY
Delta G
SciTegic.value.DoubleValue
6.010

@<SCITEGIC>MOL_PROPERTY
G
SciTegic.value.DoubleValue
54.272

@<SCITEGIC>MOL_PROPERTY
E
SciTegic.value.DoubleValue
20.895

@<SCITEGIC>MOL_PROPERTY
-TS
SciTegic.value.DoubleValue
33.377

@<SCITEGIC>MOL_PROPERTY
U+W
SciTegic.value.DoubleValue
-0.567

@<SCITEGIC>MOL_PROPERTY
U
SciTegic.value.DoubleValue
52.431

@<SCITEGIC>MOL_PROPERTY
W
SciTegic.value.DoubleValue
-52.998

@<SCITEGIC>MOL_PROPERTY
W(PB)
SciTegic.value.DoubleValue
-55.182

@<SCITEGIC>MOL_PROPERTY
W(SA)
SciTegic.value.DoubleValue
2.184

@<SCITEGIC>MOL_PROPERTY
Valence
SciTegic.value.DoubleValue
4.698

@<SCITEGIC>MOL_PROPERTY
Coulomb
SciTegic.value.DoubleValue
47.456

@<SCITEGIC>MOL_PROPERTY
VdW
SciTegic.value.DoubleValue
0.276

@<SCITEGIC>MOL_PROPERTY
VdW6
SciTegic.value.DoubleValue
-9.682

@<SCITEGIC>MOL_PROPERTY
VdW12
SciTegic.value.DoubleValue
9.958

@<SCITEGIC>MOL_PROPERTY
Bond
SciTegic.value.DoubleValue
0.267

@<SCITEGIC>MOL_PROPERTY
Angle
SciTegic.value.DoubleValue
1.656

@<SCITEGIC>MOL_PROPERTY
Pdih
SciTegic.value.DoubleValue
2.775

@<SCITEGIC>MOL_PROPERTY
Idih
SciTegic.value.DoubleValue
0.000

@<SCITEGIC>MOL_PROPERTY
Tether
SciTegic.value.DoubleValue
0.000

@<TRIPOS>MOLECULE
guest-s14_vm2.mol2 : vm2 ligand conformer 188
          26          25           1
SMALL
USER_CHARGES
 
@<TRIPOS>ATOM
       1    C1      20.071628   18.224954   20.219010 C.3        1 MOL1        -0.2400
       2    H1      20.175251   19.078890   19.537085 H          1 MOL1         0.0971
       3    H2      20.371164   17.320877   19.673313 H          1 MOL1         0.0971
       4    H3      19.010985   18.117377   20.478296 H          1 MOL1         0.0971
       5    C2      20.945725   18.410953   21.479552 C.3        1 MOL1        -0.1385
       6    H4      22.003066   18.385658   21.180806 H          1 MOL1         0.0960
       7    H5      20.804923   17.555538   22.151301 H          1 MOL1         0.0960
       8    C3      20.678708   19.744200   22.225693 C.3        1 MOL1        -0.1409
       9    H6      21.369727   19.824991   23.071737 H          1 MOL1         0.0960
      10    H7      20.947892   20.572510   21.555926 H          1 MOL1         0.0960
      11    C4      19.216082   19.966432   22.702045 C.3        1 MOL1        -0.1409
      12    H8      18.566492   19.999005   21.817486 H          1 MOL1         0.0960
      13    H9      19.132177   20.964656   23.152948 H          1 MOL1         0.0960
      14    C5      18.647085   18.910789   23.689745 C.3        1 MOL1        -0.1409
      15    H10     17.553640   18.914894   23.582158 H          1 MOL1         0.0960
      16    H11     18.954581   17.897190   23.407366 H          1 MOL1         0.0960
      17    C6      18.955206   19.180232   25.187088 C.3        1 MOL1        -0.1450
      18    H12     18.416987   18.443053   25.797550 H          1 MOL1         0.0960
      19    H13     18.546636   20.159720   25.468799 H          1 MOL1         0.0960
      20    C7      20.446106   19.141496   25.572892 C.3        1 MOL1         0.0172
      21    H14     20.985119   19.933990   25.049601 H          1 MOL1         0.0934
      22    H15     20.545327   19.321997   26.646681 H          1 MOL1         0.0934
      23    N1      21.120459   17.819945   25.264976 N.4        1 MOL1        -0.5956
      24    H16     22.108191   17.822580   25.541973 H          1 MOL1         0.3624
      25    H17     21.084219   17.608363   24.263671 H          1 MOL1         0.3624
      26    H18     20.672037   17.041647   25.759267 H          1 MOL1         0.3624
@<TRIPOS>BOND
    1     1     2    1
    2     1     3    1
    3     1     4    1
    4     1     5    1
    5     5     6    1
    6     5     7    1
    7     5     8    1
    8     8     9    1
    9     8    10    1
   10     8    11    1
   11    11    12    1
   12    11    13    1
   13    11    14    1
   14    14    15    1
   15    14    16    1
   16    14    17    1
   17    17    18    1
   18    17    19    1
   19    17    20    1
   20    20    21    1
   21    20    22    1
   22    20    23    1
   23    23    24    1
   24    23    25    1
   25    23    26    1
@<TRIPOS>SUBSTRUCTURE
       1 MOL1            1 RESIDUE      1      MOL     
@<SCITEGIC>MOL_PROPERTY
VM2 Rank
SciTegic.value.IntegerValue
188

@<SCITEGIC>MOL_PROPERTY
Conf_Id
SciTegic.value.IntegerValue
804

@<SCITEGIC>MOL_PROPERTY
Probability
SciTegic.value.DoubleValue
0.00

@<SCITEGIC>MOL_PROPERTY
Sum Probability
SciTegic.value.DoubleValue
100.00

@<SCITEGIC>MOL_PROPERTY
Delta G
SciTegic.value.DoubleValue
6.092

@<SCITEGIC>MOL_PROPERTY
G
SciTegic.value.DoubleValue
54.354

@<SCITEGIC>MOL_PROPERTY
E
SciTegic.value.DoubleValue
20.888

@<SCITEGIC>MOL_PROPERTY
-TS
SciTegic.value.DoubleValue
33.466

@<SCITEGIC>MOL_PROPERTY
U+W
SciTegic.value.DoubleValue
-0.574

@<SCITEGIC>MOL_PROPERTY
U
SciTegic.value.DoubleValue
53.513

@<SCITEGIC>MOL_PROPERTY
W
SciTegic.value.DoubleValue
-54.087

@<SCITEGIC>MOL_PROPERTY
W(PB)
SciTegic.value.DoubleValue
-56.257

@<SCITEGIC>MOL_PROPERTY
W(SA)
SciTegic.value.DoubleValue
2.170

@<SCITEGIC>MOL_PROPERTY
Valence
SciTegic.value.DoubleValue
6.042

@<SCITEGIC>MOL_PROPERTY
Coulomb
SciTegic.value.DoubleValue
47.146

@<SCITEGIC>MOL_PROPERTY
VdW
SciTegic.value.DoubleValue
0.325

@<SCITEGIC>MOL_PROPERTY
VdW6
SciTegic.value.DoubleValue
-10.117

@<SCITEGIC>MOL_PROPERTY
VdW12
SciTegic.value.DoubleValue
10.442

@<SCITEGIC>MOL_PROPERTY
Bond
SciTegic.value.DoubleValue
0.350

@<SCITEGIC>MOL_PROPERTY
Angle
SciTegic.value.DoubleValue
2.481

@<SCITEGIC>MOL_PROPERTY
Pdih
SciTegic.value.DoubleValue
3.211

@<SCITEGIC>MOL_PROPERTY
Idih
SciTegic.value.DoubleValue
0.000

@<SCITEGIC>MOL_PROPERTY
Tether
SciTegic.value.DoubleValue
0.000

@<TRIPOS>MOLECULE
guest-s14_vm2.mol2 : vm2 ligand conformer 189
          26          25           1
SMALL
USER_CHARGES
 
@<TRIPOS>ATOM
       1    C1      18.416394   18.560317   21.357180 C.3        1 MOL1        -0.2400
       2    H1      18.311914   18.950234   22.375119 H          1 MOL1         0.0971
       3    H2      18.030326   19.320022   20.665252 H          1 MOL1         0.0971
       4    H3      17.773133   17.675044   21.271762 H          1 MOL1         0.0971
       5    C2      19.881358   18.199749   21.016572 C.3        1 MOL1        -0.1385
       6    H4      19.900098   17.812911   19.988031 H          1 MOL1         0.0960
       7    H5      20.237209   17.376528   21.650472 H          1 MOL1         0.0960
       8    C3      20.849730   19.406501   21.103538 C.3        1 MOL1        -0.1409
       9    H6      21.614344   19.278233   20.324863 H          1 MOL1         0.0960
      10    H7      20.322371   20.334794   20.844187 H          1 MOL1         0.0960
      11    C4      21.595995   19.577260   22.454690 C.3        1 MOL1        -0.1409
      12    H8      22.322621   20.391000   22.323201 H          1 MOL1         0.0960
      13    H9      22.196219   18.682436   22.669476 H          1 MOL1         0.0960
      14    C5      20.704960   19.932015   23.672340 C.3        1 MOL1        -0.1409
      15    H10     21.265916   20.614910   24.325556 H          1 MOL1         0.0960
      16    H11     19.820179   20.493021   23.342792 H          1 MOL1         0.0960
      17    C6      20.293603   18.699713   24.513090 C.3        1 MOL1        -0.1450
      18    H12     21.193427   18.208399   24.906503 H          1 MOL1         0.0960
      19    H13     19.778499   17.960783   23.889505 H          1 MOL1         0.0960
      20    C7      19.379828   19.100617   25.684250 C.3        1 MOL1         0.0172
      21    H14     19.898509   19.816613   26.327502 H          1 MOL1         0.0934
      22    H15     18.474867   19.577532   25.298212 H          1 MOL1         0.0934
      23    N1      18.959133   17.922827   26.539341 N.4        1 MOL1        -0.5956
      24    H16     19.765561   17.445723   26.955551 H          1 MOL1         0.3624
      25    H17     18.440370   17.223378   25.998298 H          1 MOL1         0.3624
      26    H18     18.351596   18.212318   27.313603 H          1 MOL1         0.3624
@<TRIPOS>BOND
    1     1     2    1
    2     1     3    1
    3     1     4    1
    4     1     5    1
    5     5     6    1
    6     5     7    1
    7     5     8    1
    8     8     9    1
    9     8    10    1
   10     8    11    1
   11    11    12    1
   12    11    13    1
   13    11    14    1
   14    14    15    1
   15    14    16    1
   16    14    17    1
   17    17    18    1
   18    17    19    1
   19    17    20    1
   20    20    21    1
   21    20    22    1
   22    20    23    1
   23    23    24    1
   24    23    25    1
   25    23    26    1
@<TRIPOS>SUBSTRUCTURE
       1 MOL1            1 RESIDUE      1      MOL     
@<SCITEGIC>MOL_PROPERTY
VM2 Rank
SciTegic.value.IntegerValue
189

@<SCITEGIC>MOL_PROPERTY
Conf_Id
SciTegic.value.IntegerValue
24

@<SCITEGIC>MOL_PROPERTY
Probability
SciTegic.value.DoubleValue
0.00

@<SCITEGIC>MOL_PROPERTY
Sum Probability
SciTegic.value.DoubleValue
100.00

@<SCITEGIC>MOL_PROPERTY
Delta G
SciTegic.value.DoubleValue
6.216

@<SCITEGIC>MOL_PROPERTY
G
SciTegic.value.DoubleValue
54.478

@<SCITEGIC>MOL_PROPERTY
E
SciTegic.value.DoubleValue
21.258

@<SCITEGIC>MOL_PROPERTY
-TS
SciTegic.value.DoubleValue
33.220

@<SCITEGIC>MOL_PROPERTY
U+W
SciTegic.value.DoubleValue
-0.204

@<SCITEGIC>MOL_PROPERTY
U
SciTegic.value.DoubleValue
53.883

@<SCITEGIC>MOL_PROPERTY
W
SciTegic.value.DoubleValue
-54.087

@<SCITEGIC>MOL_PROPERTY
W(PB)
SciTegic.value.DoubleValue
-56.324

@<SCITEGIC>MOL_PROPERTY
W(SA)
SciTegic.value.DoubleValue
2.237

@<SCITEGIC>MOL_PROPERTY
Valence
SciTegic.value.DoubleValue
7.743

@<SCITEGIC>MOL_PROPERTY
Coulomb
SciTegic.value.DoubleValue
45.678

@<SCITEGIC>MOL_PROPERTY
VdW
SciTegic.value.DoubleValue
0.462

@<SCITEGIC>MOL_PROPERTY
VdW6
SciTegic.value.DoubleValue
-8.645

@<SCITEGIC>MOL_PROPERTY
VdW12
SciTegic.value.DoubleValue
9.106

@<SCITEGIC>MOL_PROPERTY
Bond
SciTegic.value.DoubleValue
0.266

@<SCITEGIC>MOL_PROPERTY
Angle
SciTegic.value.DoubleValue
1.932

@<SCITEGIC>MOL_PROPERTY
Pdih
SciTegic.value.DoubleValue
5.545

@<SCITEGIC>MOL_PROPERTY
Idih
SciTegic.value.DoubleValue
0.000

@<SCITEGIC>MOL_PROPERTY
Tether
SciTegic.value.DoubleValue
0.000

@<TRIPOS>MOLECULE
guest-s14_vm2.mol2 : vm2 ligand conformer 190
          26          25           1
SMALL
USER_CHARGES
 
@<TRIPOS>ATOM
       1    C1      20.023276   20.648508   20.708521 C.3        1 MOL1        -0.2400
       2    H1      19.322671   20.444961   19.888196 H          1 MOL1         0.0971
       3    H2      19.516074   21.291379   21.439685 H          1 MOL1         0.0971
       4    H3      20.870887   21.211018   20.296042 H          1 MOL1         0.0971
       5    C2      20.506309   19.337356   21.363335 C.3        1 MOL1        -0.1385
       6    H4      21.235939   19.571165   22.147977 H          1 MOL1         0.0960
       7    H5      21.040808   18.734236   20.616102 H          1 MOL1         0.0960
       8    C3      19.326053   18.517172   21.937572 C.3        1 MOL1        -0.1409
       9    H6      18.695743   19.138630   22.587218 H          1 MOL1         0.0960
      10    H7      18.683071   18.216325   21.098824 H          1 MOL1         0.0960
      11    C4      19.780510   17.241972   22.692146 C.3        1 MOL1        -0.1409
      12    H8      20.745213   16.891661   22.299900 H          1 MOL1         0.0960
      13    H9      19.064421   16.440853   22.462170 H          1 MOL1         0.0960
      14    C5      19.850343   17.368380   24.238134 C.3        1 MOL1        -0.1409
      15    H10     18.854479   17.597417   24.638858 H          1 MOL1         0.0960
      16    H11     20.100803   16.374674   24.634577 H          1 MOL1         0.0960
      17    C6      20.900572   18.371484   24.784599 C.3        1 MOL1        -0.1450
      18    H12     21.821107   18.301839   24.190554 H          1 MOL1         0.0960
      19    H13     21.179412   18.072703   25.803832 H          1 MOL1         0.0960
      20    C7      20.423691   19.838543   24.830881 C.3        1 MOL1         0.0172
      21    H14     21.252053   20.476104   25.151509 H          1 MOL1         0.0934
      22    H15     20.110640   20.165639   23.837624 H          1 MOL1         0.0934
      23    N1      19.270246   20.075585   25.785811 N.4        1 MOL1        -0.5956
      24    H16     18.442764   19.531058   25.524595 H          1 MOL1         0.3624
      25    H17     18.988290   21.061597   25.805356 H          1 MOL1         0.3624
      26    H18     19.513186   19.814989   26.747052 H          1 MOL1         0.3624
@<TRIPOS>BOND
    1     1     2    1
    2     1     3    1
    3     1     4    1
    4     1     5    1
    5     5     6    1
    6     5     7    1
    7     5     8    1
    8     8     9    1
    9     8    10    1
   10     8    11    1
   11    11    12    1
   12    11    13    1
   13    11    14    1
   14    14    15    1
   15    14    16    1
   16    14    17    1
   17    17    18    1
   18    17    19    1
   19    17    20    1
   20    20    21    1
   21    20    22    1
   22    20    23    1
   23    23    24    1
   24    23    25    1
   25    23    26    1
@<TRIPOS>SUBSTRUCTURE
       1 MOL1            1 RESIDUE      1      MOL     
@<SCITEGIC>MOL_PROPERTY
VM2 Rank
SciTegic.value.IntegerValue
190

@<SCITEGIC>MOL_PROPERTY
Conf_Id
SciTegic.value.IntegerValue
522

@<SCITEGIC>MOL_PROPERTY
Probability
SciTegic.value.DoubleValue
0.00

@<SCITEGIC>MOL_PROPERTY
Sum Probability
SciTegic.value.DoubleValue
100.00

@<SCITEGIC>MOL_PROPERTY
Delta G
SciTegic.value.DoubleValue
6.241

@<SCITEGIC>MOL_PROPERTY
G
SciTegic.value.DoubleValue
54.502

@<SCITEGIC>MOL_PROPERTY
E
SciTegic.value.DoubleValue
21.135

@<SCITEGIC>MOL_PROPERTY
-TS
SciTegic.value.DoubleValue
33.367

@<SCITEGIC>MOL_PROPERTY
U+W
SciTegic.value.DoubleValue
-0.327

@<SCITEGIC>MOL_PROPERTY
U
SciTegic.value.DoubleValue
54.016

@<SCITEGIC>MOL_PROPERTY
W
SciTegic.value.DoubleValue
-54.343

@<SCITEGIC>MOL_PROPERTY
W(PB)
SciTegic.value.DoubleValue
-56.552

@<SCITEGIC>MOL_PROPERTY
W(SA)
SciTegic.value.DoubleValue
2.209

@<SCITEGIC>MOL_PROPERTY
Valence
SciTegic.value.DoubleValue
7.241

@<SCITEGIC>MOL_PROPERTY
Coulomb
SciTegic.value.DoubleValue
46.463

@<SCITEGIC>MOL_PROPERTY
VdW
SciTegic.value.DoubleValue
0.312

@<SCITEGIC>MOL_PROPERTY
VdW6
SciTegic.value.DoubleValue
-9.614

@<SCITEGIC>MOL_PROPERTY
VdW12
SciTegic.value.DoubleValue
9.926

@<SCITEGIC>MOL_PROPERTY
Bond
SciTegic.value.DoubleValue
0.277

@<SCITEGIC>MOL_PROPERTY
Angle
SciTegic.value.DoubleValue
1.893

@<SCITEGIC>MOL_PROPERTY
Pdih
SciTegic.value.DoubleValue
5.071

@<SCITEGIC>MOL_PROPERTY
Idih
SciTegic.value.DoubleValue
0.000

@<SCITEGIC>MOL_PROPERTY
Tether
SciTegic.value.DoubleValue
0.000

@<TRIPOS>MOLECULE
guest-s14_vm2.mol2 : vm2 ligand conformer 191
          26          25           1
SMALL
USER_CHARGES
 
@<TRIPOS>ATOM
       1    C1      18.541318   19.669911   20.658921 C.3        1 MOL1        -0.2400
       2    H1      19.040950   20.258851   19.878709 H          1 MOL1         0.0971
       3    H2      17.711627   19.124866   20.190372 H          1 MOL1         0.0971
       4    H3      18.115193   20.366352   21.392764 H          1 MOL1         0.0971
       5    C2      19.526505   18.690369   21.330578 C.3        1 MOL1        -0.1385
       6    H4      19.906161   17.984964   20.578204 H          1 MOL1         0.0960
       7    H5      18.989359   18.087756   22.072886 H          1 MOL1         0.0960
       8    C3      20.715733   19.434818   21.984023 C.3        1 MOL1        -0.1409
       9    H6      21.283036   19.933150   21.185734 H          1 MOL1         0.0960
      10    H7      20.361283   20.238439   22.642884 H          1 MOL1         0.0960
      11    C4      21.674472   18.492613   22.755461 C.3        1 MOL1        -0.1409
      12    H8      22.701808   18.842703   22.583756 H          1 MOL1         0.0960
      13    H9      21.636794   17.480410   22.329726 H          1 MOL1         0.0960
      14    C5      21.459038   18.430676   24.291913 C.3        1 MOL1        -0.1409
      15    H10     22.255666   17.797635   24.706629 H          1 MOL1         0.0960
      16    H11     21.619927   19.423571   24.731293 H          1 MOL1         0.0960
      17    C6      20.100512   17.843192   24.757839 C.3        1 MOL1        -0.1450
      18    H12     20.218450   17.438146   25.771686 H          1 MOL1         0.0960
      19    H13     19.831637   16.988150   24.124016 H          1 MOL1         0.0960
      20    C7      18.936986   18.856838   24.781175 C.3        1 MOL1         0.0172
      21    H14     18.805272   19.303713   23.794003 H          1 MOL1         0.0934
      22    H15     18.011749   18.336449   25.043095 H          1 MOL1         0.0934
      23    N1      19.126437   19.980583   25.781090 N.4        1 MOL1        -0.5956
      24    H16     18.329892   20.626808   25.783419 H          1 MOL1         0.3624
      25    H17     19.963088   20.534888   25.575600 H          1 MOL1         0.3624
      26    H18     19.225967   19.625270   26.737521 H          1 MOL1         0.3624
@<TRIPOS>BOND
    1     1     2    1
    2     1     3    1
    3     1     4    1
    4     1     5    1
    5     5     6    1
    6     5     7    1
    7     5     8    1
    8     8     9    1
    9     8    10    1
   10     8    11    1
   11    11    12    1
   12    11    13    1
   13    11    14    1
   14    14    15    1
   15    14    16    1
   16    14    17    1
   17    17    18    1
   18    17    19    1
   19    17    20    1
   20    20    21    1
   21    20    22    1
   22    20    23    1
   23    23    24    1
   24    23    25    1
   25    23    26    1
@<TRIPOS>SUBSTRUCTURE
       1 MOL1            1 RESIDUE      1      MOL     
@<SCITEGIC>MOL_PROPERTY
VM2 Rank
SciTegic.value.IntegerValue
191

@<SCITEGIC>MOL_PROPERTY
Conf_Id
SciTegic.value.IntegerValue
824

@<SCITEGIC>MOL_PROPERTY
Probability
SciTegic.value.DoubleValue
0.00

@<SCITEGIC>MOL_PROPERTY
Sum Probability
SciTegic.value.DoubleValue
100.00

@<SCITEGIC>MOL_PROPERTY
Delta G
SciTegic.value.DoubleValue
6.314

@<SCITEGIC>MOL_PROPERTY
G
SciTegic.value.DoubleValue
54.575

@<SCITEGIC>MOL_PROPERTY
E
SciTegic.value.DoubleValue
21.208

@<SCITEGIC>MOL_PROPERTY
-TS
SciTegic.value.DoubleValue
33.367

@<SCITEGIC>MOL_PROPERTY
U+W
SciTegic.value.DoubleValue
-0.254

@<SCITEGIC>MOL_PROPERTY
U
SciTegic.value.DoubleValue
54.016

@<SCITEGIC>MOL_PROPERTY
W
SciTegic.value.DoubleValue
-54.269

@<SCITEGIC>MOL_PROPERTY
W(PB)
SciTegic.value.DoubleValue
-56.488

@<SCITEGIC>MOL_PROPERTY
W(SA)
SciTegic.value.DoubleValue
2.219

@<SCITEGIC>MOL_PROPERTY
Valence
SciTegic.value.DoubleValue
7.241

@<SCITEGIC>MOL_PROPERTY
Coulomb
SciTegic.value.DoubleValue
46.463

@<SCITEGIC>MOL_PROPERTY
VdW
SciTegic.value.DoubleValue
0.312

@<SCITEGIC>MOL_PROPERTY
VdW6
SciTegic.value.DoubleValue
-9.614

@<SCITEGIC>MOL_PROPERTY
VdW12
SciTegic.value.DoubleValue
9.926

@<SCITEGIC>MOL_PROPERTY
Bond
SciTegic.value.DoubleValue
0.277

@<SCITEGIC>MOL_PROPERTY
Angle
SciTegic.value.DoubleValue
1.893

@<SCITEGIC>MOL_PROPERTY
Pdih
SciTegic.value.DoubleValue
5.071

@<SCITEGIC>MOL_PROPERTY
Idih
SciTegic.value.DoubleValue
0.000

@<SCITEGIC>MOL_PROPERTY
Tether
SciTegic.value.DoubleValue
0.000

@<TRIPOS>MOLECULE
guest-s14_vm2.mol2 : vm2 ligand conformer 192
          26          25           1
SMALL
USER_CHARGES
 
@<TRIPOS>ATOM
       1    C1      21.060814   20.304428   21.445808 C.3        1 MOL1        -0.2400
       2    H1      22.130477   20.548984   21.417472 H          1 MOL1         0.0971
       3    H2      20.546629   20.979862   20.749845 H          1 MOL1         0.0971
       4    H3      20.696513   20.522631   22.455175 H          1 MOL1         0.0971
       5    C2      20.832647   18.827226   21.048370 C.3        1 MOL1        -0.1385
       6    H4      21.419598   18.156298   21.689850 H          1 MOL1         0.0960
       7    H5      21.228434   18.689279   20.032390 H          1 MOL1         0.0960
       8    C3      19.339967   18.410762   21.053067 C.3        1 MOL1        -0.1409
       9    H6      18.706441   19.269035   20.790182 H          1 MOL1         0.0960
      10    H7      19.193828   17.681812   20.243932 H          1 MOL1         0.0960
      11    C4      18.827223   17.751097   22.362121 C.3        1 MOL1        -0.1409
      12    H8      19.403478   16.840460   22.576083 H          1 MOL1         0.0960
      13    H9      17.800614   17.408482   22.172021 H          1 MOL1         0.0960
      14    C5      18.794540   18.671958   23.608480 C.3        1 MOL1        -0.1409
      15    H10     18.642082   19.715922   23.303416 H          1 MOL1         0.0960
      16    H11     17.916578   18.405910   24.213550 H          1 MOL1         0.0960
      17    C6      20.048740   18.538101   24.504977 C.3        1 MOL1        -0.1450
      18    H12     20.958812   18.738699   23.929006 H          1 MOL1         0.0960
      19    H13     20.128104   17.505918   24.871238 H          1 MOL1         0.0960
      20    C7      19.984979   19.499823   25.704290 C.3        1 MOL1         0.0172
      21    H14     19.920534   20.530816   25.346059 H          1 MOL1         0.0934
      22    H15     19.093633   19.286312   26.300419 H          1 MOL1         0.0934
      23    N1      21.192092   19.395605   26.613888 N.4        1 MOL1        -0.5956
      24    H16     21.128871   20.044271   27.406114 H          1 MOL1         0.3624
      25    H17     22.063516   19.612523   26.119282 H          1 MOL1         0.3624
      26    H18     21.293968   18.454138   27.006884 H          1 MOL1         0.3624
@<TRIPOS>BOND
    1     1     2    1
    2     1     3    1
    3     1     4    1
    4     1     5    1
    5     5     6    1
    6     5     7    1
    7     5     8    1
    8     8     9    1
    9     8    10    1
   10     8    11    1
   11    11    12    1
   12    11    13    1
   13    11    14    1
   14    14    15    1
   15    14    16    1
   16    14    17    1
   17    17    18    1
   18    17    19    1
   19    17    20    1
   20    20    21    1
   21    20    22    1
   22    20    23    1
   23    23    24    1
   24    23    25    1
   25    23    26    1
@<TRIPOS>SUBSTRUCTURE
       1 MOL1            1 RESIDUE      1      MOL     
@<SCITEGIC>MOL_PROPERTY
VM2 Rank
SciTegic.value.IntegerValue
192

@<SCITEGIC>MOL_PROPERTY
Conf_Id
SciTegic.value.IntegerValue
685

@<SCITEGIC>MOL_PROPERTY
Probability
SciTegic.value.DoubleValue
0.00

@<SCITEGIC>MOL_PROPERTY
Sum Probability
SciTegic.value.DoubleValue
100.00

@<SCITEGIC>MOL_PROPERTY
Delta G
SciTegic.value.DoubleValue
6.319

@<SCITEGIC>MOL_PROPERTY
G
SciTegic.value.DoubleValue
54.581

@<SCITEGIC>MOL_PROPERTY
E
SciTegic.value.DoubleValue
21.360

@<SCITEGIC>MOL_PROPERTY
-TS
SciTegic.value.DoubleValue
33.220

@<SCITEGIC>MOL_PROPERTY
U+W
SciTegic.value.DoubleValue
-0.101

@<SCITEGIC>MOL_PROPERTY
U
SciTegic.value.DoubleValue
53.883

@<SCITEGIC>MOL_PROPERTY
W
SciTegic.value.DoubleValue
-53.985

@<SCITEGIC>MOL_PROPERTY
W(PB)
SciTegic.value.DoubleValue
-56.249

@<SCITEGIC>MOL_PROPERTY
W(SA)
SciTegic.value.DoubleValue
2.264

@<SCITEGIC>MOL_PROPERTY
Valence
SciTegic.value.DoubleValue
7.744

@<SCITEGIC>MOL_PROPERTY
Coulomb
SciTegic.value.DoubleValue
45.678

@<SCITEGIC>MOL_PROPERTY
VdW
SciTegic.value.DoubleValue
0.462

@<SCITEGIC>MOL_PROPERTY
VdW6
SciTegic.value.DoubleValue
-8.645

@<SCITEGIC>MOL_PROPERTY
VdW12
SciTegic.value.DoubleValue
9.107

@<SCITEGIC>MOL_PROPERTY
Bond
SciTegic.value.DoubleValue
0.266

@<SCITEGIC>MOL_PROPERTY
Angle
SciTegic.value.DoubleValue
1.932

@<SCITEGIC>MOL_PROPERTY
Pdih
SciTegic.value.DoubleValue
5.545

@<SCITEGIC>MOL_PROPERTY
Idih
SciTegic.value.DoubleValue
0.000

@<SCITEGIC>MOL_PROPERTY
Tether
SciTegic.value.DoubleValue
0.000

@<TRIPOS>MOLECULE
guest-s14_vm2.mol2 : vm2 ligand conformer 193
          26          25           1
SMALL
USER_CHARGES
 
@<TRIPOS>ATOM
       1    C1      18.588672   19.597957   21.153818 C.3        1 MOL1        -0.2400
       2    H1      18.529507   19.820858   22.224221 H          1 MOL1         0.0971
       3    H2      18.781948   20.539881   20.624317 H          1 MOL1         0.0971
       4    H3      17.603710   19.233262   20.835003 H          1 MOL1         0.0971
       5    C2      19.682225   18.552150   20.833716 C.3        1 MOL1        -0.1385
       6    H4      19.667129   18.374185   19.749285 H          1 MOL1         0.0960
       7    H5      19.443755   17.585444   21.297150 H          1 MOL1         0.0960
       8    C3      21.108582   19.006582   21.234635 C.3        1 MOL1        -0.1409
       9    H6      21.811000   18.586540   20.501430 H          1 MOL1         0.0960
      10    H7      21.200682   20.096860   21.135197 H          1 MOL1         0.0960
      11    C4      21.591133   18.556727   22.640545 C.3        1 MOL1        -0.1409
      12    H8      22.648615   18.842596   22.726974 H          1 MOL1         0.0960
      13    H9      21.579146   17.460331   22.710591 H          1 MOL1         0.0960
      14    C5      20.833721   19.180591   23.840293 C.3        1 MOL1        -0.1409
      15    H10     21.558252   19.358456   24.646210 H          1 MOL1         0.0960
      16    H11     20.440592   20.168640   23.565948 H          1 MOL1         0.0960
      17    C6      19.705188   18.272243   24.391123 C.3        1 MOL1        -0.1450
      18    H12     20.134489   17.338030   24.776743 H          1 MOL1         0.0960
      19    H13     19.021662   17.984228   23.584790 H          1 MOL1         0.0960
      20    C7      18.883528   18.954462   25.501641 C.3        1 MOL1         0.0172
      21    H14     18.455327   19.886280   25.122526 H          1 MOL1         0.0934
      22    H15     18.061568   18.298025   25.800001 H          1 MOL1         0.0934
      23    N1      19.687951   19.278288   26.745228 N.4        1 MOL1        -0.5956
      24    H16     20.098604   18.436834   27.162673 H          1 MOL1         0.3624
      25    H17     19.109925   19.720015   27.468413 H          1 MOL1         0.3624
      26    H18     20.458252   19.922587   26.541684 H          1 MOL1         0.3624
@<TRIPOS>BOND
    1     1     2    1
    2     1     3    1
    3     1     4    1
    4     1     5    1
    5     5     6    1
    6     5     7    1
    7     5     8    1
    8     8     9    1
    9     8    10    1
   10     8    11    1
   11    11    12    1
   12    11    13    1
   13    11    14    1
   14    14    15    1
   15    14    16    1
   16    14    17    1
   17    17    18    1
   18    17    19    1
   19    17    20    1
   20    20    21    1
   21    20    22    1
   22    20    23    1
   23    23    24    1
   24    23    25    1
   25    23    26    1
@<TRIPOS>SUBSTRUCTURE
       1 MOL1            1 RESIDUE      1      MOL     
@<SCITEGIC>MOL_PROPERTY
VM2 Rank
SciTegic.value.IntegerValue
193

@<SCITEGIC>MOL_PROPERTY
Conf_Id
SciTegic.value.IntegerValue
504

@<SCITEGIC>MOL_PROPERTY
Probability
SciTegic.value.DoubleValue
0.00

@<SCITEGIC>MOL_PROPERTY
Sum Probability
SciTegic.value.DoubleValue
100.00

@<SCITEGIC>MOL_PROPERTY
Delta G
SciTegic.value.DoubleValue
6.539

@<SCITEGIC>MOL_PROPERTY
G
SciTegic.value.DoubleValue
54.800

@<SCITEGIC>MOL_PROPERTY
E
SciTegic.value.DoubleValue
21.464

@<SCITEGIC>MOL_PROPERTY
-TS
SciTegic.value.DoubleValue
33.336

@<SCITEGIC>MOL_PROPERTY
U+W
SciTegic.value.DoubleValue
0.002

@<SCITEGIC>MOL_PROPERTY
U
SciTegic.value.DoubleValue
54.063

@<SCITEGIC>MOL_PROPERTY
W
SciTegic.value.DoubleValue
-54.061

@<SCITEGIC>MOL_PROPERTY
W(PB)
SciTegic.value.DoubleValue
-56.253

@<SCITEGIC>MOL_PROPERTY
W(SA)
SciTegic.value.DoubleValue
2.192

@<SCITEGIC>MOL_PROPERTY
Valence
SciTegic.value.DoubleValue
7.875

@<SCITEGIC>MOL_PROPERTY
Coulomb
SciTegic.value.DoubleValue
45.591

@<SCITEGIC>MOL_PROPERTY
VdW
SciTegic.value.DoubleValue
0.597

@<SCITEGIC>MOL_PROPERTY
VdW6
SciTegic.value.DoubleValue
-9.142

@<SCITEGIC>MOL_PROPERTY
VdW12
SciTegic.value.DoubleValue
9.739

@<SCITEGIC>MOL_PROPERTY
Bond
SciTegic.value.DoubleValue
0.290

@<SCITEGIC>MOL_PROPERTY
Angle
SciTegic.value.DoubleValue
1.959

@<SCITEGIC>MOL_PROPERTY
Pdih
SciTegic.value.DoubleValue
5.626

@<SCITEGIC>MOL_PROPERTY
Idih
SciTegic.value.DoubleValue
0.000

@<SCITEGIC>MOL_PROPERTY
Tether
SciTegic.value.DoubleValue
0.000

@<TRIPOS>MOLECULE
guest-s14_vm2.mol2 : vm2 ligand conformer 194
          26          25           1
SMALL
USER_CHARGES
 
@<TRIPOS>ATOM
       1    C1      20.326845   17.800833   20.408174 C.3        1 MOL1        -0.2400
       2    H1      19.881174   18.267262   19.520028 H          1 MOL1         0.0971
       3    H2      21.351104   18.178187   20.514157 H          1 MOL1         0.0971
       4    H3      20.389782   16.720823   20.222375 H          1 MOL1         0.0971
       5    C2      19.478384   18.084002   21.669048 C.3        1 MOL1        -0.1385
       6    H4      19.939004   17.592601   22.534397 H          1 MOL1         0.0960
       7    H5      18.492443   17.616590   21.538427 H          1 MOL1         0.0960
       8    C3      19.278121   19.597717   21.938718 C.3        1 MOL1        -0.1409
       9    H6      18.940238   20.069523   21.005695 H          1 MOL1         0.0960
      10    H7      18.456001   19.747054   22.651170 H          1 MOL1         0.0960
      11    C4      20.546075   20.338017   22.442290 C.3        1 MOL1        -0.1409
      12    H8      20.545860   21.342917   21.997932 H          1 MOL1         0.0960
      13    H9      21.455517   19.854456   22.064290 H          1 MOL1         0.0960
      14    C5      20.649537   20.515564   23.981289 C.3        1 MOL1        -0.1409
      15    H10     21.535097   21.134756   24.180859 H          1 MOL1         0.0960
      16    H11     19.794043   21.097263   24.351803 H          1 MOL1         0.0960
      17    C6      20.791737   19.206601   24.796742 C.3        1 MOL1        -0.1450
      18    H12     21.312501   19.435814   25.736007 H          1 MOL1         0.0960
      19    H13     21.428425   18.493208   24.257322 H          1 MOL1         0.0960
      20    C7      19.435623   18.565149   25.148434 C.3        1 MOL1         0.0172
      21    H14     18.837747   19.270151   25.732260 H          1 MOL1         0.0934
      22    H15     18.884952   18.324875   24.237009 H          1 MOL1         0.0934
      23    N1      19.574678   17.291115   25.956304 N.4        1 MOL1        -0.5956
      24    H16     20.056114   17.454943   26.846553 H          1 MOL1         0.3624
      25    H17     20.107505   16.574561   25.452850 H          1 MOL1         0.3624
      26    H18     18.661676   16.881734   26.182405 H          1 MOL1         0.3624
@<TRIPOS>BOND
    1     1     2    1
    2     1     3    1
    3     1     4    1
    4     1     5    1
    5     5     6    1
    6     5     7    1
    7     5     8    1
    8     8     9    1
    9     8    10    1
   10     8    11    1
   11    11    12    1
   12    11    13    1
   13    11    14    1
   14    14    15    1
   15    14    16    1
   16    14    17    1
   17    17    18    1
   18    17    19    1
   19    17    20    1
   20    20    21    1
   21    20    22    1
   22    20    23    1
   23    23    24    1
   24    23    25    1
   25    23    26    1
@<TRIPOS>SUBSTRUCTURE
       1 MOL1            1 RESIDUE      1      MOL     
@<SCITEGIC>MOL_PROPERTY
VM2 Rank
SciTegic.value.IntegerValue
194

@<SCITEGIC>MOL_PROPERTY
Conf_Id
SciTegic.value.IntegerValue
1071

@<SCITEGIC>MOL_PROPERTY
Probability
SciTegic.value.DoubleValue
0.00

@<SCITEGIC>MOL_PROPERTY
Sum Probability
SciTegic.value.DoubleValue
100.00

@<SCITEGIC>MOL_PROPERTY
Delta G
SciTegic.value.DoubleValue
6.639

@<SCITEGIC>MOL_PROPERTY
G
SciTegic.value.DoubleValue
54.901

@<SCITEGIC>MOL_PROPERTY
E
SciTegic.value.DoubleValue
21.593

@<SCITEGIC>MOL_PROPERTY
-TS
SciTegic.value.DoubleValue
33.307

@<SCITEGIC>MOL_PROPERTY
U+W
SciTegic.value.DoubleValue
0.132

@<SCITEGIC>MOL_PROPERTY
U
SciTegic.value.DoubleValue
54.604

@<SCITEGIC>MOL_PROPERTY
W
SciTegic.value.DoubleValue
-54.473

@<SCITEGIC>MOL_PROPERTY
W(PB)
SciTegic.value.DoubleValue
-56.712

@<SCITEGIC>MOL_PROPERTY
W(SA)
SciTegic.value.DoubleValue
2.239

@<SCITEGIC>MOL_PROPERTY
Valence
SciTegic.value.DoubleValue
7.775

@<SCITEGIC>MOL_PROPERTY
Coulomb
SciTegic.value.DoubleValue
46.392

@<SCITEGIC>MOL_PROPERTY
VdW
SciTegic.value.DoubleValue
0.438

@<SCITEGIC>MOL_PROPERTY
VdW6
SciTegic.value.DoubleValue
-9.390

@<SCITEGIC>MOL_PROPERTY
VdW12
SciTegic.value.DoubleValue
9.827

@<SCITEGIC>MOL_PROPERTY
Bond
SciTegic.value.DoubleValue
0.291

@<SCITEGIC>MOL_PROPERTY
Angle
SciTegic.value.DoubleValue
1.965

@<SCITEGIC>MOL_PROPERTY
Pdih
SciTegic.value.DoubleValue
5.519

@<SCITEGIC>MOL_PROPERTY
Idih
SciTegic.value.DoubleValue
0.000

@<SCITEGIC>MOL_PROPERTY
Tether
SciTegic.value.DoubleValue
0.000

@<TRIPOS>MOLECULE
guest-s14_vm2.mol2 : vm2 ligand conformer 195
          26          25           1
SMALL
USER_CHARGES
 
@<TRIPOS>ATOM
       1    C1      19.707566   20.494640   21.335624 C.3        1 MOL1        -0.2400
       2    H1      19.707254   21.302699   20.592724 H          1 MOL1         0.0971
       3    H2      18.671767   20.152264   21.436838 H          1 MOL1         0.0971
       4    H3      20.036459   20.920644   22.291325 H          1 MOL1         0.0971
       5    C2      20.636689   19.349360   20.879108 C.3        1 MOL1        -0.1385
       6    H4      21.593808   19.786823   20.562352 H          1 MOL1         0.0960
       7    H5      20.213462   18.871006   19.984886 H          1 MOL1         0.0960
       8    C3      20.931965   18.273222   21.956023 C.3        1 MOL1        -0.1409
       9    H6      21.673030   17.587687   21.522211 H          1 MOL1         0.0960
      10    H7      21.437364   18.719590   22.818822 H          1 MOL1         0.0960
      11    C4      19.716352   17.413752   22.398646 C.3        1 MOL1        -0.1409
      12    H8      20.098241   16.443557   22.745387 H          1 MOL1         0.0960
      13    H9      19.098517   17.184480   21.519671 H          1 MOL1         0.0960
      14    C5      18.810892   17.987643   23.523948 C.3        1 MOL1        -0.1409
      15    H10     18.290097   18.893983   23.196704 H          1 MOL1         0.0960
      16    H11     18.014990   17.251361   23.702270 H          1 MOL1         0.0960
      17    C6      19.528274   18.243023   24.873865 C.3        1 MOL1        -0.1450
      18    H12     20.357126   17.534639   25.004182 H          1 MOL1         0.0960
      19    H13     18.820361   18.043554   25.689397 H          1 MOL1         0.0960
      20    C7      20.030985   19.691864   25.023888 C.3        1 MOL1         0.0172
      21    H14     20.739765   19.931636   24.229370 H          1 MOL1         0.0934
      22    H15     19.186209   20.381536   24.945909 H          1 MOL1         0.0934
      23    N1      20.718277   19.945496   26.349897 N.4        1 MOL1        -0.5956
      24    H16     21.040973   20.915683   26.432812 H          1 MOL1         0.3624
      25    H17     21.540043   19.345475   26.475335 H          1 MOL1         0.3624
      26    H18     20.093187   19.770356   27.143448 H          1 MOL1         0.3624
@<TRIPOS>BOND
    1     1     2    1
    2     1     3    1
    3     1     4    1
    4     1     5    1
    5     5     6    1
    6     5     7    1
    7     5     8    1
    8     8     9    1
    9     8    10    1
   10     8    11    1
   11    11    12    1
   12    11    13    1
   13    11    14    1
   14    14    15    1
   15    14    16    1
   16    14    17    1
   17    17    18    1
   18    17    19    1
   19    17    20    1
   20    20    21    1
   21    20    22    1
   22    20    23    1
   23    23    24    1
   24    23    25    1
   25    23    26    1
@<TRIPOS>SUBSTRUCTURE
       1 MOL1            1 RESIDUE      1      MOL     
@<SCITEGIC>MOL_PROPERTY
VM2 Rank
SciTegic.value.IntegerValue
195

@<SCITEGIC>MOL_PROPERTY
Conf_Id
SciTegic.value.IntegerValue
527

@<SCITEGIC>MOL_PROPERTY
Probability
SciTegic.value.DoubleValue
0.00

@<SCITEGIC>MOL_PROPERTY
Sum Probability
SciTegic.value.DoubleValue
100.00

@<SCITEGIC>MOL_PROPERTY
Delta G
SciTegic.value.DoubleValue
6.713

@<SCITEGIC>MOL_PROPERTY
G
SciTegic.value.DoubleValue
54.975

@<SCITEGIC>MOL_PROPERTY
E
SciTegic.value.DoubleValue
21.943

@<SCITEGIC>MOL_PROPERTY
-TS
SciTegic.value.DoubleValue
33.031

@<SCITEGIC>MOL_PROPERTY
U+W
SciTegic.value.DoubleValue
0.482

@<SCITEGIC>MOL_PROPERTY
U
SciTegic.value.DoubleValue
54.806

@<SCITEGIC>MOL_PROPERTY
W
SciTegic.value.DoubleValue
-54.324

@<SCITEGIC>MOL_PROPERTY
W(PB)
SciTegic.value.DoubleValue
-56.549

@<SCITEGIC>MOL_PROPERTY
W(SA)
SciTegic.value.DoubleValue
2.225

@<SCITEGIC>MOL_PROPERTY
Valence
SciTegic.value.DoubleValue
8.228

@<SCITEGIC>MOL_PROPERTY
Coulomb
SciTegic.value.DoubleValue
46.248

@<SCITEGIC>MOL_PROPERTY
VdW
SciTegic.value.DoubleValue
0.329

@<SCITEGIC>MOL_PROPERTY
VdW6
SciTegic.value.DoubleValue
-9.307

@<SCITEGIC>MOL_PROPERTY
VdW12
SciTegic.value.DoubleValue
9.637

@<SCITEGIC>MOL_PROPERTY
Bond
SciTegic.value.DoubleValue
0.318

@<SCITEGIC>MOL_PROPERTY
Angle
SciTegic.value.DoubleValue
2.922

@<SCITEGIC>MOL_PROPERTY
Pdih
SciTegic.value.DoubleValue
4.988

@<SCITEGIC>MOL_PROPERTY
Idih
SciTegic.value.DoubleValue
0.000

@<SCITEGIC>MOL_PROPERTY
Tether
SciTegic.value.DoubleValue
0.000

@<TRIPOS>MOLECULE
guest-s14_vm2.mol2 : vm2 ligand conformer 196
          26          25           1
SMALL
USER_CHARGES
 
@<TRIPOS>ATOM
       1    C1      18.739220   18.686359   20.034067 C.3        1 MOL1        -0.2400
       2    H1      17.793028   18.684005   20.590767 H          1 MOL1         0.0971
       3    H2      18.871800   19.681400   19.589560 H          1 MOL1         0.0971
       4    H3      18.649914   17.960932   19.215018 H          1 MOL1         0.0971
       5    C2      19.925765   18.326994   20.953110 C.3        1 MOL1        -0.1385
       6    H4      20.851501   18.303642   20.361043 H          1 MOL1         0.0960
       7    H5      19.781457   17.313942   21.353540 H          1 MOL1         0.0960
       8    C3      20.075536   19.335659   22.113233 C.3        1 MOL1        -0.1409
       9    H6      20.231745   20.342080   21.700513 H          1 MOL1         0.0960
      10    H7      19.139174   19.383839   22.681089 H          1 MOL1         0.0960
      11    C4      21.265231   18.978064   23.038046 C.3        1 MOL1        -0.1409
      12    H8      22.190466   19.086230   22.454974 H          1 MOL1         0.0960
      13    H9      21.228446   17.923451   23.341690 H          1 MOL1         0.0960
      14    C5      21.361748   19.890726   24.287293 C.3        1 MOL1        -0.1409
      15    H10     22.425755   20.062343   24.501577 H          1 MOL1         0.0960
      16    H11     20.943528   20.882281   24.065095 H          1 MOL1         0.0960
      17    C6      20.714993   19.320154   25.578019 C.3        1 MOL1        -0.1450
      18    H12     20.901116   20.035371   26.390206 H          1 MOL1         0.0960
      19    H13     21.220671   18.392026   25.875927 H          1 MOL1         0.0960
      20    C7      19.193012   19.083252   25.502037 C.3        1 MOL1         0.0172
      21    H14     18.784712   19.057262   26.515987 H          1 MOL1         0.0934
      22    H15     18.715098   19.906520   24.964504 H          1 MOL1         0.0934
      23    N1      18.805493   17.777791   24.835195 N.4        1 MOL1        -0.5956
      24    H16     19.182626   16.968502   25.339347 H          1 MOL1         0.3624
      25    H17     19.158843   17.731889   23.874009 H          1 MOL1         0.3624
      26    H18     17.787313   17.658089   24.795384 H          1 MOL1         0.3624
@<TRIPOS>BOND
    1     1     2    1
    2     1     3    1
    3     1     4    1
    4     1     5    1
    5     5     6    1
    6     5     7    1
    7     5     8    1
    8     8     9    1
    9     8    10    1
   10     8    11    1
   11    11    12    1
   12    11    13    1
   13    11    14    1
   14    14    15    1
   15    14    16    1
   16    14    17    1
   17    17    18    1
   18    17    19    1
   19    17    20    1
   20    20    21    1
   21    20    22    1
   22    20    23    1
   23    23    24    1
   24    23    25    1
   25    23    26    1
@<TRIPOS>SUBSTRUCTURE
       1 MOL1            1 RESIDUE      1      MOL     
@<SCITEGIC>MOL_PROPERTY
VM2 Rank
SciTegic.value.IntegerValue
196

@<SCITEGIC>MOL_PROPERTY
Conf_Id
SciTegic.value.IntegerValue
807

@<SCITEGIC>MOL_PROPERTY
Probability
SciTegic.value.DoubleValue
0.00

@<SCITEGIC>MOL_PROPERTY
Sum Probability
SciTegic.value.DoubleValue
100.00

@<SCITEGIC>MOL_PROPERTY
Delta G
SciTegic.value.DoubleValue
6.832

@<SCITEGIC>MOL_PROPERTY
G
SciTegic.value.DoubleValue
55.094

@<SCITEGIC>MOL_PROPERTY
E
SciTegic.value.DoubleValue
21.961

@<SCITEGIC>MOL_PROPERTY
-TS
SciTegic.value.DoubleValue
33.133

@<SCITEGIC>MOL_PROPERTY
U+W
SciTegic.value.DoubleValue
0.499

@<SCITEGIC>MOL_PROPERTY
U
SciTegic.value.DoubleValue
53.726

@<SCITEGIC>MOL_PROPERTY
W
SciTegic.value.DoubleValue
-53.227

@<SCITEGIC>MOL_PROPERTY
W(PB)
SciTegic.value.DoubleValue
-55.472

@<SCITEGIC>MOL_PROPERTY
W(SA)
SciTegic.value.DoubleValue
2.244

@<SCITEGIC>MOL_PROPERTY
Valence
SciTegic.value.DoubleValue
6.198

@<SCITEGIC>MOL_PROPERTY
Coulomb
SciTegic.value.DoubleValue
47.155

@<SCITEGIC>MOL_PROPERTY
VdW
SciTegic.value.DoubleValue
0.373

@<SCITEGIC>MOL_PROPERTY
VdW6
SciTegic.value.DoubleValue
-8.927

@<SCITEGIC>MOL_PROPERTY
VdW12
SciTegic.value.DoubleValue
9.300

@<SCITEGIC>MOL_PROPERTY
Bond
SciTegic.value.DoubleValue
0.233

@<SCITEGIC>MOL_PROPERTY
Angle
SciTegic.value.DoubleValue
1.462

@<SCITEGIC>MOL_PROPERTY
Pdih
SciTegic.value.DoubleValue
4.503

@<SCITEGIC>MOL_PROPERTY
Idih
SciTegic.value.DoubleValue
0.000

@<SCITEGIC>MOL_PROPERTY
Tether
SciTegic.value.DoubleValue
0.000

@<TRIPOS>MOLECULE
guest-s14_vm2.mol2 : vm2 ligand conformer 197
          26          25           1
SMALL
USER_CHARGES
 
@<TRIPOS>ATOM
       1    C1      20.879814   20.098153   20.105539 C.3        1 MOL1        -0.2400
       2    H1      21.227670   20.949213   20.705450 H          1 MOL1         0.0971
       3    H2      21.619243   19.919318   19.314132 H          1 MOL1         0.0971
       4    H3      19.934464   20.382308   19.625083 H          1 MOL1         0.0971
       5    C2      20.701237   18.838442   20.978986 C.3        1 MOL1        -0.1385
       6    H4      21.669780   18.559315   21.416543 H          1 MOL1         0.0960
       7    H5      20.386671   17.997119   20.345504 H          1 MOL1         0.0960
       8    C3      19.662058   19.062944   22.099443 C.3        1 MOL1        -0.1409
       9    H6      19.959145   19.924533   22.708507 H          1 MOL1         0.0960
      10    H7      18.695515   19.328951   21.649271 H          1 MOL1         0.0960
      11    C4      19.480302   17.800845   22.978417 C.3        1 MOL1        -0.1409
      12    H8      20.449277   17.409560   23.315679 H          1 MOL1         0.0960
      13    H9      19.044780   17.011555   22.349868 H          1 MOL1         0.0960
      14    C5      18.545975   18.033646   24.193209 C.3        1 MOL1        -0.1409
      15    H10     17.809797   18.815500   23.960383 H          1 MOL1         0.0960
      16    H11     17.960565   17.117434   24.352373 H          1 MOL1         0.0960
      17    C6      19.263938   18.363144   25.529537 C.3        1 MOL1        -0.1450
      18    H12     19.904006   17.523648   25.831931 H          1 MOL1         0.0960
      19    H13     18.496130   18.449211   26.309850 H          1 MOL1         0.0960
      20    C7      20.082694   19.670031   25.531768 C.3        1 MOL1         0.0172
      21    H14     19.539204   20.450028   24.992010 H          1 MOL1         0.0934
      22    H15     20.219676   20.003716   26.563935 H          1 MOL1         0.0934
      23    N1      21.464982   19.531795   24.924101 N.4        1 MOL1        -0.5956
      24    H16     21.976562   20.421045   24.935364 H          1 MOL1         0.3624
      25    H17     21.413161   19.218591   23.949394 H          1 MOL1         0.3624
      26    H18     22.036776   18.850929   25.434806 H          1 MOL1         0.3624
@<TRIPOS>BOND
    1     1     2    1
    2     1     3    1
    3     1     4    1
    4     1     5    1
    5     5     6    1
    6     5     7    1
    7     5     8    1
    8     8     9    1
    9     8    10    1
   10     8    11    1
   11    11    12    1
   12    11    13    1
   13    11    14    1
   14    14    15    1
   15    14    16    1
   16    14    17    1
   17    17    18    1
   18    17    19    1
   19    17    20    1
   20    20    21    1
   21    20    22    1
   22    20    23    1
   23    23    24    1
   24    23    25    1
   25    23    26    1
@<TRIPOS>SUBSTRUCTURE
       1 MOL1            1 RESIDUE      1      MOL     
@<SCITEGIC>MOL_PROPERTY
VM2 Rank
SciTegic.value.IntegerValue
197

@<SCITEGIC>MOL_PROPERTY
Conf_Id
SciTegic.value.IntegerValue
498

@<SCITEGIC>MOL_PROPERTY
Probability
SciTegic.value.DoubleValue
0.00

@<SCITEGIC>MOL_PROPERTY
Sum Probability
SciTegic.value.DoubleValue
100.00

@<SCITEGIC>MOL_PROPERTY
Delta G
SciTegic.value.DoubleValue
6.834

@<SCITEGIC>MOL_PROPERTY
G
SciTegic.value.DoubleValue
55.095

@<SCITEGIC>MOL_PROPERTY
E
SciTegic.value.DoubleValue
21.962

@<SCITEGIC>MOL_PROPERTY
-TS
SciTegic.value.DoubleValue
33.133

@<SCITEGIC>MOL_PROPERTY
U+W
SciTegic.value.DoubleValue
0.500

@<SCITEGIC>MOL_PROPERTY
U
SciTegic.value.DoubleValue
53.726

@<SCITEGIC>MOL_PROPERTY
W
SciTegic.value.DoubleValue
-53.226

@<SCITEGIC>MOL_PROPERTY
W(PB)
SciTegic.value.DoubleValue
-55.465

@<SCITEGIC>MOL_PROPERTY
W(SA)
SciTegic.value.DoubleValue
2.239

@<SCITEGIC>MOL_PROPERTY
Valence
SciTegic.value.DoubleValue
6.198

@<SCITEGIC>MOL_PROPERTY
Coulomb
SciTegic.value.DoubleValue
47.155

@<SCITEGIC>MOL_PROPERTY
VdW
SciTegic.value.DoubleValue
0.373

@<SCITEGIC>MOL_PROPERTY
VdW6
SciTegic.value.DoubleValue
-8.927

@<SCITEGIC>MOL_PROPERTY
VdW12
SciTegic.value.DoubleValue
9.300

@<SCITEGIC>MOL_PROPERTY
Bond
SciTegic.value.DoubleValue
0.233

@<SCITEGIC>MOL_PROPERTY
Angle
SciTegic.value.DoubleValue
1.462

@<SCITEGIC>MOL_PROPERTY
Pdih
SciTegic.value.DoubleValue
4.503

@<SCITEGIC>MOL_PROPERTY
Idih
SciTegic.value.DoubleValue
0.000

@<SCITEGIC>MOL_PROPERTY
Tether
SciTegic.value.DoubleValue
0.000

@<TRIPOS>MOLECULE
guest-s14_vm2.mol2 : vm2 ligand conformer 198
          26          25           1
SMALL
USER_CHARGES
 
@<TRIPOS>ATOM
       1    C1      21.407638   19.603741   20.967875 C.3        1 MOL1        -0.2400
       2    H1      22.483746   19.403892   20.885107 H          1 MOL1         0.0971
       3    H2      21.090504   20.106297   20.044909 H          1 MOL1         0.0971
       4    H3      21.261131   20.303737   21.797356 H          1 MOL1         0.0971
       5    C2      20.625775   18.285196   21.172292 C.3        1 MOL1        -0.1385
       6    H4      21.012054   17.733798   22.040015 H          1 MOL1         0.0960
       7    H5      20.818212   17.642855   20.301519 H          1 MOL1         0.0960
       8    C3      19.095685   18.492742   21.301092 C.3        1 MOL1        -0.1409
       9    H6      18.782648   19.375226   20.726336 H          1 MOL1         0.0960
      10    H7      18.600230   17.639294   20.817796 H          1 MOL1         0.0960
      11    C4      18.548714   18.579536   22.751667 C.3        1 MOL1        -0.1409
      12    H8      18.779139   17.652409   23.291866 H          1 MOL1         0.0960
      13    H9      17.452516   18.608773   22.681924 H          1 MOL1         0.0960
      14    C5      19.000875   19.821701   23.565437 C.3        1 MOL1        -0.1409
      15    H10     19.172639   20.667103   22.885956 H          1 MOL1         0.0960
      16    H11     18.172579   20.134455   24.216394 H          1 MOL1         0.0960
      17    C6      20.247906   19.593655   24.456805 C.3        1 MOL1        -0.1450
      18    H12     20.558243   20.557374   24.881814 H          1 MOL1         0.0960
      19    H13     21.090764   19.232367   23.857582 H          1 MOL1         0.0960
      20    C7      19.978658   18.606786   25.608534 C.3        1 MOL1         0.0172
      21    H14     19.147492   18.971365   26.218119 H          1 MOL1         0.0934
      22    H15     19.705688   17.628787   25.204579 H          1 MOL1         0.0934
      23    N1      21.175749   18.415642   26.517298 N.4        1 MOL1        -0.5956
      24    H16     21.467460   19.295782   26.954794 H          1 MOL1         0.3624
      25    H17     21.986546   18.047524   26.009232 H          1 MOL1         0.3624
      26    H18     20.975234   17.756780   27.277589 H          1 MOL1         0.3624
@<TRIPOS>BOND
    1     1     2    1
    2     1     3    1
    3     1     4    1
    4     1     5    1
    5     5     6    1
    6     5     7    1
    7     5     8    1
    8     8     9    1
    9     8    10    1
   10     8    11    1
   11    11    12    1
   12    11    13    1
   13    11    14    1
   14    14    15    1
   15    14    16    1
   16    14    17    1
   17    17    18    1
   18    17    19    1
   19    17    20    1
   20    20    21    1
   21    20    22    1
   22    20    23    1
   23    23    24    1
   24    23    25    1
   25    23    26    1
@<TRIPOS>SUBSTRUCTURE
       1 MOL1            1 RESIDUE      1      MOL     
@<SCITEGIC>MOL_PROPERTY
VM2 Rank
SciTegic.value.IntegerValue
198

@<SCITEGIC>MOL_PROPERTY
Conf_Id
SciTegic.value.IntegerValue
537

@<SCITEGIC>MOL_PROPERTY
Probability
SciTegic.value.DoubleValue
0.00

@<SCITEGIC>MOL_PROPERTY
Sum Probability
SciTegic.value.DoubleValue
100.00

@<SCITEGIC>MOL_PROPERTY
Delta G
SciTegic.value.DoubleValue
6.861

@<SCITEGIC>MOL_PROPERTY
G
SciTegic.value.DoubleValue
55.123

@<SCITEGIC>MOL_PROPERTY
E
SciTegic.value.DoubleValue
21.852

@<SCITEGIC>MOL_PROPERTY
-TS
SciTegic.value.DoubleValue
33.270

@<SCITEGIC>MOL_PROPERTY
U+W
SciTegic.value.DoubleValue
0.391

@<SCITEGIC>MOL_PROPERTY
U
SciTegic.value.DoubleValue
54.562

@<SCITEGIC>MOL_PROPERTY
W
SciTegic.value.DoubleValue
-54.171

@<SCITEGIC>MOL_PROPERTY
W(PB)
SciTegic.value.DoubleValue
-56.394

@<SCITEGIC>MOL_PROPERTY
W(SA)
SciTegic.value.DoubleValue
2.223

@<SCITEGIC>MOL_PROPERTY
Valence
SciTegic.value.DoubleValue
8.177

@<SCITEGIC>MOL_PROPERTY
Coulomb
SciTegic.value.DoubleValue
45.812

@<SCITEGIC>MOL_PROPERTY
VdW
SciTegic.value.DoubleValue
0.572

@<SCITEGIC>MOL_PROPERTY
VdW6
SciTegic.value.DoubleValue
-9.082

@<SCITEGIC>MOL_PROPERTY
VdW12
SciTegic.value.DoubleValue
9.655

@<SCITEGIC>MOL_PROPERTY
Bond
SciTegic.value.DoubleValue
0.296

@<SCITEGIC>MOL_PROPERTY
Angle
SciTegic.value.DoubleValue
2.094

@<SCITEGIC>MOL_PROPERTY
Pdih
SciTegic.value.DoubleValue
5.787

@<SCITEGIC>MOL_PROPERTY
Idih
SciTegic.value.DoubleValue
0.000

@<SCITEGIC>MOL_PROPERTY
Tether
SciTegic.value.DoubleValue
0.000

@<TRIPOS>MOLECULE
guest-s14_vm2.mol2 : vm2 ligand conformer 199
          26          25           1
SMALL
USER_CHARGES
 
@<TRIPOS>ATOM
       1    C1      18.928400   19.572932   20.030783 C.3        1 MOL1        -0.2400
       2    H1      18.372768   18.690455   19.687682 H          1 MOL1         0.0971
       3    H2      18.232612   20.225224   20.574488 H          1 MOL1         0.0971
       4    H3      19.276868   20.117311   19.143512 H          1 MOL1         0.0971
       5    C2      20.120119   19.166486   20.923441 C.3        1 MOL1        -0.1385
       6    H4      20.674648   20.068612   21.213109 H          1 MOL1         0.0960
       7    H5      20.813283   18.543435   20.341171 H          1 MOL1         0.0960
       8    C3      19.653228   18.393596   22.179907 C.3        1 MOL1        -0.1409
       9    H6      18.955740   19.019327   22.749357 H          1 MOL1         0.0960
      10    H7      19.087080   17.509173   21.856312 H          1 MOL1         0.0960
      11    C4      20.829544   17.927259   23.077396 C.3        1 MOL1        -0.1409
      12    H8      21.586868   17.456967   22.434892 H          1 MOL1         0.0960
      13    H9      20.495718   17.130888   23.755631 H          1 MOL1         0.0960
      14    C5      21.502199   19.061863   23.895929 C.3        1 MOL1        -0.1409
      15    H10     22.579010   18.849332   23.947251 H          1 MOL1         0.0960
      16    H11     21.418884   20.021839   23.370856 H          1 MOL1         0.0960
      17    C6      20.991590   19.220448   25.352876 C.3        1 MOL1        -0.1450
      18    H12     21.589241   20.006508   25.833240 H          1 MOL1         0.0960
      19    H13     21.187385   18.304304   25.925778 H          1 MOL1         0.0960
      20    C7      19.506709   19.614138   25.486102 C.3        1 MOL1         0.0172
      21    H14     19.347058   20.081210   26.461720 H          1 MOL1         0.0934
      22    H15     19.244554   20.342141   24.713785 H          1 MOL1         0.0934
      23    N1      18.549210   18.442278   25.394566 N.4        1 MOL1        -0.5956
      24    H16     17.571326   18.742006   25.474613 H          1 MOL1         0.3624
      25    H17     18.714621   17.758990   26.140905 H          1 MOL1         0.3624
      26    H18     18.647457   17.948683   24.502086 H          1 MOL1         0.3624
@<TRIPOS>BOND
    1     1     2    1
    2     1     3    1
    3     1     4    1
    4     1     5    1
    5     5     6    1
    6     5     7    1
    7     5     8    1
    8     8     9    1
    9     8    10    1
   10     8    11    1
   11    11    12    1
   12    11    13    1
   13    11    14    1
   14    14    15    1
   15    14    16    1
   16    14    17    1
   17    17    18    1
   18    17    19    1
   19    17    20    1
   20    20    21    1
   21    20    22    1
   22    20    23    1
   23    23    24    1
   24    23    25    1
   25    23    26    1
@<TRIPOS>SUBSTRUCTURE
       1 MOL1            1 RESIDUE      1      MOL     
@<SCITEGIC>MOL_PROPERTY
VM2 Rank
SciTegic.value.IntegerValue
199

@<SCITEGIC>MOL_PROPERTY
Conf_Id
SciTegic.value.IntegerValue
561

@<SCITEGIC>MOL_PROPERTY
Probability
SciTegic.value.DoubleValue
0.00

@<SCITEGIC>MOL_PROPERTY
Sum Probability
SciTegic.value.DoubleValue
100.00

@<SCITEGIC>MOL_PROPERTY
Delta G
SciTegic.value.DoubleValue
6.957

@<SCITEGIC>MOL_PROPERTY
G
SciTegic.value.DoubleValue
55.218

@<SCITEGIC>MOL_PROPERTY
E
SciTegic.value.DoubleValue
22.066

@<SCITEGIC>MOL_PROPERTY
-TS
SciTegic.value.DoubleValue
33.153

@<SCITEGIC>MOL_PROPERTY
U+W
SciTegic.value.DoubleValue
0.604

@<SCITEGIC>MOL_PROPERTY
U
SciTegic.value.DoubleValue
54.574

@<SCITEGIC>MOL_PROPERTY
W
SciTegic.value.DoubleValue
-53.970

@<SCITEGIC>MOL_PROPERTY
W(PB)
SciTegic.value.DoubleValue
-56.207

@<SCITEGIC>MOL_PROPERTY
W(SA)
SciTegic.value.DoubleValue
2.236

@<SCITEGIC>MOL_PROPERTY
Valence
SciTegic.value.DoubleValue
6.966

@<SCITEGIC>MOL_PROPERTY
Coulomb
SciTegic.value.DoubleValue
47.041

@<SCITEGIC>MOL_PROPERTY
VdW
SciTegic.value.DoubleValue
0.567

@<SCITEGIC>MOL_PROPERTY
VdW6
SciTegic.value.DoubleValue
-9.190

@<SCITEGIC>MOL_PROPERTY
VdW12
SciTegic.value.DoubleValue
9.757

@<SCITEGIC>MOL_PROPERTY
Bond
SciTegic.value.DoubleValue
0.281

@<SCITEGIC>MOL_PROPERTY
Angle
SciTegic.value.DoubleValue
1.616

@<SCITEGIC>MOL_PROPERTY
Pdih
SciTegic.value.DoubleValue
5.069

@<SCITEGIC>MOL_PROPERTY
Idih
SciTegic.value.DoubleValue
0.000

@<SCITEGIC>MOL_PROPERTY
Tether
SciTegic.value.DoubleValue
0.000

@<TRIPOS>MOLECULE
guest-s14_vm2.mol2 : vm2 ligand conformer 200
          26          25           1
SMALL
USER_CHARGES
 
@<TRIPOS>ATOM
       1    C1      18.347820   18.798379   21.530677 C.3        1 MOL1        -0.2400
       2    H1      17.629913   17.985708   21.360444 H          1 MOL1         0.0971
       3    H2      18.341968   19.030717   22.600236 H          1 MOL1         0.0971
       4    H3      17.982963   19.683128   20.992993 H          1 MOL1         0.0971
       5    C2      19.753996   18.392841   21.031269 C.3        1 MOL1        -0.1385
       6    H4      19.680104   18.183936   19.954805 H          1 MOL1         0.0960
       7    H5      20.075712   17.451113   21.495790 H          1 MOL1         0.0960
       8    C3      20.822736   19.494053   21.245765 C.3        1 MOL1        -0.1409
       9    H6      21.518428   19.455243   20.396108 H          1 MOL1         0.0960
      10    H7      20.357837   20.488309   21.196641 H          1 MOL1         0.0960
      11    C4      21.671703   19.366178   22.539705 C.3        1 MOL1        -0.1409
      12    H8      22.450021   20.140505   22.494158 H          1 MOL1         0.0960
      13    H9      22.212434   18.409830   22.542022 H          1 MOL1         0.0960
      14    C5      20.899591   19.551025   23.871241 C.3        1 MOL1        -0.1409
      15    H10     21.564615   20.052257   24.588262 H          1 MOL1         0.0960
      16    H11     20.053277   20.233054   23.719994 H          1 MOL1         0.0960
      17    C6      20.438092   18.214225   24.505914 C.3        1 MOL1        -0.1450
      18    H12     21.314063   17.572385   24.668366 H          1 MOL1         0.0960
      19    H13     19.776446   17.663697   23.828205 H          1 MOL1         0.0960
      20    C7      19.729457   18.414547   25.859251 C.3        1 MOL1         0.0172
      21    H14     19.517469   17.439181   26.305617 H          1 MOL1         0.0934
      22    H15     20.384765   18.965296   26.539408 H          1 MOL1         0.0934
      23    N1      18.417605   19.167753   25.757178 N.4        1 MOL1        -0.5956
      24    H16     17.971979   19.278761   26.674505 H          1 MOL1         0.3624
      25    H17     17.745434   18.681756   25.155104 H          1 MOL1         0.3624
      26    H18     18.549227   20.108180   25.372401 H          1 MOL1         0.3624
@<TRIPOS>BOND
    1     1     2    1
    2     1     3    1
    3     1     4    1
    4     1     5    1
    5     5     6    1
    6     5     7    1
    7     5     8    1
    8     8     9    1
    9     8    10    1
   10     8    11    1
   11    11    12    1
   12    11    13    1
   13    11    14    1
   14    14    15    1
   15    14    16    1
   16    14    17    1
   17    17    18    1
   18    17    19    1
   19    17    20    1
   20    20    21    1
   21    20    22    1
   22    20    23    1
   23    23    24    1
   24    23    25    1
   25    23    26    1
@<TRIPOS>SUBSTRUCTURE
       1 MOL1            1 RESIDUE      1      MOL     
@<SCITEGIC>MOL_PROPERTY
VM2 Rank
SciTegic.value.IntegerValue
200

@<SCITEGIC>MOL_PROPERTY
Conf_Id
SciTegic.value.IntegerValue
262

@<SCITEGIC>MOL_PROPERTY
Probability
SciTegic.value.DoubleValue
0.00

@<SCITEGIC>MOL_PROPERTY
Sum Probability
SciTegic.value.DoubleValue
100.00

@<SCITEGIC>MOL_PROPERTY
Delta G
SciTegic.value.DoubleValue
7.104

@<SCITEGIC>MOL_PROPERTY
G
SciTegic.value.DoubleValue
55.365

@<SCITEGIC>MOL_PROPERTY
E
SciTegic.value.DoubleValue
21.953

@<SCITEGIC>MOL_PROPERTY
-TS
SciTegic.value.DoubleValue
33.412

@<SCITEGIC>MOL_PROPERTY
U+W
SciTegic.value.DoubleValue
0.491

@<SCITEGIC>MOL_PROPERTY
U
SciTegic.value.DoubleValue
54.899

@<SCITEGIC>MOL_PROPERTY
W
SciTegic.value.DoubleValue
-54.407

@<SCITEGIC>MOL_PROPERTY
W(PB)
SciTegic.value.DoubleValue
-56.569

@<SCITEGIC>MOL_PROPERTY
W(SA)
SciTegic.value.DoubleValue
2.162

@<SCITEGIC>MOL_PROPERTY
Valence
SciTegic.value.DoubleValue
7.854

@<SCITEGIC>MOL_PROPERTY
Coulomb
SciTegic.value.DoubleValue
46.638

@<SCITEGIC>MOL_PROPERTY
VdW
SciTegic.value.DoubleValue
0.407

@<SCITEGIC>MOL_PROPERTY
VdW6
SciTegic.value.DoubleValue
-9.363

@<SCITEGIC>MOL_PROPERTY
VdW12
SciTegic.value.DoubleValue
9.770

@<SCITEGIC>MOL_PROPERTY
Bond
SciTegic.value.DoubleValue
0.292

@<SCITEGIC>MOL_PROPERTY
Angle
SciTegic.value.DoubleValue
1.989

@<SCITEGIC>MOL_PROPERTY
Pdih
SciTegic.value.DoubleValue
5.573

@<SCITEGIC>MOL_PROPERTY
Idih
SciTegic.value.DoubleValue
0.000

@<SCITEGIC>MOL_PROPERTY
Tether
SciTegic.value.DoubleValue
0.000

@<TRIPOS>MOLECULE
guest-s14_vm2.mol2 : vm2 ligand conformer 201
          26          25           1
SMALL
USER_CHARGES
 
@<TRIPOS>ATOM
       1    C1      20.859654   20.456653   21.614261 C.3        1 MOL1        -0.2400
       2    H1      20.598558   20.520822   22.675245 H          1 MOL1         0.0971
       3    H2      21.895650   20.801731   21.502714 H          1 MOL1         0.0971
       4    H3      20.214800   21.156404   21.066978 H          1 MOL1         0.0971
       5    C2      20.704483   19.020277   21.062947 C.3        1 MOL1        -0.1385
       6    H4      21.422107   18.340000   21.540829 H          1 MOL1         0.0960
       7    H5      20.975462   19.038832   19.998004 H          1 MOL1         0.0960
       8    C3      19.263856   18.464960   21.193700 C.3        1 MOL1        -0.1409
       9    H6      18.534761   19.284813   21.135776 H          1 MOL1         0.0960
      10    H7      19.066342   17.836525   20.314231 H          1 MOL1         0.0960
      11    C4      18.988568   17.594892   22.450112 C.3        1 MOL1        -0.1409
      12    H8      19.655297   16.721721   22.456617 H          1 MOL1         0.0960
      13    H9      17.974192   17.185776   22.344740 H          1 MOL1         0.0960
      14    C5      19.059452   18.336206   23.809796 C.3        1 MOL1        -0.1409
      15    H10     18.771300   19.386771   23.677241 H          1 MOL1         0.0960
      16    H11     18.305095   17.900231   24.479482 H          1 MOL1         0.0960
      17    C6      20.439197   18.215022   24.505815 C.3        1 MOL1        -0.1450
      18    H12     21.235669   18.627550   23.876852 H          1 MOL1         0.0960
      19    H13     20.678422   17.152669   24.646716 H          1 MOL1         0.0960
      20    C7      20.469845   18.903098   25.884009 C.3        1 MOL1         0.0172
      21    H14     19.675640   18.496291   26.515763 H          1 MOL1         0.0934
      22    H15     21.428534   18.700725   26.369273 H          1 MOL1         0.0934
      23    N1      20.295945   20.407892   25.820360 N.4        1 MOL1        -0.5956
      24    H16     19.397954   20.668464   25.401440 H          1 MOL1         0.3624
      25    H17     21.033590   20.853229   25.265335 H          1 MOL1         0.3624
      26    H18     20.325932   20.832665   26.753668 H          1 MOL1         0.3624
@<TRIPOS>BOND
    1     1     2    1
    2     1     3    1
    3     1     4    1
    4     1     5    1
    5     5     6    1
    6     5     7    1
    7     5     8    1
    8     8     9    1
    9     8    10    1
   10     8    11    1
   11    11    12    1
   12    11    13    1
   13    11    14    1
   14    14    15    1
   15    14    16    1
   16    14    17    1
   17    17    18    1
   18    17    19    1
   19    17    20    1
   20    20    21    1
   21    20    22    1
   22    20    23    1
   23    23    24    1
   24    23    25    1
   25    23    26    1
@<TRIPOS>SUBSTRUCTURE
       1 MOL1            1 RESIDUE      1      MOL     
@<SCITEGIC>MOL_PROPERTY
VM2 Rank
SciTegic.value.IntegerValue
201

@<SCITEGIC>MOL_PROPERTY
Conf_Id
SciTegic.value.IntegerValue
513

@<SCITEGIC>MOL_PROPERTY
Probability
SciTegic.value.DoubleValue
0.00

@<SCITEGIC>MOL_PROPERTY
Sum Probability
SciTegic.value.DoubleValue
100.00

@<SCITEGIC>MOL_PROPERTY
Delta G
SciTegic.value.DoubleValue
7.124

@<SCITEGIC>MOL_PROPERTY
G
SciTegic.value.DoubleValue
55.386

@<SCITEGIC>MOL_PROPERTY
E
SciTegic.value.DoubleValue
21.974

@<SCITEGIC>MOL_PROPERTY
-TS
SciTegic.value.DoubleValue
33.412

@<SCITEGIC>MOL_PROPERTY
U+W
SciTegic.value.DoubleValue
0.512

@<SCITEGIC>MOL_PROPERTY
U
SciTegic.value.DoubleValue
54.898

@<SCITEGIC>MOL_PROPERTY
W
SciTegic.value.DoubleValue
-54.386

@<SCITEGIC>MOL_PROPERTY
W(PB)
SciTegic.value.DoubleValue
-56.583

@<SCITEGIC>MOL_PROPERTY
W(SA)
SciTegic.value.DoubleValue
2.198

@<SCITEGIC>MOL_PROPERTY
Valence
SciTegic.value.DoubleValue
7.854

@<SCITEGIC>MOL_PROPERTY
Coulomb
SciTegic.value.DoubleValue
46.637

@<SCITEGIC>MOL_PROPERTY
VdW
SciTegic.value.DoubleValue
0.407

@<SCITEGIC>MOL_PROPERTY
VdW6
SciTegic.value.DoubleValue
-9.363

@<SCITEGIC>MOL_PROPERTY
VdW12
SciTegic.value.DoubleValue
9.769

@<SCITEGIC>MOL_PROPERTY
Bond
SciTegic.value.DoubleValue
0.292

@<SCITEGIC>MOL_PROPERTY
Angle
SciTegic.value.DoubleValue
1.989

@<SCITEGIC>MOL_PROPERTY
Pdih
SciTegic.value.DoubleValue
5.573

@<SCITEGIC>MOL_PROPERTY
Idih
SciTegic.value.DoubleValue
0.000

@<SCITEGIC>MOL_PROPERTY
Tether
SciTegic.value.DoubleValue
0.000

@<TRIPOS>MOLECULE
guest-s14_vm2.mol2 : vm2 ligand conformer 202
          26          25           1
SMALL
USER_CHARGES
 
@<TRIPOS>ATOM
       1    C1      20.072062   19.095904   19.916884 C.3        1 MOL1        -0.2400
       2    H1      20.637321   18.221952   19.568125 H          1 MOL1         0.0971
       3    H2      19.479087   19.471076   19.072790 H          1 MOL1         0.0971
       4    H3      20.785847   19.882314   20.191676 H          1 MOL1         0.0971
       5    C2      19.151423   18.726760   21.102046 C.3        1 MOL1        -0.1385
       6    H4      18.366925   18.048887   20.737661 H          1 MOL1         0.0960
       7    H5      18.627842   19.624467   21.455120 H          1 MOL1         0.0960
       8    C3      19.891416   18.031122   22.274528 C.3        1 MOL1        -0.1409
       9    H6      19.148808   17.757223   23.032401 H          1 MOL1         0.0960
      10    H7      20.308543   17.083531   21.906664 H          1 MOL1         0.0960
      11    C4      21.039246   18.855895   22.922158 C.3        1 MOL1        -0.1409
      12    H8      21.757157   19.133876   22.139952 H          1 MOL1         0.0960
      13    H9      21.612231   18.220347   23.609991 H          1 MOL1         0.0960
      14    C5      20.586081   20.143063   23.662739 C.3        1 MOL1        -0.1409
      15    H10     21.365152   20.904813   23.521237 H          1 MOL1         0.0960
      16    H11     19.684868   20.563041   23.200099 H          1 MOL1         0.0960
      17    C6      20.364049   19.990105   25.190959 C.3        1 MOL1        -0.1450
      18    H12     20.091457   20.976363   25.589446 H          1 MOL1         0.0960
      19    H13     21.305892   19.718351   25.685885 H          1 MOL1         0.0960
      20    C7      19.255216   18.998289   25.595185 C.3        1 MOL1         0.0172
      21    H14     18.878390   19.267698   26.585581 H          1 MOL1         0.0934
      22    H15     18.424700   19.059677   24.886901 H          1 MOL1         0.0934
      23    N1      19.721508   17.557862   25.676502 N.4        1 MOL1        -0.5956
      24    H16     20.098760   17.235428   24.780232 H          1 MOL1         0.3624
      25    H17     18.957322   16.923924   25.934605 H          1 MOL1         0.3624
      26    H18     20.459275   17.437823   26.378321 H          1 MOL1         0.3624
@<TRIPOS>BOND
    1     1     2    1
    2     1     3    1
    3     1     4    1
    4     1     5    1
    5     5     6    1
    6     5     7    1
    7     5     8    1
    8     8     9    1
    9     8    10    1
   10     8    11    1
   11    11    12    1
   12    11    13    1
   13    11    14    1
   14    14    15    1
   15    14    16    1
   16    14    17    1
   17    17    18    1
   18    17    19    1
   19    17    20    1
   20    20    21    1
   21    20    22    1
   22    20    23    1
   23    23    24    1
   24    23    25    1
   25    23    26    1
@<TRIPOS>SUBSTRUCTURE
       1 MOL1            1 RESIDUE      1      MOL     
@<SCITEGIC>MOL_PROPERTY
VM2 Rank
SciTegic.value.IntegerValue
202

@<SCITEGIC>MOL_PROPERTY
Conf_Id
SciTegic.value.IntegerValue
448

@<SCITEGIC>MOL_PROPERTY
Probability
SciTegic.value.DoubleValue
0.00

@<SCITEGIC>MOL_PROPERTY
Sum Probability
SciTegic.value.DoubleValue
100.00

@<SCITEGIC>MOL_PROPERTY
Delta G
SciTegic.value.DoubleValue
7.348

@<SCITEGIC>MOL_PROPERTY
G
SciTegic.value.DoubleValue
55.609

@<SCITEGIC>MOL_PROPERTY
E
SciTegic.value.DoubleValue
22.528

@<SCITEGIC>MOL_PROPERTY
-TS
SciTegic.value.DoubleValue
33.082

@<SCITEGIC>MOL_PROPERTY
U+W
SciTegic.value.DoubleValue
1.066

@<SCITEGIC>MOL_PROPERTY
U
SciTegic.value.DoubleValue
55.284

@<SCITEGIC>MOL_PROPERTY
W
SciTegic.value.DoubleValue
-54.218

@<SCITEGIC>MOL_PROPERTY
W(PB)
SciTegic.value.DoubleValue
-56.421

@<SCITEGIC>MOL_PROPERTY
W(SA)
SciTegic.value.DoubleValue
2.203

@<SCITEGIC>MOL_PROPERTY
Valence
SciTegic.value.DoubleValue
7.530

@<SCITEGIC>MOL_PROPERTY
Coulomb
SciTegic.value.DoubleValue
47.065

@<SCITEGIC>MOL_PROPERTY
VdW
SciTegic.value.DoubleValue
0.689

@<SCITEGIC>MOL_PROPERTY
VdW6
SciTegic.value.DoubleValue
-9.873

@<SCITEGIC>MOL_PROPERTY
VdW12
SciTegic.value.DoubleValue
10.561

@<SCITEGIC>MOL_PROPERTY
Bond
SciTegic.value.DoubleValue
0.348

@<SCITEGIC>MOL_PROPERTY
Angle
SciTegic.value.DoubleValue
2.261

@<SCITEGIC>MOL_PROPERTY
Pdih
SciTegic.value.DoubleValue
4.921

@<SCITEGIC>MOL_PROPERTY
Idih
SciTegic.value.DoubleValue
0.000

@<SCITEGIC>MOL_PROPERTY
Tether
SciTegic.value.DoubleValue
0.000

@<TRIPOS>MOLECULE
guest-s14_vm2.mol2 : vm2 ligand conformer 203
          26          25           1
SMALL
USER_CHARGES
 
@<TRIPOS>ATOM
       1    C1      20.393536   18.514823   19.904385 C.3        1 MOL1        -0.2400
       2    H1      19.687502   17.705646   20.129197 H          1 MOL1         0.0971
       3    H2      19.833729   19.344939   19.454310 H          1 MOL1         0.0971
       4    H3      21.098623   18.138464   19.151963 H          1 MOL1         0.0971
       5    C2      21.148973   18.976338   21.171040 C.3        1 MOL1        -0.1385
       6    H4      21.920657   19.702278   20.878673 H          1 MOL1         0.0960
       7    H5      21.681458   18.122511   21.612130 H          1 MOL1         0.0960
       8    C3      20.227665   19.628644   22.229852 C.3        1 MOL1        -0.1409
       9    H6      20.849244   20.026225   23.040760 H          1 MOL1         0.0960
      10    H7      19.728072   20.501430   21.786990 H          1 MOL1         0.0960
      11    C4      19.155585   18.660236   22.793475 C.3        1 MOL1        -0.1409
      12    H8      19.594573   17.685696   23.044702 H          1 MOL1         0.0960
      13    H9      18.422912   18.460888   21.999816 H          1 MOL1         0.0960
      14    C5      18.397191   19.237312   24.016218 C.3        1 MOL1        -0.1409
      15    H10     18.366672   20.334281   23.959590 H          1 MOL1         0.0960
      16    H11     17.349878   18.911082   23.951413 H          1 MOL1         0.0960
      17    C6      18.935943   18.792431   25.402488 C.3        1 MOL1        -0.1450
      18    H12     18.850767   17.702834   25.509259 H          1 MOL1         0.0960
      19    H13     18.278083   19.220081   26.170703 H          1 MOL1         0.0960
      20    C7      20.378092   19.236144   25.720946 C.3        1 MOL1         0.0172
      21    H14     20.534186   20.263367   25.381035 H          1 MOL1         0.0934
      22    H15     20.529474   19.209829   26.803475 H          1 MOL1         0.0934
      23    N1      21.444016   18.353073   25.102595 N.4        1 MOL1        -0.5956
      24    H16     22.389293   18.685238   25.323397 H          1 MOL1         0.3624
      25    H17     21.356595   18.326216   24.081581 H          1 MOL1         0.3624
      26    H18     21.378926   17.387451   25.441276 H          1 MOL1         0.3624
@<TRIPOS>BOND
    1     1     2    1
    2     1     3    1
    3     1     4    1
    4     1     5    1
    5     5     6    1
    6     5     7    1
    7     5     8    1
    8     8     9    1
    9     8    10    1
   10     8    11    1
   11    11    12    1
   12    11    13    1
   13    11    14    1
   14    14    15    1
   15    14    16    1
   16    14    17    1
   17    17    18    1
   18    17    19    1
   19    17    20    1
   20    20    21    1
   21    20    22    1
   22    20    23    1
   23    23    24    1
   24    23    25    1
   25    23    26    1
@<TRIPOS>SUBSTRUCTURE
       1 MOL1            1 RESIDUE      1      MOL     
@<SCITEGIC>MOL_PROPERTY
VM2 Rank
SciTegic.value.IntegerValue
203

@<SCITEGIC>MOL_PROPERTY
Conf_Id
SciTegic.value.IntegerValue
792

@<SCITEGIC>MOL_PROPERTY
Probability
SciTegic.value.DoubleValue
0.00

@<SCITEGIC>MOL_PROPERTY
Sum Probability
SciTegic.value.DoubleValue
100.00

@<SCITEGIC>MOL_PROPERTY
Delta G
SciTegic.value.DoubleValue
7.414

@<SCITEGIC>MOL_PROPERTY
G
SciTegic.value.DoubleValue
55.675

@<SCITEGIC>MOL_PROPERTY
E
SciTegic.value.DoubleValue
22.372

@<SCITEGIC>MOL_PROPERTY
-TS
SciTegic.value.DoubleValue
33.304

@<SCITEGIC>MOL_PROPERTY
U+W
SciTegic.value.DoubleValue
0.910

@<SCITEGIC>MOL_PROPERTY
U
SciTegic.value.DoubleValue
54.367

@<SCITEGIC>MOL_PROPERTY
W
SciTegic.value.DoubleValue
-53.457

@<SCITEGIC>MOL_PROPERTY
W(PB)
SciTegic.value.DoubleValue
-55.665

@<SCITEGIC>MOL_PROPERTY
W(SA)
SciTegic.value.DoubleValue
2.207

@<SCITEGIC>MOL_PROPERTY
Valence
SciTegic.value.DoubleValue
6.710

@<SCITEGIC>MOL_PROPERTY
Coulomb
SciTegic.value.DoubleValue
47.139

@<SCITEGIC>MOL_PROPERTY
VdW
SciTegic.value.DoubleValue
0.519

@<SCITEGIC>MOL_PROPERTY
VdW6
SciTegic.value.DoubleValue
-9.576

@<SCITEGIC>MOL_PROPERTY
VdW12
SciTegic.value.DoubleValue
10.095

@<SCITEGIC>MOL_PROPERTY
Bond
SciTegic.value.DoubleValue
0.272

@<SCITEGIC>MOL_PROPERTY
Angle
SciTegic.value.DoubleValue
1.653

@<SCITEGIC>MOL_PROPERTY
Pdih
SciTegic.value.DoubleValue
4.785

@<SCITEGIC>MOL_PROPERTY
Idih
SciTegic.value.DoubleValue
0.000

@<SCITEGIC>MOL_PROPERTY
Tether
SciTegic.value.DoubleValue
0.000

@<TRIPOS>MOLECULE
guest-s14_vm2.mol2 : vm2 ligand conformer 204
          26          25           1
SMALL
USER_CHARGES
 
@<TRIPOS>ATOM
       1    C1      20.393668   18.514719   19.904520 C.3        1 MOL1        -0.2400
       2    H1      19.872601   19.370303   19.455624 H          1 MOL1         0.0971
       3    H2      21.403866   18.836637   20.186762 H          1 MOL1         0.0971
       4    H3      20.497054   17.741708   19.132058 H          1 MOL1         0.0971
       5    C2      19.613677   17.964514   21.119832 C.3        1 MOL1        -0.1385
       6    H4      20.167651   17.124893   21.561728 H          1 MOL1         0.0960
       7    H5      18.657215   17.551571   20.769660 H          1 MOL1         0.0960
       8    C3      19.327729   19.035636   22.199797 C.3        1 MOL1        -0.1409
       9    H6      18.743409   19.852546   21.754037 H          1 MOL1         0.0960
      10    H7      18.680433   18.597037   22.968332 H          1 MOL1         0.0960
      11    C4      20.612347   19.620455   22.842124 C.3        1 MOL1        -0.1409
      12    H8      21.120423   20.238904   22.089911 H          1 MOL1         0.0960
      13    H9      21.322923   18.824902   23.102375 H          1 MOL1         0.0960
      14    C5      20.323810   20.507141   24.080591 C.3        1 MOL1        -0.1409
      15    H10     21.038236   21.342036   24.074633 H          1 MOL1         0.0960
      16    H11     19.331143   20.969980   23.991870 H          1 MOL1         0.0960
      17    C6      20.456006   19.794227   25.453251 C.3        1 MOL1        -0.1450
      18    H12     20.286283   20.543549   26.237807 H          1 MOL1         0.0960
      19    H13     21.485071   19.439001   25.597185 H          1 MOL1         0.0960
      20    C7      19.466657   18.635349   25.690480 C.3        1 MOL1         0.0172
      21    H14     19.381019   18.452645   26.765077 H          1 MOL1         0.0934
      22    H15     18.477802   18.908008   25.312442 H          1 MOL1         0.0934
      23    N1      19.887104   17.326959   25.050405 N.4        1 MOL1        -0.5956
      24    H16     20.783683   16.995107   25.421061 H          1 MOL1         0.3624
      25    H17     19.993523   17.428051   24.035867 H          1 MOL1         0.3624
      26    H18     19.200135   16.583285   25.216703 H          1 MOL1         0.3624
@<TRIPOS>BOND
    1     1     2    1
    2     1     3    1
    3     1     4    1
    4     1     5    1
    5     5     6    1
    6     5     7    1
    7     5     8    1
    8     8     9    1
    9     8    10    1
   10     8    11    1
   11    11    12    1
   12    11    13    1
   13    11    14    1
   14    14    15    1
   15    14    16    1
   16    14    17    1
   17    17    18    1
   18    17    19    1
   19    17    20    1
   20    20    21    1
   21    20    22    1
   22    20    23    1
   23    23    24    1
   24    23    25    1
   25    23    26    1
@<TRIPOS>SUBSTRUCTURE
       1 MOL1            1 RESIDUE      1      MOL     
@<SCITEGIC>MOL_PROPERTY
VM2 Rank
SciTegic.value.IntegerValue
204

@<SCITEGIC>MOL_PROPERTY
Conf_Id
SciTegic.value.IntegerValue
570

@<SCITEGIC>MOL_PROPERTY
Probability
SciTegic.value.DoubleValue
0.00

@<SCITEGIC>MOL_PROPERTY
Sum Probability
SciTegic.value.DoubleValue
100.00

@<SCITEGIC>MOL_PROPERTY
Delta G
SciTegic.value.DoubleValue
7.445

@<SCITEGIC>MOL_PROPERTY
G
SciTegic.value.DoubleValue
55.706

@<SCITEGIC>MOL_PROPERTY
E
SciTegic.value.DoubleValue
22.403

@<SCITEGIC>MOL_PROPERTY
-TS
SciTegic.value.DoubleValue
33.303

@<SCITEGIC>MOL_PROPERTY
U+W
SciTegic.value.DoubleValue
0.941

@<SCITEGIC>MOL_PROPERTY
U
SciTegic.value.DoubleValue
54.367

@<SCITEGIC>MOL_PROPERTY
W
SciTegic.value.DoubleValue
-53.426

@<SCITEGIC>MOL_PROPERTY
W(PB)
SciTegic.value.DoubleValue
-55.654

@<SCITEGIC>MOL_PROPERTY
W(SA)
SciTegic.value.DoubleValue
2.227

@<SCITEGIC>MOL_PROPERTY
Valence
SciTegic.value.DoubleValue
6.710

@<SCITEGIC>MOL_PROPERTY
Coulomb
SciTegic.value.DoubleValue
47.139

@<SCITEGIC>MOL_PROPERTY
VdW
SciTegic.value.DoubleValue
0.519

@<SCITEGIC>MOL_PROPERTY
VdW6
SciTegic.value.DoubleValue
-9.577

@<SCITEGIC>MOL_PROPERTY
VdW12
SciTegic.value.DoubleValue
10.096

@<SCITEGIC>MOL_PROPERTY
Bond
SciTegic.value.DoubleValue
0.272

@<SCITEGIC>MOL_PROPERTY
Angle
SciTegic.value.DoubleValue
1.652

@<SCITEGIC>MOL_PROPERTY
Pdih
SciTegic.value.DoubleValue
4.785

@<SCITEGIC>MOL_PROPERTY
Idih
SciTegic.value.DoubleValue
0.000

@<SCITEGIC>MOL_PROPERTY
Tether
SciTegic.value.DoubleValue
0.000

@<TRIPOS>MOLECULE
guest-s14_vm2.mol2 : vm2 ligand conformer 205
          26          25           1
SMALL
USER_CHARGES
 
@<TRIPOS>ATOM
       1    C1      18.860335   17.853379   20.930662 C.3        1 MOL1        -0.2400
       2    H1      17.957075   18.028799   21.528567 H          1 MOL1         0.0971
       3    H2      18.538506   17.478107   19.950454 H          1 MOL1         0.0971
       4    H3      19.447714   17.058828   21.406651 H          1 MOL1         0.0971
       5    C2      19.680430   19.152956   20.761989 C.3        1 MOL1        -0.1385
       6    H4      19.073155   19.881615   20.206789 H          1 MOL1         0.0960
       7    H5      20.565483   18.955678   20.140942 H          1 MOL1         0.0960
       8    C3      20.114323   19.788416   22.104224 C.3        1 MOL1        -0.1409
       9    H6      20.524248   20.786763   21.897253 H          1 MOL1         0.0960
      10    H7      19.232362   19.958105   22.732683 H          1 MOL1         0.0960
      11    C4      21.192936   18.964124   22.854660 C.3        1 MOL1        -0.1409
      12    H8      22.098707   18.951215   22.232610 H          1 MOL1         0.0960
      13    H9      20.898893   17.913619   22.966888 H          1 MOL1         0.0960
      14    C5      21.556820   19.559434   24.238983 C.3        1 MOL1        -0.1409
      15    H10     22.634578   19.416370   24.398501 H          1 MOL1         0.0960
      16    H11     21.402518   20.647366   24.236331 H          1 MOL1         0.0960
      17    C6      20.820225   18.923388   25.448391 C.3        1 MOL1        -0.1450
      18    H12     21.200933   19.399767   26.361600 H          1 MOL1         0.0960
      19    H13     21.082828   17.860580   25.534219 H          1 MOL1         0.0960
      20    C7      19.286305   19.081466   25.440779 C.3        1 MOL1         0.0172
      21    H14     18.907571   18.944777   26.457323 H          1 MOL1         0.0934
      22    H15     19.018391   20.088685   25.110841 H          1 MOL1         0.0934
      23    N1      18.569626   18.075837   24.561313 N.4        1 MOL1        -0.5956
      24    H16     18.884574   18.146807   23.587378 H          1 MOL1         0.3624
      25    H17     17.553506   18.218290   24.571395 H          1 MOL1         0.3624
      26    H18     18.740529   17.113407   24.871503 H          1 MOL1         0.3624
@<TRIPOS>BOND
    1     1     2    1
    2     1     3    1
    3     1     4    1
    4     1     5    1
    5     5     6    1
    6     5     7    1
    7     5     8    1
    8     8     9    1
    9     8    10    1
   10     8    11    1
   11    11    12    1
   12    11    13    1
   13    11    14    1
   14    14    15    1
   15    14    16    1
   16    14    17    1
   17    17    18    1
   18    17    19    1
   19    17    20    1
   20    20    21    1
   21    20    22    1
   22    20    23    1
   23    23    24    1
   24    23    25    1
   25    23    26    1
@<TRIPOS>SUBSTRUCTURE
       1 MOL1            1 RESIDUE      1      MOL     
@<SCITEGIC>MOL_PROPERTY
VM2 Rank
SciTegic.value.IntegerValue
205

@<SCITEGIC>MOL_PROPERTY
Conf_Id
SciTegic.value.IntegerValue
555

@<SCITEGIC>MOL_PROPERTY
Probability
SciTegic.value.DoubleValue
0.00

@<SCITEGIC>MOL_PROPERTY
Sum Probability
SciTegic.value.DoubleValue
100.00

@<SCITEGIC>MOL_PROPERTY
Delta G
SciTegic.value.DoubleValue
8.481

@<SCITEGIC>MOL_PROPERTY
G
SciTegic.value.DoubleValue
56.742

@<SCITEGIC>MOL_PROPERTY
E
SciTegic.value.DoubleValue
23.151

@<SCITEGIC>MOL_PROPERTY
-TS
SciTegic.value.DoubleValue
33.591

@<SCITEGIC>MOL_PROPERTY
U+W
SciTegic.value.DoubleValue
1.689

@<SCITEGIC>MOL_PROPERTY
U
SciTegic.value.DoubleValue
54.447

@<SCITEGIC>MOL_PROPERTY
W
SciTegic.value.DoubleValue
-52.757

@<SCITEGIC>MOL_PROPERTY
W(PB)
SciTegic.value.DoubleValue
-54.934

@<SCITEGIC>MOL_PROPERTY
W(SA)
SciTegic.value.DoubleValue
2.177

@<SCITEGIC>MOL_PROPERTY
Valence
SciTegic.value.DoubleValue
6.776

@<SCITEGIC>MOL_PROPERTY
Coulomb
SciTegic.value.DoubleValue
47.396

@<SCITEGIC>MOL_PROPERTY
VdW
SciTegic.value.DoubleValue
0.275

@<SCITEGIC>MOL_PROPERTY
VdW6
SciTegic.value.DoubleValue
-10.114

@<SCITEGIC>MOL_PROPERTY
VdW12
SciTegic.value.DoubleValue
10.389

@<SCITEGIC>MOL_PROPERTY
Bond
SciTegic.value.DoubleValue
0.270

@<SCITEGIC>MOL_PROPERTY
Angle
SciTegic.value.DoubleValue
1.774

@<SCITEGIC>MOL_PROPERTY
Pdih
SciTegic.value.DoubleValue
4.731

@<SCITEGIC>MOL_PROPERTY
Idih
SciTegic.value.DoubleValue
0.000

@<SCITEGIC>MOL_PROPERTY
Tether
SciTegic.value.DoubleValue
0.000

