VeraChem MOL file


 16 15  0  0  0  0  0  0  0  0999 V2000     
   20.0718   19.4318   24.6567 C   0  0  0  0  0  0  0  0  0  0  0  0
   20.4841   20.5080   25.0408 O   0  5  0  0  0  0  0  0  0  0  0  0
   19.2403   18.7784   25.2547 O   0  0  0  0  0  0  0  0  0  0  0  0
   20.6140   18.8794   23.3431 C   0  0  0  0  0  0  0  0  0  0  0  0
   20.6286   17.7851   23.4135 H   0  0  0  0  0  0  0  0  0  0  0  0
   21.6540   19.2111   23.2371 H   0  0  0  0  0  0  0  0  0  0  0  0
   19.7839   19.3242   22.1138 C   0  0  0  0  0  0  0  0  0  0  0  0
   18.7430   18.9958   22.2406 H   0  0  0  0  0  0  0  0  0  0  0  0
   19.7683   20.4219   22.0642 H   0  0  0  0  0  0  0  0  0  0  0  0
   20.3534   18.7522   20.7989 C   0  0  0  0  0  0  0  0  0  0  0  0
   20.3686   17.6545   20.8479 H   0  0  0  0  0  0  0  0  0  0  0  0
   21.3942   19.0810   20.6715 H   0  0  0  0  0  0  0  0  0  0  0  0
   19.5224   19.1989   19.5799 C   0  0  0  0  0  0  0  0  0  0  0  0
   19.5162   20.2930   19.4885 H   0  0  0  0  0  0  0  0  0  0  0  0
   18.4830   18.8560   19.6662 H   0  0  0  0  0  0  0  0  0  0  0  0
   19.9406   18.7838   18.6537 H   0  0  0  0  0  0  0  0  0  0  0  0
  1  2  1  0  0  0  0
  1  3  2  0  0  0  0
  1  4  1  0  0  0  0
  4  5  1  0  0  0  0
  4  6  1  0  0  0  0
  4  7  1  0  0  0  0
  7  8  1  0  0  0  0
  7  9  1  0  0  0  0
  7 10  1  0  0  0  0
 10 11  1  0  0  0  0
 10 12  1  0  0  0  0
 10 13  1  0  0  0  0
 13 14  1  0  0  0  0
 13 15  1  0  0  0  0
 13 16  1  0  0  0  0
M  END
> <VM2 Rank>
1

> <Conf_Id>
166

> <Probability>
57.18

> <Sum Probability>
57.18

> <Delta G>
0.000

> <G>
-35.660

> <E>
-45.569

> <-TS>
9.910

> <U+W>
-58.089

> <U>
6.298

> <W>
-64.387

> <W(PB)>
-66.329

> <W(SA)>
1.942

> <Valence>
6.246

> <Coulomb>
-0.408

> <VdW>
0.460

> <VdW6>
-4.207

> <VdW12>
4.667

> <Bond>
0.072

> <Angle>
2.246

> <Pdih>
3.928

> <Idih>
0.001

> <Tether>
0.000

$$$$
VeraChem MOL file


 16 15  0  0  0  0  0  0  0  0999 V2000     
   20.0738   19.3291   24.5704 C   0  0  0  0  0  0  0  0  0  0  0  0
   20.7531   20.1563   25.1452 O   0  5  0  0  0  0  0  0  0  0  0  0
   19.1098   18.7860   25.0720 O   0  0  0  0  0  0  0  0  0  0  0  0
   20.4398   18.9677   23.1351 C   0  0  0  0  0  0  0  0  0  0  0  0
   20.1772   17.9153   22.9779 H   0  0  0  0  0  0  0  0  0  0  0  0
   21.5282   19.0506   23.0301 H   0  0  0  0  0  0  0  0  0  0  0  0
   19.7321   19.8680   22.0894 C   0  0  0  0  0  0  0  0  0  0  0  0
   18.6438   19.7442   22.1758 H   0  0  0  0  0  0  0  0  0  0  0  0
   19.9450   20.9195   22.3269 H   0  0  0  0  0  0  0  0  0  0  0  0
   20.1758   19.5876   20.6351 C   0  0  0  0  0  0  0  0  0  0  0  0
   21.2626   19.7228   20.5459 H   0  0  0  0  0  0  0  0  0  0  0  0
   19.7145   20.3349   19.9748 H   0  0  0  0  0  0  0  0  0  0  0  0
   19.7856   18.1782   20.1408 C   0  0  0  0  0  0  0  0  0  0  0  0
   18.7061   18.0093   20.2474 H   0  0  0  0  0  0  0  0  0  0  0  0
   20.3139   17.3965   20.7008 H   0  0  0  0  0  0  0  0  0  0  0  0
   20.0432   18.0588   19.0804 H   0  0  0  0  0  0  0  0  0  0  0  0
  1  2  1  0  0  0  0
  1  3  2  0  0  0  0
  1  4  1  0  0  0  0
  4  5  1  0  0  0  0
  4  6  1  0  0  0  0
  4  7  1  0  0  0  0
  7  8  1  0  0  0  0
  7  9  1  0  0  0  0
  7 10  1  0  0  0  0
 10 11  1  0  0  0  0
 10 12  1  0  0  0  0
 10 13  1  0  0  0  0
 13 14  1  0  0  0  0
 13 15  1  0  0  0  0
 13 16  1  0  0  0  0
M  END
> <VM2 Rank>
2

> <Conf_Id>
84

> <Probability>
14.54

> <Sum Probability>
71.73

> <Delta G>
0.816

> <G>
-34.843

> <E>
-44.867

> <-TS>
10.023

> <U+W>
-57.386

> <U>
7.263

> <W>
-64.649

> <W(PB)>
-66.544

> <W(SA)>
1.895

> <Valence>
6.734

> <Coulomb>
-0.069

> <VdW>
0.598

> <VdW6>
-4.819

> <VdW12>
5.417

> <Bond>
0.107

> <Angle>
2.469

> <Pdih>
4.157

> <Idih>
0.001

> <Tether>
0.000

$$$$
VeraChem MOL file


 16 15  0  0  0  0  0  0  0  0999 V2000     
   19.9195   19.5238   24.5497 C   0  0  0  0  0  0  0  0  0  0  0  0
   20.8187   20.0735   25.1539 O   0  5  0  0  0  0  0  0  0  0  0  0
   19.1179   18.7757   25.0730 O   0  0  0  0  0  0  0  0  0  0  0  0
   19.8032   19.7705   23.0496 C   0  0  0  0  0  0  0  0  0  0  0  0
   20.1480   20.7911   22.8447 H   0  0  0  0  0  0  0  0  0  0  0  0
   18.7406   19.7271   22.7849 H   0  0  0  0  0  0  0  0  0  0  0  0
   20.6164   18.7528   22.2082 C   0  0  0  0  0  0  0  0  0  0  0  0
   21.6584   18.7588   22.5571 H   0  0  0  0  0  0  0  0  0  0  0  0
   20.2340   17.7388   22.3894 H   0  0  0  0  0  0  0  0  0  0  0  0
   20.5986   19.0544   20.6919 C   0  0  0  0  0  0  0  0  0  0  0  0
   21.2816   18.3586   20.1854 H   0  0  0  0  0  0  0  0  0  0  0  0
   20.9920   20.0641   20.5095 H   0  0  0  0  0  0  0  0  0  0  0  0
   19.1957   18.9222   20.0615 C   0  0  0  0  0  0  0  0  0  0  0  0
   18.5053   19.6772   20.4578 H   0  0  0  0  0  0  0  0  0  0  0  0
   18.7696   17.9292   20.2559 H   0  0  0  0  0  0  0  0  0  0  0  0
   19.2495   19.0597   18.9738 H   0  0  0  0  0  0  0  0  0  0  0  0
  1  2  1  0  0  0  0
  1  3  2  0  0  0  0
  1  4  1  0  0  0  0
  4  5  1  0  0  0  0
  4  6  1  0  0  0  0
  4  7  1  0  0  0  0
  7  8  1  0  0  0  0
  7  9  1  0  0  0  0
  7 10  1  0  0  0  0
 10 11  1  0  0  0  0
 10 12  1  0  0  0  0
 10 13  1  0  0  0  0
 13 14  1  0  0  0  0
 13 15  1  0  0  0  0
 13 16  1  0  0  0  0
M  END
> <VM2 Rank>
3

> <Conf_Id>
170

> <Probability>
13.25

> <Sum Probability>
84.98

> <Delta G>
0.872

> <G>
-34.788

> <E>
-44.811

> <-TS>
10.023

> <U+W>
-57.331

> <U>
7.263

> <W>
-64.594

> <W(PB)>
-66.513

> <W(SA)>
1.920

> <Valence>
6.734

> <Coulomb>
-0.068

> <VdW>
0.598

> <VdW6>
-4.819

> <VdW12>
5.417

> <Bond>
0.107

> <Angle>
2.469

> <Pdih>
4.157

> <Idih>
0.001

> <Tether>
0.000

$$$$
VeraChem MOL file


 16 15  0  0  0  0  0  0  0  0999 V2000     
   20.1243   19.3850   24.4356 C   0  0  0  0  0  0  0  0  0  0  0  0
   21.2505   19.7943   24.6363 O   0  5  0  0  0  0  0  0  0  0  0  0
   19.6402   18.4373   25.0219 O   0  0  0  0  0  0  0  0  0  0  0  0
   19.2612   20.1134   23.4089 C   0  0  0  0  0  0  0  0  0  0  0  0
   19.6864   21.1099   23.2373 H   0  0  0  0  0  0  0  0  0  0  0  0
   18.2727   20.2639   23.8587 H   0  0  0  0  0  0  0  0  0  0  0  0
   19.1073   19.3586   22.0630 C   0  0  0  0  0  0  0  0  0  0  0  0
   18.7076   18.3528   22.2532 H   0  0  0  0  0  0  0  0  0  0  0  0
   18.3660   19.8816   21.4437 H   0  0  0  0  0  0  0  0  0  0  0  0
   20.4371   19.2543   21.2851 C   0  0  0  0  0  0  0  0  0  0  0  0
   21.1810   18.7143   21.8873 H   0  0  0  0  0  0  0  0  0  0  0  0
   20.8419   20.2601   21.1065 H   0  0  0  0  0  0  0  0  0  0  0  0
   20.2494   18.5301   19.9373 C   0  0  0  0  0  0  0  0  0  0  0  0
   19.5356   19.0668   19.2987 H   0  0  0  0  0  0  0  0  0  0  0  0
   19.8741   17.5095   20.0891 H   0  0  0  0  0  0  0  0  0  0  0  0
   21.2033   18.4637   19.3980 H   0  0  0  0  0  0  0  0  0  0  0  0
  1  2  1  0  0  0  0
  1  3  2  0  0  0  0
  1  4  1  0  0  0  0
  4  5  1  0  0  0  0
  4  6  1  0  0  0  0
  4  7  1  0  0  0  0
  7  8  1  0  0  0  0
  7  9  1  0  0  0  0
  7 10  1  0  0  0  0
 10 11  1  0  0  0  0
 10 12  1  0  0  0  0
 10 13  1  0  0  0  0
 13 14  1  0  0  0  0
 13 15  1  0  0  0  0
 13 16  1  0  0  0  0
M  END
> <VM2 Rank>
4

> <Conf_Id>
184

> <Probability>
5.48

> <Sum Probability>
90.47

> <Delta G>
1.398

> <G>
-34.262

> <E>
-44.480

> <-TS>
10.218

> <U+W>
-57.000

> <U>
8.277

> <W>
-65.276

> <W(PB)>
-67.157

> <W(SA)>
1.881

> <Valence>
6.513

> <Coulomb>
1.429

> <VdW>
0.335

> <VdW6>
-5.021

> <VdW12>
5.356

> <Bond>
0.092

> <Angle>
2.417

> <Pdih>
4.002

> <Idih>
0.001

> <Tether>
0.000

$$$$
VeraChem MOL file


 16 15  0  0  0  0  0  0  0  0999 V2000     
   20.1071   19.3611   24.4385 C   0  0  0  0  0  0  0  0  0  0  0  0
   20.9072   20.1992   24.8041 O   0  5  0  0  0  0  0  0  0  0  0  0
   20.1123   18.2116   24.8320 O   0  0  0  0  0  0  0  0  0  0  0  0
   19.0237   19.7832   23.4497 C   0  0  0  0  0  0  0  0  0  0  0  0
   18.6135   20.7377   23.8001 H   0  0  0  0  0  0  0  0  0  0  0  0
   18.2068   19.0525   23.4917 H   0  0  0  0  0  0  0  0  0  0  0  0
   19.5260   19.9407   21.9910 C   0  0  0  0  0  0  0  0  0  0  0  0
   18.7223   20.3770   21.3825 H   0  0  0  0  0  0  0  0  0  0  0  0
   20.3621   20.6534   21.9686 H   0  0  0  0  0  0  0  0  0  0  0  0
   19.9657   18.5989   21.3662 C   0  0  0  0  0  0  0  0  0  0  0  0
   19.1325   17.8834   21.4004 H   0  0  0  0  0  0  0  0  0  0  0  0
   20.7842   18.1625   21.9556 H   0  0  0  0  0  0  0  0  0  0  0  0
   20.4280   18.7784   19.9066 C   0  0  0  0  0  0  0  0  0  0  0  0
   19.6182   19.1816   19.2845 H   0  0  0  0  0  0  0  0  0  0  0  0
   20.7377   17.8163   19.4781 H   0  0  0  0  0  0  0  0  0  0  0  0
   21.2815   19.4665   19.8471 H   0  0  0  0  0  0  0  0  0  0  0  0
  1  2  1  0  0  0  0
  1  3  2  0  0  0  0
  1  4  1  0  0  0  0
  4  5  1  0  0  0  0
  4  6  1  0  0  0  0
  4  7  1  0  0  0  0
  7  8  1  0  0  0  0
  7  9  1  0  0  0  0
  7 10  1  0  0  0  0
 10 11  1  0  0  0  0
 10 12  1  0  0  0  0
 10 13  1  0  0  0  0
 13 14  1  0  0  0  0
 13 15  1  0  0  0  0
 13 16  1  0  0  0  0
M  END
> <VM2 Rank>
5

> <Conf_Id>
20

> <Probability>
4.75

> <Sum Probability>
95.22

> <Delta G>
1.483

> <G>
-34.176

> <E>
-44.394

> <-TS>
10.218

> <U+W>
-56.914

> <U>
8.277

> <W>
-65.191

> <W(PB)>
-67.081

> <W(SA)>
1.890

> <Valence>
6.513

> <Coulomb>
1.429

> <VdW>
0.335

> <VdW6>
-5.021

> <VdW12>
5.356

> <Bond>
0.092

> <Angle>
2.417

> <Pdih>
4.002

> <Idih>
0.001

> <Tether>
0.000

$$$$
VeraChem MOL file


 16 15  0  0  0  0  0  0  0  0999 V2000     
   20.0196   19.3905   24.6749 C   0  0  0  0  0  0  0  0  0  0  0  0
   20.1520   20.5987   24.6516 O   0  5  0  0  0  0  0  0  0  0  0  0
   19.9478   18.7520   25.7057 O   0  0  0  0  0  0  0  0  0  0  0  0
   19.9368   18.6093   23.3624 C   0  0  0  0  0  0  0  0  0  0  0  0
   18.9894   18.0574   23.3693 H   0  0  0  0  0  0  0  0  0  0  0  0
   20.7417   17.8649   23.3733 H   0  0  0  0  0  0  0  0  0  0  0  0
   20.0339   19.4666   22.0724 C   0  0  0  0  0  0  0  0  0  0  0  0
   19.2284   20.2140   22.0698 H   0  0  0  0  0  0  0  0  0  0  0  0
   20.9824   20.0213   22.0738 H   0  0  0  0  0  0  0  0  0  0  0  0
   19.9415   18.5995   20.7993 C   0  0  0  0  0  0  0  0  0  0  0  0
   18.9924   18.0456   20.7959 H   0  0  0  0  0  0  0  0  0  0  0  0
   20.7476   17.8527   20.7998 H   0  0  0  0  0  0  0  0  0  0  0  0
   20.0385   19.4565   19.5217 C   0  0  0  0  0  0  0  0  0  0  0  0
   19.2247   20.1923   19.4796 H   0  0  0  0  0  0  0  0  0  0  0  0
   19.9711   18.8250   18.6262 H   0  0  0  0  0  0  0  0  0  0  0  0
   20.9928   19.9981   19.4836 H   0  0  0  0  0  0  0  0  0  0  0  0
  1  2  1  0  0  0  0
  1  3  2  0  0  0  0
  1  4  1  0  0  0  0
  4  5  1  0  0  0  0
  4  6  1  0  0  0  0
  4  7  1  0  0  0  0
  7  8  1  0  0  0  0
  7  9  1  0  0  0  0
  7 10  1  0  0  0  0
 10 11  1  0  0  0  0
 10 12  1  0  0  0  0
 10 13  1  0  0  0  0
 13 14  1  0  0  0  0
 13 15  1  0  0  0  0
 13 16  1  0  0  0  0
M  END
> <VM2 Rank>
6

> <Conf_Id>
0

> <Probability>
3.35

> <Sum Probability>
98.57

> <Delta G>
1.691

> <G>
-33.969

> <E>
-44.385

> <-TS>
10.416

> <U+W>
-56.904

> <U>
7.329

> <W>
-64.233

> <W(PB)>
-66.148

> <W(SA)>
1.915

> <Valence>
6.755

> <Coulomb>
-0.421

> <VdW>
0.995

> <VdW6>
-4.495

> <VdW12>
5.490

> <Bond>
0.106

> <Angle>
2.715

> <Pdih>
3.934

> <Idih>
0.000

> <Tether>
0.000

$$$$
VeraChem MOL file


 16 15  0  0  0  0  0  0  0  0999 V2000     
   20.0626   19.5193   24.2841 C   0  0  0  0  0  0  0  0  0  0  0  0
   20.7090   20.5482   24.2835 O   0  5  0  0  0  0  0  0  0  0  0  0
   20.2325   18.6215   25.0853 O   0  0  0  0  0  0  0  0  0  0  0  0
   18.9552   19.3577   23.2462 C   0  0  0  0  0  0  0  0  0  0  0  0
   18.7520   20.3349   22.7934 H   0  0  0  0  0  0  0  0  0  0  0  0
   18.0444   19.0698   23.7842 H   0  0  0  0  0  0  0  0  0  0  0  0
   19.2597   18.2994   22.1508 C   0  0  0  0  0  0  0  0  0  0  0  0
   19.4047   17.3233   22.6341 H   0  0  0  0  0  0  0  0  0  0  0  0
   18.3821   18.1929   21.4991 H   0  0  0  0  0  0  0  0  0  0  0  0
   20.5015   18.6174   21.2843 C   0  0  0  0  0  0  0  0  0  0  0  0
   20.6794   17.7757   20.6010 H   0  0  0  0  0  0  0  0  0  0  0  0
   21.3936   18.6922   21.9216 H   0  0  0  0  0  0  0  0  0  0  0  0
   20.3494   19.9095   20.4538 C   0  0  0  0  0  0  0  0  0  0  0  0
   19.4444   19.8751   19.8334 H   0  0  0  0  0  0  0  0  0  0  0  0
   21.2119   20.0410   19.7876 H   0  0  0  0  0  0  0  0  0  0  0  0
   20.2925   20.7942   21.1008 H   0  0  0  0  0  0  0  0  0  0  0  0
  1  2  1  0  0  0  0
  1  3  2  0  0  0  0
  1  4  1  0  0  0  0
  4  5  1  0  0  0  0
  4  6  1  0  0  0  0
  4  7  1  0  0  0  0
  7  8  1  0  0  0  0
  7  9  1  0  0  0  0
  7 10  1  0  0  0  0
 10 11  1  0  0  0  0
 10 12  1  0  0  0  0
 10 13  1  0  0  0  0
 13 14  1  0  0  0  0
 13 15  1  0  0  0  0
 13 16  1  0  0  0  0
M  END
> <VM2 Rank>
7

> <Conf_Id>
67

> <Probability>
0.69

> <Sum Probability>
99.25

> <Delta G>
2.637

> <G>
-33.022

> <E>
-43.375

> <-TS>
10.352

> <U+W>
-55.894

> <U>
9.719

> <W>
-65.613

> <W(PB)>
-67.463

> <W(SA)>
1.850

> <Valence>
7.002

> <Coulomb>
2.403

> <VdW>
0.314

> <VdW6>
-5.861

> <VdW12>
6.175

> <Bond>
0.134

> <Angle>
2.733

> <Pdih>
4.133

> <Idih>
0.002

> <Tether>
0.000

$$$$
VeraChem MOL file


 16 15  0  0  0  0  0  0  0  0999 V2000     
   19.9434   19.3536   24.3046 C   0  0  0  0  0  0  0  0  0  0  0  0
   20.9342   19.5973   24.9647 O   0  5  0  0  0  0  0  0  0  0  0  0
   19.1877   18.4330   24.5450 O   0  0  0  0  0  0  0  0  0  0  0  0
   19.6148   20.2747   23.1328 C   0  0  0  0  0  0  0  0  0  0  0  0
   19.6515   21.3042   23.5078 H   0  0  0  0  0  0  0  0  0  0  0  0
   18.5790   20.0944   22.8231 H   0  0  0  0  0  0  0  0  0  0  0  0
   20.5800   20.1348   21.9238 C   0  0  0  0  0  0  0  0  0  0  0  0
   20.3192   20.8859   21.1660 H   0  0  0  0  0  0  0  0  0  0  0  0
   21.5994   20.3743   22.2568 H   0  0  0  0  0  0  0  0  0  0  0  0
   20.5843   18.7324   21.2701 C   0  0  0  0  0  0  0  0  0  0  0  0
   20.8779   17.9751   22.0103 H   0  0  0  0  0  0  0  0  0  0  0  0
   21.3528   18.7118   20.4852 H   0  0  0  0  0  0  0  0  0  0  0  0
   19.2257   18.3472   20.6469 C   0  0  0  0  0  0  0  0  0  0  0  0
   18.4519   18.2353   21.4172 H   0  0  0  0  0  0  0  0  0  0  0  0
   19.3052   17.3902   20.1153 H   0  0  0  0  0  0  0  0  0  0  0  0
   18.8920   19.1071   19.9284 H   0  0  0  0  0  0  0  0  0  0  0  0
  1  2  1  0  0  0  0
  1  3  2  0  0  0  0
  1  4  1  0  0  0  0
  4  5  1  0  0  0  0
  4  6  1  0  0  0  0
  4  7  1  0  0  0  0
  7  8  1  0  0  0  0
  7  9  1  0  0  0  0
  7 10  1  0  0  0  0
 10 11  1  0  0  0  0
 10 12  1  0  0  0  0
 10 13  1  0  0  0  0
 13 14  1  0  0  0  0
 13 15  1  0  0  0  0
 13 16  1  0  0  0  0
M  END
> <VM2 Rank>
8

> <Conf_Id>
48

> <Probability>
0.63

> <Sum Probability>
99.88

> <Delta G>
2.690

> <G>
-32.969

> <E>
-43.322

> <-TS>
10.352

> <U+W>
-55.841

> <U>
9.719

> <W>
-65.560

> <W(PB)>
-67.414

> <W(SA)>
1.854

> <Valence>
7.002

> <Coulomb>
2.402

> <VdW>
0.314

> <VdW6>
-5.861

> <VdW12>
6.175

> <Bond>
0.134

> <Angle>
2.733

> <Pdih>
4.133

> <Idih>
0.002

> <Tether>
0.000

$$$$
VeraChem MOL file


 16 15  0  0  0  0  0  0  0  0999 V2000     
   20.0923   19.2757   24.2323 C   0  0  0  0  0  0  0  0  0  0  0  0
   21.0317   19.9902   24.5222 O   0  5  0  0  0  0  0  0  0  0  0  0
   19.9339   18.1611   24.6899 O   0  0  0  0  0  0  0  0  0  0  0  0
   19.0077   19.8400   23.3164 C   0  0  0  0  0  0  0  0  0  0  0  0
   18.5824   20.7053   23.8381 H   0  0  0  0  0  0  0  0  0  0  0  0
   18.2008   19.1030   23.2227 H   0  0  0  0  0  0  0  0  0  0  0  0
   19.4932   20.2878   21.9090 C   0  0  0  0  0  0  0  0  0  0  0  0
   18.7489   20.9839   21.4993 H   0  0  0  0  0  0  0  0  0  0  0  0
   20.4263   20.8611   21.9997 H   0  0  0  0  0  0  0  0  0  0  0  0
   19.6737   19.1366   20.8903 C   0  0  0  0  0  0  0  0  0  0  0  0
   19.8595   19.5752   19.9001 H   0  0  0  0  0  0  0  0  0  0  0  0
   18.7395   18.5649   20.8040 H   0  0  0  0  0  0  0  0  0  0  0  0
   20.8374   18.1815   21.2279 C   0  0  0  0  0  0  0  0  0  0  0  0
   21.0051   17.4749   20.4050 H   0  0  0  0  0  0  0  0  0  0  0  0
   20.6231   17.5936   22.1287 H   0  0  0  0  0  0  0  0  0  0  0  0
   21.7692   18.7383   21.3926 H   0  0  0  0  0  0  0  0  0  0  0  0
  1  2  1  0  0  0  0
  1  3  2  0  0  0  0
  1  4  1  0  0  0  0
  4  5  1  0  0  0  0
  4  6  1  0  0  0  0
  4  7  1  0  0  0  0
  7  8  1  0  0  0  0
  7  9  1  0  0  0  0
  7 10  1  0  0  0  0
 10 11  1  0  0  0  0
 10 12  1  0  0  0  0
 10 13  1  0  0  0  0
 13 14  1  0  0  0  0
 13 15  1  0  0  0  0
 13 16  1  0  0  0  0
M  END
> <VM2 Rank>
9

> <Conf_Id>
58

> <Probability>
0.06

> <Sum Probability>
99.94

> <Delta G>
4.095

> <G>
-31.564

> <E>
-42.085

> <-TS>
10.521

> <U+W>
-54.604

> <U>
11.258

> <W>
-65.863

> <W(PB)>
-67.712

> <W(SA)>
1.849

> <Valence>
8.169

> <Coulomb>
2.735

> <VdW>
0.355

> <VdW6>
-6.245

> <VdW12>
6.600

> <Bond>
0.149

> <Angle>
3.168

> <Pdih>
4.840

> <Idih>
0.011

> <Tether>
0.000

$$$$
VeraChem MOL file


 16 15  0  0  0  0  0  0  0  0999 V2000     
   20.1756   19.3915   24.2180 C   0  0  0  0  0  0  0  0  0  0  0  0
   21.2236   19.9537   24.4682 O   0  5  0  0  0  0  0  0  0  0  0  0
   19.8436   18.3387   24.7264 O   0  0  0  0  0  0  0  0  0  0  0  0
   19.1876   20.0900   23.2855 C   0  0  0  0  0  0  0  0  0  0  0  0
   19.6066   21.0568   22.9811 H   0  0  0  0  0  0  0  0  0  0  0  0
   18.2978   20.3098   23.8870 H   0  0  0  0  0  0  0  0  0  0  0  0
   18.7615   19.2708   22.0348 C   0  0  0  0  0  0  0  0  0  0  0  0
   18.5367   18.2349   22.3245 H   0  0  0  0  0  0  0  0  0  0  0  0
   17.8189   19.6913   21.6591 H   0  0  0  0  0  0  0  0  0  0  0  0
   19.7824   19.2876   20.8716 C   0  0  0  0  0  0  0  0  0  0  0  0
   20.0059   20.3249   20.5864 H   0  0  0  0  0  0  0  0  0  0  0  0
   19.3161   18.8199   19.9935 H   0  0  0  0  0  0  0  0  0  0  0  0
   21.0958   18.5406   21.1835 C   0  0  0  0  0  0  0  0  0  0  0  0
   20.8947   17.5229   21.5428 H   0  0  0  0  0  0  0  0  0  0  0  0
   21.6827   19.0662   21.9465 H   0  0  0  0  0  0  0  0  0  0  0  0
   21.7180   18.4656   20.2824 H   0  0  0  0  0  0  0  0  0  0  0  0
  1  2  1  0  0  0  0
  1  3  2  0  0  0  0
  1  4  1  0  0  0  0
  4  5  1  0  0  0  0
  4  6  1  0  0  0  0
  4  7  1  0  0  0  0
  7  8  1  0  0  0  0
  7  9  1  0  0  0  0
  7 10  1  0  0  0  0
 10 11  1  0  0  0  0
 10 12  1  0  0  0  0
 10 13  1  0  0  0  0
 13 14  1  0  0  0  0
 13 15  1  0  0  0  0
 13 16  1  0  0  0  0
M  END
> <VM2 Rank>
10

> <Conf_Id>
86

> <Probability>
0.06

> <Sum Probability>
100.00

> <Delta G>
4.096

> <G>
-31.563

> <E>
-42.083

> <-TS>
10.520

> <U+W>
-54.603

> <U>
11.258

> <W>
-65.861

> <W(PB)>
-67.702

> <W(SA)>
1.841

> <Valence>
8.169

> <Coulomb>
2.735

> <VdW>
0.355

> <VdW6>
-6.245

> <VdW12>
6.600

> <Bond>
0.149

> <Angle>
3.168

> <Pdih>
4.840

> <Idih>
0.011

> <Tether>
0.000

$$$$
