VeraChem MOL file


 26 25  0  0  0  0  0  0  0  0999 V2000     
   19.9052   19.3107   18.8162 C   0  0  0  0  0  0  0  0  0  0  0  0
   20.2945   20.3369   18.7943 H   0  0  0  0  0  0  0  0  0  0  0  0
   20.2787   18.7895   17.9252 H   0  0  0  0  0  0  0  0  0  0  0  0
   18.8108   19.3585   18.7447 H   0  0  0  0  0  0  0  0  0  0  0  0
   20.3457   18.5776   20.1010 C   0  0  0  0  0  0  0  0  0  0  0  0
   21.4427   18.5157   20.1275 H   0  0  0  0  0  0  0  0  0  0  0  0
   19.9704   17.5449   20.0784 H   0  0  0  0  0  0  0  0  0  0  0  0
   19.8327   19.2912   21.3714 C   0  0  0  0  0  0  0  0  0  0  0  0
   20.2083   20.3237   21.3883 H   0  0  0  0  0  0  0  0  0  0  0  0
   18.7360   19.3526   21.3392 H   0  0  0  0  0  0  0  0  0  0  0  0
   20.2719   18.5602   22.6602 C   0  0  0  0  0  0  0  0  0  0  0  0
   21.3686   18.4989   22.6913 H   0  0  0  0  0  0  0  0  0  0  0  0
   19.8962   17.5277   22.6422 H   0  0  0  0  0  0  0  0  0  0  0  0
   19.7583   19.2745   23.9308 C   0  0  0  0  0  0  0  0  0  0  0  0
   20.1340   20.3071   23.9492 H   0  0  0  0  0  0  0  0  0  0  0  0
   18.6614   19.3359   23.9000 H   0  0  0  0  0  0  0  0  0  0  0  0
   20.1968   18.5443   25.2193 C   0  0  0  0  0  0  0  0  0  0  0  0
   21.2928   18.4855   25.2564 H   0  0  0  0  0  0  0  0  0  0  0  0
   19.8188   17.5133   25.2071 H   0  0  0  0  0  0  0  0  0  0  0  0
   19.6802   19.2637   26.4777 C   0  0  0  0  0  0  0  0  0  0  0  0
   20.0676   20.2859   26.5026 H   0  0  0  0  0  0  0  0  0  0  0  0
   18.5881   19.3102   26.4531 H   0  0  0  0  0  0  0  0  0  0  0  0
   20.0901   18.5768   27.7644 N   0  3  0  0  0  0  0  0  0  0  0  0
   19.7359   19.0720   28.5901 H   0  0  0  0  0  0  0  0  0  0  0  0
   21.1095   18.5250   27.8622 H   0  0  0  0  0  0  0  0  0  0  0  0
   19.7328   17.6172   27.8161 H   0  0  0  0  0  0  0  0  0  0  0  0
  1  2  1  0  0  0  0
  1  3  1  0  0  0  0
  1  4  1  0  0  0  0
  1  5  1  0  0  0  0
  5  6  1  0  0  0  0
  5  7  1  0  0  0  0
  5  8  1  0  0  0  0
  8  9  1  0  0  0  0
  8 10  1  0  0  0  0
  8 11  1  0  0  0  0
 11 12  1  0  0  0  0
 11 13  1  0  0  0  0
 11 14  1  0  0  0  0
 14 15  1  0  0  0  0
 14 16  1  0  0  0  0
 14 17  1  0  0  0  0
 17 18  1  0  0  0  0
 17 19  1  0  0  0  0
 17 20  1  0  0  0  0
 20 21  1  0  0  0  0
 20 22  1  0  0  0  0
 20 23  1  0  0  0  0
 23 24  1  0  0  0  0
 23 25  1  0  0  0  0
 23 26  1  0  0  0  0
M  END
> <VM2 Rank>
1

> <Conf_Id>
316

> <Probability>
7.44

> <Sum Probability>
7.44

> <Delta G>
0.000

> <G>
48.261

> <E>
15.909

> <-TS>
32.352

> <U+W>
-5.553

> <U>
47.192

> <W>
-52.744

> <W(PB)>
-55.135

> <W(SA)>
2.391

> <Valence>
2.156

> <Coulomb>
44.449

> <VdW>
0.587

> <VdW6>
-5.761

> <VdW12>
6.348

> <Bond>
0.129

> <Angle>
0.393

> <Pdih>
1.634

> <Idih>
0.000

> <Tether>
0.000

$$$$
VeraChem MOL file


 26 25  0  0  0  0  0  0  0  0999 V2000     
   20.1408   19.6499   19.0008 C   0  0  0  0  0  0  0  0  0  0  0  0
   19.1347   20.0853   18.9420 H   0  0  0  0  0  0  0  0  0  0  0  0
   20.8621   20.4696   19.1149 H   0  0  0  0  0  0  0  0  0  0  0  0
   20.3477   19.1494   18.0460 H   0  0  0  0  0  0  0  0  0  0  0  0
   20.2456   18.6516   20.1733 C   0  0  0  0  0  0  0  0  0  0  0  0
   21.2510   18.2079   20.1855 H   0  0  0  0  0  0  0  0  0  0  0  0
   19.5370   17.8267   20.0140 H   0  0  0  0  0  0  0  0  0  0  0  0
   19.9586   19.3310   21.5306 C   0  0  0  0  0  0  0  0  0  0  0  0
   20.6678   20.1562   21.6841 H   0  0  0  0  0  0  0  0  0  0  0  0
   18.9536   19.7749   21.5127 H   0  0  0  0  0  0  0  0  0  0  0  0
   20.0625   18.3343   22.7072 C   0  0  0  0  0  0  0  0  0  0  0  0
   21.0678   17.8909   22.7245 H   0  0  0  0  0  0  0  0  0  0  0  0
   19.3536   17.5091   22.5519 H   0  0  0  0  0  0  0  0  0  0  0  0
   19.7748   19.0142   24.0649 C   0  0  0  0  0  0  0  0  0  0  0  0
   20.4826   19.8408   24.2124 H   0  0  0  0  0  0  0  0  0  0  0  0
   18.7683   19.4551   24.0484 H   0  0  0  0  0  0  0  0  0  0  0  0
   19.8801   18.0151   25.2413 C   0  0  0  0  0  0  0  0  0  0  0  0
   20.8922   17.5914   25.2861 H   0  0  0  0  0  0  0  0  0  0  0  0
   19.1959   17.1741   25.0665 H   0  0  0  0  0  0  0  0  0  0  0  0
   19.5295   18.6544   26.5987 C   0  0  0  0  0  0  0  0  0  0  0  0
   18.5244   19.0826   26.5554 H   0  0  0  0  0  0  0  0  0  0  0  0
   19.5390   17.8848   27.3753 H   0  0  0  0  0  0  0  0  0  0  0  0
   20.4891   19.7484   27.0243 N   0  3  0  0  0  0  0  0  0  0  0  0
   20.2355   20.1437   27.9363 H   0  0  0  0  0  0  0  0  0  0  0  0
   20.5021   20.5238   26.3545 H   0  0  0  0  0  0  0  0  0  0  0  0
   21.4504   19.4014   27.1054 H   0  0  0  0  0  0  0  0  0  0  0  0
  1  2  1  0  0  0  0
  1  3  1  0  0  0  0
  1  4  1  0  0  0  0
  1  5  1  0  0  0  0
  5  6  1  0  0  0  0
  5  7  1  0  0  0  0
  5  8  1  0  0  0  0
  8  9  1  0  0  0  0
  8 10  1  0  0  0  0
  8 11  1  0  0  0  0
 11 12  1  0  0  0  0
 11 13  1  0  0  0  0
 11 14  1  0  0  0  0
 14 15  1  0  0  0  0
 14 16  1  0  0  0  0
 14 17  1  0  0  0  0
 17 18  1  0  0  0  0
 17 19  1  0  0  0  0
 17 20  1  0  0  0  0
 20 21  1  0  0  0  0
 20 22  1  0  0  0  0
 20 23  1  0  0  0  0
 23 24  1  0  0  0  0
 23 25  1  0  0  0  0
 23 26  1  0  0  0  0
M  END
> <VM2 Rank>
2

> <Conf_Id>
307

> <Probability>
4.91

> <Sum Probability>
12.34

> <Delta G>
0.248

> <G>
48.509

> <E>
16.054

> <-TS>
32.455

> <U+W>
-5.408

> <U>
47.845

> <W>
-53.253

> <W(PB)>
-55.604

> <W(SA)>
2.351

> <Valence>
2.258

> <Coulomb>
44.894

> <VdW>
0.694

> <VdW6>
-6.285

> <VdW12>
6.979

> <Bond>
0.149

> <Angle>
0.434

> <Pdih>
1.675

> <Idih>
0.000

> <Tether>
0.000

$$$$
VeraChem MOL file


 26 25  0  0  0  0  0  0  0  0999 V2000     
   19.4925   19.2223   18.9792 C   0  0  0  0  0  0  0  0  0  0  0  0
   19.4900   20.3199   18.9540 H   0  0  0  0  0  0  0  0  0  0  0  0
   19.9156   18.8645   18.0315 H   0  0  0  0  0  0  0  0  0  0  0  0
   18.4512   18.8791   19.0343 H   0  0  0  0  0  0  0  0  0  0  0  0
   20.3140   18.6968   20.1755 C   0  0  0  0  0  0  0  0  0  0  0  0
   21.3572   19.0277   20.0749 H   0  0  0  0  0  0  0  0  0  0  0  0
   20.3265   17.5980   20.1546 H   0  0  0  0  0  0  0  0  0  0  0  0
   19.7392   19.1863   21.5233 C   0  0  0  0  0  0  0  0  0  0  0  0
   19.7267   20.2849   21.5386 H   0  0  0  0  0  0  0  0  0  0  0  0
   18.6958   18.8552   21.6181 H   0  0  0  0  0  0  0  0  0  0  0  0
   20.5592   18.6620   22.7237 C   0  0  0  0  0  0  0  0  0  0  0  0
   21.6027   18.9927   22.6271 H   0  0  0  0  0  0  0  0  0  0  0  0
   20.5711   17.5633   22.7079 H   0  0  0  0  0  0  0  0  0  0  0  0
   19.9844   19.1524   24.0719 C   0  0  0  0  0  0  0  0  0  0  0  0
   19.9754   20.2512   24.0888 H   0  0  0  0  0  0  0  0  0  0  0  0
   18.9404   18.8235   24.1609 H   0  0  0  0  0  0  0  0  0  0  0  0
   20.8061   18.6258   25.2722 C   0  0  0  0  0  0  0  0  0  0  0  0
   21.8554   18.9280   25.1553 H   0  0  0  0  0  0  0  0  0  0  0  0
   20.7957   17.5277   25.2829 H   0  0  0  0  0  0  0  0  0  0  0  0
   20.2935   19.1582   26.6243 C   0  0  0  0  0  0  0  0  0  0  0  0
   20.9606   18.8222   27.4228 H   0  0  0  0  0  0  0  0  0  0  0  0
   20.2970   20.2515   26.6146 H   0  0  0  0  0  0  0  0  0  0  0  0
   18.8920   18.6952   26.9709 N   0  3  0  0  0  0  0  0  0  0  0  0
   18.2058   19.0096   26.2780 H   0  0  0  0  0  0  0  0  0  0  0  0
   18.5862   19.0559   27.8813 H   0  0  0  0  0  0  0  0  0  0  0  0
   18.8294   17.6729   27.0177 H   0  0  0  0  0  0  0  0  0  0  0  0
  1  2  1  0  0  0  0
  1  3  1  0  0  0  0
  1  4  1  0  0  0  0
  1  5  1  0  0  0  0
  5  6  1  0  0  0  0
  5  7  1  0  0  0  0
  5  8  1  0  0  0  0
  8  9  1  0  0  0  0
  8 10  1  0  0  0  0
  8 11  1  0  0  0  0
 11 12  1  0  0  0  0
 11 13  1  0  0  0  0
 11 14  1  0  0  0  0
 14 15  1  0  0  0  0
 14 16  1  0  0  0  0
 14 17  1  0  0  0  0
 17 18  1  0  0  0  0
 17 19  1  0  0  0  0
 17 20  1  0  0  0  0
 20 21  1  0  0  0  0
 20 22  1  0  0  0  0
 20 23  1  0  0  0  0
 23 24  1  0  0  0  0
 23 25  1  0  0  0  0
 23 26  1  0  0  0  0
M  END
> <VM2 Rank>
3

> <Conf_Id>
925

> <Probability>
4.78

> <Sum Probability>
17.13

> <Delta G>
0.263

> <G>
48.525

> <E>
16.069

> <-TS>
32.456

> <U+W>
-5.393

> <U>
47.845

> <W>
-53.238

> <W(PB)>
-55.587

> <W(SA)>
2.349

> <Valence>
2.258

> <Coulomb>
44.893

> <VdW>
0.694

> <VdW6>
-6.285

> <VdW12>
6.978

> <Bond>
0.149

> <Angle>
0.434

> <Pdih>
1.675

> <Idih>
0.000

> <Tether>
0.000

$$$$
VeraChem MOL file


 26 25  0  0  0  0  0  0  0  0999 V2000     
   19.7687   18.8534   18.9897 C   0  0  0  0  0  0  0  0  0  0  0  0
   20.5474   19.5750   18.7104 H   0  0  0  0  0  0  0  0  0  0  0  0
   19.7778   18.0440   18.2482 H   0  0  0  0  0  0  0  0  0  0  0  0
   18.7959   19.3581   18.9256 H   0  0  0  0  0  0  0  0  0  0  0  0
   20.0121   18.2958   20.4081 C   0  0  0  0  0  0  0  0  0  0  0  0
   20.9759   17.7681   20.4319 H   0  0  0  0  0  0  0  0  0  0  0  0
   19.2379   17.5527   20.6454 H   0  0  0  0  0  0  0  0  0  0  0  0
   20.0042   19.4156   21.4722 C   0  0  0  0  0  0  0  0  0  0  0  0
   20.7776   20.1572   21.2287 H   0  0  0  0  0  0  0  0  0  0  0  0
   19.0397   19.9414   21.4434 H   0  0  0  0  0  0  0  0  0  0  0  0
   20.2481   18.8613   22.8940 C   0  0  0  0  0  0  0  0  0  0  0  0
   21.2141   18.3383   22.9221 H   0  0  0  0  0  0  0  0  0  0  0  0
   19.4756   18.1166   23.1278 H   0  0  0  0  0  0  0  0  0  0  0  0
   20.2382   19.9853   23.9578 C   0  0  0  0  0  0  0  0  0  0  0  0
   20.9813   20.7473   23.6851 H   0  0  0  0  0  0  0  0  0  0  0  0
   19.2616   20.4892   23.9558 H   0  0  0  0  0  0  0  0  0  0  0  0
   20.5521   19.4746   25.3837 C   0  0  0  0  0  0  0  0  0  0  0  0
   20.6145   20.3342   26.0643 H   0  0  0  0  0  0  0  0  0  0  0  0
   21.5389   18.9929   25.3943 H   0  0  0  0  0  0  0  0  0  0  0  0
   19.4901   18.4916   25.9111 C   0  0  0  0  0  0  0  0  0  0  0  0
   18.5077   18.9715   25.9018 H   0  0  0  0  0  0  0  0  0  0  0  0
   19.4490   17.6098   25.2666 H   0  0  0  0  0  0  0  0  0  0  0  0
   19.7676   18.0214   27.3244 N   0  3  0  0  0  0  0  0  0  0  0  0
   19.0495   17.3684   27.6566 H   0  0  0  0  0  0  0  0  0  0  0  0
   19.7915   18.8017   27.9890 H   0  0  0  0  0  0  0  0  0  0  0  0
   20.6681   17.5364   27.3959 H   0  0  0  0  0  0  0  0  0  0  0  0
  1  2  1  0  0  0  0
  1  3  1  0  0  0  0
  1  4  1  0  0  0  0
  1  5  1  0  0  0  0
  5  6  1  0  0  0  0
  5  7  1  0  0  0  0
  5  8  1  0  0  0  0
  8  9  1  0  0  0  0
  8 10  1  0  0  0  0
  8 11  1  0  0  0  0
 11 12  1  0  0  0  0
 11 13  1  0  0  0  0
 11 14  1  0  0  0  0
 14 15  1  0  0  0  0
 14 16  1  0  0  0  0
 14 17  1  0  0  0  0
 17 18  1  0  0  0  0
 17 19  1  0  0  0  0
 17 20  1  0  0  0  0
 20 21  1  0  0  0  0
 20 22  1  0  0  0  0
 20 23  1  0  0  0  0
 23 24  1  0  0  0  0
 23 25  1  0  0  0  0
 23 26  1  0  0  0  0
M  END
> <VM2 Rank>
4

> <Conf_Id>
891

> <Probability>
3.38

> <Sum Probability>
20.51

> <Delta G>
0.470

> <G>
48.731

> <E>
16.280

> <-TS>
32.451

> <U+W>
-5.182

> <U>
48.002

> <W>
-53.183

> <W(PB)>
-55.533

> <W(SA)>
2.350

> <Valence>
2.459

> <Coulomb>
44.900

> <VdW>
0.643

> <VdW6>
-6.362

> <VdW12>
7.005

> <Bond>
0.151

> <Angle>
0.519

> <Pdih>
1.789

> <Idih>
0.000

> <Tether>
0.000

$$$$
VeraChem MOL file


 26 25  0  0  0  0  0  0  0  0999 V2000     
   20.3710   19.2510   19.0099 C   0  0  0  0  0  0  0  0  0  0  0  0
   21.1452   18.9462   18.2939 H   0  0  0  0  0  0  0  0  0  0  0  0
   19.4151   18.8295   18.6724 H   0  0  0  0  0  0  0  0  0  0  0  0
   20.2929   20.3456   18.9762 H   0  0  0  0  0  0  0  0  0  0  0  0
   20.7212   18.7634   20.4317 C   0  0  0  0  0  0  0  0  0  0  0  0
   21.6969   19.1737   20.7277 H   0  0  0  0  0  0  0  0  0  0  0  0
   20.8258   17.6693   20.4265 H   0  0  0  0  0  0  0  0  0  0  0  0
   19.6464   19.1797   21.4603 C   0  0  0  0  0  0  0  0  0  0  0  0
   19.5440   20.2737   21.4605 H   0  0  0  0  0  0  0  0  0  0  0  0
   18.6728   18.7694   21.1584 H   0  0  0  0  0  0  0  0  0  0  0  0
   19.9935   18.6930   22.8854 C   0  0  0  0  0  0  0  0  0  0  0  0
   20.9700   19.1016   23.1778 H   0  0  0  0  0  0  0  0  0  0  0  0
   20.0930   17.5987   22.8843 H   0  0  0  0  0  0  0  0  0  0  0  0
   18.9156   19.1127   23.9136 C   0  0  0  0  0  0  0  0  0  0  0  0
   18.8363   20.2084   23.9416 H   0  0  0  0  0  0  0  0  0  0  0  0
   17.9365   18.7388   23.5834 H   0  0  0  0  0  0  0  0  0  0  0  0
   19.1951   18.5794   25.3384 C   0  0  0  0  0  0  0  0  0  0  0  0
   19.2499   17.4828   25.3180 H   0  0  0  0  0  0  0  0  0  0  0  0
   18.3494   18.8399   25.9886 H   0  0  0  0  0  0  0  0  0  0  0  0
   20.4904   19.1515   25.9445 C   0  0  0  0  0  0  0  0  0  0  0  0
   21.3465   18.8614   25.3300 H   0  0  0  0  0  0  0  0  0  0  0  0
   20.4357   20.2433   25.9659 H   0  0  0  0  0  0  0  0  0  0  0  0
   20.7477   18.6682   27.3572 N   0  3  0  0  0  0  0  0  0  0  0  0
   19.9906   18.9336   27.9956 H   0  0  0  0  0  0  0  0  0  0  0  0
   21.6139   19.0603   27.7423 H   0  0  0  0  0  0  0  0  0  0  0  0
   20.8362   17.6478   27.4018 H   0  0  0  0  0  0  0  0  0  0  0  0
  1  2  1  0  0  0  0
  1  3  1  0  0  0  0
  1  4  1  0  0  0  0
  1  5  1  0  0  0  0
  5  6  1  0  0  0  0
  5  7  1  0  0  0  0
  5  8  1  0  0  0  0
  8  9  1  0  0  0  0
  8 10  1  0  0  0  0
  8 11  1  0  0  0  0
 11 12  1  0  0  0  0
 11 13  1  0  0  0  0
 11 14  1  0  0  0  0
 14 15  1  0  0  0  0
 14 16  1  0  0  0  0
 14 17  1  0  0  0  0
 17 18  1  0  0  0  0
 17 19  1  0  0  0  0
 17 20  1  0  0  0  0
 20 21  1  0  0  0  0
 20 22  1  0  0  0  0
 20 23  1  0  0  0  0
 23 24  1  0  0  0  0
 23 25  1  0  0  0  0
 23 26  1  0  0  0  0
M  END
> <VM2 Rank>
5

> <Conf_Id>
779

> <Probability>
3.36

> <Sum Probability>
23.87

> <Delta G>
0.473

> <G>
48.734

> <E>
16.284

> <-TS>
32.451

> <U+W>
-5.178

> <U>
48.002

> <W>
-53.180

> <W(PB)>
-55.521

> <W(SA)>
2.341

> <Valence>
2.459

> <Coulomb>
44.900

> <VdW>
0.643

> <VdW6>
-6.362

> <VdW12>
7.005

> <Bond>
0.151

> <Angle>
0.519

> <Pdih>
1.789

> <Idih>
0.000

> <Tether>
0.000

$$$$
VeraChem MOL file


 26 25  0  0  0  0  0  0  0  0999 V2000     
   19.4449   18.1621   19.5242 C   0  0  0  0  0  0  0  0  0  0  0  0
   18.4490   18.6236   19.5136 H   0  0  0  0  0  0  0  0  0  0  0  0
   19.6605   17.8056   18.5086 H   0  0  0  0  0  0  0  0  0  0  0  0
   19.4107   17.2842   20.1811 H   0  0  0  0  0  0  0  0  0  0  0  0
   20.5209   19.1727   19.9823 C   0  0  0  0  0  0  0  0  0  0  0  0
   20.6012   19.9695   19.2297 H   0  0  0  0  0  0  0  0  0  0  0  0
   21.5023   18.6790   20.0131 H   0  0  0  0  0  0  0  0  0  0  0  0
   20.2153   19.8164   21.3563 C   0  0  0  0  0  0  0  0  0  0  0  0
   20.9649   20.5961   21.5503 H   0  0  0  0  0  0  0  0  0  0  0  0
   19.2429   20.3263   21.3142 H   0  0  0  0  0  0  0  0  0  0  0  0
   20.2241   18.8045   22.5271 C   0  0  0  0  0  0  0  0  0  0  0  0
   21.1784   18.2599   22.5339 H   0  0  0  0  0  0  0  0  0  0  0  0
   19.4317   18.0585   22.3822 H   0  0  0  0  0  0  0  0  0  0  0  0
   20.0185   19.5030   23.8904 C   0  0  0  0  0  0  0  0  0  0  0  0
   20.8117   20.2475   24.0458 H   0  0  0  0  0  0  0  0  0  0  0  0
   19.0657   20.0507   23.8823 H   0  0  0  0  0  0  0  0  0  0  0  0
   20.0230   18.4950   25.0607 C   0  0  0  0  0  0  0  0  0  0  0  0
   20.9757   17.9489   25.0748 H   0  0  0  0  0  0  0  0  0  0  0  0
   19.2277   17.7523   24.9124 H   0  0  0  0  0  0  0  0  0  0  0  0
   19.8179   19.2010   26.4126 C   0  0  0  0  0  0  0  0  0  0  0  0
   20.6170   19.9300   26.5721 H   0  0  0  0  0  0  0  0  0  0  0  0
   18.8626   19.7328   26.4090 H   0  0  0  0  0  0  0  0  0  0  0  0
   19.8163   18.2444   27.5875 N   0  3  0  0  0  0  0  0  0  0  0  0
   19.0681   17.5474   27.5119 H   0  0  0  0  0  0  0  0  0  0  0  0
   19.6784   18.7349   28.4779 H   0  0  0  0  0  0  0  0  0  0  0  0
   20.7006   17.7310   27.6636 H   0  0  0  0  0  0  0  0  0  0  0  0
  1  2  1  0  0  0  0
  1  3  1  0  0  0  0
  1  4  1  0  0  0  0
  1  5  1  0  0  0  0
  5  6  1  0  0  0  0
  5  7  1  0  0  0  0
  5  8  1  0  0  0  0
  8  9  1  0  0  0  0
  8 10  1  0  0  0  0
  8 11  1  0  0  0  0
 11 12  1  0  0  0  0
 11 13  1  0  0  0  0
 11 14  1  0  0  0  0
 14 15  1  0  0  0  0
 14 16  1  0  0  0  0
 14 17  1  0  0  0  0
 17 18  1  0  0  0  0
 17 19  1  0  0  0  0
 17 20  1  0  0  0  0
 20 21  1  0  0  0  0
 20 22  1  0  0  0  0
 20 23  1  0  0  0  0
 23 24  1  0  0  0  0
 23 25  1  0  0  0  0
 23 26  1  0  0  0  0
M  END
> <VM2 Rank>
6

> <Conf_Id>
1030

> <Probability>
2.75

> <Sum Probability>
26.62

> <Delta G>
0.593

> <G>
48.855

> <E>
16.392

> <-TS>
32.463

> <U+W>
-5.070

> <U>
47.845

> <W>
-52.915

> <W(PB)>
-55.277

> <W(SA)>
2.362

> <Valence>
2.661

> <Coulomb>
44.462

> <VdW>
0.723

> <VdW6>
-6.379

> <VdW12>
7.102

> <Bond>
0.164

> <Angle>
0.634

> <Pdih>
1.863

> <Idih>
0.000

> <Tether>
0.000

$$$$
VeraChem MOL file


 26 25  0  0  0  0  0  0  0  0999 V2000     
   21.1081   19.2584   19.5798 C   0  0  0  0  0  0  0  0  0  0  0  0
   21.8972   18.9232   20.2642 H   0  0  0  0  0  0  0  0  0  0  0  0
   21.3980   18.9509   18.5667 H   0  0  0  0  0  0  0  0  0  0  0  0
   21.0764   20.3554   19.6014 H   0  0  0  0  0  0  0  0  0  0  0  0
   19.7358   18.6551   19.9561 C   0  0  0  0  0  0  0  0  0  0  0  0
   19.8018   17.5581   19.9563 H   0  0  0  0  0  0  0  0  0  0  0  0
   19.0075   18.9189   19.1765 H   0  0  0  0  0  0  0  0  0  0  0  0
   19.2008   19.1477   21.3224 C   0  0  0  0  0  0  0  0  0  0  0  0
   19.1166   20.2431   21.3099 H   0  0  0  0  0  0  0  0  0  0  0  0
   18.1812   18.7609   21.4574 H   0  0  0  0  0  0  0  0  0  0  0  0
   20.0723   18.7046   22.5220 C   0  0  0  0  0  0  0  0  0  0  0  0
   21.0755   19.1426   22.4371 H   0  0  0  0  0  0  0  0  0  0  0  0
   20.1973   17.6131   22.5011 H   0  0  0  0  0  0  0  0  0  0  0  0
   19.4481   19.1270   23.8713 C   0  0  0  0  0  0  0  0  0  0  0  0
   19.3197   20.2183   23.8909 H   0  0  0  0  0  0  0  0  0  0  0  0
   18.4455   18.6873   23.9668 H   0  0  0  0  0  0  0  0  0  0  0  0
   20.3177   18.6894   25.0705 C   0  0  0  0  0  0  0  0  0  0  0  0
   21.3191   19.1317   24.9824 H   0  0  0  0  0  0  0  0  0  0  0  0
   20.4446   17.5987   25.0569 H   0  0  0  0  0  0  0  0  0  0  0  0
   19.6868   19.1144   26.4082 C   0  0  0  0  0  0  0  0  0  0  0  0
   19.5736   20.2016   26.4330 H   0  0  0  0  0  0  0  0  0  0  0  0
   18.6960   18.6629   26.5078 H   0  0  0  0  0  0  0  0  0  0  0  0
   20.5113   18.7025   27.6107 N   0  3  0  0  0  0  0  0  0  0  0  0
   20.6322   17.6856   27.6611 H   0  0  0  0  0  0  0  0  0  0  0  0
   20.0734   18.9950   28.4911 H   0  0  0  0  0  0  0  0  0  0  0  0
   21.4488   19.1173   27.5916 H   0  0  0  0  0  0  0  0  0  0  0  0
  1  2  1  0  0  0  0
  1  3  1  0  0  0  0
  1  4  1  0  0  0  0
  1  5  1  0  0  0  0
  5  6  1  0  0  0  0
  5  7  1  0  0  0  0
  5  8  1  0  0  0  0
  8  9  1  0  0  0  0
  8 10  1  0  0  0  0
  8 11  1  0  0  0  0
 11 12  1  0  0  0  0
 11 13  1  0  0  0  0
 11 14  1  0  0  0  0
 14 15  1  0  0  0  0
 14 16  1  0  0  0  0
 14 17  1  0  0  0  0
 17 18  1  0  0  0  0
 17 19  1  0  0  0  0
 17 20  1  0  0  0  0
 20 21  1  0  0  0  0
 20 22  1  0  0  0  0
 20 23  1  0  0  0  0
 23 24  1  0  0  0  0
 23 25  1  0  0  0  0
 23 26  1  0  0  0  0
M  END
> <VM2 Rank>
7

> <Conf_Id>
1031

> <Probability>
2.58

> <Sum Probability>
29.20

> <Delta G>
0.632

> <G>
48.894

> <E>
16.431

> <-TS>
32.463

> <U+W>
-5.031

> <U>
47.845

> <W>
-52.876

> <W(PB)>
-55.228

> <W(SA)>
2.352

> <Valence>
2.661

> <Coulomb>
44.462

> <VdW>
0.723

> <VdW6>
-6.379

> <VdW12>
7.102

> <Bond>
0.164

> <Angle>
0.634

> <Pdih>
1.863

> <Idih>
0.000

> <Tether>
0.000

$$$$
VeraChem MOL file


 26 25  0  0  0  0  0  0  0  0999 V2000     
   20.1863   19.7828   19.1892 C   0  0  0  0  0  0  0  0  0  0  0  0
   19.1866   20.2303   19.1151 H   0  0  0  0  0  0  0  0  0  0  0  0
   20.9113   20.5118   18.8045 H   0  0  0  0  0  0  0  0  0  0  0  0
   20.2158   18.9014   18.5354 H   0  0  0  0  0  0  0  0  0  0  0  0
   20.5170   19.4033   20.6483 C   0  0  0  0  0  0  0  0  0  0  0  0
   20.5180   20.3143   21.2613 H   0  0  0  0  0  0  0  0  0  0  0  0
   21.5327   18.9862   20.6948 H   0  0  0  0  0  0  0  0  0  0  0  0
   19.5051   18.3791   21.2142 C   0  0  0  0  0  0  0  0  0  0  0  0
   18.4972   18.8166   21.2167 H   0  0  0  0  0  0  0  0  0  0  0  0
   19.4623   17.5112   20.5416 H   0  0  0  0  0  0  0  0  0  0  0  0
   19.8578   17.8796   22.6369 C   0  0  0  0  0  0  0  0  0  0  0  0
   20.8596   17.4282   22.6301 H   0  0  0  0  0  0  0  0  0  0  0  0
   19.1591   17.0751   22.9055 H   0  0  0  0  0  0  0  0  0  0  0  0
   19.7904   18.9867   23.7163 C   0  0  0  0  0  0  0  0  0  0  0  0
   20.5371   19.7634   23.5051 H   0  0  0  0  0  0  0  0  0  0  0  0
   18.8054   19.4728   23.6835 H   0  0  0  0  0  0  0  0  0  0  0  0
   20.0383   18.4224   25.1326 C   0  0  0  0  0  0  0  0  0  0  0  0
   21.0226   17.9366   25.1698 H   0  0  0  0  0  0  0  0  0  0  0  0
   19.2896   17.6521   25.3609 H   0  0  0  0  0  0  0  0  0  0  0  0
   19.9736   19.5298   26.1992 C   0  0  0  0  0  0  0  0  0  0  0  0
   20.7287   20.2912   25.9858 H   0  0  0  0  0  0  0  0  0  0  0  0
   18.9894   20.0055   26.1768 H   0  0  0  0  0  0  0  0  0  0  0  0
   20.2125   19.0153   27.6041 N   0  3  0  0  0  0  0  0  0  0  0  0
   21.1354   18.5790   27.6997 H   0  0  0  0  0  0  0  0  0  0  0  0
   19.5170   18.3133   27.8775 H   0  0  0  0  0  0  0  0  0  0  0  0
   20.1651   19.7687   28.2989 H   0  0  0  0  0  0  0  0  0  0  0  0
  1  2  1  0  0  0  0
  1  3  1  0  0  0  0
  1  4  1  0  0  0  0
  1  5  1  0  0  0  0
  5  6  1  0  0  0  0
  5  7  1  0  0  0  0
  5  8  1  0  0  0  0
  8  9  1  0  0  0  0
  8 10  1  0  0  0  0
  8 11  1  0  0  0  0
 11 12  1  0  0  0  0
 11 13  1  0  0  0  0
 11 14  1  0  0  0  0
 14 15  1  0  0  0  0
 14 16  1  0  0  0  0
 14 17  1  0  0  0  0
 17 18  1  0  0  0  0
 17 19  1  0  0  0  0
 17 20  1  0  0  0  0
 20 21  1  0  0  0  0
 20 22  1  0  0  0  0
 20 23  1  0  0  0  0
 23 24  1  0  0  0  0
 23 25  1  0  0  0  0
 23 26  1  0  0  0  0
M  END
> <VM2 Rank>
8

> <Conf_Id>
1191

> <Probability>
2.45

> <Sum Probability>
31.65

> <Delta G>
0.662

> <G>
48.924

> <E>
16.473

> <-TS>
32.451

> <U+W>
-4.989

> <U>
48.035

> <W>
-53.024

> <W(PB)>
-55.379

> <W(SA)>
2.355

> <Valence>
2.701

> <Coulomb>
44.622

> <VdW>
0.712

> <VdW6>
-6.418

> <VdW12>
7.130

> <Bond>
0.168

> <Angle>
0.659

> <Pdih>
1.875

> <Idih>
0.000

> <Tether>
0.000

$$$$
VeraChem MOL file


 26 25  0  0  0  0  0  0  0  0999 V2000     
   20.8452   19.8696   19.4336 C   0  0  0  0  0  0  0  0  0  0  0  0
   21.8102   20.1734   19.8598 H   0  0  0  0  0  0  0  0  0  0  0  0
   21.0195   19.5525   18.3972 H   0  0  0  0  0  0  0  0  0  0  0  0
   20.1891   20.7496   19.4109 H   0  0  0  0  0  0  0  0  0  0  0  0
   20.2114   18.7262   20.2540 C   0  0  0  0  0  0  0  0  0  0  0  0
   20.8743   17.8498   20.2308 H   0  0  0  0  0  0  0  0  0  0  0  0
   19.2661   18.4212   19.7836 H   0  0  0  0  0  0  0  0  0  0  0  0
   19.9545   19.1467   21.7181 C   0  0  0  0  0  0  0  0  0  0  0  0
   20.9042   19.4572   22.1728 H   0  0  0  0  0  0  0  0  0  0  0  0
   19.2900   20.0216   21.7361 H   0  0  0  0  0  0  0  0  0  0  0  0
   19.3225   17.9994   22.5426 C   0  0  0  0  0  0  0  0  0  0  0  0
   20.0091   17.1421   22.5719 H   0  0  0  0  0  0  0  0  0  0  0  0
   18.4149   17.6499   22.0313 H   0  0  0  0  0  0  0  0  0  0  0  0
   18.9435   18.4101   23.9868 C   0  0  0  0  0  0  0  0  0  0  0  0
   18.2433   19.2565   23.9574 H   0  0  0  0  0  0  0  0  0  0  0  0
   18.4004   17.5770   24.4545 H   0  0  0  0  0  0  0  0  0  0  0  0
   20.1622   18.7718   24.8680 C   0  0  0  0  0  0  0  0  0  0  0  0
   20.6724   19.6552   24.4639 H   0  0  0  0  0  0  0  0  0  0  0  0
   20.8854   17.9456   24.8563 H   0  0  0  0  0  0  0  0  0  0  0  0
   19.7381   19.0592   26.3191 C   0  0  0  0  0  0  0  0  0  0  0  0
   19.0301   19.8921   26.3375 H   0  0  0  0  0  0  0  0  0  0  0  0
   19.2446   18.1788   26.7396 H   0  0  0  0  0  0  0  0  0  0  0  0
   20.9036   19.4161   27.2189 N   0  3  0  0  0  0  0  0  0  0  0  0
   20.5990   19.6030   28.1805 H   0  0  0  0  0  0  0  0  0  0  0  0
   21.3952   20.2548   26.8933 H   0  0  0  0  0  0  0  0  0  0  0  0
   21.5949   18.6603   27.2667 H   0  0  0  0  0  0  0  0  0  0  0  0
  1  2  1  0  0  0  0
  1  3  1  0  0  0  0
  1  4  1  0  0  0  0
  1  5  1  0  0  0  0
  5  6  1  0  0  0  0
  5  7  1  0  0  0  0
  5  8  1  0  0  0  0
  8  9  1  0  0  0  0
  8 10  1  0  0  0  0
  8 11  1  0  0  0  0
 11 12  1  0  0  0  0
 11 13  1  0  0  0  0
 11 14  1  0  0  0  0
 14 15  1  0  0  0  0
 14 16  1  0  0  0  0
 14 17  1  0  0  0  0
 17 18  1  0  0  0  0
 17 19  1  0  0  0  0
 17 20  1  0  0  0  0
 20 21  1  0  0  0  0
 20 22  1  0  0  0  0
 20 23  1  0  0  0  0
 23 24  1  0  0  0  0
 23 25  1  0  0  0  0
 23 26  1  0  0  0  0
M  END
> <VM2 Rank>
9

> <Conf_Id>
611

> <Probability>
2.44

> <Sum Probability>
34.09

> <Delta G>
0.664

> <G>
48.926

> <E>
16.473

> <-TS>
32.453

> <U+W>
-4.989

> <U>
48.214

> <W>
-53.203

> <W(PB)>
-55.543

> <W(SA)>
2.340

> <Valence>
2.697

> <Coulomb>
44.818

> <VdW>
0.698

> <VdW6>
-6.437

> <VdW12>
7.136

> <Bond>
0.168

> <Angle>
0.657

> <Pdih>
1.873

> <Idih>
0.000

> <Tether>
0.000

$$$$
VeraChem MOL file


 26 25  0  0  0  0  0  0  0  0999 V2000     
   19.3439   19.2272   19.1611 C   0  0  0  0  0  0  0  0  0  0  0  0
   20.1724   18.8733   18.5339 H   0  0  0  0  0  0  0  0  0  0  0  0
   18.4077   18.8601   18.7208 H   0  0  0  0  0  0  0  0  0  0  0  0
   19.3283   20.3241   19.1201 H   0  0  0  0  0  0  0  0  0  0  0  0
   19.4949   18.7288   20.6141 C   0  0  0  0  0  0  0  0  0  0  0  0
   19.4776   17.6300   20.6257 H   0  0  0  0  0  0  0  0  0  0  0  0
   18.6290   19.0676   21.1982 H   0  0  0  0  0  0  0  0  0  0  0  0
   20.8064   19.2376   21.2577 C   0  0  0  0  0  0  0  0  0  0  0  0
   21.6518   18.9558   20.6149 H   0  0  0  0  0  0  0  0  0  0  0  0
   20.7997   20.3358   21.2938 H   0  0  0  0  0  0  0  0  0  0  0  0
   21.0606   18.6731   22.6771 C   0  0  0  0  0  0  0  0  0  0  0  0
   22.0612   18.9898   23.0025 H   0  0  0  0  0  0  0  0  0  0  0  0
   21.0825   17.5752   22.6375 H   0  0  0  0  0  0  0  0  0  0  0  0
   20.0198   19.1380   23.7240 C   0  0  0  0  0  0  0  0  0  0  0  0
   19.9613   20.2354   23.7221 H   0  0  0  0  0  0  0  0  0  0  0  0
   19.0231   18.7645   23.4544 H   0  0  0  0  0  0  0  0  0  0  0  0
   20.3749   18.6444   25.1439 C   0  0  0  0  0  0  0  0  0  0  0  0
   21.3658   19.0216   25.4302 H   0  0  0  0  0  0  0  0  0  0  0  0
   20.4331   17.5478   25.1502 H   0  0  0  0  0  0  0  0  0  0  0  0
   19.3335   19.1076   26.1779 C   0  0  0  0  0  0  0  0  0  0  0  0
   19.2840   20.1998   26.1867 H   0  0  0  0  0  0  0  0  0  0  0  0
   18.3477   18.7206   25.9063 H   0  0  0  0  0  0  0  0  0  0  0  0
   19.6470   18.6423   27.5852 N   0  3  0  0  0  0  0  0  0  0  0  0
   18.9414   18.9615   28.2581 H   0  0  0  0  0  0  0  0  0  0  0  0
   20.5522   18.9960   27.9120 H   0  0  0  0  0  0  0  0  0  0  0  0
   19.6809   17.6197   27.6511 H   0  0  0  0  0  0  0  0  0  0  0  0
  1  2  1  0  0  0  0
  1  3  1  0  0  0  0
  1  4  1  0  0  0  0
  1  5  1  0  0  0  0
  5  6  1  0  0  0  0
  5  7  1  0  0  0  0
  5  8  1  0  0  0  0
  8  9  1  0  0  0  0
  8 10  1  0  0  0  0
  8 11  1  0  0  0  0
 11 12  1  0  0  0  0
 11 13  1  0  0  0  0
 11 14  1  0  0  0  0
 14 15  1  0  0  0  0
 14 16  1  0  0  0  0
 14 17  1  0  0  0  0
 17 18  1  0  0  0  0
 17 19  1  0  0  0  0
 17 20  1  0  0  0  0
 20 21  1  0  0  0  0
 20 22  1  0  0  0  0
 20 23  1  0  0  0  0
 23 24  1  0  0  0  0
 23 25  1  0  0  0  0
 23 26  1  0  0  0  0
M  END
> <VM2 Rank>
10

> <Conf_Id>
613

> <Probability>
2.42

> <Sum Probability>
36.51

> <Delta G>
0.669

> <G>
48.931

> <E>
16.480

> <-TS>
32.451

> <U+W>
-4.982

> <U>
48.035

> <W>
-53.017

> <W(PB)>
-55.374

> <W(SA)>
2.357

> <Valence>
2.701

> <Coulomb>
44.622

> <VdW>
0.712

> <VdW6>
-6.418

> <VdW12>
7.129

> <Bond>
0.168

> <Angle>
0.659

> <Pdih>
1.875

> <Idih>
0.000

> <Tether>
0.000

$$$$
VeraChem MOL file


 26 25  0  0  0  0  0  0  0  0999 V2000     
   18.9940   18.6487   19.3718 C   0  0  0  0  0  0  0  0  0  0  0  0
   18.3165   17.8688   19.7431 H   0  0  0  0  0  0  0  0  0  0  0  0
   18.4442   19.5987   19.3528 H   0  0  0  0  0  0  0  0  0  0  0  0
   19.2650   18.3956   18.3386 H   0  0  0  0  0  0  0  0  0  0  0  0
   20.2550   18.7551   20.2554 C   0  0  0  0  0  0  0  0  0  0  0  0
   20.9279   19.5178   19.8392 H   0  0  0  0  0  0  0  0  0  0  0  0
   20.8009   17.8016   20.2282 H   0  0  0  0  0  0  0  0  0  0  0  0
   19.9015   19.1117   21.7164 C   0  0  0  0  0  0  0  0  0  0  0  0
   19.3579   20.0662   21.7386 H   0  0  0  0  0  0  0  0  0  0  0  0
   19.2224   18.3476   22.1166 H   0  0  0  0  0  0  0  0  0  0  0  0
   21.1651   19.2146   22.6041 C   0  0  0  0  0  0  0  0  0  0  0  0
   21.8663   19.9263   22.1466 H   0  0  0  0  0  0  0  0  0  0  0  0
   21.6817   18.2451   22.6277 H   0  0  0  0  0  0  0  0  0  0  0  0
   20.8696   19.6802   24.0512 C   0  0  0  0  0  0  0  0  0  0  0  0
   21.8263   19.8363   24.5690 H   0  0  0  0  0  0  0  0  0  0  0  0
   20.3687   20.6580   24.0285 H   0  0  0  0  0  0  0  0  0  0  0  0
   20.0177   18.6765   24.8631 C   0  0  0  0  0  0  0  0  0  0  0  0
   20.4930   17.6868   24.8431 H   0  0  0  0  0  0  0  0  0  0  0  0
   19.0248   18.5687   24.4088 H   0  0  0  0  0  0  0  0  0  0  0  0
   19.8528   19.1348   26.3229 C   0  0  0  0  0  0  0  0  0  0  0  0
   20.8357   19.2278   26.7928 H   0  0  0  0  0  0  0  0  0  0  0  0
   19.3651   20.1130   26.3487 H   0  0  0  0  0  0  0  0  0  0  0  0
   19.0253   18.1774   27.1560 N   0  3  0  0  0  0  0  0  0  0  0  0
   18.0769   18.0668   26.7823 H   0  0  0  0  0  0  0  0  0  0  0  0
   18.9285   18.5013   28.1246 H   0  0  0  0  0  0  0  0  0  0  0  0
   19.4455   17.2430   27.1947 H   0  0  0  0  0  0  0  0  0  0  0  0
  1  2  1  0  0  0  0
  1  3  1  0  0  0  0
  1  4  1  0  0  0  0
  1  5  1  0  0  0  0
  5  6  1  0  0  0  0
  5  7  1  0  0  0  0
  5  8  1  0  0  0  0
  8  9  1  0  0  0  0
  8 10  1  0  0  0  0
  8 11  1  0  0  0  0
 11 12  1  0  0  0  0
 11 13  1  0  0  0  0
 11 14  1  0  0  0  0
 14 15  1  0  0  0  0
 14 16  1  0  0  0  0
 14 17  1  0  0  0  0
 17 18  1  0  0  0  0
 17 19  1  0  0  0  0
 17 20  1  0  0  0  0
 20 21  1  0  0  0  0
 20 22  1  0  0  0  0
 20 23  1  0  0  0  0
 23 24  1  0  0  0  0
 23 25  1  0  0  0  0
 23 26  1  0  0  0  0
M  END
> <VM2 Rank>
11

> <Conf_Id>
201

> <Probability>
2.36

> <Sum Probability>
38.87

> <Delta G>
0.685

> <G>
48.946

> <E>
16.493

> <-TS>
32.453

> <U+W>
-4.969

> <U>
48.214

> <W>
-53.183

> <W(PB)>
-55.531

> <W(SA)>
2.348

> <Valence>
2.697

> <Coulomb>
44.819

> <VdW>
0.698

> <VdW6>
-6.437

> <VdW12>
7.136

> <Bond>
0.168

> <Angle>
0.657

> <Pdih>
1.872

> <Idih>
0.000

> <Tether>
0.000

$$$$
VeraChem MOL file


 26 25  0  0  0  0  0  0  0  0999 V2000     
   20.5615   19.3880   19.2126 C   0  0  0  0  0  0  0  0  0  0  0  0
   20.9775   20.3972   19.3290 H   0  0  0  0  0  0  0  0  0  0  0  0
   21.1501   18.8672   18.4461 H   0  0  0  0  0  0  0  0  0  0  0  0
   19.5329   19.4829   18.8408 H   0  0  0  0  0  0  0  0  0  0  0  0
   20.5996   18.6148   20.5478 C   0  0  0  0  0  0  0  0  0  0  0  0
   21.6427   18.5065   20.8766 H   0  0  0  0  0  0  0  0  0  0  0  0
   20.2092   17.5992   20.3922 H   0  0  0  0  0  0  0  0  0  0  0  0
   19.7780   19.3270   21.6450 C   0  0  0  0  0  0  0  0  0  0  0  0
   20.1705   20.3423   21.7954 H   0  0  0  0  0  0  0  0  0  0  0  0
   18.7369   19.4352   21.3103 H   0  0  0  0  0  0  0  0  0  0  0  0
   19.8135   18.5555   22.9835 C   0  0  0  0  0  0  0  0  0  0  0  0
   20.8569   18.4447   23.3076 H   0  0  0  0  0  0  0  0  0  0  0  0
   19.4174   17.5418   22.8324 H   0  0  0  0  0  0  0  0  0  0  0  0
   18.9914   19.2724   24.0813 C   0  0  0  0  0  0  0  0  0  0  0  0
   19.3985   20.2777   24.2535 H   0  0  0  0  0  0  0  0  0  0  0  0
   17.9627   19.4175   23.7235 H   0  0  0  0  0  0  0  0  0  0  0  0
   18.9420   18.4877   25.4163 C   0  0  0  0  0  0  0  0  0  0  0  0
   18.4533   17.5187   25.2485 H   0  0  0  0  0  0  0  0  0  0  0  0
   18.3097   19.0292   26.1324 H   0  0  0  0  0  0  0  0  0  0  0  0
   20.3254   18.2403   26.0515 C   0  0  0  0  0  0  0  0  0  0  0  0
   20.2042   17.6610   26.9708 H   0  0  0  0  0  0  0  0  0  0  0  0
   20.9493   17.6613   25.3658 H   0  0  0  0  0  0  0  0  0  0  0  0
   21.0696   19.5133   26.4031 N   0  3  0  0  0  0  0  0  0  0  0  0
   21.9813   19.3164   26.8300 H   0  0  0  0  0  0  0  0  0  0  0  0
   20.5446   20.0889   27.0694 H   0  0  0  0  0  0  0  0  0  0  0  0
   21.2429   20.0903   25.5742 H   0  0  0  0  0  0  0  0  0  0  0  0
  1  2  1  0  0  0  0
  1  3  1  0  0  0  0
  1  4  1  0  0  0  0
  1  5  1  0  0  0  0
  5  6  1  0  0  0  0
  5  7  1  0  0  0  0
  5  8  1  0  0  0  0
  8  9  1  0  0  0  0
  8 10  1  0  0  0  0
  8 11  1  0  0  0  0
 11 12  1  0  0  0  0
 11 13  1  0  0  0  0
 11 14  1  0  0  0  0
 14 15  1  0  0  0  0
 14 16  1  0  0  0  0
 14 17  1  0  0  0  0
 17 18  1  0  0  0  0
 17 19  1  0  0  0  0
 17 20  1  0  0  0  0
 20 21  1  0  0  0  0
 20 22  1  0  0  0  0
 20 23  1  0  0  0  0
 23 24  1  0  0  0  0
 23 25  1  0  0  0  0
 23 26  1  0  0  0  0
M  END
> <VM2 Rank>
12

> <Conf_Id>
1290

> <Probability>
1.82

> <Sum Probability>
40.68

> <Delta G>
0.840

> <G>
49.101

> <E>
16.464

> <-TS>
32.637

> <U+W>
-4.998

> <U>
48.668

> <W>
-53.666

> <W(PB)>
-55.975

> <W(SA)>
2.309

> <Valence>
2.543

> <Coulomb>
45.478

> <VdW>
0.646

> <VdW6>
-7.095

> <VdW12>
7.742

> <Bond>
0.176

> <Angle>
0.630

> <Pdih>
1.738

> <Idih>
0.000

> <Tether>
0.000

$$$$
VeraChem MOL file


 26 25  0  0  0  0  0  0  0  0999 V2000     
   19.4647   18.1894   19.6038 C   0  0  0  0  0  0  0  0  0  0  0  0
   18.3890   18.3724   19.7236 H   0  0  0  0  0  0  0  0  0  0  0  0
   19.6545   17.9869   18.5418 H   0  0  0  0  0  0  0  0  0  0  0  0
   19.7242   17.2824   20.1636 H   0  0  0  0  0  0  0  0  0  0  0  0
   20.2917   19.4059   20.0784 C   0  0  0  0  0  0  0  0  0  0  0  0
   20.0869   20.2550   19.4115 H   0  0  0  0  0  0  0  0  0  0  0  0
   21.3637   19.1865   19.9765 H   0  0  0  0  0  0  0  0  0  0  0  0
   19.9805   19.8314   21.5337 C   0  0  0  0  0  0  0  0  0  0  0  0
   20.5243   20.7616   21.7486 H   0  0  0  0  0  0  0  0  0  0  0  0
   18.9119   20.0698   21.6254 H   0  0  0  0  0  0  0  0  0  0  0  0
   20.3696   18.7643   22.5848 C   0  0  0  0  0  0  0  0  0  0  0  0
   21.4258   18.4903   22.4552 H   0  0  0  0  0  0  0  0  0  0  0  0
   19.7810   17.8512   22.4260 H   0  0  0  0  0  0  0  0  0  0  0  0
   20.1401   19.2695   24.0273 C   0  0  0  0  0  0  0  0  0  0  0  0
   20.7335   20.1788   24.1967 H   0  0  0  0  0  0  0  0  0  0  0  0
   19.0852   19.5498   24.1481 H   0  0  0  0  0  0  0  0  0  0  0  0
   20.5246   18.2012   25.0780 C   0  0  0  0  0  0  0  0  0  0  0  0
   21.5695   17.9001   24.9249 H   0  0  0  0  0  0  0  0  0  0  0  0
   19.9147   17.2987   24.9381 H   0  0  0  0  0  0  0  0  0  0  0  0
   20.3702   18.7069   26.5254 C   0  0  0  0  0  0  0  0  0  0  0  0
   20.7344   17.9427   27.2174 H   0  0  0  0  0  0  0  0  0  0  0  0
   20.9717   19.6089   26.6663 H   0  0  0  0  0  0  0  0  0  0  0  0
   18.9396   19.0305   26.9096 N   0  3  0  0  0  0  0  0  0  0  0  0
   18.8698   19.3517   27.8813 H   0  0  0  0  0  0  0  0  0  0  0  0
   18.3271   18.2134   26.8197 H   0  0  0  0  0  0  0  0  0  0  0  0
   18.5463   19.7706   26.3201 H   0  0  0  0  0  0  0  0  0  0  0  0
  1  2  1  0  0  0  0
  1  3  1  0  0  0  0
  1  4  1  0  0  0  0
  1  5  1  0  0  0  0
  5  6  1  0  0  0  0
  5  7  1  0  0  0  0
  5  8  1  0  0  0  0
  8  9  1  0  0  0  0
  8 10  1  0  0  0  0
  8 11  1  0  0  0  0
 11 12  1  0  0  0  0
 11 13  1  0  0  0  0
 11 14  1  0  0  0  0
 14 15  1  0  0  0  0
 14 16  1  0  0  0  0
 14 17  1  0  0  0  0
 17 18  1  0  0  0  0
 17 19  1  0  0  0  0
 17 20  1  0  0  0  0
 20 21  1  0  0  0  0
 20 22  1  0  0  0  0
 20 23  1  0  0  0  0
 23 24  1  0  0  0  0
 23 25  1  0  0  0  0
 23 26  1  0  0  0  0
M  END
> <VM2 Rank>
13

> <Conf_Id>
1362

> <Probability>
1.76

> <Sum Probability>
42.45

> <Delta G>
0.858

> <G>
49.120

> <E>
16.554

> <-TS>
32.566

> <U+W>
-4.908

> <U>
48.485

> <W>
-53.394

> <W(PB)>
-55.718

> <W(SA)>
2.324

> <Valence>
2.763

> <Coulomb>
44.894

> <VdW>
0.828

> <VdW6>
-6.904

> <VdW12>
7.733

> <Bond>
0.184

> <Angle>
0.674

> <Pdih>
1.904

> <Idih>
0.000

> <Tether>
0.000

$$$$
VeraChem MOL file


 26 25  0  0  0  0  0  0  0  0999 V2000     
   21.0710   19.2505   19.6574 C   0  0  0  0  0  0  0  0  0  0  0  0
   21.7772   18.6386   20.2322 H   0  0  0  0  0  0  0  0  0  0  0  0
   21.2323   19.0291   18.5945 H   0  0  0  0  0  0  0  0  0  0  0  0
   21.3182   20.3074   19.8213 H   0  0  0  0  0  0  0  0  0  0  0  0
   19.6074   18.9539   20.0556 C   0  0  0  0  0  0  0  0  0  0  0  0
   19.3942   17.8855   19.9107 H   0  0  0  0  0  0  0  0  0  0  0  0
   18.9381   19.4961   19.3731 H   0  0  0  0  0  0  0  0  0  0  0  0
   19.2705   19.3623   21.5100 C   0  0  0  0  0  0  0  0  0  0  0  0
   19.4653   20.4353   21.6440 H   0  0  0  0  0  0  0  0  0  0  0  0
   18.1927   19.2215   21.6707 H   0  0  0  0  0  0  0  0  0  0  0  0
   20.0500   18.5531   22.5742 C   0  0  0  0  0  0  0  0  0  0  0  0
   21.1269   18.7401   22.4710 H   0  0  0  0  0  0  0  0  0  0  0  0
   19.8943   17.4788   22.4040 H   0  0  0  0  0  0  0  0  0  0  0  0
   19.6084   18.9183   24.0095 C   0  0  0  0  0  0  0  0  0  0  0  0
   19.7580   19.9942   24.1706 H   0  0  0  0  0  0  0  0  0  0  0  0
   18.5326   18.7250   24.1232 H   0  0  0  0  0  0  0  0  0  0  0  0
   20.3910   18.1129   25.0736 C   0  0  0  0  0  0  0  0  0  0  0  0
   21.4656   18.3231   24.9899 H   0  0  0  0  0  0  0  0  0  0  0  0
   20.2659   17.0389   24.8813 H   0  0  0  0  0  0  0  0  0  0  0  0
   19.9193   18.4090   26.5103 C   0  0  0  0  0  0  0  0  0  0  0  0
   18.8483   18.2060   26.5953 H   0  0  0  0  0  0  0  0  0  0  0  0
   20.4470   17.7528   27.2078 H   0  0  0  0  0  0  0  0  0  0  0  0
   20.1636   19.8391   26.9504 N   0  3  0  0  0  0  0  0  0  0  0  0
   21.1584   20.0840   26.9142 H   0  0  0  0  0  0  0  0  0  0  0  0
   19.8505   19.9996   27.9141 H   0  0  0  0  0  0  0  0  0  0  0  0
   19.6645   20.5094   26.3575 H   0  0  0  0  0  0  0  0  0  0  0  0
  1  2  1  0  0  0  0
  1  3  1  0  0  0  0
  1  4  1  0  0  0  0
  1  5  1  0  0  0  0
  5  6  1  0  0  0  0
  5  7  1  0  0  0  0
  5  8  1  0  0  0  0
  8  9  1  0  0  0  0
  8 10  1  0  0  0  0
  8 11  1  0  0  0  0
 11 12  1  0  0  0  0
 11 13  1  0  0  0  0
 11 14  1  0  0  0  0
 14 15  1  0  0  0  0
 14 16  1  0  0  0  0
 14 17  1  0  0  0  0
 17 18  1  0  0  0  0
 17 19  1  0  0  0  0
 17 20  1  0  0  0  0
 20 21  1  0  0  0  0
 20 22  1  0  0  0  0
 20 23  1  0  0  0  0
 23 24  1  0  0  0  0
 23 25  1  0  0  0  0
 23 26  1  0  0  0  0
M  END
> <VM2 Rank>
14

> <Conf_Id>
1271

> <Probability>
1.74

> <Sum Probability>
44.18

> <Delta G>
0.867

> <G>
49.128

> <E>
16.562

> <-TS>
32.566

> <U+W>
-4.899

> <U>
48.486

> <W>
-53.385

> <W(PB)>
-55.716

> <W(SA)>
2.331

> <Valence>
2.763

> <Coulomb>
44.894

> <VdW>
0.829

> <VdW6>
-6.904

> <VdW12>
7.733

> <Bond>
0.184

> <Angle>
0.674

> <Pdih>
1.904

> <Idih>
0.000

> <Tether>
0.000

$$$$
VeraChem MOL file


 26 25  0  0  0  0  0  0  0  0999 V2000     
   19.5583   18.7264   19.1789 C   0  0  0  0  0  0  0  0  0  0  0  0
   18.4625   18.7387   19.2446 H   0  0  0  0  0  0  0  0  0  0  0  0
   19.8925   19.7199   18.8528 H   0  0  0  0  0  0  0  0  0  0  0  0
   19.8412   18.0040   18.4023 H   0  0  0  0  0  0  0  0  0  0  0  0
   20.1911   18.3454   20.5341 C   0  0  0  0  0  0  0  0  0  0  0  0
   21.2844   18.3082   20.4283 H   0  0  0  0  0  0  0  0  0  0  0  0
   19.8655   17.3346   20.8171 H   0  0  0  0  0  0  0  0  0  0  0  0
   19.8085   19.3472   21.6460 C   0  0  0  0  0  0  0  0  0  0  0  0
   20.1337   20.3563   21.3570 H   0  0  0  0  0  0  0  0  0  0  0  0
   18.7149   19.3825   21.7466 H   0  0  0  0  0  0  0  0  0  0  0  0
   20.4408   18.9692   23.0045 C   0  0  0  0  0  0  0  0  0  0  0  0
   21.5344   18.9378   22.9032 H   0  0  0  0  0  0  0  0  0  0  0  0
   20.1176   17.9573   23.2829 H   0  0  0  0  0  0  0  0  0  0  0  0
   20.0542   19.9733   24.1168 C   0  0  0  0  0  0  0  0  0  0  0  0
   20.3416   20.9864   23.8029 H   0  0  0  0  0  0  0  0  0  0  0  0
   18.9629   19.9905   24.2391 H   0  0  0  0  0  0  0  0  0  0  0  0
   20.7323   19.6684   25.4760 C   0  0  0  0  0  0  0  0  0  0  0  0
   20.4501   20.4407   26.2038 H   0  0  0  0  0  0  0  0  0  0  0  0
   21.8220   19.7403   25.3609 H   0  0  0  0  0  0  0  0  0  0  0  0
   20.3868   18.2807   26.0535 C   0  0  0  0  0  0  0  0  0  0  0  0
   20.7054   17.5004   25.3577 H   0  0  0  0  0  0  0  0  0  0  0  0
   20.9238   18.1355   26.9948 H   0  0  0  0  0  0  0  0  0  0  0  0
   18.9090   18.0884   26.3311 N   0  3  0  0  0  0  0  0  0  0  0  0
   18.7119   17.1603   26.7211 H   0  0  0  0  0  0  0  0  0  0  0  0
   18.3495   18.1821   25.4778 H   0  0  0  0  0  0  0  0  0  0  0  0
   18.5555   18.7771   27.0032 H   0  0  0  0  0  0  0  0  0  0  0  0
  1  2  1  0  0  0  0
  1  3  1  0  0  0  0
  1  4  1  0  0  0  0
  1  5  1  0  0  0  0
  5  6  1  0  0  0  0
  5  7  1  0  0  0  0
  5  8  1  0  0  0  0
  8  9  1  0  0  0  0
  8 10  1  0  0  0  0
  8 11  1  0  0  0  0
 11 12  1  0  0  0  0
 11 13  1  0  0  0  0
 11 14  1  0  0  0  0
 14 15  1  0  0  0  0
 14 16  1  0  0  0  0
 14 17  1  0  0  0  0
 17 18  1  0  0  0  0
 17 19  1  0  0  0  0
 17 20  1  0  0  0  0
 20 21  1  0  0  0  0
 20 22  1  0  0  0  0
 20 23  1  0  0  0  0
 23 24  1  0  0  0  0
 23 25  1  0  0  0  0
 23 26  1  0  0  0  0
M  END
> <VM2 Rank>
15

> <Conf_Id>
176

> <Probability>
1.71

> <Sum Probability>
45.90

> <Delta G>
0.875

> <G>
49.136

> <E>
16.499

> <-TS>
32.637

> <U+W>
-4.963

> <U>
48.668

> <W>
-53.630

> <W(PB)>
-55.948

> <W(SA)>
2.318

> <Valence>
2.543

> <Coulomb>
45.478

> <VdW>
0.646

> <VdW6>
-7.095

> <VdW12>
7.741

> <Bond>
0.176

> <Angle>
0.630

> <Pdih>
1.738

> <Idih>
0.000

> <Tether>
0.000

$$$$
VeraChem MOL file


 26 25  0  0  0  0  0  0  0  0999 V2000     
   19.3225   18.9187   19.4841 C   0  0  0  0  0  0  0  0  0  0  0  0
   18.6163   18.2657   20.0118 H   0  0  0  0  0  0  0  0  0  0  0  0
   18.9169   19.9387   19.4873 H   0  0  0  0  0  0  0  0  0  0  0  0
   19.3691   18.5792   18.4413 H   0  0  0  0  0  0  0  0  0  0  0  0
   20.7262   18.8766   20.1296 C   0  0  0  0  0  0  0  0  0  0  0  0
   21.4231   19.4455   19.4984 H   0  0  0  0  0  0  0  0  0  0  0  0
   21.0967   17.8421   20.1415 H   0  0  0  0  0  0  0  0  0  0  0  0
   20.7627   19.4621   21.5620 C   0  0  0  0  0  0  0  0  0  0  0  0
   21.8082   19.4957   21.8981 H   0  0  0  0  0  0  0  0  0  0  0  0
   20.4110   20.5029   21.5418 H   0  0  0  0  0  0  0  0  0  0  0  0
   19.9297   18.6492   22.5819 C   0  0  0  0  0  0  0  0  0  0  0  0
   20.2495   17.5983   22.5620 H   0  0  0  0  0  0  0  0  0  0  0  0
   18.8697   18.6660   22.2961 H   0  0  0  0  0  0  0  0  0  0  0  0
   20.0765   19.2062   24.0161 C   0  0  0  0  0  0  0  0  0  0  0  0
   21.1360   19.1892   24.3043 H   0  0  0  0  0  0  0  0  0  0  0  0
   19.7573   20.2576   24.0353 H   0  0  0  0  0  0  0  0  0  0  0  0
   19.2414   18.3956   25.0354 C   0  0  0  0  0  0  0  0  0  0  0  0
   19.5731   17.3488   25.0461 H   0  0  0  0  0  0  0  0  0  0  0  0
   18.1896   18.3877   24.7195 H   0  0  0  0  0  0  0  0  0  0  0  0
   19.3174   18.9741   26.4615 C   0  0  0  0  0  0  0  0  0  0  0  0
   18.9936   20.0183   26.4530 H   0  0  0  0  0  0  0  0  0  0  0  0
   18.6445   18.4138   27.1164 H   0  0  0  0  0  0  0  0  0  0  0  0
   20.7048   18.9165   27.0704 N   0  3  0  0  0  0  0  0  0  0  0  0
   20.7185   19.2968   28.0230 H   0  0  0  0  0  0  0  0  0  0  0  0
   21.3825   19.4554   26.5226 H   0  0  0  0  0  0  0  0  0  0  0  0
   21.0562   17.9551   27.1268 H   0  0  0  0  0  0  0  0  0  0  0  0
  1  2  1  0  0  0  0
  1  3  1  0  0  0  0
  1  4  1  0  0  0  0
  1  5  1  0  0  0  0
  5  6  1  0  0  0  0
  5  7  1  0  0  0  0
  5  8  1  0  0  0  0
  8  9  1  0  0  0  0
  8 10  1  0  0  0  0
  8 11  1  0  0  0  0
 11 12  1  0  0  0  0
 11 13  1  0  0  0  0
 11 14  1  0  0  0  0
 14 15  1  0  0  0  0
 14 16  1  0  0  0  0
 14 17  1  0  0  0  0
 17 18  1  0  0  0  0
 17 19  1  0  0  0  0
 17 20  1  0  0  0  0
 20 21  1  0  0  0  0
 20 22  1  0  0  0  0
 20 23  1  0  0  0  0
 23 24  1  0  0  0  0
 23 25  1  0  0  0  0
 23 26  1  0  0  0  0
M  END
> <VM2 Rank>
16

> <Conf_Id>
946

> <Probability>
1.68

> <Sum Probability>
47.58

> <Delta G>
0.886

> <G>
49.148

> <E>
16.582

> <-TS>
32.565

> <U+W>
-4.879

> <U>
48.461

> <W>
-53.341

> <W(PB)>
-55.653

> <W(SA)>
2.313

> <Valence>
2.761

> <Coulomb>
44.868

> <VdW>
0.832

> <VdW6>
-6.903

> <VdW12>
7.735

> <Bond>
0.184

> <Angle>
0.674

> <Pdih>
1.903

> <Idih>
0.000

> <Tether>
0.000

$$$$
VeraChem MOL file


 26 25  0  0  0  0  0  0  0  0999 V2000     
   19.4773   19.8804   19.4236 C   0  0  0  0  0  0  0  0  0  0  0  0
   19.7382   19.7513   18.3651 H   0  0  0  0  0  0  0  0  0  0  0  0
   18.3877   19.7829   19.5163 H   0  0  0  0  0  0  0  0  0  0  0  0
   19.7556   20.9009   19.7171 H   0  0  0  0  0  0  0  0  0  0  0  0
   20.2040   18.8345   20.2954 C   0  0  0  0  0  0  0  0  0  0  0  0
   21.2896   18.9347   20.1564 H   0  0  0  0  0  0  0  0  0  0  0  0
   19.9327   17.8252   19.9554 H   0  0  0  0  0  0  0  0  0  0  0  0
   19.8533   18.9934   21.7915 C   0  0  0  0  0  0  0  0  0  0  0  0
   20.1206   20.0076   22.1158 H   0  0  0  0  0  0  0  0  0  0  0  0
   18.7676   18.8905   21.9255 H   0  0  0  0  0  0  0  0  0  0  0  0
   20.5847   17.9476   22.6670 C   0  0  0  0  0  0  0  0  0  0  0  0
   21.6714   18.0821   22.5754 H   0  0  0  0  0  0  0  0  0  0  0  0
   20.3652   16.9422   22.2819 H   0  0  0  0  0  0  0  0  0  0  0  0
   20.1795   17.9997   24.1606 C   0  0  0  0  0  0  0  0  0  0  0  0
   19.0964   17.8409   24.2478 H   0  0  0  0  0  0  0  0  0  0  0  0
   20.6590   17.1589   24.6810 H   0  0  0  0  0  0  0  0  0  0  0  0
   20.5814   19.3206   24.8632 C   0  0  0  0  0  0  0  0  0  0  0  0
   20.0332   20.1676   24.4316 H   0  0  0  0  0  0  0  0  0  0  0  0
   21.6484   19.5147   24.6910 H   0  0  0  0  0  0  0  0  0  0  0  0
   20.3317   19.2814   26.3831 C   0  0  0  0  0  0  0  0  0  0  0  0
   20.8763   18.4421   26.8240 H   0  0  0  0  0  0  0  0  0  0  0  0
   20.7032   20.2047   26.8360 H   0  0  0  0  0  0  0  0  0  0  0  0
   18.8691   19.1414   26.7568 N   0  3  0  0  0  0  0  0  0  0  0  0
   18.7355   19.1292   27.7738 H   0  0  0  0  0  0  0  0  0  0  0  0
   18.4655   18.2736   26.3908 H   0  0  0  0  0  0  0  0  0  0  0  0
   18.3065   19.9160   26.3900 H   0  0  0  0  0  0  0  0  0  0  0  0
  1  2  1  0  0  0  0
  1  3  1  0  0  0  0
  1  4  1  0  0  0  0
  1  5  1  0  0  0  0
  5  6  1  0  0  0  0
  5  7  1  0  0  0  0
  5  8  1  0  0  0  0
  8  9  1  0  0  0  0
  8 10  1  0  0  0  0
  8 11  1  0  0  0  0
 11 12  1  0  0  0  0
 11 13  1  0  0  0  0
 11 14  1  0  0  0  0
 14 15  1  0  0  0  0
 14 16  1  0  0  0  0
 14 17  1  0  0  0  0
 17 18  1  0  0  0  0
 17 19  1  0  0  0  0
 17 20  1  0  0  0  0
 20 21  1  0  0  0  0
 20 22  1  0  0  0  0
 20 23  1  0  0  0  0
 23 24  1  0  0  0  0
 23 25  1  0  0  0  0
 23 26  1  0  0  0  0
M  END
> <VM2 Rank>
17

> <Conf_Id>
778

> <Probability>
1.63

> <Sum Probability>
49.21

> <Delta G>
0.906

> <G>
49.167

> <E>
16.600

> <-TS>
32.567

> <U+W>
-4.862

> <U>
48.698

> <W>
-53.559

> <W(PB)>
-55.857

> <W(SA)>
2.298

> <Valence>
2.792

> <Coulomb>
45.121

> <VdW>
0.785

> <VdW6>
-6.973

> <VdW12>
7.758

> <Bond>
0.189

> <Angle>
0.672

> <Pdih>
1.931

> <Idih>
0.000

> <Tether>
0.000

$$$$
VeraChem MOL file


 26 25  0  0  0  0  0  0  0  0999 V2000     
   19.5204   19.9090   19.4251 C   0  0  0  0  0  0  0  0  0  0  0  0
   20.0322   20.8692   19.5714 H   0  0  0  0  0  0  0  0  0  0  0  0
   19.5861   19.6510   18.3601 H   0  0  0  0  0  0  0  0  0  0  0  0
   18.4599   20.0453   19.6740 H   0  0  0  0  0  0  0  0  0  0  0  0
   20.1567   18.8033   20.2939 C   0  0  0  0  0  0  0  0  0  0  0  0
   21.2063   18.6665   19.9979 H   0  0  0  0  0  0  0  0  0  0  0  0
   19.6461   17.8493   20.1015 H   0  0  0  0  0  0  0  0  0  0  0  0
   20.0783   19.1421   21.7990 C   0  0  0  0  0  0  0  0  0  0  0  0
   20.5916   20.0953   21.9865 H   0  0  0  0  0  0  0  0  0  0  0  0
   19.0266   19.2850   22.0793 H   0  0  0  0  0  0  0  0  0  0  0  0
   20.7125   18.0320   22.6713 C   0  0  0  0  0  0  0  0  0  0  0  0
   21.7404   17.8506   22.3278 H   0  0  0  0  0  0  0  0  0  0  0  0
   20.1679   17.0890   22.5251 H   0  0  0  0  0  0  0  0  0  0  0  0
   20.7538   18.3789   24.1798 C   0  0  0  0  0  0  0  0  0  0  0  0
   21.3149   17.5920   24.7028 H   0  0  0  0  0  0  0  0  0  0  0  0
   21.3195   19.3094   24.3221 H   0  0  0  0  0  0  0  0  0  0  0  0
   19.3499   18.5068   24.8220 C   0  0  0  0  0  0  0  0  0  0  0  0
   18.7622   17.6075   24.5948 H   0  0  0  0  0  0  0  0  0  0  0  0
   18.8059   19.3565   24.3906 H   0  0  0  0  0  0  0  0  0  0  0  0
   19.4130   18.6744   26.3524 C   0  0  0  0  0  0  0  0  0  0  0  0
   18.3981   18.6813   26.7591 H   0  0  0  0  0  0  0  0  0  0  0  0
   19.9513   17.8309   26.7932 H   0  0  0  0  0  0  0  0  0  0  0  0
   20.0962   19.9525   26.7975 N   0  3  0  0  0  0  0  0  0  0  0  0
   20.1125   20.0395   27.8195 H   0  0  0  0  0  0  0  0  0  0  0  0
   19.6211   20.7849   26.4337 H   0  0  0  0  0  0  0  0  0  0  0  0
   21.0687   19.9942   26.4774 H   0  0  0  0  0  0  0  0  0  0  0  0
  1  2  1  0  0  0  0
  1  3  1  0  0  0  0
  1  4  1  0  0  0  0
  1  5  1  0  0  0  0
  5  6  1  0  0  0  0
  5  7  1  0  0  0  0
  5  8  1  0  0  0  0
  8  9  1  0  0  0  0
  8 10  1  0  0  0  0
  8 11  1  0  0  0  0
 11 12  1  0  0  0  0
 11 13  1  0  0  0  0
 11 14  1  0  0  0  0
 14 15  1  0  0  0  0
 14 16  1  0  0  0  0
 14 17  1  0  0  0  0
 17 18  1  0  0  0  0
 17 19  1  0  0  0  0
 17 20  1  0  0  0  0
 20 21  1  0  0  0  0
 20 22  1  0  0  0  0
 20 23  1  0  0  0  0
 23 24  1  0  0  0  0
 23 25  1  0  0  0  0
 23 26  1  0  0  0  0
M  END
> <VM2 Rank>
18

> <Conf_Id>
701

> <Probability>
1.58

> <Sum Probability>
50.79

> <Delta G>
0.924

> <G>
49.185

> <E>
16.618

> <-TS>
32.567

> <U+W>
-4.843

> <U>
48.698

> <W>
-53.541

> <W(PB)>
-55.868

> <W(SA)>
2.327

> <Valence>
2.792

> <Coulomb>
45.121

> <VdW>
0.785

> <VdW6>
-6.973

> <VdW12>
7.758

> <Bond>
0.189

> <Angle>
0.672

> <Pdih>
1.931

> <Idih>
0.000

> <Tether>
0.000

$$$$
VeraChem MOL file


 26 25  0  0  0  0  0  0  0  0999 V2000     
   19.5018   19.7818   19.3853 C   0  0  0  0  0  0  0  0  0  0  0  0
   20.1442   19.2403   18.6787 H   0  0  0  0  0  0  0  0  0  0  0  0
   18.4991   19.8507   18.9439 H   0  0  0  0  0  0  0  0  0  0  0  0
   19.8941   20.8016   19.4917 H   0  0  0  0  0  0  0  0  0  0  0  0
   19.4482   19.0633   20.7502 C   0  0  0  0  0  0  0  0  0  0  0  0
   19.0250   18.0580   20.6161 H   0  0  0  0  0  0  0  0  0  0  0  0
   18.7658   19.6106   21.4139 H   0  0  0  0  0  0  0  0  0  0  0  0
   20.8507   18.9580   21.3945 C   0  0  0  0  0  0  0  0  0  0  0  0
   21.5357   18.4790   20.6812 H   0  0  0  0  0  0  0  0  0  0  0  0
   21.2511   19.9648   21.5770 H   0  0  0  0  0  0  0  0  0  0  0  0
   20.8686   18.1453   22.7124 C   0  0  0  0  0  0  0  0  0  0  0  0
   21.9130   18.0243   23.0317 H   0  0  0  0  0  0  0  0  0  0  0  0
   20.4844   17.1331   22.5249 H   0  0  0  0  0  0  0  0  0  0  0  0
   20.0652   18.8060   23.8584 C   0  0  0  0  0  0  0  0  0  0  0  0
   20.4156   19.8373   23.9978 H   0  0  0  0  0  0  0  0  0  0  0  0
   19.0026   18.8618   23.5876 H   0  0  0  0  0  0  0  0  0  0  0  0
   20.2065   18.0192   25.1829 C   0  0  0  0  0  0  0  0  0  0  0  0
   21.2601   17.9848   25.4905 H   0  0  0  0  0  0  0  0  0  0  0  0
   19.8926   16.9790   25.0229 H   0  0  0  0  0  0  0  0  0  0  0  0
   19.3576   18.6148   26.3227 C   0  0  0  0  0  0  0  0  0  0  0  0
   18.3084   18.6554   26.0178 H   0  0  0  0  0  0  0  0  0  0  0  0
   19.4319   17.9721   27.2041 H   0  0  0  0  0  0  0  0  0  0  0  0
   19.7824   20.0107   26.7346 N   0  3  0  0  0  0  0  0  0  0  0  0
   19.2066   20.3727   27.5025 H   0  0  0  0  0  0  0  0  0  0  0  0
   19.7019   20.6763   25.9597 H   0  0  0  0  0  0  0  0  0  0  0  0
   20.7562   20.0335   27.0542 H   0  0  0  0  0  0  0  0  0  0  0  0
  1  2  1  0  0  0  0
  1  3  1  0  0  0  0
  1  4  1  0  0  0  0
  1  5  1  0  0  0  0
  5  6  1  0  0  0  0
  5  7  1  0  0  0  0
  5  8  1  0  0  0  0
  8  9  1  0  0  0  0
  8 10  1  0  0  0  0
  8 11  1  0  0  0  0
 11 12  1  0  0  0  0
 11 13  1  0  0  0  0
 11 14  1  0  0  0  0
 14 15  1  0  0  0  0
 14 16  1  0  0  0  0
 14 17  1  0  0  0  0
 17 18  1  0  0  0  0
 17 19  1  0  0  0  0
 17 20  1  0  0  0  0
 20 21  1  0  0  0  0
 20 22  1  0  0  0  0
 20 23  1  0  0  0  0
 23 24  1  0  0  0  0
 23 25  1  0  0  0  0
 23 26  1  0  0  0  0
M  END
> <VM2 Rank>
19

> <Conf_Id>
710

> <Probability>
1.54

> <Sum Probability>
52.33

> <Delta G>
0.939

> <G>
49.200

> <E>
16.644

> <-TS>
32.556

> <U+W>
-4.818

> <U>
48.735

> <W>
-53.553

> <W(PB)>
-55.889

> <W(SA)>
2.336

> <Valence>
2.803

> <Coulomb>
45.123

> <VdW>
0.809

> <VdW6>
-6.953

> <VdW12>
7.761

> <Bond>
0.188

> <Angle>
0.699

> <Pdih>
1.917

> <Idih>
0.000

> <Tether>
0.000

$$$$
VeraChem MOL file


 26 25  0  0  0  0  0  0  0  0999 V2000     
   19.6035   19.8490   19.3887 C   0  0  0  0  0  0  0  0  0  0  0  0
   18.5077   19.8860   19.4453 H   0  0  0  0  0  0  0  0  0  0  0  0
   19.9532   20.8112   18.9926 H   0  0  0  0  0  0  0  0  0  0  0  0
   19.8826   19.0675   18.6700 H   0  0  0  0  0  0  0  0  0  0  0  0
   20.2212   19.5739   20.7762 C   0  0  0  0  0  0  0  0  0  0  0  0
   19.9543   20.3957   21.4537 H   0  0  0  0  0  0  0  0  0  0  0  0
   21.3170   19.5720   20.6930 H   0  0  0  0  0  0  0  0  0  0  0  0
   19.7389   18.2237   21.3573 C   0  0  0  0  0  0  0  0  0  0  0  0
   18.6484   18.2458   21.4898 H   0  0  0  0  0  0  0  0  0  0  0  0
   19.9443   17.4279   20.6279 H   0  0  0  0  0  0  0  0  0  0  0  0
   20.4175   17.8473   22.6973 C   0  0  0  0  0  0  0  0  0  0  0  0
   21.5069   17.8083   22.5592 H   0  0  0  0  0  0  0  0  0  0  0  0
   20.1049   16.8301   22.9712 H   0  0  0  0  0  0  0  0  0  0  0  0
   20.0715   18.8101   23.8586 C   0  0  0  0  0  0  0  0  0  0  0  0
   20.4489   19.8168   23.6360 H   0  0  0  0  0  0  0  0  0  0  0  0
   18.9800   18.8892   23.9497 H   0  0  0  0  0  0  0  0  0  0  0  0
   20.6775   18.3302   25.1987 C   0  0  0  0  0  0  0  0  0  0  0  0
   21.7637   18.2145   25.0855 H   0  0  0  0  0  0  0  0  0  0  0  0
   20.2821   17.3390   25.4578 H   0  0  0  0  0  0  0  0  0  0  0  0
   20.4096   19.3094   26.3579 C   0  0  0  0  0  0  0  0  0  0  0  0
   20.9300   18.9613   27.2543 H   0  0  0  0  0  0  0  0  0  0  0  0
   20.7975   20.2988   26.1011 H   0  0  0  0  0  0  0  0  0  0  0  0
   18.9413   19.4555   26.7064 N   0  3  0  0  0  0  0  0  0  0  0  0
   18.7984   20.1034   27.4888 H   0  0  0  0  0  0  0  0  0  0  0  0
   18.5239   18.5598   26.9794 H   0  0  0  0  0  0  0  0  0  0  0  0
   18.3974   19.8151   25.9159 H   0  0  0  0  0  0  0  0  0  0  0  0
  1  2  1  0  0  0  0
  1  3  1  0  0  0  0
  1  4  1  0  0  0  0
  1  5  1  0  0  0  0
  5  6  1  0  0  0  0
  5  7  1  0  0  0  0
  5  8  1  0  0  0  0
  8  9  1  0  0  0  0
  8 10  1  0  0  0  0
  8 11  1  0  0  0  0
 11 12  1  0  0  0  0
 11 13  1  0  0  0  0
 11 14  1  0  0  0  0
 14 15  1  0  0  0  0
 14 16  1  0  0  0  0
 14 17  1  0  0  0  0
 17 18  1  0  0  0  0
 17 19  1  0  0  0  0
 17 20  1  0  0  0  0
 20 21  1  0  0  0  0
 20 22  1  0  0  0  0
 20 23  1  0  0  0  0
 23 24  1  0  0  0  0
 23 25  1  0  0  0  0
 23 26  1  0  0  0  0
M  END
> <VM2 Rank>
20

> <Conf_Id>
418

> <Probability>
1.51

> <Sum Probability>
53.83

> <Delta G>
0.952

> <G>
49.214

> <E>
16.658

> <-TS>
32.556

> <U+W>
-4.804

> <U>
48.735

> <W>
-53.539

> <W(PB)>
-55.859

> <W(SA)>
2.320

> <Valence>
2.803

> <Coulomb>
45.123

> <VdW>
0.809

> <VdW6>
-6.953

> <VdW12>
7.761

> <Bond>
0.188

> <Angle>
0.699

> <Pdih>
1.917

> <Idih>
0.000

> <Tether>
0.000

$$$$
VeraChem MOL file


 26 25  0  0  0  0  0  0  0  0999 V2000     
   20.7702   19.7658   19.4728 C   0  0  0  0  0  0  0  0  0  0  0  0
   20.4259   19.0384   18.7261 H   0  0  0  0  0  0  0  0  0  0  0  0
   20.1263   20.6527   19.4086 H   0  0  0  0  0  0  0  0  0  0  0  0
   21.7898   20.0692   19.2019 H   0  0  0  0  0  0  0  0  0  0  0  0
   20.7407   19.1608   20.8924 C   0  0  0  0  0  0  0  0  0  0  0  0
   21.1299   19.9020   21.6029 H   0  0  0  0  0  0  0  0  0  0  0  0
   21.4156   18.2945   20.9331 H   0  0  0  0  0  0  0  0  0  0  0  0
   19.3116   18.7294   21.2985 C   0  0  0  0  0  0  0  0  0  0  0  0
   18.6492   19.6060   21.3103 H   0  0  0  0  0  0  0  0  0  0  0  0
   18.9122   18.0521   20.5309 H   0  0  0  0  0  0  0  0  0  0  0  0
   19.2457   18.0103   22.6683 C   0  0  0  0  0  0  0  0  0  0  0  0
   19.8972   17.1256   22.6508 H   0  0  0  0  0  0  0  0  0  0  0  0
   18.2228   17.6369   22.8150 H   0  0  0  0  0  0  0  0  0  0  0  0
   19.6276   18.9171   23.8630 C   0  0  0  0  0  0  0  0  0  0  0  0
   20.6719   19.2383   23.7641 H   0  0  0  0  0  0  0  0  0  0  0  0
   19.0093   19.8253   23.8467 H   0  0  0  0  0  0  0  0  0  0  0  0
   19.4386   18.1904   25.2157 C   0  0  0  0  0  0  0  0  0  0  0  0
   20.0733   17.2950   25.2538 H   0  0  0  0  0  0  0  0  0  0  0  0
   18.4005   17.8423   25.3001 H   0  0  0  0  0  0  0  0  0  0  0  0
   19.7488   19.0929   26.4256 C   0  0  0  0  0  0  0  0  0  0  0  0
   19.1239   19.9893   26.3860 H   0  0  0  0  0  0  0  0  0  0  0  0
   19.5150   18.5550   27.3484 H   0  0  0  0  0  0  0  0  0  0  0  0
   21.1977   19.5323   26.5047 N   0  3  0  0  0  0  0  0  0  0  0  0
   21.4746   20.0781   25.6829 H   0  0  0  0  0  0  0  0  0  0  0  0
   21.8354   18.7319   26.5665 H   0  0  0  0  0  0  0  0  0  0  0  0
   21.3730   20.1190   27.3277 H   0  0  0  0  0  0  0  0  0  0  0  0
  1  2  1  0  0  0  0
  1  3  1  0  0  0  0
  1  4  1  0  0  0  0
  1  5  1  0  0  0  0
  5  6  1  0  0  0  0
  5  7  1  0  0  0  0
  5  8  1  0  0  0  0
  8  9  1  0  0  0  0
  8 10  1  0  0  0  0
  8 11  1  0  0  0  0
 11 12  1  0  0  0  0
 11 13  1  0  0  0  0
 11 14  1  0  0  0  0
 14 15  1  0  0  0  0
 14 16  1  0  0  0  0
 14 17  1  0  0  0  0
 17 18  1  0  0  0  0
 17 19  1  0  0  0  0
 17 20  1  0  0  0  0
 20 21  1  0  0  0  0
 20 22  1  0  0  0  0
 20 23  1  0  0  0  0
 23 24  1  0  0  0  0
 23 25  1  0  0  0  0
 23 26  1  0  0  0  0
M  END
> <VM2 Rank>
21

> <Conf_Id>
1004

> <Probability>
1.50

> <Sum Probability>
55.33

> <Delta G>
0.956

> <G>
49.217

> <E>
16.668

> <-TS>
32.549

> <U+W>
-4.794

> <U>
48.945

> <W>
-53.738

> <W(PB)>
-56.050

> <W(SA)>
2.313

> <Valence>
2.802

> <Coulomb>
45.335

> <VdW>
0.807

> <VdW6>
-6.962

> <VdW12>
7.769

> <Bond>
0.189

> <Angle>
0.696

> <Pdih>
1.917

> <Idih>
0.000

> <Tether>
0.000

$$$$
VeraChem MOL file


 26 25  0  0  0  0  0  0  0  0999 V2000     
   20.0932   19.8068   19.2486 C   0  0  0  0  0  0  0  0  0  0  0  0
   19.0415   20.1182   19.2008 H   0  0  0  0  0  0  0  0  0  0  0  0
   20.6970   20.6822   19.5212 H   0  0  0  0  0  0  0  0  0  0  0  0
   20.3964   19.4884   18.2427 H   0  0  0  0  0  0  0  0  0  0  0  0
   20.2869   18.6610   20.2644 C   0  0  0  0  0  0  0  0  0  0  0  0
   21.3407   18.3491   20.2658 H   0  0  0  0  0  0  0  0  0  0  0  0
   19.6986   17.7889   19.9460 H   0  0  0  0  0  0  0  0  0  0  0  0
   19.8662   19.0827   21.6898 C   0  0  0  0  0  0  0  0  0  0  0  0
   20.4540   19.9595   21.9907 H   0  0  0  0  0  0  0  0  0  0  0  0
   18.8117   19.3911   21.6835 H   0  0  0  0  0  0  0  0  0  0  0  0
   20.0643   17.9355   22.7097 C   0  0  0  0  0  0  0  0  0  0  0  0
   21.1276   17.6633   22.7602 H   0  0  0  0  0  0  0  0  0  0  0  0
   19.5347   17.0427   22.3492 H   0  0  0  0  0  0  0  0  0  0  0  0
   19.5465   18.2703   24.1303 C   0  0  0  0  0  0  0  0  0  0  0  0
   18.4814   18.5361   24.0804 H   0  0  0  0  0  0  0  0  0  0  0  0
   19.6088   17.3591   24.7397 H   0  0  0  0  0  0  0  0  0  0  0  0
   20.3362   19.4082   24.8249 C   0  0  0  0  0  0  0  0  0  0  0  0
   20.2425   20.3343   24.2443 H   0  0  0  0  0  0  0  0  0  0  0  0
   21.4058   19.1614   24.8539 H   0  0  0  0  0  0  0  0  0  0  0  0
   19.8353   19.6920   26.2544 C   0  0  0  0  0  0  0  0  0  0  0  0
   20.3603   20.5633   26.6554 H   0  0  0  0  0  0  0  0  0  0  0  0
   18.7661   19.9192   26.2316 H   0  0  0  0  0  0  0  0  0  0  0  0
   20.0524   18.5424   27.2189 N   0  3  0  0  0  0  0  0  0  0  0  0
   19.5537   17.6980   26.9222 H   0  0  0  0  0  0  0  0  0  0  0  0
   19.7218   18.7700   28.1629 H   0  0  0  0  0  0  0  0  0  0  0  0
   21.0442   18.2960   27.3005 H   0  0  0  0  0  0  0  0  0  0  0  0
  1  2  1  0  0  0  0
  1  3  1  0  0  0  0
  1  4  1  0  0  0  0
  1  5  1  0  0  0  0
  5  6  1  0  0  0  0
  5  7  1  0  0  0  0
  5  8  1  0  0  0  0
  8  9  1  0  0  0  0
  8 10  1  0  0  0  0
  8 11  1  0  0  0  0
 11 12  1  0  0  0  0
 11 13  1  0  0  0  0
 11 14  1  0  0  0  0
 14 15  1  0  0  0  0
 14 16  1  0  0  0  0
 14 17  1  0  0  0  0
 17 18  1  0  0  0  0
 17 19  1  0  0  0  0
 17 20  1  0  0  0  0
 20 21  1  0  0  0  0
 20 22  1  0  0  0  0
 20 23  1  0  0  0  0
 23 24  1  0  0  0  0
 23 25  1  0  0  0  0
 23 26  1  0  0  0  0
M  END
> <VM2 Rank>
22

> <Conf_Id>
534

> <Probability>
1.46

> <Sum Probability>
56.79

> <Delta G>
0.972

> <G>
49.234

> <E>
16.699

> <-TS>
32.534

> <U+W>
-4.762

> <U>
48.583

> <W>
-53.345

> <W(PB)>
-55.664

> <W(SA)>
2.319

> <Valence>
2.825

> <Coulomb>
44.916

> <VdW>
0.842

> <VdW6>
-6.929

> <VdW12>
7.771

> <Bond>
0.195

> <Angle>
0.721

> <Pdih>
1.909

> <Idih>
0.000

> <Tether>
0.000

$$$$
VeraChem MOL file


 26 25  0  0  0  0  0  0  0  0999 V2000     
   19.3557   19.3204   19.2239 C   0  0  0  0  0  0  0  0  0  0  0  0
   19.4851   20.4105   19.2154 H   0  0  0  0  0  0  0  0  0  0  0  0
   19.5759   18.9471   18.2153 H   0  0  0  0  0  0  0  0  0  0  0  0
   18.3018   19.1028   19.4411 H   0  0  0  0  0  0  0  0  0  0  0  0
   20.2847   18.6595   20.2643 C   0  0  0  0  0  0  0  0  0  0  0  0
   21.3315   18.8657   20.0006 H   0  0  0  0  0  0  0  0  0  0  0  0
   20.1571   17.5686   20.2263 H   0  0  0  0  0  0  0  0  0  0  0  0
   19.9963   19.1685   21.6941 C   0  0  0  0  0  0  0  0  0  0  0  0
   20.1273   20.2589   21.7274 H   0  0  0  0  0  0  0  0  0  0  0  0
   18.9461   18.9650   21.9403 H   0  0  0  0  0  0  0  0  0  0  0  0
   20.9247   18.5031   22.7385 C   0  0  0  0  0  0  0  0  0  0  0  0
   21.9694   18.6487   22.4306 H   0  0  0  0  0  0  0  0  0  0  0  0
   20.7549   17.4175   22.7478 H   0  0  0  0  0  0  0  0  0  0  0  0
   20.7543   19.0671   24.1707 C   0  0  0  0  0  0  0  0  0  0  0  0
   21.5386   18.6321   24.8042 H   0  0  0  0  0  0  0  0  0  0  0  0
   20.9305   20.1516   24.1623 H   0  0  0  0  0  0  0  0  0  0  0  0
   19.3668   18.7687   24.7926 C   0  0  0  0  0  0  0  0  0  0  0  0
   19.1724   17.6881   24.7794 H   0  0  0  0  0  0  0  0  0  0  0  0
   18.5799   19.2374   24.1888 H   0  0  0  0  0  0  0  0  0  0  0  0
   19.2362   19.2968   26.2344 C   0  0  0  0  0  0  0  0  0  0  0  0
   19.4482   20.3692   26.2543 H   0  0  0  0  0  0  0  0  0  0  0  0
   18.2112   19.1455   26.5837 H   0  0  0  0  0  0  0  0  0  0  0  0
   20.1622   18.6149   27.2226 N   0  3  0  0  0  0  0  0  0  0  0  0
   21.1475   18.7495   26.9754 H   0  0  0  0  0  0  0  0  0  0  0  0
   19.9957   17.6043   27.2655 H   0  0  0  0  0  0  0  0  0  0  0  0
   20.0390   18.9794   28.1735 H   0  0  0  0  0  0  0  0  0  0  0  0
  1  2  1  0  0  0  0
  1  3  1  0  0  0  0
  1  4  1  0  0  0  0
  1  5  1  0  0  0  0
  5  6  1  0  0  0  0
  5  7  1  0  0  0  0
  5  8  1  0  0  0  0
  8  9  1  0  0  0  0
  8 10  1  0  0  0  0
  8 11  1  0  0  0  0
 11 12  1  0  0  0  0
 11 13  1  0  0  0  0
 11 14  1  0  0  0  0
 14 15  1  0  0  0  0
 14 16  1  0  0  0  0
 14 17  1  0  0  0  0
 17 18  1  0  0  0  0
 17 19  1  0  0  0  0
 17 20  1  0  0  0  0
 20 21  1  0  0  0  0
 20 22  1  0  0  0  0
 20 23  1  0  0  0  0
 23 24  1  0  0  0  0
 23 25  1  0  0  0  0
 23 26  1  0  0  0  0
M  END
> <VM2 Rank>
23

> <Conf_Id>
749

> <Probability>
1.41

> <Sum Probability>
58.20

> <Delta G>
0.990

> <G>
49.251

> <E>
16.717

> <-TS>
32.534

> <U+W>
-4.745

> <U>
48.583

> <W>
-53.328

> <W(PB)>
-55.653

> <W(SA)>
2.326

> <Valence>
2.825

> <Coulomb>
44.916

> <VdW>
0.842

> <VdW6>
-6.929

> <VdW12>
7.771

> <Bond>
0.195

> <Angle>
0.721

> <Pdih>
1.909

> <Idih>
0.000

> <Tether>
0.000

$$$$
VeraChem MOL file


 26 25  0  0  0  0  0  0  0  0999 V2000     
   19.1170   18.6755   19.4175 C   0  0  0  0  0  0  0  0  0  0  0  0
   19.9550   18.7284   18.7103 H   0  0  0  0  0  0  0  0  0  0  0  0
   18.4508   17.8667   19.0902 H   0  0  0  0  0  0  0  0  0  0  0  0
   18.5579   19.6183   19.3564 H   0  0  0  0  0  0  0  0  0  0  0  0
   19.6184   18.4204   20.8548 C   0  0  0  0  0  0  0  0  0  0  0  0
   20.1475   17.4578   20.8904 H   0  0  0  0  0  0  0  0  0  0  0  0
   18.7518   18.3330   21.5234 H   0  0  0  0  0  0  0  0  0  0  0  0
   20.5566   19.5507   21.3401 C   0  0  0  0  0  0  0  0  0  0  0  0
   21.3712   19.6744   20.6131 H   0  0  0  0  0  0  0  0  0  0  0  0
   20.0108   20.5042   21.3559 H   0  0  0  0  0  0  0  0  0  0  0  0
   21.1793   19.2857   22.7329 C   0  0  0  0  0  0  0  0  0  0  0  0
   21.9171   20.0735   22.9384 H   0  0  0  0  0  0  0  0  0  0  0  0
   21.7369   18.3391   22.7123 H   0  0  0  0  0  0  0  0  0  0  0  0
   20.1409   19.2557   23.8802 C   0  0  0  0  0  0  0  0  0  0  0  0
   19.5503   20.1822   23.8648 H   0  0  0  0  0  0  0  0  0  0  0  0
   19.4403   18.4262   23.7229 H   0  0  0  0  0  0  0  0  0  0  0  0
   20.8197   19.1011   25.2619 C   0  0  0  0  0  0  0  0  0  0  0  0
   21.5432   19.9148   25.4051 H   0  0  0  0  0  0  0  0  0  0  0  0
   21.3910   18.1640   25.2978 H   0  0  0  0  0  0  0  0  0  0  0  0
   19.8127   19.1350   26.4278 C   0  0  0  0  0  0  0  0  0  0  0  0
   20.3557   19.1092   27.3765 H   0  0  0  0  0  0  0  0  0  0  0  0
   19.2367   20.0635   26.3899 H   0  0  0  0  0  0  0  0  0  0  0  0
   18.8364   17.9750   26.4258 N   0  3  0  0  0  0  0  0  0  0  0  0
   18.1905   18.0200   27.2215 H   0  0  0  0  0  0  0  0  0  0  0  0
   19.3182   17.0718   26.4823 H   0  0  0  0  0  0  0  0  0  0  0  0
   18.2645   17.9612   25.5758 H   0  0  0  0  0  0  0  0  0  0  0  0
  1  2  1  0  0  0  0
  1  3  1  0  0  0  0
  1  4  1  0  0  0  0
  1  5  1  0  0  0  0
  5  6  1  0  0  0  0
  5  7  1  0  0  0  0
  5  8  1  0  0  0  0
  8  9  1  0  0  0  0
  8 10  1  0  0  0  0
  8 11  1  0  0  0  0
 11 12  1  0  0  0  0
 11 13  1  0  0  0  0
 11 14  1  0  0  0  0
 14 15  1  0  0  0  0
 14 16  1  0  0  0  0
 14 17  1  0  0  0  0
 17 18  1  0  0  0  0
 17 19  1  0  0  0  0
 17 20  1  0  0  0  0
 20 21  1  0  0  0  0
 20 22  1  0  0  0  0
 20 23  1  0  0  0  0
 23 24  1  0  0  0  0
 23 25  1  0  0  0  0
 23 26  1  0  0  0  0
M  END
> <VM2 Rank>
24

> <Conf_Id>
1238

> <Probability>
1.30

> <Sum Probability>
59.50

> <Delta G>
1.039

> <G>
49.300

> <E>
16.751

> <-TS>
32.549

> <U+W>
-4.710

> <U>
48.945

> <W>
-53.655

> <W(PB)>
-55.991

> <W(SA)>
2.336

> <Valence>
2.803

> <Coulomb>
45.335

> <VdW>
0.807

> <VdW6>
-6.962

> <VdW12>
7.769

> <Bond>
0.189

> <Angle>
0.696

> <Pdih>
1.917

> <Idih>
0.000

> <Tether>
0.000

$$$$
VeraChem MOL file


 26 25  0  0  0  0  0  0  0  0999 V2000     
   21.0500   20.0675   20.1774 C   0  0  0  0  0  0  0  0  0  0  0  0
   21.7162   20.1309   21.0466 H   0  0  0  0  0  0  0  0  0  0  0  0
   21.6740   20.1450   19.2777 H   0  0  0  0  0  0  0  0  0  0  0  0
   20.3772   20.9347   20.1949 H   0  0  0  0  0  0  0  0  0  0  0  0
   20.2513   18.7443   20.1689 C   0  0  0  0  0  0  0  0  0  0  0  0
   20.9461   17.8930   20.1834 H   0  0  0  0  0  0  0  0  0  0  0  0
   19.6965   18.6720   19.2230 H   0  0  0  0  0  0  0  0  0  0  0  0
   19.2492   18.6222   21.3423 C   0  0  0  0  0  0  0  0  0  0  0  0
   18.5440   19.4642   21.3115 H   0  0  0  0  0  0  0  0  0  0  0  0
   18.6508   17.7124   21.1958 H   0  0  0  0  0  0  0  0  0  0  0  0
   19.9297   18.5620   22.7310 C   0  0  0  0  0  0  0  0  0  0  0  0
   20.4768   19.4955   22.9125 H   0  0  0  0  0  0  0  0  0  0  0  0
   20.6694   17.7496   22.7411 H   0  0  0  0  0  0  0  0  0  0  0  0
   18.8994   18.3364   23.8636 C   0  0  0  0  0  0  0  0  0  0  0  0
   18.1748   19.1626   23.8754 H   0  0  0  0  0  0  0  0  0  0  0  0
   18.3256   17.4230   23.6540 H   0  0  0  0  0  0  0  0  0  0  0  0
   19.5512   18.2021   25.2600 C   0  0  0  0  0  0  0  0  0  0  0  0
   20.2586   17.3621   25.2577 H   0  0  0  0  0  0  0  0  0  0  0  0
   18.7727   17.9555   25.9942 H   0  0  0  0  0  0  0  0  0  0  0  0
   20.2741   19.4869   25.7059 C   0  0  0  0  0  0  0  0  0  0  0  0
   21.0819   19.7190   25.0071 H   0  0  0  0  0  0  0  0  0  0  0  0
   19.5698   20.3232   25.7087 H   0  0  0  0  0  0  0  0  0  0  0  0
   20.8761   19.3777   27.0919 N   0  3  0  0  0  0  0  0  0  0  0  0
   21.3523   20.2428   27.3699 H   0  0  0  0  0  0  0  0  0  0  0  0
   21.5688   18.6240   27.1493 H   0  0  0  0  0  0  0  0  0  0  0  0
   20.1635   19.1875   27.8041 H   0  0  0  0  0  0  0  0  0  0  0  0
  1  2  1  0  0  0  0
  1  3  1  0  0  0  0
  1  4  1  0  0  0  0
  1  5  1  0  0  0  0
  5  6  1  0  0  0  0
  5  7  1  0  0  0  0
  5  8  1  0  0  0  0
  8  9  1  0  0  0  0
  8 10  1  0  0  0  0
  8 11  1  0  0  0  0
 11 12  1  0  0  0  0
 11 13  1  0  0  0  0
 11 14  1  0  0  0  0
 14 15  1  0  0  0  0
 14 16  1  0  0  0  0
 14 17  1  0  0  0  0
 17 18  1  0  0  0  0
 17 19  1  0  0  0  0
 17 20  1  0  0  0  0
 20 21  1  0  0  0  0
 20 22  1  0  0  0  0
 20 23  1  0  0  0  0
 23 24  1  0  0  0  0
 23 25  1  0  0  0  0
 23 26  1  0  0  0  0
M  END
> <VM2 Rank>
25

> <Conf_Id>
694

> <Probability>
1.27

> <Sum Probability>
60.78

> <Delta G>
1.053

> <G>
49.314

> <E>
16.754

> <-TS>
32.560

> <U+W>
-4.708

> <U>
48.723

> <W>
-53.431

> <W(PB)>
-55.776

> <W(SA)>
2.344

> <Valence>
2.962

> <Coulomb>
44.993

> <VdW>
0.768

> <VdW6>
-7.008

> <VdW12>
7.776

> <Bond>
0.188

> <Angle>
0.756

> <Pdih>
2.018

> <Idih>
0.000

> <Tether>
0.000

$$$$
VeraChem MOL file


 26 25  0  0  0  0  0  0  0  0999 V2000     
   20.1286   17.8133   19.8417 C   0  0  0  0  0  0  0  0  0  0  0  0
   19.0726   17.9072   19.5568 H   0  0  0  0  0  0  0  0  0  0  0  0
   20.6775   17.4272   18.9731 H   0  0  0  0  0  0  0  0  0  0  0  0
   20.2047   17.0638   20.6392 H   0  0  0  0  0  0  0  0  0  0  0  0
   20.7078   19.1758   20.2855 C   0  0  0  0  0  0  0  0  0  0  0  0
   20.7215   19.8533   19.4203 H   0  0  0  0  0  0  0  0  0  0  0  0
   21.7551   19.0494   20.5935 H   0  0  0  0  0  0  0  0  0  0  0  0
   19.9034   19.8441   21.4266 C   0  0  0  0  0  0  0  0  0  0  0  0
   20.3154   20.8474   21.6023 H   0  0  0  0  0  0  0  0  0  0  0  0
   18.8628   19.9892   21.1051 H   0  0  0  0  0  0  0  0  0  0  0  0
   19.9342   19.0461   22.7522 C   0  0  0  0  0  0  0  0  0  0  0  0
   20.9783   18.8555   23.0338 H   0  0  0  0  0  0  0  0  0  0  0  0
   19.4570   18.0677   22.6096 H   0  0  0  0  0  0  0  0  0  0  0  0
   19.2089   19.8020   23.8914 C   0  0  0  0  0  0  0  0  0  0  0  0
   19.7033   20.7670   24.0702 H   0  0  0  0  0  0  0  0  0  0  0  0
   18.1823   20.0327   23.5749 H   0  0  0  0  0  0  0  0  0  0  0  0
   19.1522   18.9996   25.2126 C   0  0  0  0  0  0  0  0  0  0  0  0
   18.6344   18.0460   25.0434 H   0  0  0  0  0  0  0  0  0  0  0  0
   18.5519   19.5580   25.9431 H   0  0  0  0  0  0  0  0  0  0  0  0
   20.5478   18.7327   25.8070 C   0  0  0  0  0  0  0  0  0  0  0  0
   21.1411   18.1388   25.1070 H   0  0  0  0  0  0  0  0  0  0  0  0
   21.0631   19.6820   25.9766 H   0  0  0  0  0  0  0  0  0  0  0  0
   20.4982   17.9856   27.1241 N   0  3  0  0  0  0  0  0  0  0  0  0
   21.4367   17.8181   27.5028 H   0  0  0  0  0  0  0  0  0  0  0  0
   20.0476   17.0697   27.0272 H   0  0  0  0  0  0  0  0  0  0  0  0
   19.9766   18.5044   27.8382 H   0  0  0  0  0  0  0  0  0  0  0  0
  1  2  1  0  0  0  0
  1  3  1  0  0  0  0
  1  4  1  0  0  0  0
  1  5  1  0  0  0  0
  5  6  1  0  0  0  0
  5  7  1  0  0  0  0
  5  8  1  0  0  0  0
  8  9  1  0  0  0  0
  8 10  1  0  0  0  0
  8 11  1  0  0  0  0
 11 12  1  0  0  0  0
 11 13  1  0  0  0  0
 11 14  1  0  0  0  0
 14 15  1  0  0  0  0
 14 16  1  0  0  0  0
 14 17  1  0  0  0  0
 17 18  1  0  0  0  0
 17 19  1  0  0  0  0
 17 20  1  0  0  0  0
 20 21  1  0  0  0  0
 20 22  1  0  0  0  0
 20 23  1  0  0  0  0
 23 24  1  0  0  0  0
 23 25  1  0  0  0  0
 23 26  1  0  0  0  0
M  END
> <VM2 Rank>
26

> <Conf_Id>
963

> <Probability>
1.21

> <Sum Probability>
61.99

> <Delta G>
1.082

> <G>
49.343

> <E>
16.780

> <-TS>
32.563

> <U+W>
-4.682

> <U>
48.658

> <W>
-53.340

> <W(PB)>
-55.670

> <W(SA)>
2.330

> <Valence>
2.963

> <Coulomb>
44.927

> <VdW>
0.768

> <VdW6>
-6.995

> <VdW12>
7.762

> <Bond>
0.186

> <Angle>
0.758

> <Pdih>
2.019

> <Idih>
0.000

> <Tether>
0.000

$$$$
VeraChem MOL file


 26 25  0  0  0  0  0  0  0  0999 V2000     
   20.9387   19.9643   19.8068 C   0  0  0  0  0  0  0  0  0  0  0  0
   21.4823   19.6621   18.9023 H   0  0  0  0  0  0  0  0  0  0  0  0
   20.0481   20.5244   19.4934 H   0  0  0  0  0  0  0  0  0  0  0  0
   21.5859   20.6427   20.3780 H   0  0  0  0  0  0  0  0  0  0  0  0
   20.5502   18.7294   20.6472 C   0  0  0  0  0  0  0  0  0  0  0  0
   21.4580   18.1720   20.9175 H   0  0  0  0  0  0  0  0  0  0  0  0
   19.9329   18.0541   20.0382 H   0  0  0  0  0  0  0  0  0  0  0  0
   19.7823   19.1271   21.9271 C   0  0  0  0  0  0  0  0  0  0  0  0
   20.4057   19.8084   22.5209 H   0  0  0  0  0  0  0  0  0  0  0  0
   18.8745   19.6817   21.6522 H   0  0  0  0  0  0  0  0  0  0  0  0
   19.3969   17.8903   22.7736 C   0  0  0  0  0  0  0  0  0  0  0  0
   20.3052   17.3589   23.0880 H   0  0  0  0  0  0  0  0  0  0  0  0
   18.8377   17.1856   22.1427 H   0  0  0  0  0  0  0  0  0  0  0  0
   18.5273   18.2320   24.0111 C   0  0  0  0  0  0  0  0  0  0  0  0
   17.5760   18.6662   23.6739 H   0  0  0  0  0  0  0  0  0  0  0  0
   18.2664   17.2975   24.5269 H   0  0  0  0  0  0  0  0  0  0  0  0
   19.1880   19.1969   25.0270 C   0  0  0  0  0  0  0  0  0  0  0  0
   18.5012   19.3466   25.8707 H   0  0  0  0  0  0  0  0  0  0  0  0
   19.3318   20.1841   24.5697 H   0  0  0  0  0  0  0  0  0  0  0  0
   20.5333   18.6706   25.5605 C   0  0  0  0  0  0  0  0  0  0  0  0
   20.3871   17.6922   26.0259 H   0  0  0  0  0  0  0  0  0  0  0  0
   21.2390   18.5570   24.7334 H   0  0  0  0  0  0  0  0  0  0  0  0
   21.1643   19.5883   26.5877 N   0  3  0  0  0  0  0  0  0  0  0  0
   22.0585   19.2197   26.9295 H   0  0  0  0  0  0  0  0  0  0  0  0
   20.5615   19.7158   27.4072 H   0  0  0  0  0  0  0  0  0  0  0  0
   21.3526   20.5200   26.2035 H   0  0  0  0  0  0  0  0  0  0  0  0
  1  2  1  0  0  0  0
  1  3  1  0  0  0  0
  1  4  1  0  0  0  0
  1  5  1  0  0  0  0
  5  6  1  0  0  0  0
  5  7  1  0  0  0  0
  5  8  1  0  0  0  0
  8  9  1  0  0  0  0
  8 10  1  0  0  0  0
  8 11  1  0  0  0  0
 11 12  1  0  0  0  0
 11 13  1  0  0  0  0
 11 14  1  0  0  0  0
 14 15  1  0  0  0  0
 14 16  1  0  0  0  0
 14 17  1  0  0  0  0
 17 18  1  0  0  0  0
 17 19  1  0  0  0  0
 17 20  1  0  0  0  0
 20 21  1  0  0  0  0
 20 22  1  0  0  0  0
 20 23  1  0  0  0  0
 23 24  1  0  0  0  0
 23 25  1  0  0  0  0
 23 26  1  0  0  0  0
M  END
> <VM2 Rank>
27

> <Conf_Id>
1189

> <Probability>
1.21

> <Sum Probability>
63.20

> <Delta G>
1.083

> <G>
49.345

> <E>
16.654

> <-TS>
32.691

> <U+W>
-4.808

> <U>
48.957

> <W>
-53.765

> <W(PB)>
-56.083

> <W(SA)>
2.317

> <Valence>
2.916

> <Coulomb>
45.446

> <VdW>
0.595

> <VdW6>
-7.362

> <VdW12>
7.957

> <Bond>
0.196

> <Angle>
0.889

> <Pdih>
1.830

> <Idih>
0.000

> <Tether>
0.000

$$$$
VeraChem MOL file


 26 25  0  0  0  0  0  0  0  0999 V2000     
   18.8534   18.5883   19.7368 C   0  0  0  0  0  0  0  0  0  0  0  0
   17.9495   18.2438   20.2560 H   0  0  0  0  0  0  0  0  0  0  0  0
   18.7032   19.6368   19.4480 H   0  0  0  0  0  0  0  0  0  0  0  0
   18.9598   17.9976   18.8177 H   0  0  0  0  0  0  0  0  0  0  0  0
   20.1010   18.4329   20.6321 C   0  0  0  0  0  0  0  0  0  0  0  0
   20.9920   18.7524   20.0737 H   0  0  0  0  0  0  0  0  0  0  0  0
   20.2440   17.3711   20.8769 H   0  0  0  0  0  0  0  0  0  0  0  0
   19.9772   19.2558   21.9335 C   0  0  0  0  0  0  0  0  0  0  0  0
   19.8370   20.3167   21.6841 H   0  0  0  0  0  0  0  0  0  0  0  0
   19.0790   18.9334   22.4763 H   0  0  0  0  0  0  0  0  0  0  0  0
   21.2251   19.0965   22.8347 C   0  0  0  0  0  0  0  0  0  0  0  0
   22.1213   19.3520   22.2525 H   0  0  0  0  0  0  0  0  0  0  0  0
   21.3421   18.0432   23.1227 H   0  0  0  0  0  0  0  0  0  0  0  0
   21.1947   19.9921   24.1002 C   0  0  0  0  0  0  0  0  0  0  0  0
   22.1316   19.8479   24.6561 H   0  0  0  0  0  0  0  0  0  0  0  0
   21.1847   21.0474   23.7944 H   0  0  0  0  0  0  0  0  0  0  0  0
   20.0019   19.7340   25.0542 C   0  0  0  0  0  0  0  0  0  0  0  0
   19.0598   20.0045   24.5605 H   0  0  0  0  0  0  0  0  0  0  0  0
   20.0944   20.3981   25.9238 H   0  0  0  0  0  0  0  0  0  0  0  0
   19.9330   18.2745   25.5407 C   0  0  0  0  0  0  0  0  0  0  0  0
   19.7990   17.6067   24.6857 H   0  0  0  0  0  0  0  0  0  0  0  0
   20.8676   18.0094   26.0422 H   0  0  0  0  0  0  0  0  0  0  0  0
   18.7948   18.0248   26.5089 N   0  3  0  0  0  0  0  0  0  0  0  0
   18.7669   17.0477   26.8201 H   0  0  0  0  0  0  0  0  0  0  0  0
   17.8828   18.2303   26.0880 H   0  0  0  0  0  0  0  0  0  0  0  0
   18.8759   18.6038   27.3511 H   0  0  0  0  0  0  0  0  0  0  0  0
  1  2  1  0  0  0  0
  1  3  1  0  0  0  0
  1  4  1  0  0  0  0
  1  5  1  0  0  0  0
  5  6  1  0  0  0  0
  5  7  1  0  0  0  0
  5  8  1  0  0  0  0
  8  9  1  0  0  0  0
  8 10  1  0  0  0  0
  8 11  1  0  0  0  0
 11 12  1  0  0  0  0
 11 13  1  0  0  0  0
 11 14  1  0  0  0  0
 14 15  1  0  0  0  0
 14 16  1  0  0  0  0
 14 17  1  0  0  0  0
 17 18  1  0  0  0  0
 17 19  1  0  0  0  0
 17 20  1  0  0  0  0
 20 21  1  0  0  0  0
 20 22  1  0  0  0  0
 20 23  1  0  0  0  0
 23 24  1  0  0  0  0
 23 25  1  0  0  0  0
 23 26  1  0  0  0  0
M  END
> <VM2 Rank>
28

> <Conf_Id>
1192

> <Probability>
1.20

> <Sum Probability>
64.40

> <Delta G>
1.088

> <G>
49.349

> <E>
16.658

> <-TS>
32.690

> <U+W>
-4.803

> <U>
48.957

> <W>
-53.760

> <W(PB)>
-56.083

> <W(SA)>
2.323

> <Valence>
2.916

> <Coulomb>
45.446

> <VdW>
0.595

> <VdW6>
-7.362

> <VdW12>
7.957

> <Bond>
0.196

> <Angle>
0.889

> <Pdih>
1.830

> <Idih>
0.000

> <Tether>
0.000

$$$$
VeraChem MOL file


 26 25  0  0  0  0  0  0  0  0999 V2000     
   21.1445   18.4823   19.8757 C   0  0  0  0  0  0  0  0  0  0  0  0
   21.7653   18.0916   20.6914 H   0  0  0  0  0  0  0  0  0  0  0  0
   21.3231   17.8524   18.9947 H   0  0  0  0  0  0  0  0  0  0  0  0
   21.4875   19.4975   19.6375 H   0  0  0  0  0  0  0  0  0  0  0  0
   19.6450   18.4758   20.2500 C   0  0  0  0  0  0  0  0  0  0  0  0
   19.3341   17.4550   20.5127 H   0  0  0  0  0  0  0  0  0  0  0  0
   19.0579   18.7576   19.3647 H   0  0  0  0  0  0  0  0  0  0  0  0
   19.2952   19.4436   21.4063 C   0  0  0  0  0  0  0  0  0  0  0  0
   19.5868   20.4661   21.1292 H   0  0  0  0  0  0  0  0  0  0  0  0
   18.2037   19.4567   21.5318 H   0  0  0  0  0  0  0  0  0  0  0  0
   19.9539   19.0591   22.7528 C   0  0  0  0  0  0  0  0  0  0  0  0
   21.0466   19.1146   22.6627 H   0  0  0  0  0  0  0  0  0  0  0  0
   19.7045   18.0166   22.9913 H   0  0  0  0  0  0  0  0  0  0  0  0
   19.4926   19.9888   23.9009 C   0  0  0  0  0  0  0  0  0  0  0  0
   19.6998   21.0322   23.6256 H   0  0  0  0  0  0  0  0  0  0  0  0
   18.4037   19.9111   24.0268 H   0  0  0  0  0  0  0  0  0  0  0  0
   20.1900   19.6831   25.2472 C   0  0  0  0  0  0  0  0  0  0  0  0
   19.8798   20.4326   25.9875 H   0  0  0  0  0  0  0  0  0  0  0  0
   21.2772   19.7867   25.1316 H   0  0  0  0  0  0  0  0  0  0  0  0
   19.8578   18.2782   25.7839 C   0  0  0  0  0  0  0  0  0  0  0  0
   18.7756   18.1753   25.9002 H   0  0  0  0  0  0  0  0  0  0  0  0
   20.2020   17.5202   25.0756 H   0  0  0  0  0  0  0  0  0  0  0  0
   20.5020   17.9880   27.1242 N   0  3  0  0  0  0  0  0  0  0  0  0
   20.2685   17.0486   27.4638 H   0  0  0  0  0  0  0  0  0  0  0  0
   20.1978   18.6500   27.8456 H   0  0  0  0  0  0  0  0  0  0  0  0
   21.5247   18.0425   27.0765 H   0  0  0  0  0  0  0  0  0  0  0  0
  1  2  1  0  0  0  0
  1  3  1  0  0  0  0
  1  4  1  0  0  0  0
  1  5  1  0  0  0  0
  5  6  1  0  0  0  0
  5  7  1  0  0  0  0
  5  8  1  0  0  0  0
  8  9  1  0  0  0  0
  8 10  1  0  0  0  0
  8 11  1  0  0  0  0
 11 12  1  0  0  0  0
 11 13  1  0  0  0  0
 11 14  1  0  0  0  0
 14 15  1  0  0  0  0
 14 16  1  0  0  0  0
 14 17  1  0  0  0  0
 17 18  1  0  0  0  0
 17 19  1  0  0  0  0
 17 20  1  0  0  0  0
 20 21  1  0  0  0  0
 20 22  1  0  0  0  0
 20 23  1  0  0  0  0
 23 24  1  0  0  0  0
 23 25  1  0  0  0  0
 23 26  1  0  0  0  0
M  END
> <VM2 Rank>
29

> <Conf_Id>
964

> <Probability>
1.16

> <Sum Probability>
65.55

> <Delta G>
1.109

> <G>
49.371

> <E>
16.808

> <-TS>
32.563

> <U+W>
-4.654

> <U>
48.658

> <W>
-53.310

> <W(PB)>
-55.636

> <W(SA)>
2.326

> <Valence>
2.963

> <Coulomb>
44.927

> <VdW>
0.768

> <VdW6>
-6.995

> <VdW12>
7.763

> <Bond>
0.186

> <Angle>
0.758

> <Pdih>
2.019

> <Idih>
0.000

> <Tether>
0.000

$$$$
VeraChem MOL file


 26 25  0  0  0  0  0  0  0  0999 V2000     
   18.6972   18.5161   20.0987 C   0  0  0  0  0  0  0  0  0  0  0  0
   18.1645   19.4757   20.1206 H   0  0  0  0  0  0  0  0  0  0  0  0
   18.4228   18.0011   19.1690 H   0  0  0  0  0  0  0  0  0  0  0  0
   18.3365   17.9029   20.9337 H   0  0  0  0  0  0  0  0  0  0  0  0
   20.2267   18.7277   20.1682 C   0  0  0  0  0  0  0  0  0  0  0  0
   20.5553   19.2375   19.2517 H   0  0  0  0  0  0  0  0  0  0  0  0
   20.7347   17.7532   20.1767 H   0  0  0  0  0  0  0  0  0  0  0  0
   20.6778   19.5641   21.3900 C   0  0  0  0  0  0  0  0  0  0  0  0
   21.7553   19.7593   21.2994 H   0  0  0  0  0  0  0  0  0  0  0  0
   20.1830   20.5448   21.3661 H   0  0  0  0  0  0  0  0  0  0  0  0
   20.4012   18.8729   22.7468 C   0  0  0  0  0  0  0  0  0  0  0  0
   20.8565   17.8729   22.7476 H   0  0  0  0  0  0  0  0  0  0  0  0
   19.3205   18.7327   22.8738 H   0  0  0  0  0  0  0  0  0  0  0  0
   20.9601   19.6958   23.9325 C   0  0  0  0  0  0  0  0  0  0  0  0
   22.0340   19.8694   23.7779 H   0  0  0  0  0  0  0  0  0  0  0  0
   20.4850   20.6865   23.9524 H   0  0  0  0  0  0  0  0  0  0  0  0
   20.7627   19.0014   25.3005 C   0  0  0  0  0  0  0  0  0  0  0  0
   21.2604   19.5970   26.0773 H   0  0  0  0  0  0  0  0  0  0  0  0
   21.2569   18.0207   25.2913 H   0  0  0  0  0  0  0  0  0  0  0  0
   19.2779   18.8297   25.6725 C   0  0  0  0  0  0  0  0  0  0  0  0
   18.7858   19.8060   25.6823 H   0  0  0  0  0  0  0  0  0  0  0  0
   18.7804   18.2004   24.9302 H   0  0  0  0  0  0  0  0  0  0  0  0
   19.0775   18.1913   27.0318 N   0  3  0  0  0  0  0  0  0  0  0  0
   19.4985   18.7493   27.7818 H   0  0  0  0  0  0  0  0  0  0  0  0
   19.4954   17.2563   27.0803 H   0  0  0  0  0  0  0  0  0  0  0  0
   18.0830   18.0861   27.2606 H   0  0  0  0  0  0  0  0  0  0  0  0
  1  2  1  0  0  0  0
  1  3  1  0  0  0  0
  1  4  1  0  0  0  0
  1  5  1  0  0  0  0
  5  6  1  0  0  0  0
  5  7  1  0  0  0  0
  5  8  1  0  0  0  0
  8  9  1  0  0  0  0
  8 10  1  0  0  0  0
  8 11  1  0  0  0  0
 11 12  1  0  0  0  0
 11 13  1  0  0  0  0
 11 14  1  0  0  0  0
 14 15  1  0  0  0  0
 14 16  1  0  0  0  0
 14 17  1  0  0  0  0
 17 18  1  0  0  0  0
 17 19  1  0  0  0  0
 17 20  1  0  0  0  0
 20 21  1  0  0  0  0
 20 22  1  0  0  0  0
 20 23  1  0  0  0  0
 23 24  1  0  0  0  0
 23 25  1  0  0  0  0
 23 26  1  0  0  0  0
M  END
> <VM2 Rank>
30

> <Conf_Id>
1110

> <Probability>
1.13

> <Sum Probability>
66.69

> <Delta G>
1.121

> <G>
49.383

> <E>
16.822

> <-TS>
32.561

> <U+W>
-4.640

> <U>
48.723

> <W>
-53.363

> <W(PB)>
-55.684

> <W(SA)>
2.321

> <Valence>
2.962

> <Coulomb>
44.993

> <VdW>
0.768

> <VdW6>
-7.008

> <VdW12>
7.776

> <Bond>
0.188

> <Angle>
0.756

> <Pdih>
2.018

> <Idih>
0.000

> <Tether>
0.000

$$$$
VeraChem MOL file


 26 25  0  0  0  0  0  0  0  0999 V2000     
   19.4882   19.0296   19.2183 C   0  0  0  0  0  0  0  0  0  0  0  0
   19.9392   18.1259   18.7881 H   0  0  0  0  0  0  0  0  0  0  0  0
   18.4888   19.1485   18.7800 H   0  0  0  0  0  0  0  0  0  0  0  0
   20.0947   19.8926   18.9137 H   0  0  0  0  0  0  0  0  0  0  0  0
   19.4005   18.9287   20.7559 C   0  0  0  0  0  0  0  0  0  0  0  0
   18.7644   18.0752   21.0291 H   0  0  0  0  0  0  0  0  0  0  0  0
   18.9085   19.8302   21.1445 H   0  0  0  0  0  0  0  0  0  0  0  0
   20.7988   18.7646   21.3971 C   0  0  0  0  0  0  0  0  0  0  0  0
   21.3029   17.9028   20.9384 H   0  0  0  0  0  0  0  0  0  0  0  0
   21.4178   19.6424   21.1657 H   0  0  0  0  0  0  0  0  0  0  0  0
   20.7553   18.5490   22.9298 C   0  0  0  0  0  0  0  0  0  0  0  0
   21.7740   18.3309   23.2789 H   0  0  0  0  0  0  0  0  0  0  0  0
   20.1544   17.6570   23.1522 H   0  0  0  0  0  0  0  0  0  0  0  0
   20.2056   19.7706   23.7089 C   0  0  0  0  0  0  0  0  0  0  0  0
   20.7508   20.6728   23.3990 H   0  0  0  0  0  0  0  0  0  0  0  0
   19.1511   19.9392   23.4531 H   0  0  0  0  0  0  0  0  0  0  0  0
   20.3336   19.6155   25.2425 C   0  0  0  0  0  0  0  0  0  0  0  0
   19.9998   20.5443   25.7242 H   0  0  0  0  0  0  0  0  0  0  0  0
   21.3894   19.4827   25.5136 H   0  0  0  0  0  0  0  0  0  0  0  0
   19.5062   18.4379   25.7909 C   0  0  0  0  0  0  0  0  0  0  0  0
   18.4544   18.5714   25.5239 H   0  0  0  0  0  0  0  0  0  0  0  0
   19.8575   17.5016   25.3497 H   0  0  0  0  0  0  0  0  0  0  0  0
   19.5930   18.3031   27.2975 N   0  3  0  0  0  0  0  0  0  0  0  0
   20.5564   18.1482   27.6123 H   0  0  0  0  0  0  0  0  0  0  0  0
   19.0356   17.5139   27.6422 H   0  0  0  0  0  0  0  0  0  0  0  0
   19.2501   19.1422   27.7766 H   0  0  0  0  0  0  0  0  0  0  0  0
  1  2  1  0  0  0  0
  1  3  1  0  0  0  0
  1  4  1  0  0  0  0
  1  5  1  0  0  0  0
  5  6  1  0  0  0  0
  5  7  1  0  0  0  0
  5  8  1  0  0  0  0
  8  9  1  0  0  0  0
  8 10  1  0  0  0  0
  8 11  1  0  0  0  0
 11 12  1  0  0  0  0
 11 13  1  0  0  0  0
 11 14  1  0  0  0  0
 14 15  1  0  0  0  0
 14 16  1  0  0  0  0
 14 17  1  0  0  0  0
 17 18  1  0  0  0  0
 17 19  1  0  0  0  0
 17 20  1  0  0  0  0
 20 21  1  0  0  0  0
 20 22  1  0  0  0  0
 20 23  1  0  0  0  0
 23 24  1  0  0  0  0
 23 25  1  0  0  0  0
 23 26  1  0  0  0  0
M  END
> <VM2 Rank>
31

> <Conf_Id>
572

> <Probability>
1.12

> <Sum Probability>
67.80

> <Delta G>
1.130

> <G>
49.392

> <E>
16.830

> <-TS>
32.561

> <U+W>
-4.632

> <U>
48.732

> <W>
-53.364

> <W(PB)>
-55.692

> <W(SA)>
2.328

> <Valence>
2.987

> <Coulomb>
45.003

> <VdW>
0.742

> <VdW6>
-7.035

> <VdW12>
7.777

> <Bond>
0.191

> <Angle>
0.753

> <Pdih>
2.043

> <Idih>
0.000

> <Tether>
0.000

$$$$
VeraChem MOL file


 26 25  0  0  0  0  0  0  0  0999 V2000     
   19.8613   19.0878   19.0804 C   0  0  0  0  0  0  0  0  0  0  0  0
   19.6942   18.2549   18.3852 H   0  0  0  0  0  0  0  0  0  0  0  0
   18.9961   19.7605   19.0146 H   0  0  0  0  0  0  0  0  0  0  0  0
   20.7485   19.6375   18.7401 H   0  0  0  0  0  0  0  0  0  0  0  0
   20.0495   18.5660   20.5208 C   0  0  0  0  0  0  0  0  0  0  0  0
   20.9029   17.8742   20.5486 H   0  0  0  0  0  0  0  0  0  0  0  0
   19.1612   17.9883   20.8082 H   0  0  0  0  0  0  0  0  0  0  0  0
   20.2823   19.7238   21.5203 C   0  0  0  0  0  0  0  0  0  0  0  0
   21.1234   20.3356   21.1658 H   0  0  0  0  0  0  0  0  0  0  0  0
   19.4048   20.3850   21.5329 H   0  0  0  0  0  0  0  0  0  0  0  0
   20.5958   19.2492   22.9607 C   0  0  0  0  0  0  0  0  0  0  0  0
   20.8790   20.1286   23.5539 H   0  0  0  0  0  0  0  0  0  0  0  0
   21.4750   18.5904   22.9468 H   0  0  0  0  0  0  0  0  0  0  0  0
   19.4093   18.5240   23.6456 C   0  0  0  0  0  0  0  0  0  0  0  0
   18.5232   19.1738   23.6388 H   0  0  0  0  0  0  0  0  0  0  0  0
   19.1430   17.6276   23.0710 H   0  0  0  0  0  0  0  0  0  0  0  0
   19.7200   18.0914   25.0980 C   0  0  0  0  0  0  0  0  0  0  0  0
   20.6004   17.4352   25.1074 H   0  0  0  0  0  0  0  0  0  0  0  0
   18.8798   17.4955   25.4787 H   0  0  0  0  0  0  0  0  0  0  0  0
   19.9539   19.2870   26.0407 C   0  0  0  0  0  0  0  0  0  0  0  0
   20.8181   19.8636   25.7011 H   0  0  0  0  0  0  0  0  0  0  0  0
   19.0776   19.9406   26.0302 H   0  0  0  0  0  0  0  0  0  0  0  0
   20.2090   18.8698   27.4746 N   0  3  0  0  0  0  0  0  0  0  0  0
   20.3620   19.6795   28.0856 H   0  0  0  0  0  0  0  0  0  0  0  0
   21.0384   18.2727   27.5571 H   0  0  0  0  0  0  0  0  0  0  0  0
   19.4196   18.3456   27.8662 H   0  0  0  0  0  0  0  0  0  0  0  0
  1  2  1  0  0  0  0
  1  3  1  0  0  0  0
  1  4  1  0  0  0  0
  1  5  1  0  0  0  0
  5  6  1  0  0  0  0
  5  7  1  0  0  0  0
  5  8  1  0  0  0  0
  8  9  1  0  0  0  0
  8 10  1  0  0  0  0
  8 11  1  0  0  0  0
 11 12  1  0  0  0  0
 11 13  1  0  0  0  0
 11 14  1  0  0  0  0
 14 15  1  0  0  0  0
 14 16  1  0  0  0  0
 14 17  1  0  0  0  0
 17 18  1  0  0  0  0
 17 19  1  0  0  0  0
 17 20  1  0  0  0  0
 20 21  1  0  0  0  0
 20 22  1  0  0  0  0
 20 23  1  0  0  0  0
 23 24  1  0  0  0  0
 23 25  1  0  0  0  0
 23 26  1  0  0  0  0
M  END
> <VM2 Rank>
32

> <Conf_Id>
835

> <Probability>
1.09

> <Sum Probability>
68.90

> <Delta G>
1.144

> <G>
49.405

> <E>
16.884

> <-TS>
32.521

> <U+W>
-4.578

> <U>
48.768

> <W>
-53.346

> <W(PB)>
-55.671

> <W(SA)>
2.325

> <Valence>
3.051

> <Coulomb>
44.907

> <VdW>
0.810

> <VdW6>
-6.972

> <VdW12>
7.782

> <Bond>
0.197

> <Angle>
0.815

> <Pdih>
2.039

> <Idih>
0.000

> <Tether>
0.000

$$$$
VeraChem MOL file


 26 25  0  0  0  0  0  0  0  0999 V2000     
   20.3085   19.5705   19.2457 C   0  0  0  0  0  0  0  0  0  0  0  0
   19.2917   19.3638   18.8871 H   0  0  0  0  0  0  0  0  0  0  0  0
   20.6128   20.5485   18.8509 H   0  0  0  0  0  0  0  0  0  0  0  0
   20.9809   18.8127   18.8227 H   0  0  0  0  0  0  0  0  0  0  0  0
   20.3645   19.5639   20.7881 C   0  0  0  0  0  0  0  0  0  0  0  0
   19.7122   20.3598   21.1714 H   0  0  0  0  0  0  0  0  0  0  0  0
   21.3857   19.8026   21.1164 H   0  0  0  0  0  0  0  0  0  0  0  0
   19.9355   18.1956   21.3683 C   0  0  0  0  0  0  0  0  0  0  0  0
   18.8968   17.9807   21.0815 H   0  0  0  0  0  0  0  0  0  0  0  0
   20.5499   17.4064   20.9133 H   0  0  0  0  0  0  0  0  0  0  0  0
   20.0792   18.1034   22.9072 C   0  0  0  0  0  0  0  0  0  0  0  0
   21.1243   18.2962   23.1845 H   0  0  0  0  0  0  0  0  0  0  0  0
   19.8627   17.0711   23.2151 H   0  0  0  0  0  0  0  0  0  0  0  0
   19.1373   19.0665   23.6733 C   0  0  0  0  0  0  0  0  0  0  0  0
   19.4090   20.1091   23.4617 H   0  0  0  0  0  0  0  0  0  0  0  0
   18.1090   18.9314   23.3107 H   0  0  0  0  0  0  0  0  0  0  0  0
   19.1580   18.8407   25.2033 C   0  0  0  0  0  0  0  0  0  0  0  0
   18.8522   17.8103   25.4288 H   0  0  0  0  0  0  0  0  0  0  0  0
   18.4140   19.4990   25.6712 H   0  0  0  0  0  0  0  0  0  0  0  0
   20.5392   19.1188   25.8255 C   0  0  0  0  0  0  0  0  0  0  0  0
   21.2814   18.4401   25.3973 H   0  0  0  0  0  0  0  0  0  0  0  0
   20.8426   20.1455   25.6037 H   0  0  0  0  0  0  0  0  0  0  0  0
   20.5587   18.9397   27.3298 N   0  3  0  0  0  0  0  0  0  0  0  0
   19.9007   19.5711   27.7983 H   0  0  0  0  0  0  0  0  0  0  0  0
   21.4865   19.1294   27.7242 H   0  0  0  0  0  0  0  0  0  0  0  0
   20.3074   17.9843   27.6041 H   0  0  0  0  0  0  0  0  0  0  0  0
  1  2  1  0  0  0  0
  1  3  1  0  0  0  0
  1  4  1  0  0  0  0
  1  5  1  0  0  0  0
  5  6  1  0  0  0  0
  5  7  1  0  0  0  0
  5  8  1  0  0  0  0
  8  9  1  0  0  0  0
  8 10  1  0  0  0  0
  8 11  1  0  0  0  0
 11 12  1  0  0  0  0
 11 13  1  0  0  0  0
 11 14  1  0  0  0  0
 14 15  1  0  0  0  0
 14 16  1  0  0  0  0
 14 17  1  0  0  0  0
 17 18  1  0  0  0  0
 17 19  1  0  0  0  0
 17 20  1  0  0  0  0
 20 21  1  0  0  0  0
 20 22  1  0  0  0  0
 20 23  1  0  0  0  0
 23 24  1  0  0  0  0
 23 25  1  0  0  0  0
 23 26  1  0  0  0  0
M  END
> <VM2 Rank>
33

> <Conf_Id>
747

> <Probability>
1.05

> <Sum Probability>
69.94

> <Delta G>
1.168

> <G>
49.429

> <E>
16.868

> <-TS>
32.562

> <U+W>
-4.594

> <U>
48.732

> <W>
-53.326

> <W(PB)>
-55.661

> <W(SA)>
2.334

> <Valence>
2.987

> <Coulomb>
45.003

> <VdW>
0.742

> <VdW6>
-7.035

> <VdW12>
7.777

> <Bond>
0.191

> <Angle>
0.753

> <Pdih>
2.043

> <Idih>
0.000

> <Tether>
0.000

$$$$
VeraChem MOL file


 26 25  0  0  0  0  0  0  0  0999 V2000     
   18.7881   18.6803   20.1778 C   0  0  0  0  0  0  0  0  0  0  0  0
   18.3567   18.2462   21.0883 H   0  0  0  0  0  0  0  0  0  0  0  0
   17.9746   19.1716   19.6285 H   0  0  0  0  0  0  0  0  0  0  0  0
   19.1693   17.8621   19.5532 H   0  0  0  0  0  0  0  0  0  0  0  0
   19.9069   19.6936   20.5091 C   0  0  0  0  0  0  0  0  0  0  0  0
   19.5073   20.4907   21.1502 H   0  0  0  0  0  0  0  0  0  0  0  0
   20.2236   20.1870   19.5796 H   0  0  0  0  0  0  0  0  0  0  0  0
   21.1496   19.0455   21.1711 C   0  0  0  0  0  0  0  0  0  0  0  0
   21.6031   18.3410   20.4602 H   0  0  0  0  0  0  0  0  0  0  0  0
   21.9046   19.8246   21.3446 H   0  0  0  0  0  0  0  0  0  0  0  0
   20.8784   18.3008   22.5038 C   0  0  0  0  0  0  0  0  0  0  0  0
   21.8262   17.8733   22.8590 H   0  0  0  0  0  0  0  0  0  0  0  0
   20.2105   17.4474   22.3266 H   0  0  0  0  0  0  0  0  0  0  0  0
   20.2884   19.2073   23.6105 C   0  0  0  0  0  0  0  0  0  0  0  0
   20.9369   20.0830   23.7529 H   0  0  0  0  0  0  0  0  0  0  0  0
   19.3050   19.5847   23.3002 H   0  0  0  0  0  0  0  0  0  0  0  0
   20.1387   18.4537   24.9504 C   0  0  0  0  0  0  0  0  0  0  0  0
   21.1186   18.0807   25.2771 H   0  0  0  0  0  0  0  0  0  0  0  0
   19.4903   17.5783   24.8115 H   0  0  0  0  0  0  0  0  0  0  0  0
   19.5468   19.3609   26.0434 C   0  0  0  0  0  0  0  0  0  0  0  0
   20.1978   20.2259   26.1963 H   0  0  0  0  0  0  0  0  0  0  0  0
   18.5634   19.7215   25.7298 H   0  0  0  0  0  0  0  0  0  0  0  0
   19.3840   18.6569   27.3750 N   0  3  0  0  0  0  0  0  0  0  0  0
   18.9885   19.2786   28.0888 H   0  0  0  0  0  0  0  0  0  0  0  0
   20.2799   18.3164   27.7393 H   0  0  0  0  0  0  0  0  0  0  0  0
   18.7591   17.8470   27.3054 H   0  0  0  0  0  0  0  0  0  0  0  0
  1  2  1  0  0  0  0
  1  3  1  0  0  0  0
  1  4  1  0  0  0  0
  1  5  1  0  0  0  0
  5  6  1  0  0  0  0
  5  7  1  0  0  0  0
  5  8  1  0  0  0  0
  8  9  1  0  0  0  0
  8 10  1  0  0  0  0
  8 11  1  0  0  0  0
 11 12  1  0  0  0  0
 11 13  1  0  0  0  0
 11 14  1  0  0  0  0
 14 15  1  0  0  0  0
 14 16  1  0  0  0  0
 14 17  1  0  0  0  0
 17 18  1  0  0  0  0
 17 19  1  0  0  0  0
 17 20  1  0  0  0  0
 20 21  1  0  0  0  0
 20 22  1  0  0  0  0
 20 23  1  0  0  0  0
 23 24  1  0  0  0  0
 23 25  1  0  0  0  0
 23 26  1  0  0  0  0
M  END
> <VM2 Rank>
34

> <Conf_Id>
1292

> <Probability>
1.00

> <Sum Probability>
70.94

> <Delta G>
1.197

> <G>
49.458

> <E>
16.677

> <-TS>
32.782

> <U+W>
-4.785

> <U>
48.494

> <W>
-53.279

> <W(PB)>
-55.569

> <W(SA)>
2.290

> <Valence>
3.117

> <Coulomb>
44.693

> <VdW>
0.684

> <VdW6>
-7.347

> <VdW12>
8.031

> <Bond>
0.208

> <Angle>
1.039

> <Pdih>
1.870

> <Idih>
0.000

> <Tether>
0.000

$$$$
VeraChem MOL file


 26 25  0  0  0  0  0  0  0  0999 V2000     
   20.8590   20.0471   20.2472 C   0  0  0  0  0  0  0  0  0  0  0  0
   21.4904   19.3939   19.6310 H   0  0  0  0  0  0  0  0  0  0  0  0
   20.7523   21.0048   19.7216 H   0  0  0  0  0  0  0  0  0  0  0  0
   21.3845   20.2444   21.1899 H   0  0  0  0  0  0  0  0  0  0  0  0
   19.4739   19.4079   20.4946 C   0  0  0  0  0  0  0  0  0  0  0  0
   18.9398   19.3397   19.5366 H   0  0  0  0  0  0  0  0  0  0  0  0
   18.8684   20.0691   21.1288 H   0  0  0  0  0  0  0  0  0  0  0  0
   19.5512   17.9906   21.1176 C   0  0  0  0  0  0  0  0  0  0  0  0
   18.5313   17.5983   21.2317 H   0  0  0  0  0  0  0  0  0  0  0  0
   20.0537   17.3186   20.4084 H   0  0  0  0  0  0  0  0  0  0  0  0
   20.2797   17.9056   22.4838 C   0  0  0  0  0  0  0  0  0  0  0  0
   21.3339   18.1886   22.3642 H   0  0  0  0  0  0  0  0  0  0  0  0
   20.2841   16.8556   22.8074 H   0  0  0  0  0  0  0  0  0  0  0  0
   19.6266   18.7705   23.5884 C   0  0  0  0  0  0  0  0  0  0  0  0
   19.6799   19.8321   23.3127 H   0  0  0  0  0  0  0  0  0  0  0  0
   18.5612   18.5151   23.6735 H   0  0  0  0  0  0  0  0  0  0  0  0
   20.3153   18.5702   24.9563 C   0  0  0  0  0  0  0  0  0  0  0  0
   21.3803   18.8256   24.8746 H   0  0  0  0  0  0  0  0  0  0  0  0
   20.2585   17.5131   25.2483 H   0  0  0  0  0  0  0  0  0  0  0  0
   19.6633   19.4377   26.0472 C   0  0  0  0  0  0  0  0  0  0  0  0
   19.7322   20.4928   25.7687 H   0  0  0  0  0  0  0  0  0  0  0  0
   18.6061   19.1755   26.1431 H   0  0  0  0  0  0  0  0  0  0  0  0
   20.3120   19.2694   27.4060 N   0  3  0  0  0  0  0  0  0  0  0  0
   21.3043   19.5268   27.3903 H   0  0  0  0  0  0  0  0  0  0  0  0
   20.2565   18.3011   27.7386 H   0  0  0  0  0  0  0  0  0  0  0  0
   19.8628   19.8557   28.1179 H   0  0  0  0  0  0  0  0  0  0  0  0
  1  2  1  0  0  0  0
  1  3  1  0  0  0  0
  1  4  1  0  0  0  0
  1  5  1  0  0  0  0
  5  6  1  0  0  0  0
  5  7  1  0  0  0  0
  5  8  1  0  0  0  0
  8  9  1  0  0  0  0
  8 10  1  0  0  0  0
  8 11  1  0  0  0  0
 11 12  1  0  0  0  0
 11 13  1  0  0  0  0
 11 14  1  0  0  0  0
 14 15  1  0  0  0  0
 14 16  1  0  0  0  0
 14 17  1  0  0  0  0
 17 18  1  0  0  0  0
 17 19  1  0  0  0  0
 17 20  1  0  0  0  0
 20 21  1  0  0  0  0
 20 22  1  0  0  0  0
 20 23  1  0  0  0  0
 23 24  1  0  0  0  0
 23 25  1  0  0  0  0
 23 26  1  0  0  0  0
M  END
> <VM2 Rank>
35

> <Conf_Id>
187

> <Probability>
0.94

> <Sum Probability>
71.89

> <Delta G>
1.231

> <G>
49.493

> <E>
16.710

> <-TS>
32.782

> <U+W>
-4.752

> <U>
48.494

> <W>
-53.245

> <W(PB)>
-55.524

> <W(SA)>
2.279

> <Valence>
3.117

> <Coulomb>
44.693

> <VdW>
0.684

> <VdW6>
-7.347

> <VdW12>
8.031

> <Bond>
0.208

> <Angle>
1.039

> <Pdih>
1.870

> <Idih>
0.000

> <Tether>
0.000

$$$$
VeraChem MOL file


 26 25  0  0  0  0  0  0  0  0999 V2000     
   20.1147   19.2561   19.0890 C   0  0  0  0  0  0  0  0  0  0  0  0
   19.2776   18.6679   18.6909 H   0  0  0  0  0  0  0  0  0  0  0  0
   19.8388   20.3178   19.0435 H   0  0  0  0  0  0  0  0  0  0  0  0
   20.9777   19.1034   18.4281 H   0  0  0  0  0  0  0  0  0  0  0  0
   20.4533   18.8329   20.5342 C   0  0  0  0  0  0  0  0  0  0  0  0
   21.3190   19.4126   20.8805 H   0  0  0  0  0  0  0  0  0  0  0  0
   20.7529   17.7756   20.5431 H   0  0  0  0  0  0  0  0  0  0  0  0
   19.2519   19.0436   21.4860 C   0  0  0  0  0  0  0  0  0  0  0  0
   18.9879   20.1097   21.5195 H   0  0  0  0  0  0  0  0  0  0  0  0
   18.3765   18.5228   21.0740 H   0  0  0  0  0  0  0  0  0  0  0  0
   19.4980   18.5240   22.9239 C   0  0  0  0  0  0  0  0  0  0  0  0
   19.7587   17.4573   22.8890 H   0  0  0  0  0  0  0  0  0  0  0  0
   18.5515   18.5921   23.4762 H   0  0  0  0  0  0  0  0  0  0  0  0
   20.5981   19.3069   23.6851 C   0  0  0  0  0  0  0  0  0  0  0  0
   21.5529   19.2154   23.1515 H   0  0  0  0  0  0  0  0  0  0  0  0
   20.3499   20.3773   23.6993 H   0  0  0  0  0  0  0  0  0  0  0  0
   20.8055   18.8069   25.1343 C   0  0  0  0  0  0  0  0  0  0  0  0
   21.6654   19.3316   25.5717 H   0  0  0  0  0  0  0  0  0  0  0  0
   21.0616   17.7390   25.1233 H   0  0  0  0  0  0  0  0  0  0  0  0
   19.5718   19.0354   26.0278 C   0  0  0  0  0  0  0  0  0  0  0  0
   19.3165   20.0985   26.0375 H   0  0  0  0  0  0  0  0  0  0  0  0
   18.7183   18.4797   25.6311 H   0  0  0  0  0  0  0  0  0  0  0  0
   19.7877   18.5932   27.4606 N   0  3  0  0  0  0  0  0  0  0  0  0
   20.5611   19.0993   27.9043 H   0  0  0  0  0  0  0  0  0  0  0  0
   20.0062   17.5934   27.5232 H   0  0  0  0  0  0  0  0  0  0  0  0
   18.9555   18.7538   28.0386 H   0  0  0  0  0  0  0  0  0  0  0  0
  1  2  1  0  0  0  0
  1  3  1  0  0  0  0
  1  4  1  0  0  0  0
  1  5  1  0  0  0  0
  5  6  1  0  0  0  0
  5  7  1  0  0  0  0
  5  8  1  0  0  0  0
  8  9  1  0  0  0  0
  8 10  1  0  0  0  0
  8 11  1  0  0  0  0
 11 12  1  0  0  0  0
 11 13  1  0  0  0  0
 11 14  1  0  0  0  0
 14 15  1  0  0  0  0
 14 16  1  0  0  0  0
 14 17  1  0  0  0  0
 17 18  1  0  0  0  0
 17 19  1  0  0  0  0
 17 20  1  0  0  0  0
 20 21  1  0  0  0  0
 20 22  1  0  0  0  0
 20 23  1  0  0  0  0
 23 24  1  0  0  0  0
 23 25  1  0  0  0  0
 23 26  1  0  0  0  0
M  END
> <VM2 Rank>
36

> <Conf_Id>
752

> <Probability>
0.94

> <Sum Probability>
72.82

> <Delta G>
1.234

> <G>
49.495

> <E>
16.974

> <-TS>
32.521

> <U+W>
-4.488

> <U>
48.768

> <W>
-53.256

> <W(PB)>
-55.600

> <W(SA)>
2.345

> <Valence>
3.051

> <Coulomb>
44.907

> <VdW>
0.810

> <VdW6>
-6.973

> <VdW12>
7.782

> <Bond>
0.197

> <Angle>
0.815

> <Pdih>
2.039

> <Idih>
0.000

> <Tether>
0.000

$$$$
VeraChem MOL file


 26 25  0  0  0  0  0  0  0  0999 V2000     
   19.7323   17.9496   19.7443 C   0  0  0  0  0  0  0  0  0  0  0  0
   20.0409   16.9910   20.1812 H   0  0  0  0  0  0  0  0  0  0  0  0
   18.6836   18.1283   20.0125 H   0  0  0  0  0  0  0  0  0  0  0  0
   19.7816   17.8521   18.6521 H   0  0  0  0  0  0  0  0  0  0  0  0
   20.6450   19.0998   20.2266 C   0  0  0  0  0  0  0  0  0  0  0  0
   20.3000   20.0504   19.7965 H   0  0  0  0  0  0  0  0  0  0  0  0
   21.6589   18.9357   19.8358 H   0  0  0  0  0  0  0  0  0  0  0  0
   20.7193   19.2186   21.7680 C   0  0  0  0  0  0  0  0  0  0  0  0
   21.0946   18.2737   22.1823 H   0  0  0  0  0  0  0  0  0  0  0  0
   21.4613   19.9875   22.0236 H   0  0  0  0  0  0  0  0  0  0  0  0
   19.3628   19.5858   22.4210 C   0  0  0  0  0  0  0  0  0  0  0  0
   18.6430   18.7689   22.2789 H   0  0  0  0  0  0  0  0  0  0  0  0
   18.9435   20.4616   21.9069 H   0  0  0  0  0  0  0  0  0  0  0  0
   19.4735   19.9091   23.9313 C   0  0  0  0  0  0  0  0  0  0  0  0
   20.1718   20.7446   24.0792 H   0  0  0  0  0  0  0  0  0  0  0  0
   18.4941   20.2597   24.2857 H   0  0  0  0  0  0  0  0  0  0  0  0
   19.9160   18.7014   24.7904 C   0  0  0  0  0  0  0  0  0  0  0  0
   20.9272   18.3850   24.5052 H   0  0  0  0  0  0  0  0  0  0  0  0
   19.2459   17.8512   24.6060 H   0  0  0  0  0  0  0  0  0  0  0  0
   19.9032   19.0464   26.2900 C   0  0  0  0  0  0  0  0  0  0  0  0
   20.5815   19.8824   26.4811 H   0  0  0  0  0  0  0  0  0  0  0  0
   18.8954   19.3454   26.5905 H   0  0  0  0  0  0  0  0  0  0  0  0
   20.3289   17.8884   27.1694 N   0  3  0  0  0  0  0  0  0  0  0  0
   20.3129   18.1395   28.1640 H   0  0  0  0  0  0  0  0  0  0  0  0
   21.2819   17.5763   26.9559 H   0  0  0  0  0  0  0  0  0  0  0  0
   19.7130   17.0765   27.0569 H   0  0  0  0  0  0  0  0  0  0  0  0
  1  2  1  0  0  0  0
  1  3  1  0  0  0  0
  1  4  1  0  0  0  0
  1  5  1  0  0  0  0
  5  6  1  0  0  0  0
  5  7  1  0  0  0  0
  5  8  1  0  0  0  0
  8  9  1  0  0  0  0
  8 10  1  0  0  0  0
  8 11  1  0  0  0  0
 11 12  1  0  0  0  0
 11 13  1  0  0  0  0
 11 14  1  0  0  0  0
 14 15  1  0  0  0  0
 14 16  1  0  0  0  0
 14 17  1  0  0  0  0
 17 18  1  0  0  0  0
 17 19  1  0  0  0  0
 17 20  1  0  0  0  0
 20 21  1  0  0  0  0
 20 22  1  0  0  0  0
 20 23  1  0  0  0  0
 23 24  1  0  0  0  0
 23 25  1  0  0  0  0
 23 26  1  0  0  0  0
M  END
> <VM2 Rank>
37

> <Conf_Id>
1261

> <Probability>
0.91

> <Sum Probability>
73.74

> <Delta G>
1.251

> <G>
49.512

> <E>
16.922

> <-TS>
32.590

> <U+W>
-4.539

> <U>
48.768

> <W>
-53.308

> <W(PB)>
-55.646

> <W(SA)>
2.338

> <Valence>
3.172

> <Coulomb>
44.791

> <VdW>
0.806

> <VdW6>
-7.081

> <VdW12>
7.886

> <Bond>
0.203

> <Angle>
0.850

> <Pdih>
2.119

> <Idih>
0.000

> <Tether>
0.000

$$$$
VeraChem MOL file


 26 25  0  0  0  0  0  0  0  0999 V2000     
   20.6680   20.2616   19.9904 C   0  0  0  0  0  0  0  0  0  0  0  0
   20.8806   19.6206   19.1249 H   0  0  0  0  0  0  0  0  0  0  0  0
   20.1763   21.1716   19.6226 H   0  0  0  0  0  0  0  0  0  0  0  0
   21.6246   20.5545   20.4424 H   0  0  0  0  0  0  0  0  0  0  0  0
   19.7712   19.5334   21.0138 C   0  0  0  0  0  0  0  0  0  0  0  0
   18.8114   19.2797   20.5425 H   0  0  0  0  0  0  0  0  0  0  0  0
   19.5484   20.2182   21.8428 H   0  0  0  0  0  0  0  0  0  0  0  0
   20.4452   18.2486   21.5502 C   0  0  0  0  0  0  0  0  0  0  0  0
   20.7273   17.6126   20.6998 H   0  0  0  0  0  0  0  0  0  0  0  0
   21.3845   18.5056   22.0573 H   0  0  0  0  0  0  0  0  0  0  0  0
   19.5389   17.4204   22.4976 C   0  0  0  0  0  0  0  0  0  0  0  0
   20.0818   16.5149   22.8018 H   0  0  0  0  0  0  0  0  0  0  0  0
   18.6629   17.0697   21.9349 H   0  0  0  0  0  0  0  0  0  0  0  0
   19.0495   18.1631   23.7680 C   0  0  0  0  0  0  0  0  0  0  0  0
   18.4000   19.0025   23.4862 H   0  0  0  0  0  0  0  0  0  0  0  0
   18.4180   17.4759   24.3481 H   0  0  0  0  0  0  0  0  0  0  0  0
   20.1986   18.6707   24.6702 C   0  0  0  0  0  0  0  0  0  0  0  0
   20.7955   19.4197   24.1346 H   0  0  0  0  0  0  0  0  0  0  0  0
   20.8694   17.8374   24.9181 H   0  0  0  0  0  0  0  0  0  0  0  0
   19.6574   19.2958   25.9679 C   0  0  0  0  0  0  0  0  0  0  0  0
   19.0014   20.1364   25.7258 H   0  0  0  0  0  0  0  0  0  0  0  0
   19.0753   18.5528   26.5196 H   0  0  0  0  0  0  0  0  0  0  0  0
   20.7522   19.8054   26.8830 N   0  3  0  0  0  0  0  0  0  0  0  0
   21.3210   20.5296   26.4323 H   0  0  0  0  0  0  0  0  0  0  0  0
   21.3898   19.0556   27.1701 H   0  0  0  0  0  0  0  0  0  0  0  0
   20.3700   20.2171   27.7414 H   0  0  0  0  0  0  0  0  0  0  0  0
  1  2  1  0  0  0  0
  1  3  1  0  0  0  0
  1  4  1  0  0  0  0
  1  5  1  0  0  0  0
  5  6  1  0  0  0  0
  5  7  1  0  0  0  0
  5  8  1  0  0  0  0
  8  9  1  0  0  0  0
  8 10  1  0  0  0  0
  8 11  1  0  0  0  0
 11 12  1  0  0  0  0
 11 13  1  0  0  0  0
 11 14  1  0  0  0  0
 14 15  1  0  0  0  0
 14 16  1  0  0  0  0
 14 17  1  0  0  0  0
 17 18  1  0  0  0  0
 17 19  1  0  0  0  0
 17 20  1  0  0  0  0
 20 21  1  0  0  0  0
 20 22  1  0  0  0  0
 20 23  1  0  0  0  0
 23 24  1  0  0  0  0
 23 25  1  0  0  0  0
 23 26  1  0  0  0  0
M  END
> <VM2 Rank>
38

> <Conf_Id>
1311

> <Probability>
0.90

> <Sum Probability>
74.64

> <Delta G>
1.260

> <G>
49.522

> <E>
16.727

> <-TS>
32.795

> <U+W>
-4.735

> <U>
48.910

> <W>
-53.645

> <W(PB)>
-55.959

> <W(SA)>
2.314

> <Valence>
3.149

> <Coulomb>
45.131

> <VdW>
0.630

> <VdW6>
-7.453

> <VdW12>
8.083

> <Bond>
0.212

> <Angle>
1.075

> <Pdih>
1.862

> <Idih>
0.000

> <Tether>
0.000

$$$$
VeraChem MOL file


 26 25  0  0  0  0  0  0  0  0999 V2000     
   21.1801   18.9019   19.7927 C   0  0  0  0  0  0  0  0  0  0  0  0
   21.9173   18.2251   20.2440 H   0  0  0  0  0  0  0  0  0  0  0  0
   21.3010   18.8515   18.7029 H   0  0  0  0  0  0  0  0  0  0  0  0
   21.4178   19.9266   20.1040 H   0  0  0  0  0  0  0  0  0  0  0  0
   19.7418   18.5057   20.1964 C   0  0  0  0  0  0  0  0  0  0  0  0
   19.5101   17.5223   19.7639 H   0  0  0  0  0  0  0  0  0  0  0  0
   19.0259   19.2124   19.7539 H   0  0  0  0  0  0  0  0  0  0  0  0
   19.5315   18.4373   21.7282 C   0  0  0  0  0  0  0  0  0  0  0  0
   18.5210   18.0535   21.9252 H   0  0  0  0  0  0  0  0  0  0  0  0
   20.2309   17.7056   22.1535 H   0  0  0  0  0  0  0  0  0  0  0  0
   19.6997   19.8075   22.4323 C   0  0  0  0  0  0  0  0  0  0  0  0
   19.0855   20.5552   21.9117 H   0  0  0  0  0  0  0  0  0  0  0  0
   20.7401   20.1486   22.3489 H   0  0  0  0  0  0  0  0  0  0  0  0
   19.2891   19.7877   23.9251 C   0  0  0  0  0  0  0  0  0  0  0  0
   19.3374   20.8145   24.3138 H   0  0  0  0  0  0  0  0  0  0  0  0
   18.2399   19.4734   24.0148 H   0  0  0  0  0  0  0  0  0  0  0  0
   20.1827   18.8769   24.7993 C   0  0  0  0  0  0  0  0  0  0  0  0
   21.2359   19.1606   24.6726 H   0  0  0  0  0  0  0  0  0  0  0  0
   20.0873   17.8323   24.4771 H   0  0  0  0  0  0  0  0  0  0  0  0
   19.8012   18.9792   26.2866 C   0  0  0  0  0  0  0  0  0  0  0  0
   19.9105   20.0133   26.6244 H   0  0  0  0  0  0  0  0  0  0  0  0
   18.7575   18.6821   26.4201 H   0  0  0  0  0  0  0  0  0  0  0  0
   20.6550   18.1029   27.1803 N   0  3  0  0  0  0  0  0  0  0  0  0
   20.5753   17.1113   26.9323 H   0  0  0  0  0  0  0  0  0  0  0  0
   20.3845   18.1866   28.1664 H   0  0  0  0  0  0  0  0  0  0  0  0
   21.6483   18.3500   27.1216 H   0  0  0  0  0  0  0  0  0  0  0  0
  1  2  1  0  0  0  0
  1  3  1  0  0  0  0
  1  4  1  0  0  0  0
  1  5  1  0  0  0  0
  5  6  1  0  0  0  0
  5  7  1  0  0  0  0
  5  8  1  0  0  0  0
  8  9  1  0  0  0  0
  8 10  1  0  0  0  0
  8 11  1  0  0  0  0
 11 12  1  0  0  0  0
 11 13  1  0  0  0  0
 11 14  1  0  0  0  0
 14 15  1  0  0  0  0
 14 16  1  0  0  0  0
 14 17  1  0  0  0  0
 17 18  1  0  0  0  0
 17 19  1  0  0  0  0
 17 20  1  0  0  0  0
 20 21  1  0  0  0  0
 20 22  1  0  0  0  0
 20 23  1  0  0  0  0
 23 24  1  0  0  0  0
 23 25  1  0  0  0  0
 23 26  1  0  0  0  0
M  END
> <VM2 Rank>
39

> <Conf_Id>
1327

> <Probability>
0.89

> <Sum Probability>
75.52

> <Delta G>
1.267

> <G>
49.528

> <E>
16.939

> <-TS>
32.589

> <U+W>
-4.523

> <U>
48.768

> <W>
-53.291

> <W(PB)>
-55.604

> <W(SA)>
2.313

> <Valence>
3.172

> <Coulomb>
44.791

> <VdW>
0.805

> <VdW6>
-7.080

> <VdW12>
7.886

> <Bond>
0.203

> <Angle>
0.850

> <Pdih>
2.120

> <Idih>
0.000

> <Tether>
0.000

$$$$
VeraChem MOL file


 26 25  0  0  0  0  0  0  0  0999 V2000     
   18.6775   18.9469   19.9242 C   0  0  0  0  0  0  0  0  0  0  0  0
   19.2236   18.5263   19.0697 H   0  0  0  0  0  0  0  0  0  0  0  0
   18.0131   18.1688   20.3221 H   0  0  0  0  0  0  0  0  0  0  0  0
   18.0506   19.7676   19.5521 H   0  0  0  0  0  0  0  0  0  0  0  0
   19.6503   19.4536   21.0100 C   0  0  0  0  0  0  0  0  0  0  0  0
   19.0696   19.9019   21.8272 H   0  0  0  0  0  0  0  0  0  0  0  0
   20.2808   20.2505   20.5918 H   0  0  0  0  0  0  0  0  0  0  0  0
   20.5426   18.3129   21.5535 C   0  0  0  0  0  0  0  0  0  0  0  0
   19.9153   17.5349   22.0081 H   0  0  0  0  0  0  0  0  0  0  0  0
   21.0562   17.8300   20.7107 H   0  0  0  0  0  0  0  0  0  0  0  0
   21.6144   18.7913   22.5670 C   0  0  0  0  0  0  0  0  0  0  0  0
   22.3057   19.4760   22.0566 H   0  0  0  0  0  0  0  0  0  0  0  0
   22.2201   17.9273   22.8732 H   0  0  0  0  0  0  0  0  0  0  0  0
   21.0643   19.4938   23.8353 C   0  0  0  0  0  0  0  0  0  0  0  0
   21.9160   19.7862   24.4652 H   0  0  0  0  0  0  0  0  0  0  0  0
   20.5603   20.4293   23.5585 H   0  0  0  0  0  0  0  0  0  0  0  0
   20.1060   18.6095   24.6669 C   0  0  0  0  0  0  0  0  0  0  0  0
   20.5976   17.6578   24.9088 H   0  0  0  0  0  0  0  0  0  0  0  0
   19.2089   18.3718   24.0814 H   0  0  0  0  0  0  0  0  0  0  0  0
   19.6828   19.3125   25.9687 C   0  0  0  0  0  0  0  0  0  0  0  0
   20.5678   19.5382   26.5697 H   0  0  0  0  0  0  0  0  0  0  0  0
   19.1786   20.2533   25.7317 H   0  0  0  0  0  0  0  0  0  0  0  0
   18.7431   18.4785   26.8154 N   0  3  0  0  0  0  0  0  0  0  0  0
   19.1689   17.5889   27.0953 H   0  0  0  0  0  0  0  0  0  0  0  0
   17.8759   18.2545   26.3164 H   0  0  0  0  0  0  0  0  0  0  0  0
   18.4743   18.9651   27.6776 H   0  0  0  0  0  0  0  0  0  0  0  0
  1  2  1  0  0  0  0
  1  3  1  0  0  0  0
  1  4  1  0  0  0  0
  1  5  1  0  0  0  0
  5  6  1  0  0  0  0
  5  7  1  0  0  0  0
  5  8  1  0  0  0  0
  8  9  1  0  0  0  0
  8 10  1  0  0  0  0
  8 11  1  0  0  0  0
 11 12  1  0  0  0  0
 11 13  1  0  0  0  0
 11 14  1  0  0  0  0
 14 15  1  0  0  0  0
 14 16  1  0  0  0  0
 14 17  1  0  0  0  0
 17 18  1  0  0  0  0
 17 19  1  0  0  0  0
 17 20  1  0  0  0  0
 20 21  1  0  0  0  0
 20 22  1  0  0  0  0
 20 23  1  0  0  0  0
 23 24  1  0  0  0  0
 23 25  1  0  0  0  0
 23 26  1  0  0  0  0
M  END
> <VM2 Rank>
40

> <Conf_Id>
152

> <Probability>
0.86

> <Sum Probability>
76.38

> <Delta G>
1.288

> <G>
49.550

> <E>
16.754

> <-TS>
32.795

> <U+W>
-4.707

> <U>
48.910

> <W>
-53.618

> <W(PB)>
-55.928

> <W(SA)>
2.311

> <Valence>
3.149

> <Coulomb>
45.131

> <VdW>
0.630

> <VdW6>
-7.453

> <VdW12>
8.083

> <Bond>
0.212

> <Angle>
1.075

> <Pdih>
1.862

> <Idih>
0.000

> <Tether>
0.000

$$$$
VeraChem MOL file


 26 25  0  0  0  0  0  0  0  0999 V2000     
   19.8459   19.2220   19.3278 C   0  0  0  0  0  0  0  0  0  0  0  0
   18.7987   18.9702   19.5355 H   0  0  0  0  0  0  0  0  0  0  0  0
   19.9458   20.3152   19.3370 H   0  0  0  0  0  0  0  0  0  0  0  0
   20.0728   18.8731   18.3121 H   0  0  0  0  0  0  0  0  0  0  0  0
   20.8028   18.5676   20.3501 C   0  0  0  0  0  0  0  0  0  0  0  0
   21.8380   18.7418   20.0250 H   0  0  0  0  0  0  0  0  0  0  0  0
   20.6593   17.4780   20.3469 H   0  0  0  0  0  0  0  0  0  0  0  0
   20.6377   19.1135   21.7893 C   0  0  0  0  0  0  0  0  0  0  0  0
   21.4433   18.6934   22.4048 H   0  0  0  0  0  0  0  0  0  0  0  0
   20.7841   20.2023   21.7872 H   0  0  0  0  0  0  0  0  0  0  0  0
   19.2663   18.7708   22.4253 C   0  0  0  0  0  0  0  0  0  0  0  0
   19.1211   17.6818   22.4301 H   0  0  0  0  0  0  0  0  0  0  0  0
   18.4623   19.1868   21.8047 H   0  0  0  0  0  0  0  0  0  0  0  0
   19.0945   19.3236   23.8619 C   0  0  0  0  0  0  0  0  0  0  0  0
   19.2404   20.4127   23.8576 H   0  0  0  0  0  0  0  0  0  0  0  0
   18.0555   19.1536   24.1772 H   0  0  0  0  0  0  0  0  0  0  0  0
   20.0430   18.6734   24.8966 C   0  0  0  0  0  0  0  0  0  0  0  0
   21.0872   18.9044   24.6516 H   0  0  0  0  0  0  0  0  0  0  0  0
   19.9353   17.5811   24.8620 H   0  0  0  0  0  0  0  0  0  0  0  0
   19.7424   19.1713   26.3213 C   0  0  0  0  0  0  0  0  0  0  0  0
   19.8639   20.2571   26.3650 H   0  0  0  0  0  0  0  0  0  0  0  0
   18.7093   18.9298   26.5854 H   0  0  0  0  0  0  0  0  0  0  0  0
   20.6484   18.5568   27.3687 N   0  3  0  0  0  0  0  0  0  0  0  0
   21.6357   18.7708   27.1934 H   0  0  0  0  0  0  0  0  0  0  0  0
   20.5614   17.5356   27.3976 H   0  0  0  0  0  0  0  0  0  0  0  0
   20.4309   18.9016   28.3101 H   0  0  0  0  0  0  0  0  0  0  0  0
  1  2  1  0  0  0  0
  1  3  1  0  0  0  0
  1  4  1  0  0  0  0
  1  5  1  0  0  0  0
  5  6  1  0  0  0  0
  5  7  1  0  0  0  0
  5  8  1  0  0  0  0
  8  9  1  0  0  0  0
  8 10  1  0  0  0  0
  8 11  1  0  0  0  0
 11 12  1  0  0  0  0
 11 13  1  0  0  0  0
 11 14  1  0  0  0  0
 14 15  1  0  0  0  0
 14 16  1  0  0  0  0
 14 17  1  0  0  0  0
 17 18  1  0  0  0  0
 17 19  1  0  0  0  0
 17 20  1  0  0  0  0
 20 21  1  0  0  0  0
 20 22  1  0  0  0  0
 20 23  1  0  0  0  0
 23 24  1  0  0  0  0
 23 25  1  0  0  0  0
 23 26  1  0  0  0  0
M  END
> <VM2 Rank>
41

> <Conf_Id>
277

> <Probability>
0.77

> <Sum Probability>
77.15

> <Delta G>
1.350

> <G>
49.611

> <E>
17.104

> <-TS>
32.507

> <U+W>
-4.358

> <U>
48.901

> <W>
-53.260

> <W(PB)>
-55.569

> <W(SA)>
2.309

> <Valence>
3.277

> <Coulomb>
44.745

> <VdW>
0.880

> <VdW6>
-6.990

> <VdW12>
7.870

> <Bond>
0.211

> <Angle>
0.950

> <Pdih>
2.115

> <Idih>
0.000

> <Tether>
0.000

$$$$
VeraChem MOL file


 26 25  0  0  0  0  0  0  0  0999 V2000     
   19.9868   19.3146   19.3325 C   0  0  0  0  0  0  0  0  0  0  0  0
   20.2655   18.9996   18.3186 H   0  0  0  0  0  0  0  0  0  0  0  0
   18.9433   19.6542   19.3032 H   0  0  0  0  0  0  0  0  0  0  0  0
   20.6202   20.1703   19.5965 H   0  0  0  0  0  0  0  0  0  0  0  0
   20.1636   18.1461   20.3288 C   0  0  0  0  0  0  0  0  0  0  0  0
   21.2206   17.8478   20.3659 H   0  0  0  0  0  0  0  0  0  0  0  0
   19.6116   17.2743   19.9505 H   0  0  0  0  0  0  0  0  0  0  0  0
   19.6599   18.4692   21.7566 C   0  0  0  0  0  0  0  0  0  0  0  0
   18.6026   18.7646   21.7140 H   0  0  0  0  0  0  0  0  0  0  0  0
   19.7002   17.5448   22.3466 H   0  0  0  0  0  0  0  0  0  0  0  0
   20.4840   19.5739   22.4660 C   0  0  0  0  0  0  0  0  0  0  0  0
   20.4468   20.4954   21.8710 H   0  0  0  0  0  0  0  0  0  0  0  0
   21.5410   19.2773   22.5109 H   0  0  0  0  0  0  0  0  0  0  0  0
   19.9771   19.9056   23.8914 C   0  0  0  0  0  0  0  0  0  0  0  0
   20.5267   20.7831   24.2597 H   0  0  0  0  0  0  0  0  0  0  0  0
   18.9197   20.2013   23.8469 H   0  0  0  0  0  0  0  0  0  0  0  0
   20.1535   18.7462   24.9003 C   0  0  0  0  0  0  0  0  0  0  0  0
   21.2006   18.4155   24.9042 H   0  0  0  0  0  0  0  0  0  0  0  0
   19.5426   17.8858   24.6000 H   0  0  0  0  0  0  0  0  0  0  0  0
   19.7480   19.1749   26.3215 C   0  0  0  0  0  0  0  0  0  0  0  0
   20.3632   20.0206   26.6406 H   0  0  0  0  0  0  0  0  0  0  0  0
   18.7010   19.4900   26.3262 H   0  0  0  0  0  0  0  0  0  0  0  0
   19.9080   18.0684   27.3440 N   0  3  0  0  0  0  0  0  0  0  0  0
   19.6329   18.3753   28.2834 H   0  0  0  0  0  0  0  0  0  0  0  0
   20.8788   17.7449   27.4082 H   0  0  0  0  0  0  0  0  0  0  0  0
   19.3319   17.2514   27.1165 H   0  0  0  0  0  0  0  0  0  0  0  0
  1  2  1  0  0  0  0
  1  3  1  0  0  0  0
  1  4  1  0  0  0  0
  1  5  1  0  0  0  0
  5  6  1  0  0  0  0
  5  7  1  0  0  0  0
  5  8  1  0  0  0  0
  8  9  1  0  0  0  0
  8 10  1  0  0  0  0
  8 11  1  0  0  0  0
 11 12  1  0  0  0  0
 11 13  1  0  0  0  0
 11 14  1  0  0  0  0
 14 15  1  0  0  0  0
 14 16  1  0  0  0  0
 14 17  1  0  0  0  0
 17 18  1  0  0  0  0
 17 19  1  0  0  0  0
 17 20  1  0  0  0  0
 20 21  1  0  0  0  0
 20 22  1  0  0  0  0
 20 23  1  0  0  0  0
 23 24  1  0  0  0  0
 23 25  1  0  0  0  0
 23 26  1  0  0  0  0
M  END
> <VM2 Rank>
42

> <Conf_Id>
766

> <Probability>
0.76

> <Sum Probability>
77.91

> <Delta G>
1.363

> <G>
49.625

> <E>
17.117

> <-TS>
32.508

> <U+W>
-4.345

> <U>
48.901

> <W>
-53.246

> <W(PB)>
-55.588

> <W(SA)>
2.342

> <Valence>
3.277

> <Coulomb>
44.745

> <VdW>
0.880

> <VdW6>
-6.990

> <VdW12>
7.870

> <Bond>
0.211

> <Angle>
0.950

> <Pdih>
2.115

> <Idih>
0.000

> <Tether>
0.000

$$$$
VeraChem MOL file


 26 25  0  0  0  0  0  0  0  0999 V2000     
   20.7063   19.7378   19.8748 C   0  0  0  0  0  0  0  0  0  0  0  0
   21.1345   20.4296   20.6107 H   0  0  0  0  0  0  0  0  0  0  0  0
   21.3824   19.7161   19.0103 H   0  0  0  0  0  0  0  0  0  0  0  0
   19.7441   20.1451   19.5382 H   0  0  0  0  0  0  0  0  0  0  0  0
   20.5341   18.3187   20.4624 C   0  0  0  0  0  0  0  0  0  0  0  0
   21.5046   17.9462   20.8189 H   0  0  0  0  0  0  0  0  0  0  0  0
   20.2203   17.6383   19.6584 H   0  0  0  0  0  0  0  0  0  0  0  0
   19.4940   18.2485   21.6064 C   0  0  0  0  0  0  0  0  0  0  0  0
   18.5201   18.5998   21.2384 H   0  0  0  0  0  0  0  0  0  0  0  0
   19.3563   17.1954   21.8881 H   0  0  0  0  0  0  0  0  0  0  0  0
   19.9014   19.0581   22.8607 C   0  0  0  0  0  0  0  0  0  0  0  0
   19.9688   20.1250   22.6104 H   0  0  0  0  0  0  0  0  0  0  0  0
   20.9017   18.7415   23.1844 H   0  0  0  0  0  0  0  0  0  0  0  0
   18.8877   18.8726   24.0152 C   0  0  0  0  0  0  0  0  0  0  0  0
   17.8843   19.1450   23.6599 H   0  0  0  0  0  0  0  0  0  0  0  0
   18.8340   17.8123   24.2963 H   0  0  0  0  0  0  0  0  0  0  0  0
   19.2189   19.7317   25.2613 C   0  0  0  0  0  0  0  0  0  0  0  0
   18.4403   19.5841   26.0214 H   0  0  0  0  0  0  0  0  0  0  0  0
   19.1819   20.7947   24.9880 H   0  0  0  0  0  0  0  0  0  0  0  0
   20.5967   19.4292   25.8848 C   0  0  0  0  0  0  0  0  0  0  0  0
   21.3844   19.6172   25.1508 H   0  0  0  0  0  0  0  0  0  0  0  0
   20.7625   20.0929   26.7377 H   0  0  0  0  0  0  0  0  0  0  0  0
   20.7419   18.0023   26.3754 N   0  3  0  0  0  0  0  0  0  0  0  0
   21.6645   17.8341   26.7910 H   0  0  0  0  0  0  0  0  0  0  0  0
   20.6270   17.3277   25.6127 H   0  0  0  0  0  0  0  0  0  0  0  0
   20.0445   17.7734   27.0910 H   0  0  0  0  0  0  0  0  0  0  0  0
  1  2  1  0  0  0  0
  1  3  1  0  0  0  0
  1  4  1  0  0  0  0
  1  5  1  0  0  0  0
  5  6  1  0  0  0  0
  5  7  1  0  0  0  0
  5  8  1  0  0  0  0
  8  9  1  0  0  0  0
  8 10  1  0  0  0  0
  8 11  1  0  0  0  0
 11 12  1  0  0  0  0
 11 13  1  0  0  0  0
 11 14  1  0  0  0  0
 14 15  1  0  0  0  0
 14 16  1  0  0  0  0
 14 17  1  0  0  0  0
 17 18  1  0  0  0  0
 17 19  1  0  0  0  0
 17 20  1  0  0  0  0
 20 21  1  0  0  0  0
 20 22  1  0  0  0  0
 20 23  1  0  0  0  0
 23 24  1  0  0  0  0
 23 25  1  0  0  0  0
 23 26  1  0  0  0  0
M  END
> <VM2 Rank>
43

> <Conf_Id>
853

> <Probability>
0.64

> <Sum Probability>
78.55

> <Delta G>
1.463

> <G>
49.725

> <E>
16.974

> <-TS>
32.751

> <U+W>
-4.488

> <U>
49.278

> <W>
-53.765

> <W(PB)>
-56.060

> <W(SA)>
2.295

> <Valence>
3.048

> <Coulomb>
45.459

> <VdW>
0.771

> <VdW6>
-7.730

> <VdW12>
8.501

> <Bond>
0.210

> <Angle>
0.867

> <Pdih>
1.970

> <Idih>
0.000

> <Tether>
0.000

$$$$
VeraChem MOL file


 26 25  0  0  0  0  0  0  0  0999 V2000     
   19.1492   18.7120   19.8225 C   0  0  0  0  0  0  0  0  0  0  0  0
   18.3111   18.5699   20.5159 H   0  0  0  0  0  0  0  0  0  0  0  0
   19.1700   19.7666   19.5186 H   0  0  0  0  0  0  0  0  0  0  0  0
   18.9433   18.1091   18.9286 H   0  0  0  0  0  0  0  0  0  0  0  0
   20.4922   18.2910   20.4610 C   0  0  0  0  0  0  0  0  0  0  0  0
   21.2780   18.3346   19.6940 H   0  0  0  0  0  0  0  0  0  0  0  0
   20.4353   17.2418   20.7833 H   0  0  0  0  0  0  0  0  0  0  0  0
   20.9127   19.1831   21.6539 C   0  0  0  0  0  0  0  0  0  0  0  0
   21.9206   18.8847   21.9741 H   0  0  0  0  0  0  0  0  0  0  0  0
   20.9907   20.2273   21.3210 H   0  0  0  0  0  0  0  0  0  0  0  0
   19.9504   19.0905   22.8623 C   0  0  0  0  0  0  0  0  0  0  0  0
   19.8325   18.0372   23.1488 H   0  0  0  0  0  0  0  0  0  0  0  0
   18.9561   19.4578   22.5763 H   0  0  0  0  0  0  0  0  0  0  0  0
   20.4658   19.9127   24.0679 C   0  0  0  0  0  0  0  0  0  0  0  0
   21.4474   19.5347   24.3836 H   0  0  0  0  0  0  0  0  0  0  0  0
   20.6269   20.9525   23.7514 H   0  0  0  0  0  0  0  0  0  0  0  0
   19.4887   19.9096   25.2702 C   0  0  0  0  0  0  0  0  0  0  0  0
   18.5398   20.3715   24.9665 H   0  0  0  0  0  0  0  0  0  0  0  0
   19.8950   20.5430   26.0699 H   0  0  0  0  0  0  0  0  0  0  0  0
   19.1958   18.5059   25.8381 C   0  0  0  0  0  0  0  0  0  0  0  0
   18.4815   18.5895   26.6617 H   0  0  0  0  0  0  0  0  0  0  0  0
   18.7475   17.8792   25.0630 H   0  0  0  0  0  0  0  0  0  0  0  0
   20.4262   17.7943   26.3649 N   0  3  0  0  0  0  0  0  0  0  0  0
   20.8774   18.3225   27.1188 H   0  0  0  0  0  0  0  0  0  0  0  0
   21.1263   17.6569   25.6295 H   0  0  0  0  0  0  0  0  0  0  0  0
   20.1987   16.8680   26.7422 H   0  0  0  0  0  0  0  0  0  0  0  0
  1  2  1  0  0  0  0
  1  3  1  0  0  0  0
  1  4  1  0  0  0  0
  1  5  1  0  0  0  0
  5  6  1  0  0  0  0
  5  7  1  0  0  0  0
  5  8  1  0  0  0  0
  8  9  1  0  0  0  0
  8 10  1  0  0  0  0
  8 11  1  0  0  0  0
 11 12  1  0  0  0  0
 11 13  1  0  0  0  0
 11 14  1  0  0  0  0
 14 15  1  0  0  0  0
 14 16  1  0  0  0  0
 14 17  1  0  0  0  0
 17 18  1  0  0  0  0
 17 19  1  0  0  0  0
 17 20  1  0  0  0  0
 20 21  1  0  0  0  0
 20 22  1  0  0  0  0
 20 23  1  0  0  0  0
 23 24  1  0  0  0  0
 23 25  1  0  0  0  0
 23 26  1  0  0  0  0
M  END
> <VM2 Rank>
44

> <Conf_Id>
454

> <Probability>
0.62

> <Sum Probability>
79.17

> <Delta G>
1.482

> <G>
49.743

> <E>
16.993

> <-TS>
32.750

> <U+W>
-4.469

> <U>
49.278

> <W>
-53.747

> <W(PB)>
-56.035

> <W(SA)>
2.288

> <Valence>
3.047

> <Coulomb>
45.459

> <VdW>
0.771

> <VdW6>
-7.730

> <VdW12>
8.501

> <Bond>
0.210

> <Angle>
0.867

> <Pdih>
1.970

> <Idih>
0.000

> <Tether>
0.000

$$$$
VeraChem MOL file


 26 25  0  0  0  0  0  0  0  0999 V2000     
   20.3826   19.9109   19.6220 C   0  0  0  0  0  0  0  0  0  0  0  0
   19.3596   19.8036   19.2382 H   0  0  0  0  0  0  0  0  0  0  0  0
   20.4925   20.9268   20.0233 H   0  0  0  0  0  0  0  0  0  0  0  0
   21.0729   19.8068   18.7748 H   0  0  0  0  0  0  0  0  0  0  0  0
   20.6833   18.8515   20.7034 C   0  0  0  0  0  0  0  0  0  0  0  0
   21.7224   18.9627   21.0437 H   0  0  0  0  0  0  0  0  0  0  0  0
   20.5994   17.8479   20.2634 H   0  0  0  0  0  0  0  0  0  0  0  0
   19.7242   18.9755   21.9079 C   0  0  0  0  0  0  0  0  0  0  0  0
   19.8110   19.9844   22.3320 H   0  0  0  0  0  0  0  0  0  0  0  0
   18.6871   18.8614   21.5636 H   0  0  0  0  0  0  0  0  0  0  0  0
   20.0279   17.9172   22.9952 C   0  0  0  0  0  0  0  0  0  0  0  0
   21.0509   18.0548   23.3698 H   0  0  0  0  0  0  0  0  0  0  0  0
   20.0047   16.9184   22.5378 H   0  0  0  0  0  0  0  0  0  0  0  0
   19.0224   17.9367   24.1756 C   0  0  0  0  0  0  0  0  0  0  0  0
   18.0187   17.7021   23.7953 H   0  0  0  0  0  0  0  0  0  0  0  0
   19.2744   17.1232   24.8690 H   0  0  0  0  0  0  0  0  0  0  0  0
   18.9600   19.2747   24.9583 C   0  0  0  0  0  0  0  0  0  0  0  0
   18.2593   19.1694   25.7971 H   0  0  0  0  0  0  0  0  0  0  0  0
   18.5410   20.0595   24.3156 H   0  0  0  0  0  0  0  0  0  0  0  0
   20.3244   19.7488   25.4976 C   0  0  0  0  0  0  0  0  0  0  0  0
   21.0203   19.8908   24.6667 H   0  0  0  0  0  0  0  0  0  0  0  0
   20.2009   20.7090   26.0057 H   0  0  0  0  0  0  0  0  0  0  0  0
   20.9562   18.7837   26.4811 N   0  3  0  0  0  0  0  0  0  0  0  0
   21.8602   19.1259   26.8243 H   0  0  0  0  0  0  0  0  0  0  0  0
   21.1221   17.8665   26.0555 H   0  0  0  0  0  0  0  0  0  0  0  0
   20.3609   18.6338   27.3021 H   0  0  0  0  0  0  0  0  0  0  0  0
  1  2  1  0  0  0  0
  1  3  1  0  0  0  0
  1  4  1  0  0  0  0
  1  5  1  0  0  0  0
  5  6  1  0  0  0  0
  5  7  1  0  0  0  0
  5  8  1  0  0  0  0
  8  9  1  0  0  0  0
  8 10  1  0  0  0  0
  8 11  1  0  0  0  0
 11 12  1  0  0  0  0
 11 13  1  0  0  0  0
 11 14  1  0  0  0  0
 14 15  1  0  0  0  0
 14 16  1  0  0  0  0
 14 17  1  0  0  0  0
 17 18  1  0  0  0  0
 17 19  1  0  0  0  0
 17 20  1  0  0  0  0
 20 21  1  0  0  0  0
 20 22  1  0  0  0  0
 20 23  1  0  0  0  0
 23 24  1  0  0  0  0
 23 25  1  0  0  0  0
 23 26  1  0  0  0  0
M  END
> <VM2 Rank>
45

> <Conf_Id>
141

> <Probability>
0.61

> <Sum Probability>
79.78

> <Delta G>
1.491

> <G>
49.753

> <E>
16.852

> <-TS>
32.901

> <U+W>
-4.610

> <U>
49.198

> <W>
-53.807

> <W(PB)>
-56.084

> <W(SA)>
2.276

> <Valence>
3.018

> <Coulomb>
45.590

> <VdW>
0.590

> <VdW6>
-8.074

> <VdW12>
8.663

> <Bond>
0.222

> <Angle>
0.958

> <Pdih>
1.839

> <Idih>
0.000

> <Tether>
0.000

$$$$
VeraChem MOL file


 26 25  0  0  0  0  0  0  0  0999 V2000     
   19.3874   19.9493   20.2011 C   0  0  0  0  0  0  0  0  0  0  0  0
   19.4659   20.6431   21.0474 H   0  0  0  0  0  0  0  0  0  0  0  0
   20.2324   20.1334   19.5251 H   0  0  0  0  0  0  0  0  0  0  0  0
   18.4642   20.1921   19.6593 H   0  0  0  0  0  0  0  0  0  0  0  0
   19.3660   18.4786   20.6753 C   0  0  0  0  0  0  0  0  0  0  0  0
   19.1671   17.8310   19.8099 H   0  0  0  0  0  0  0  0  0  0  0  0
   18.5255   18.3236   21.3649 H   0  0  0  0  0  0  0  0  0  0  0  0
   20.6926   18.0245   21.3361 C   0  0  0  0  0  0  0  0  0  0  0  0
   20.6046   16.9653   21.6144 H   0  0  0  0  0  0  0  0  0  0  0  0
   21.4959   18.0725   20.5881 H   0  0  0  0  0  0  0  0  0  0  0  0
   21.1252   18.8390   22.5826 C   0  0  0  0  0  0  0  0  0  0  0  0
   21.3272   19.8800   22.2977 H   0  0  0  0  0  0  0  0  0  0  0  0
   22.0805   18.4344   22.9445 H   0  0  0  0  0  0  0  0  0  0  0  0
   20.0934   18.8012   23.7353 C   0  0  0  0  0  0  0  0  0  0  0  0
   19.1556   19.2724   23.4123 H   0  0  0  0  0  0  0  0  0  0  0  0
   19.8609   17.7559   23.9781 H   0  0  0  0  0  0  0  0  0  0  0  0
   20.6163   19.5310   24.9950 C   0  0  0  0  0  0  0  0  0  0  0  0
   20.8841   20.5630   24.7320 H   0  0  0  0  0  0  0  0  0  0  0  0
   21.5359   19.0505   25.3547 H   0  0  0  0  0  0  0  0  0  0  0  0
   19.5785   19.5715   26.1333 C   0  0  0  0  0  0  0  0  0  0  0  0
   19.9708   20.1689   26.9607 H   0  0  0  0  0  0  0  0  0  0  0  0
   18.6595   20.0445   25.7769 H   0  0  0  0  0  0  0  0  0  0  0  0
   19.2217   18.2041   26.6824 N   0  3  0  0  0  0  0  0  0  0  0  0
   18.8121   17.6009   25.9624 H   0  0  0  0  0  0  0  0  0  0  0  0
   18.5392   18.2666   27.4457 H   0  0  0  0  0  0  0  0  0  0  0  0
   20.0434   17.7171   27.0546 H   0  0  0  0  0  0  0  0  0  0  0  0
  1  2  1  0  0  0  0
  1  3  1  0  0  0  0
  1  4  1  0  0  0  0
  1  5  1  0  0  0  0
  5  6  1  0  0  0  0
  5  7  1  0  0  0  0
  5  8  1  0  0  0  0
  8  9  1  0  0  0  0
  8 10  1  0  0  0  0
  8 11  1  0  0  0  0
 11 12  1  0  0  0  0
 11 13  1  0  0  0  0
 11 14  1  0  0  0  0
 14 15  1  0  0  0  0
 14 16  1  0  0  0  0
 14 17  1  0  0  0  0
 17 18  1  0  0  0  0
 17 19  1  0  0  0  0
 17 20  1  0  0  0  0
 20 21  1  0  0  0  0
 20 22  1  0  0  0  0
 20 23  1  0  0  0  0
 23 24  1  0  0  0  0
 23 25  1  0  0  0  0
 23 26  1  0  0  0  0
M  END
> <VM2 Rank>
46

> <Conf_Id>
221

> <Probability>
0.60

> <Sum Probability>
80.38

> <Delta G>
1.499

> <G>
49.761

> <E>
16.873

> <-TS>
32.887

> <U+W>
-4.589

> <U>
49.147

> <W>
-53.736

> <W(PB)>
-56.022

> <W(SA)>
2.286

> <Valence>
3.219

> <Coulomb>
45.149

> <VdW>
0.779

> <VdW6>
-7.884

> <VdW12>
8.663

> <Bond>
0.228

> <Angle>
1.077

> <Pdih>
1.914

> <Idih>
0.000

> <Tether>
0.000

$$$$
VeraChem MOL file


 26 25  0  0  0  0  0  0  0  0999 V2000     
   19.8858   19.7489   19.6630 C   0  0  0  0  0  0  0  0  0  0  0  0
   20.2919   20.7145   19.9909 H   0  0  0  0  0  0  0  0  0  0  0  0
   19.9671   19.7044   18.5692 H   0  0  0  0  0  0  0  0  0  0  0  0
   18.8186   19.7207   19.9159 H   0  0  0  0  0  0  0  0  0  0  0  0
   20.6534   18.5743   20.3108 C   0  0  0  0  0  0  0  0  0  0  0  0
   21.6868   18.5766   19.9368 H   0  0  0  0  0  0  0  0  0  0  0  0
   20.2118   17.6212   19.9876 H   0  0  0  0  0  0  0  0  0  0  0  0
   20.6840   18.6398   21.8568 C   0  0  0  0  0  0  0  0  0  0  0  0
   21.3300   17.8322   22.2279 H   0  0  0  0  0  0  0  0  0  0  0  0
   21.1549   19.5821   22.1664 H   0  0  0  0  0  0  0  0  0  0  0  0
   19.2826   18.5064   22.5044 C   0  0  0  0  0  0  0  0  0  0  0  0
   18.7784   17.6230   22.0889 H   0  0  0  0  0  0  0  0  0  0  0  0
   18.6609   19.3716   22.2389 H   0  0  0  0  0  0  0  0  0  0  0  0
   19.3285   18.3667   24.0458 C   0  0  0  0  0  0  0  0  0  0  0  0
   18.3090   18.1764   24.4092 H   0  0  0  0  0  0  0  0  0  0  0  0
   19.9224   17.4822   24.3121 H   0  0  0  0  0  0  0  0  0  0  0  0
   19.8919   19.6203   24.7603 C   0  0  0  0  0  0  0  0  0  0  0  0
   19.3466   20.5101   24.4185 H   0  0  0  0  0  0  0  0  0  0  0  0
   20.9450   19.7740   24.4925 H   0  0  0  0  0  0  0  0  0  0  0  0
   19.7696   19.5321   26.2936 C   0  0  0  0  0  0  0  0  0  0  0  0
   20.1087   20.4711   26.7396 H   0  0  0  0  0  0  0  0  0  0  0  0
   18.7229   19.3811   26.5713 H   0  0  0  0  0  0  0  0  0  0  0  0
   20.5852   18.4105   26.9062 N   0  3  0  0  0  0  0  0  0  0  0  0
   20.2928   17.4934   26.5551 H   0  0  0  0  0  0  0  0  0  0  0  0
   20.4910   18.3851   27.9274 H   0  0  0  0  0  0  0  0  0  0  0  0
   21.5845   18.5098   26.7000 H   0  0  0  0  0  0  0  0  0  0  0  0
  1  2  1  0  0  0  0
  1  3  1  0  0  0  0
  1  4  1  0  0  0  0
  1  5  1  0  0  0  0
  5  6  1  0  0  0  0
  5  7  1  0  0  0  0
  5  8  1  0  0  0  0
  8  9  1  0  0  0  0
  8 10  1  0  0  0  0
  8 11  1  0  0  0  0
 11 12  1  0  0  0  0
 11 13  1  0  0  0  0
 11 14  1  0  0  0  0
 14 15  1  0  0  0  0
 14 16  1  0  0  0  0
 14 17  1  0  0  0  0
 17 18  1  0  0  0  0
 17 19  1  0  0  0  0
 17 20  1  0  0  0  0
 20 21  1  0  0  0  0
 20 22  1  0  0  0  0
 20 23  1  0  0  0  0
 23 24  1  0  0  0  0
 23 25  1  0  0  0  0
 23 26  1  0  0  0  0
M  END
> <VM2 Rank>
47

> <Conf_Id>
1294

> <Probability>
0.60

> <Sum Probability>
80.98

> <Delta G>
1.501

> <G>
49.763

> <E>
17.062

> <-TS>
32.701

> <U+W>
-4.400

> <U>
49.228

> <W>
-53.628

> <W(PB)>
-55.903

> <W(SA)>
2.275

> <Valence>
3.267

> <Coulomb>
45.067

> <VdW>
0.893

> <VdW6>
-7.615

> <VdW12>
8.508

> <Bond>
0.224

> <Angle>
0.867

> <Pdih>
2.176

> <Idih>
0.000

> <Tether>
0.000

$$$$
VeraChem MOL file


 26 25  0  0  0  0  0  0  0  0999 V2000     
   21.4560   18.7053   20.5076 C   0  0  0  0  0  0  0  0  0  0  0  0
   21.1162   17.9704   19.7664 H   0  0  0  0  0  0  0  0  0  0  0  0
   22.3649   19.1811   20.1171 H   0  0  0  0  0  0  0  0  0  0  0  0
   21.7319   18.1682   21.4236 H   0  0  0  0  0  0  0  0  0  0  0  0
   20.3644   19.7649   20.7796 C   0  0  0  0  0  0  0  0  0  0  0  0
   20.2078   20.3539   19.8652 H   0  0  0  0  0  0  0  0  0  0  0  0
   20.7189   20.4765   21.5372 H   0  0  0  0  0  0  0  0  0  0  0  0
   19.0064   19.1545   21.2111 C   0  0  0  0  0  0  0  0  0  0  0  0
   18.2831   19.9687   21.3569 H   0  0  0  0  0  0  0  0  0  0  0  0
   18.6122   18.5473   20.3846 H   0  0  0  0  0  0  0  0  0  0  0  0
   19.0479   18.2820   22.4923 C   0  0  0  0  0  0  0  0  0  0  0  0
   19.6800   17.3999   22.3242 H   0  0  0  0  0  0  0  0  0  0  0  0
   18.0361   17.8967   22.6795 H   0  0  0  0  0  0  0  0  0  0  0  0
   19.5369   19.0457   23.7461 C   0  0  0  0  0  0  0  0  0  0  0  0
   20.5723   19.3759   23.5948 H   0  0  0  0  0  0  0  0  0  0  0  0
   18.9283   19.9498   23.8855 H   0  0  0  0  0  0  0  0  0  0  0  0
   19.4564   18.1687   25.0180 C   0  0  0  0  0  0  0  0  0  0  0  0
   20.0824   17.2743   24.8985 H   0  0  0  0  0  0  0  0  0  0  0  0
   18.4256   17.8142   25.1510 H   0  0  0  0  0  0  0  0  0  0  0  0
   19.8789   18.9262   26.2916 C   0  0  0  0  0  0  0  0  0  0  0  0
   19.2629   19.8219   26.4085 H   0  0  0  0  0  0  0  0  0  0  0  0
   19.7190   18.2864   27.1637 H   0  0  0  0  0  0  0  0  0  0  0  0
   21.3341   19.3518   26.2948 N   0  3  0  0  0  0  0  0  0  0  0  0
   21.5456   19.9873   25.5194 H   0  0  0  0  0  0  0  0  0  0  0  0
   21.9657   18.5487   26.2103 H   0  0  0  0  0  0  0  0  0  0  0  0
   21.5855   19.8407   27.1609 H   0  0  0  0  0  0  0  0  0  0  0  0
  1  2  1  0  0  0  0
  1  3  1  0  0  0  0
  1  4  1  0  0  0  0
  1  5  1  0  0  0  0
  5  6  1  0  0  0  0
  5  7  1  0  0  0  0
  5  8  1  0  0  0  0
  8  9  1  0  0  0  0
  8 10  1  0  0  0  0
  8 11  1  0  0  0  0
 11 12  1  0  0  0  0
 11 13  1  0  0  0  0
 11 14  1  0  0  0  0
 14 15  1  0  0  0  0
 14 16  1  0  0  0  0
 14 17  1  0  0  0  0
 17 18  1  0  0  0  0
 17 19  1  0  0  0  0
 17 20  1  0  0  0  0
 20 21  1  0  0  0  0
 20 22  1  0  0  0  0
 20 23  1  0  0  0  0
 23 24  1  0  0  0  0
 23 25  1  0  0  0  0
 23 26  1  0  0  0  0
M  END
> <VM2 Rank>
48

> <Conf_Id>
155

> <Probability>
0.59

> <Sum Probability>
81.57

> <Delta G>
1.506

> <G>
49.768

> <E>
16.878

> <-TS>
32.890

> <U+W>
-4.584

> <U>
49.426

> <W>
-54.010

> <W(PB)>
-56.294

> <W(SA)>
2.284

> <Valence>
3.214

> <Coulomb>
45.444

> <VdW>
0.768

> <VdW6>
-7.916

> <VdW12>
8.684

> <Bond>
0.230

> <Angle>
1.078

> <Pdih>
1.906

> <Idih>
0.000

> <Tether>
0.000

$$$$
VeraChem MOL file


 26 25  0  0  0  0  0  0  0  0999 V2000     
   19.4716   19.4758   19.6491 C   0  0  0  0  0  0  0  0  0  0  0  0
   18.4098   19.4742   19.9279 H   0  0  0  0  0  0  0  0  0  0  0  0
   19.9055   20.4368   19.9521 H   0  0  0  0  0  0  0  0  0  0  0  0
   19.5314   19.4171   18.5546 H   0  0  0  0  0  0  0  0  0  0  0  0
   20.2178   18.2872   20.2963 C   0  0  0  0  0  0  0  0  0  0  0  0
   21.2817   18.3261   20.0235 H   0  0  0  0  0  0  0  0  0  0  0  0
   19.8266   17.3507   19.8746 H   0  0  0  0  0  0  0  0  0  0  0  0
   20.0735   18.2376   21.8364 C   0  0  0  0  0  0  0  0  0  0  0  0
   19.0087   18.1679   22.0946 H   0  0  0  0  0  0  0  0  0  0  0  0
   20.5436   17.3142   22.2017 H   0  0  0  0  0  0  0  0  0  0  0  0
   20.7172   19.4519   22.5524 C   0  0  0  0  0  0  0  0  0  0  0  0
   20.1796   20.3725   22.2896 H   0  0  0  0  0  0  0  0  0  0  0  0
   21.7459   19.5787   22.1880 H   0  0  0  0  0  0  0  0  0  0  0  0
   20.7556   19.3074   24.0935 C   0  0  0  0  0  0  0  0  0  0  0  0
   21.3220   18.4047   24.3589 H   0  0  0  0  0  0  0  0  0  0  0  0
   21.3142   20.1573   24.5096 H   0  0  0  0  0  0  0  0  0  0  0  0
   19.3496   19.2628   24.7421 C   0  0  0  0  0  0  0  0  0  0  0  0
   18.8071   18.3646   24.4211 H   0  0  0  0  0  0  0  0  0  0  0  0
   18.7628   20.1252   24.3989 H   0  0  0  0  0  0  0  0  0  0  0  0
   19.4073   19.2934   26.2815 C   0  0  0  0  0  0  0  0  0  0  0  0
   19.9443   20.1865   26.6121 H   0  0  0  0  0  0  0  0  0  0  0  0
   18.3909   19.3387   26.6822 H   0  0  0  0  0  0  0  0  0  0  0  0
   20.0884   18.0831   26.8897 N   0  3  0  0  0  0  0  0  0  0  0  0
   20.1010   18.1282   27.9144 H   0  0  0  0  0  0  0  0  0  0  0  0
   21.0619   18.0007   26.5810 H   0  0  0  0  0  0  0  0  0  0  0  0
   19.6142   17.2108   26.6342 H   0  0  0  0  0  0  0  0  0  0  0  0
  1  2  1  0  0  0  0
  1  3  1  0  0  0  0
  1  4  1  0  0  0  0
  1  5  1  0  0  0  0
  5  6  1  0  0  0  0
  5  7  1  0  0  0  0
  5  8  1  0  0  0  0
  8  9  1  0  0  0  0
  8 10  1  0  0  0  0
  8 11  1  0  0  0  0
 11 12  1  0  0  0  0
 11 13  1  0  0  0  0
 11 14  1  0  0  0  0
 14 15  1  0  0  0  0
 14 16  1  0  0  0  0
 14 17  1  0  0  0  0
 17 18  1  0  0  0  0
 17 19  1  0  0  0  0
 17 20  1  0  0  0  0
 20 21  1  0  0  0  0
 20 22  1  0  0  0  0
 20 23  1  0  0  0  0
 23 24  1  0  0  0  0
 23 25  1  0  0  0  0
 23 26  1  0  0  0  0
M  END
> <VM2 Rank>
49

> <Conf_Id>
1102

> <Probability>
0.59

> <Sum Probability>
82.16

> <Delta G>
1.514

> <G>
49.775

> <E>
17.074

> <-TS>
32.701

> <U+W>
-4.387

> <U>
49.228

> <W>
-53.616

> <W(PB)>
-55.904

> <W(SA)>
2.288

> <Valence>
3.267

> <Coulomb>
45.067

> <VdW>
0.893

> <VdW6>
-7.615

> <VdW12>
8.509

> <Bond>
0.224

> <Angle>
0.867

> <Pdih>
2.176

> <Idih>
0.000

> <Tether>
0.000

$$$$
VeraChem MOL file


 26 25  0  0  0  0  0  0  0  0999 V2000     
   18.6709   19.4665   20.2867 C   0  0  0  0  0  0  0  0  0  0  0  0
   18.0464   18.9787   21.0453 H   0  0  0  0  0  0  0  0  0  0  0  0
   18.6706   20.5466   20.4827 H   0  0  0  0  0  0  0  0  0  0  0  0
   18.1937   19.3022   19.3119 H   0  0  0  0  0  0  0  0  0  0  0  0
   20.1097   18.9020   20.2862 C   0  0  0  0  0  0  0  0  0  0  0  0
   20.6569   19.3288   19.4340 H   0  0  0  0  0  0  0  0  0  0  0  0
   20.0807   17.8160   20.1199 H   0  0  0  0  0  0  0  0  0  0  0  0
   20.8934   19.2121   21.5844 C   0  0  0  0  0  0  0  0  0  0  0  0
   21.9314   18.8767   21.4530 H   0  0  0  0  0  0  0  0  0  0  0  0
   20.9368   20.2995   21.7356 H   0  0  0  0  0  0  0  0  0  0  0  0
   20.2979   18.5335   22.8413 C   0  0  0  0  0  0  0  0  0  0  0  0
   20.2127   17.4519   22.6678 H   0  0  0  0  0  0  0  0  0  0  0  0
   19.2824   18.9104   23.0153 H   0  0  0  0  0  0  0  0  0  0  0  0
   21.1681   18.7880   24.0955 C   0  0  0  0  0  0  0  0  0  0  0  0
   22.1930   18.4443   23.8987 H   0  0  0  0  0  0  0  0  0  0  0  0
   21.2399   19.8674   24.2847 H   0  0  0  0  0  0  0  0  0  0  0  0
   20.6415   18.0646   25.3604 C   0  0  0  0  0  0  0  0  0  0  0  0
   21.3273   18.2518   26.1973 H   0  0  0  0  0  0  0  0  0  0  0  0
   20.6565   16.9800   25.1895 H   0  0  0  0  0  0  0  0  0  0  0  0
   19.2152   18.4801   25.7747 C   0  0  0  0  0  0  0  0  0  0  0  0
   18.5144   18.2538   24.9670 H   0  0  0  0  0  0  0  0  0  0  0  0
   18.9125   17.9086   26.6562 H   0  0  0  0  0  0  0  0  0  0  0  0
   19.0844   19.9522   26.1119 N   0  3  0  0  0  0  0  0  0  0  0  0
   19.3260   20.5453   25.3120 H   0  0  0  0  0  0  0  0  0  0  0  0
   19.7001   20.2210   26.8863 H   0  0  0  0  0  0  0  0  0  0  0  0
   18.1278   20.1960   26.3907 H   0  0  0  0  0  0  0  0  0  0  0  0
  1  2  1  0  0  0  0
  1  3  1  0  0  0  0
  1  4  1  0  0  0  0
  1  5  1  0  0  0  0
  5  6  1  0  0  0  0
  5  7  1  0  0  0  0
  5  8  1  0  0  0  0
  8  9  1  0  0  0  0
  8 10  1  0  0  0  0
  8 11  1  0  0  0  0
 11 12  1  0  0  0  0
 11 13  1  0  0  0  0
 11 14  1  0  0  0  0
 14 15  1  0  0  0  0
 14 16  1  0  0  0  0
 14 17  1  0  0  0  0
 17 18  1  0  0  0  0
 17 19  1  0  0  0  0
 17 20  1  0  0  0  0
 20 21  1  0  0  0  0
 20 22  1  0  0  0  0
 20 23  1  0  0  0  0
 23 24  1  0  0  0  0
 23 25  1  0  0  0  0
 23 26  1  0  0  0  0
M  END
> <VM2 Rank>
50

> <Conf_Id>
278

> <Probability>
0.58

> <Sum Probability>
82.74

> <Delta G>
1.518

> <G>
49.779

> <E>
17.031

> <-TS>
32.749

> <U+W>
-4.431

> <U>
49.413

> <W>
-53.845

> <W(PB)>
-56.139

> <W(SA)>
2.294

> <Valence>
3.043

> <Coulomb>
45.606

> <VdW>
0.764

> <VdW6>
-7.758

> <VdW12>
8.522

> <Bond>
0.212

> <Angle>
0.867

> <Pdih>
1.964

> <Idih>
0.000

> <Tether>
0.000

$$$$
VeraChem MOL file


 26 25  0  0  0  0  0  0  0  0999 V2000     
   20.1763   20.4610   20.3372 C   0  0  0  0  0  0  0  0  0  0  0  0
   20.8335   20.8200   21.1388 H   0  0  0  0  0  0  0  0  0  0  0  0
   20.5595   20.8651   19.3913 H   0  0  0  0  0  0  0  0  0  0  0  0
   19.1745   20.8794   20.4995 H   0  0  0  0  0  0  0  0  0  0  0  0
   20.1324   18.9168   20.2870 C   0  0  0  0  0  0  0  0  0  0  0  0
   21.1496   18.5222   20.1560 H   0  0  0  0  0  0  0  0  0  0  0  0
   19.5659   18.6078   19.3974 H   0  0  0  0  0  0  0  0  0  0  0  0
   19.4801   18.2784   21.5371 C   0  0  0  0  0  0  0  0  0  0  0  0
   18.4566   18.6611   21.6524 H   0  0  0  0  0  0  0  0  0  0  0  0
   19.3883   17.1967   21.3678 H   0  0  0  0  0  0  0  0  0  0  0  0
   20.2782   18.5204   22.8407 C   0  0  0  0  0  0  0  0  0  0  0  0
   20.3213   19.5964   23.0500 H   0  0  0  0  0  0  0  0  0  0  0  0
   21.3135   18.1787   22.7049 H   0  0  0  0  0  0  0  0  0  0  0  0
   19.6449   17.7823   24.0445 C   0  0  0  0  0  0  0  0  0  0  0  0
   18.6161   18.1351   24.1968 H   0  0  0  0  0  0  0  0  0  0  0  0
   19.5683   16.7113   23.8110 H   0  0  0  0  0  0  0  0  0  0  0  0
   20.4569   17.9428   25.3543 C   0  0  0  0  0  0  0  0  0  0  0  0
   21.4555   17.5074   25.2165 H   0  0  0  0  0  0  0  0  0  0  0  0
   19.9770   17.3607   26.1523 H   0  0  0  0  0  0  0  0  0  0  0  0
   20.6147   19.4041   25.8215 C   0  0  0  0  0  0  0  0  0  0  0  0
   21.2172   19.4303   26.7335 H   0  0  0  0  0  0  0  0  0  0  0  0
   21.1352   19.9836   25.0548 H   0  0  0  0  0  0  0  0  0  0  0  0
   19.2976   20.0932   26.1186 N   0  3  0  0  0  0  0  0  0  0  0  0
   18.6955   20.1292   25.2903 H   0  0  0  0  0  0  0  0  0  0  0  0
   19.4356   21.0595   26.4340 H   0  0  0  0  0  0  0  0  0  0  0  0
   18.7730   19.6096   26.8546 H   0  0  0  0  0  0  0  0  0  0  0  0
  1  2  1  0  0  0  0
  1  3  1  0  0  0  0
  1  4  1  0  0  0  0
  1  5  1  0  0  0  0
  5  6  1  0  0  0  0
  5  7  1  0  0  0  0
  5  8  1  0  0  0  0
  8  9  1  0  0  0  0
  8 10  1  0  0  0  0
  8 11  1  0  0  0  0
 11 12  1  0  0  0  0
 11 13  1  0  0  0  0
 11 14  1  0  0  0  0
 14 15  1  0  0  0  0
 14 16  1  0  0  0  0
 14 17  1  0  0  0  0
 17 18  1  0  0  0  0
 17 19  1  0  0  0  0
 17 20  1  0  0  0  0
 20 21  1  0  0  0  0
 20 22  1  0  0  0  0
 20 23  1  0  0  0  0
 23 24  1  0  0  0  0
 23 25  1  0  0  0  0
 23 26  1  0  0  0  0
M  END
> <VM2 Rank>
51

> <Conf_Id>
563

> <Probability>
0.58

> <Sum Probability>
83.32

> <Delta G>
1.525

> <G>
49.787

> <E>
17.038

> <-TS>
32.749

> <U+W>
-4.424

> <U>
49.414

> <W>
-53.837

> <W(PB)>
-56.110

> <W(SA)>
2.273

> <Valence>
3.043

> <Coulomb>
45.606

> <VdW>
0.764

> <VdW6>
-7.758

> <VdW12>
8.523

> <Bond>
0.212

> <Angle>
0.867

> <Pdih>
1.964

> <Idih>
0.000

> <Tether>
0.000

$$$$
VeraChem MOL file


 26 25  0  0  0  0  0  0  0  0999 V2000     
   19.4576   19.9956   20.2035 C   0  0  0  0  0  0  0  0  0  0  0  0
   19.6222   20.9560   19.6982 H   0  0  0  0  0  0  0  0  0  0  0  0
   18.9882   19.3129   19.4834 H   0  0  0  0  0  0  0  0  0  0  0  0
   18.7500   20.1709   21.0235 H   0  0  0  0  0  0  0  0  0  0  0  0
   20.7948   19.4210   20.7230 C   0  0  0  0  0  0  0  0  0  0  0  0
   21.2350   20.1106   21.4555 H   0  0  0  0  0  0  0  0  0  0  0  0
   21.5079   19.3749   19.8882 H   0  0  0  0  0  0  0  0  0  0  0  0
   20.6602   18.0032   21.3349 C   0  0  0  0  0  0  0  0  0  0  0  0
   20.3355   17.3072   20.5493 H   0  0  0  0  0  0  0  0  0  0  0  0
   21.6547   17.6578   21.6495 H   0  0  0  0  0  0  0  0  0  0  0  0
   19.6843   17.8886   22.5345 C   0  0  0  0  0  0  0  0  0  0  0  0
   19.6640   16.8405   22.8637 H   0  0  0  0  0  0  0  0  0  0  0  0
   18.6620   18.1221   22.2087 H   0  0  0  0  0  0  0  0  0  0  0  0
   20.0704   18.7860   23.7345 C   0  0  0  0  0  0  0  0  0  0  0  0
   21.1106   18.5801   24.0198 H   0  0  0  0  0  0  0  0  0  0  0  0
   20.0209   19.8430   23.4412 H   0  0  0  0  0  0  0  0  0  0  0  0
   19.1362   18.5546   24.9456 C   0  0  0  0  0  0  0  0  0  0  0  0
   19.1998   17.5095   25.2766 H   0  0  0  0  0  0  0  0  0  0  0  0
   18.0953   18.7235   24.6389 H   0  0  0  0  0  0  0  0  0  0  0  0
   19.4535   19.4890   26.1291 C   0  0  0  0  0  0  0  0  0  0  0  0
   19.3962   20.5305   25.8015 H   0  0  0  0  0  0  0  0  0  0  0  0
   18.7122   19.3386   26.9187 H   0  0  0  0  0  0  0  0  0  0  0  0
   20.8241   19.2611   26.7359 N   0  3  0  0  0  0  0  0  0  0  0  0
   21.5723   19.4216   26.0545 H   0  0  0  0  0  0  0  0  0  0  0  0
   20.9315   18.3029   27.0843 H   0  0  0  0  0  0  0  0  0  0  0  0
   20.9990   19.8892   27.5278 H   0  0  0  0  0  0  0  0  0  0  0  0
  1  2  1  0  0  0  0
  1  3  1  0  0  0  0
  1  4  1  0  0  0  0
  1  5  1  0  0  0  0
  5  6  1  0  0  0  0
  5  7  1  0  0  0  0
  5  8  1  0  0  0  0
  8  9  1  0  0  0  0
  8 10  1  0  0  0  0
  8 11  1  0  0  0  0
 11 12  1  0  0  0  0
 11 13  1  0  0  0  0
 11 14  1  0  0  0  0
 14 15  1  0  0  0  0
 14 16  1  0  0  0  0
 14 17  1  0  0  0  0
 17 18  1  0  0  0  0
 17 19  1  0  0  0  0
 17 20  1  0  0  0  0
 20 21  1  0  0  0  0
 20 22  1  0  0  0  0
 20 23  1  0  0  0  0
 23 24  1  0  0  0  0
 23 25  1  0  0  0  0
 23 26  1  0  0  0  0
M  END
> <VM2 Rank>
52

> <Conf_Id>
1310

> <Probability>
0.56

> <Sum Probability>
83.88

> <Delta G>
1.545

> <G>
49.806

> <E>
16.919

> <-TS>
32.887

> <U+W>
-4.543

> <U>
49.147

> <W>
-53.690

> <W(PB)>
-55.965

> <W(SA)>
2.275

> <Valence>
3.219

> <Coulomb>
45.149

> <VdW>
0.779

> <VdW6>
-7.884

> <VdW12>
8.663

> <Bond>
0.228

> <Angle>
1.077

> <Pdih>
1.914

> <Idih>
0.000

> <Tether>
0.000

$$$$
VeraChem MOL file


 26 25  0  0  0  0  0  0  0  0999 V2000     
   19.1293   19.0843   19.5797 C   0  0  0  0  0  0  0  0  0  0  0  0
   18.1343   19.3716   19.9440 H   0  0  0  0  0  0  0  0  0  0  0  0
   19.6476   19.9933   19.2477 H   0  0  0  0  0  0  0  0  0  0  0  0
   18.9934   18.4353   18.7049 H   0  0  0  0  0  0  0  0  0  0  0  0
   19.9336   18.3571   20.6781 C   0  0  0  0  0  0  0  0  0  0  0  0
   20.9089   18.0519   20.2737 H   0  0  0  0  0  0  0  0  0  0  0  0
   19.4075   17.4362   20.9661 H   0  0  0  0  0  0  0  0  0  0  0  0
   20.1403   19.2499   21.9216 C   0  0  0  0  0  0  0  0  0  0  0  0
   20.6685   20.1680   21.6297 H   0  0  0  0  0  0  0  0  0  0  0  0
   19.1597   19.5551   22.3100 H   0  0  0  0  0  0  0  0  0  0  0  0
   20.9423   18.5203   23.0257 C   0  0  0  0  0  0  0  0  0  0  0  0
   21.8900   18.1617   22.6009 H   0  0  0  0  0  0  0  0  0  0  0  0
   20.3966   17.6235   23.3479 H   0  0  0  0  0  0  0  0  0  0  0  0
   21.2643   19.4153   24.2504 C   0  0  0  0  0  0  0  0  0  0  0  0
   21.8804   18.8419   24.9560 H   0  0  0  0  0  0  0  0  0  0  0  0
   21.8916   20.2564   23.9245 H   0  0  0  0  0  0  0  0  0  0  0  0
   20.0235   19.9761   24.9938 C   0  0  0  0  0  0  0  0  0  0  0  0
   19.4969   20.6899   24.3475 H   0  0  0  0  0  0  0  0  0  0  0  0
   20.3564   20.5527   25.8670 H   0  0  0  0  0  0  0  0  0  0  0  0
   19.0274   18.8932   25.4547 C   0  0  0  0  0  0  0  0  0  0  0  0
   18.1703   19.3697   25.9382 H   0  0  0  0  0  0  0  0  0  0  0  0
   18.6623   18.3353   24.5884 H   0  0  0  0  0  0  0  0  0  0  0  0
   19.6203   17.9027   26.4370 N   0  3  0  0  0  0  0  0  0  0  0  0
   18.9351   17.1968   26.7275 H   0  0  0  0  0  0  0  0  0  0  0  0
   19.9536   18.3654   27.2888 H   0  0  0  0  0  0  0  0  0  0  0  0
   20.4173   17.4017   26.0326 H   0  0  0  0  0  0  0  0  0  0  0  0
  1  2  1  0  0  0  0
  1  3  1  0  0  0  0
  1  4  1  0  0  0  0
  1  5  1  0  0  0  0
  5  6  1  0  0  0  0
  5  7  1  0  0  0  0
  5  8  1  0  0  0  0
  8  9  1  0  0  0  0
  8 10  1  0  0  0  0
  8 11  1  0  0  0  0
 11 12  1  0  0  0  0
 11 13  1  0  0  0  0
 11 14  1  0  0  0  0
 14 15  1  0  0  0  0
 14 16  1  0  0  0  0
 14 17  1  0  0  0  0
 17 18  1  0  0  0  0
 17 19  1  0  0  0  0
 17 20  1  0  0  0  0
 20 21  1  0  0  0  0
 20 22  1  0  0  0  0
 20 23  1  0  0  0  0
 23 24  1  0  0  0  0
 23 25  1  0  0  0  0
 23 26  1  0  0  0  0
M  END
> <VM2 Rank>
53

> <Conf_Id>
788

> <Probability>
0.55

> <Sum Probability>
84.43

> <Delta G>
1.553

> <G>
49.814

> <E>
16.914

> <-TS>
32.900

> <U+W>
-4.548

> <U>
49.197

> <W>
-53.745

> <W(PB)>
-56.033

> <W(SA)>
2.288

> <Valence>
3.018

> <Coulomb>
45.589

> <VdW>
0.590

> <VdW6>
-8.073

> <VdW12>
8.662

> <Bond>
0.222

> <Angle>
0.958

> <Pdih>
1.839

> <Idih>
0.000

> <Tether>
0.000

$$$$
VeraChem MOL file


 26 25  0  0  0  0  0  0  0  0999 V2000     
   19.7732   17.5957   20.4515 C   0  0  0  0  0  0  0  0  0  0  0  0
   20.1156   17.1025   21.3698 H   0  0  0  0  0  0  0  0  0  0  0  0
   18.9974   16.9606   20.0049 H   0  0  0  0  0  0  0  0  0  0  0  0
   20.6162   17.6406   19.7499 H   0  0  0  0  0  0  0  0  0  0  0  0
   19.2164   19.0079   20.7413 C   0  0  0  0  0  0  0  0  0  0  0  0
   18.3883   18.9399   21.4593 H   0  0  0  0  0  0  0  0  0  0  0  0
   18.7795   19.4121   19.8175 H   0  0  0  0  0  0  0  0  0  0  0  0
   20.2904   20.0012   21.2539 C   0  0  0  0  0  0  0  0  0  0  0  0
   21.0414   20.1490   20.4657 H   0  0  0  0  0  0  0  0  0  0  0  0
   19.8201   20.9821   21.4081 H   0  0  0  0  0  0  0  0  0  0  0  0
   21.0159   19.5796   22.5580 C   0  0  0  0  0  0  0  0  0  0  0  0
   21.7586   20.3511   22.8038 H   0  0  0  0  0  0  0  0  0  0  0  0
   21.5855   18.6564   22.3878 H   0  0  0  0  0  0  0  0  0  0  0  0
   20.0640   19.3933   23.7637 C   0  0  0  0  0  0  0  0  0  0  0  0
   19.4663   20.3046   23.9035 H   0  0  0  0  0  0  0  0  0  0  0  0
   19.3610   18.5773   23.5543 H   0  0  0  0  0  0  0  0  0  0  0  0
   20.8419   19.0821   25.0642 C   0  0  0  0  0  0  0  0  0  0  0  0
   21.5663   19.8849   25.2560 H   0  0  0  0  0  0  0  0  0  0  0  0
   21.4229   18.1581   24.9432 H   0  0  0  0  0  0  0  0  0  0  0  0
   19.9210   18.9539   26.2929 C   0  0  0  0  0  0  0  0  0  0  0  0
   20.5308   18.8215   27.1908 H   0  0  0  0  0  0  0  0  0  0  0  0
   19.3349   19.8693   26.4109 H   0  0  0  0  0  0  0  0  0  0  0  0
   18.9581   17.7853   26.2153 N   0  3  0  0  0  0  0  0  0  0  0  0
   18.3700   17.7206   27.0534 H   0  0  0  0  0  0  0  0  0  0  0  0
   19.4513   16.8910   26.1261 H   0  0  0  0  0  0  0  0  0  0  0  0
   18.3274   17.8656   25.4118 H   0  0  0  0  0  0  0  0  0  0  0  0
  1  2  1  0  0  0  0
  1  3  1  0  0  0  0
  1  4  1  0  0  0  0
  1  5  1  0  0  0  0
  5  6  1  0  0  0  0
  5  7  1  0  0  0  0
  5  8  1  0  0  0  0
  8  9  1  0  0  0  0
  8 10  1  0  0  0  0
  8 11  1  0  0  0  0
 11 12  1  0  0  0  0
 11 13  1  0  0  0  0
 11 14  1  0  0  0  0
 14 15  1  0  0  0  0
 14 16  1  0  0  0  0
 14 17  1  0  0  0  0
 17 18  1  0  0  0  0
 17 19  1  0  0  0  0
 17 20  1  0  0  0  0
 20 21  1  0  0  0  0
 20 22  1  0  0  0  0
 20 23  1  0  0  0  0
 23 24  1  0  0  0  0
 23 25  1  0  0  0  0
 23 26  1  0  0  0  0
M  END
> <VM2 Rank>
54

> <Conf_Id>
1136

> <Probability>
0.53

> <Sum Probability>
84.95

> <Delta G>
1.576

> <G>
49.838

> <E>
16.947

> <-TS>
32.890

> <U+W>
-4.515

> <U>
49.426

> <W>
-53.941

> <W(PB)>
-56.205

> <W(SA)>
2.264

> <Valence>
3.214

> <Coulomb>
45.444

> <VdW>
0.768

> <VdW6>
-7.916

> <VdW12>
8.684

> <Bond>
0.230

> <Angle>
1.078

> <Pdih>
1.906

> <Idih>
0.000

> <Tether>
0.000

$$$$
VeraChem MOL file


 26 25  0  0  0  0  0  0  0  0999 V2000     
   21.0184   19.4050   19.7603 C   0  0  0  0  0  0  0  0  0  0  0  0
   21.7877   18.7561   20.1970 H   0  0  0  0  0  0  0  0  0  0  0  0
   21.1339   19.3659   18.6694 H   0  0  0  0  0  0  0  0  0  0  0  0
   21.2146   20.4361   20.0820 H   0  0  0  0  0  0  0  0  0  0  0  0
   19.5977   18.9558   20.1704 C   0  0  0  0  0  0  0  0  0  0  0  0
   19.4356   17.9140   19.8603 H   0  0  0  0  0  0  0  0  0  0  0  0
   18.8621   19.5584   19.6194 H   0  0  0  0  0  0  0  0  0  0  0  0
   19.3227   19.0997   21.6867 C   0  0  0  0  0  0  0  0  0  0  0  0
   19.4571   20.1501   21.9764 H   0  0  0  0  0  0  0  0  0  0  0  0
   18.2679   18.8568   21.8749 H   0  0  0  0  0  0  0  0  0  0  0  0
   20.2177   18.1858   22.5616 C   0  0  0  0  0  0  0  0  0  0  0  0
   21.2674   18.4979   22.4812 H   0  0  0  0  0  0  0  0  0  0  0  0
   20.1687   17.1596   22.1722 H   0  0  0  0  0  0  0  0  0  0  0  0
   19.8065   18.1639   24.0544 C   0  0  0  0  0  0  0  0  0  0  0  0
   18.7617   17.8356   24.1436 H   0  0  0  0  0  0  0  0  0  0  0  0
   20.4131   17.4042   24.5648 H   0  0  0  0  0  0  0  0  0  0  0  0
   19.9868   19.5292   24.7644 C   0  0  0  0  0  0  0  0  0  0  0  0
   19.3526   20.2845   24.2838 H   0  0  0  0  0  0  0  0  0  0  0  0
   21.0236   19.8750   24.6583 H   0  0  0  0  0  0  0  0  0  0  0  0
   19.6128   19.4759   26.2584 C   0  0  0  0  0  0  0  0  0  0  0  0
   19.6663   20.4830   26.6810 H   0  0  0  0  0  0  0  0  0  0  0  0
   18.5869   19.1143   26.3684 H   0  0  0  0  0  0  0  0  0  0  0  0
   20.5183   18.5836   27.0847 N   0  3  0  0  0  0  0  0  0  0  0  0
   20.2508   18.5825   28.0750 H   0  0  0  0  0  0  0  0  0  0  0  0
   21.4965   18.8870   27.0392 H   0  0  0  0  0  0  0  0  0  0  0  0
   20.4875   17.6106   26.7650 H   0  0  0  0  0  0  0  0  0  0  0  0
  1  2  1  0  0  0  0
  1  3  1  0  0  0  0
  1  4  1  0  0  0  0
  1  5  1  0  0  0  0
  5  6  1  0  0  0  0
  5  7  1  0  0  0  0
  5  8  1  0  0  0  0
  8  9  1  0  0  0  0
  8 10  1  0  0  0  0
  8 11  1  0  0  0  0
 11 12  1  0  0  0  0
 11 13  1  0  0  0  0
 11 14  1  0  0  0  0
 14 15  1  0  0  0  0
 14 16  1  0  0  0  0
 14 17  1  0  0  0  0
 17 18  1  0  0  0  0
 17 19  1  0  0  0  0
 17 20  1  0  0  0  0
 20 21  1  0  0  0  0
 20 22  1  0  0  0  0
 20 23  1  0  0  0  0
 23 24  1  0  0  0  0
 23 25  1  0  0  0  0
 23 26  1  0  0  0  0
M  END
> <VM2 Rank>
55

> <Conf_Id>
709

> <Probability>
0.53

> <Sum Probability>
85.48

> <Delta G>
1.578

> <G>
49.840

> <E>
17.165

> <-TS>
32.675

> <U+W>
-4.297

> <U>
49.153

> <W>
-53.449

> <W(PB)>
-55.735

> <W(SA)>
2.286

> <Valence>
3.298

> <Coulomb>
44.906

> <VdW>
0.948

> <VdW6>
-7.574

> <VdW12>
8.522

> <Bond>
0.229

> <Angle>
0.912

> <Pdih>
2.157

> <Idih>
0.000

> <Tether>
0.000

$$$$
VeraChem MOL file


 26 25  0  0  0  0  0  0  0  0999 V2000     
   19.5723   19.3764   19.4728 C   0  0  0  0  0  0  0  0  0  0  0  0
   19.8084   19.2375   18.4098 H   0  0  0  0  0  0  0  0  0  0  0  0
   18.4823   19.3116   19.5855 H   0  0  0  0  0  0  0  0  0  0  0  0
   19.8876   20.3899   19.7497 H   0  0  0  0  0  0  0  0  0  0  0  0
   20.2845   18.3045   20.3289 C   0  0  0  0  0  0  0  0  0  0  0  0
   21.3734   18.4121   20.2263 H   0  0  0  0  0  0  0  0  0  0  0  0
   20.0351   17.3116   19.9290 H   0  0  0  0  0  0  0  0  0  0  0  0
   19.8925   18.3479   21.8258 C   0  0  0  0  0  0  0  0  0  0  0  0
   18.8037   18.2371   21.9228 H   0  0  0  0  0  0  0  0  0  0  0  0
   20.3382   17.4740   22.3179 H   0  0  0  0  0  0  0  0  0  0  0  0
   20.3536   19.6401   22.5469 C   0  0  0  0  0  0  0  0  0  0  0  0
   19.9095   20.5130   22.0513 H   0  0  0  0  0  0  0  0  0  0  0  0
   21.4424   19.7506   22.4505 H   0  0  0  0  0  0  0  0  0  0  0  0
   19.9573   19.6876   24.0433 C   0  0  0  0  0  0  0  0  0  0  0  0
   20.2062   20.6830   24.4368 H   0  0  0  0  0  0  0  0  0  0  0  0
   18.8678   19.5829   24.1331 H   0  0  0  0  0  0  0  0  0  0  0  0
   20.6683   18.6158   24.9071 C   0  0  0  0  0  0  0  0  0  0  0  0
   21.7515   18.6694   24.7354 H   0  0  0  0  0  0  0  0  0  0  0  0
   20.3510   17.6086   24.6094 H   0  0  0  0  0  0  0  0  0  0  0  0
   20.4037   18.8009   26.4137 C   0  0  0  0  0  0  0  0  0  0  0  0
   20.9885   18.0691   26.9777 H   0  0  0  0  0  0  0  0  0  0  0  0
   20.7194   19.8009   26.7228 H   0  0  0  0  0  0  0  0  0  0  0  0
   18.9488   18.6259   26.8025 N   0  3  0  0  0  0  0  0  0  0  0  0
   18.8074   18.7446   27.8116 H   0  0  0  0  0  0  0  0  0  0  0  0
   18.5990   17.6936   26.5588 H   0  0  0  0  0  0  0  0  0  0  0  0
   18.3459   19.3084   26.3327 H   0  0  0  0  0  0  0  0  0  0  0  0
  1  2  1  0  0  0  0
  1  3  1  0  0  0  0
  1  4  1  0  0  0  0
  1  5  1  0  0  0  0
  5  6  1  0  0  0  0
  5  7  1  0  0  0  0
  5  8  1  0  0  0  0
  8  9  1  0  0  0  0
  8 10  1  0  0  0  0
  8 11  1  0  0  0  0
 11 12  1  0  0  0  0
 11 13  1  0  0  0  0
 11 14  1  0  0  0  0
 14 15  1  0  0  0  0
 14 16  1  0  0  0  0
 14 17  1  0  0  0  0
 17 18  1  0  0  0  0
 17 19  1  0  0  0  0
 17 20  1  0  0  0  0
 20 21  1  0  0  0  0
 20 22  1  0  0  0  0
 20 23  1  0  0  0  0
 23 24  1  0  0  0  0
 23 25  1  0  0  0  0
 23 26  1  0  0  0  0
M  END
> <VM2 Rank>
56

> <Conf_Id>
734

> <Probability>
0.52

> <Sum Probability>
86.00

> <Delta G>
1.591

> <G>
49.853

> <E>
17.227

> <-TS>
32.625

> <U+W>
-4.235

> <U>
49.401

> <W>
-53.636

> <W(PB)>
-55.926

> <W(SA)>
2.290

> <Valence>
3.370

> <Coulomb>
45.066

> <VdW>
0.965

> <VdW6>
-7.528

> <VdW12>
8.494

> <Bond>
0.232

> <Angle>
0.963

> <Pdih>
2.174

> <Idih>
0.000

> <Tether>
0.000

$$$$
VeraChem MOL file


 26 25  0  0  0  0  0  0  0  0999 V2000     
   19.3376   18.2963   19.7042 C   0  0  0  0  0  0  0  0  0  0  0  0
   19.6113   17.3206   20.1244 H   0  0  0  0  0  0  0  0  0  0  0  0
   18.2985   18.5127   19.9846 H   0  0  0  0  0  0  0  0  0  0  0  0
   19.3789   18.2082   18.6108 H   0  0  0  0  0  0  0  0  0  0  0  0
   20.2890   19.4117   20.1935 C   0  0  0  0  0  0  0  0  0  0  0  0
   20.0499   20.3417   19.6590 H   0  0  0  0  0  0  0  0  0  0  0  0
   21.3239   19.1594   19.9234 H   0  0  0  0  0  0  0  0  0  0  0  0
   20.1941   19.6745   21.7158 C   0  0  0  0  0  0  0  0  0  0  0  0
   20.8224   20.5420   21.9602 H   0  0  0  0  0  0  0  0  0  0  0  0
   19.1630   19.9561   21.9666 H   0  0  0  0  0  0  0  0  0  0  0  0
   20.6416   18.4654   22.5758 C   0  0  0  0  0  0  0  0  0  0  0  0
   21.6216   18.1180   22.2208 H   0  0  0  0  0  0  0  0  0  0  0  0
   19.9467   17.6266   22.4371 H   0  0  0  0  0  0  0  0  0  0  0  0
   20.7536   18.7888   24.0861 C   0  0  0  0  0  0  0  0  0  0  0  0
   21.1897   17.9166   24.5908 H   0  0  0  0  0  0  0  0  0  0  0  0
   21.4611   19.6165   24.2337 H   0  0  0  0  0  0  0  0  0  0  0  0
   19.3957   19.1394   24.7446 C   0  0  0  0  0  0  0  0  0  0  0  0
   18.6761   18.3265   24.5798 H   0  0  0  0  0  0  0  0  0  0  0  0
   18.9732   20.0343   24.2712 H   0  0  0  0  0  0  0  0  0  0  0  0
   19.5219   19.4159   26.2554 C   0  0  0  0  0  0  0  0  0  0  0  0
   20.2517   20.2123   26.4241 H   0  0  0  0  0  0  0  0  0  0  0  0
   18.5562   19.7507   26.6439 H   0  0  0  0  0  0  0  0  0  0  0  0
   19.9476   18.2071   27.0656 N   0  3  0  0  0  0  0  0  0  0  0  0
   20.0076   18.4220   28.0669 H   0  0  0  0  0  0  0  0  0  0  0  0
   20.8683   17.8616   26.7776 H   0  0  0  0  0  0  0  0  0  0  0  0
   19.2870   17.4296   26.9654 H   0  0  0  0  0  0  0  0  0  0  0  0
  1  2  1  0  0  0  0
  1  3  1  0  0  0  0
  1  4  1  0  0  0  0
  1  5  1  0  0  0  0
  5  6  1  0  0  0  0
  5  7  1  0  0  0  0
  5  8  1  0  0  0  0
  8  9  1  0  0  0  0
  8 10  1  0  0  0  0
  8 11  1  0  0  0  0
 11 12  1  0  0  0  0
 11 13  1  0  0  0  0
 11 14  1  0  0  0  0
 14 15  1  0  0  0  0
 14 16  1  0  0  0  0
 14 17  1  0  0  0  0
 17 18  1  0  0  0  0
 17 19  1  0  0  0  0
 17 20  1  0  0  0  0
 20 21  1  0  0  0  0
 20 22  1  0  0  0  0
 20 23  1  0  0  0  0
 23 24  1  0  0  0  0
 23 25  1  0  0  0  0
 23 26  1  0  0  0  0
M  END
> <VM2 Rank>
57

> <Conf_Id>
1306

> <Probability>
0.51

> <Sum Probability>
86.50

> <Delta G>
1.602

> <G>
49.863

> <E>
17.188

> <-TS>
32.675

> <U+W>
-4.274

> <U>
49.153

> <W>
-53.426

> <W(PB)>
-55.727

> <W(SA)>
2.300

> <Valence>
3.298

> <Coulomb>
44.907

> <VdW>
0.948

> <VdW6>
-7.574

> <VdW12>
8.522

> <Bond>
0.229

> <Angle>
0.912

> <Pdih>
2.157

> <Idih>
0.000

> <Tether>
0.000

$$$$
VeraChem MOL file


 26 25  0  0  0  0  0  0  0  0999 V2000     
   19.6023   20.0065   19.7417 C   0  0  0  0  0  0  0  0  0  0  0  0
   18.5480   20.2001   19.9788 H   0  0  0  0  0  0  0  0  0  0  0  0
   20.0419   20.9421   19.3723 H   0  0  0  0  0  0  0  0  0  0  0  0
   19.6403   19.2718   18.9268 H   0  0  0  0  0  0  0  0  0  0  0  0
   20.3655   19.4988   20.9833 C   0  0  0  0  0  0  0  0  0  0  0  0
   20.3391   20.2751   21.7596 H   0  0  0  0  0  0  0  0  0  0  0  0
   21.4218   19.3426   20.7237 H   0  0  0  0  0  0  0  0  0  0  0  0
   19.7611   18.1822   21.5254 C   0  0  0  0  0  0  0  0  0  0  0  0
   18.7175   18.3474   21.8238 H   0  0  0  0  0  0  0  0  0  0  0  0
   19.7270   17.4444   20.7119 H   0  0  0  0  0  0  0  0  0  0  0  0
   20.5611   17.5695   22.7042 C   0  0  0  0  0  0  0  0  0  0  0  0
   21.5628   17.2933   22.3470 H   0  0  0  0  0  0  0  0  0  0  0  0
   20.0804   16.6283   23.0047 H   0  0  0  0  0  0  0  0  0  0  0  0
   20.7120   18.4772   23.9526 C   0  0  0  0  0  0  0  0  0  0  0  0
   21.3069   17.9320   24.6972 H   0  0  0  0  0  0  0  0  0  0  0  0
   21.2953   19.3721   23.6982 H   0  0  0  0  0  0  0  0  0  0  0  0
   19.3594   18.8955   24.5815 C   0  0  0  0  0  0  0  0  0  0  0  0
   18.7633   18.0048   24.8201 H   0  0  0  0  0  0  0  0  0  0  0  0
   18.7782   19.4787   23.8563 H   0  0  0  0  0  0  0  0  0  0  0  0
   19.5336   19.7534   25.8496 C   0  0  0  0  0  0  0  0  0  0  0  0
   20.1431   20.6314   25.6194 H   0  0  0  0  0  0  0  0  0  0  0  0
   18.5537   20.0986   26.1905 H   0  0  0  0  0  0  0  0  0  0  0  0
   20.1861   19.0160   27.0026 N   0  3  0  0  0  0  0  0  0  0  0  0
   20.2733   19.6104   27.8340 H   0  0  0  0  0  0  0  0  0  0  0  0
   21.1292   18.6949   26.7633 H   0  0  0  0  0  0  0  0  0  0  0  0
   19.6460   18.1901   27.2805 H   0  0  0  0  0  0  0  0  0  0  0  0
  1  2  1  0  0  0  0
  1  3  1  0  0  0  0
  1  4  1  0  0  0  0
  1  5  1  0  0  0  0
  5  6  1  0  0  0  0
  5  7  1  0  0  0  0
  5  8  1  0  0  0  0
  8  9  1  0  0  0  0
  8 10  1  0  0  0  0
  8 11  1  0  0  0  0
 11 12  1  0  0  0  0
 11 13  1  0  0  0  0
 11 14  1  0  0  0  0
 14 15  1  0  0  0  0
 14 16  1  0  0  0  0
 14 17  1  0  0  0  0
 17 18  1  0  0  0  0
 17 19  1  0  0  0  0
 17 20  1  0  0  0  0
 20 21  1  0  0  0  0
 20 22  1  0  0  0  0
 20 23  1  0  0  0  0
 23 24  1  0  0  0  0
 23 25  1  0  0  0  0
 23 26  1  0  0  0  0
M  END
> <VM2 Rank>
58

> <Conf_Id>
122

> <Probability>
0.50

> <Sum Probability>
87.00

> <Delta G>
1.611

> <G>
49.873

> <E>
16.982

> <-TS>
32.890

> <U+W>
-4.480

> <U>
49.231

> <W>
-53.710

> <W(PB)>
-55.983

> <W(SA)>
2.273

> <Valence>
3.276

> <Coulomb>
45.175

> <VdW>
0.779

> <VdW6>
-7.944

> <VdW12>
8.723

> <Bond>
0.239

> <Angle>
1.155

> <Pdih>
1.883

> <Idih>
0.000

> <Tether>
0.000

$$$$
VeraChem MOL file


 26 25  0  0  0  0  0  0  0  0999 V2000     
   20.4785   19.5131   19.4477 C   0  0  0  0  0  0  0  0  0  0  0  0
   21.4639   19.7582   19.8623 H   0  0  0  0  0  0  0  0  0  0  0  0
   20.6277   19.2077   18.4039 H   0  0  0  0  0  0  0  0  0  0  0  0
   19.8684   20.4257   19.4461 H   0  0  0  0  0  0  0  0  0  0  0  0
   19.7886   18.3844   20.2473 C   0  0  0  0  0  0  0  0  0  0  0  0
   20.4335   17.4947   20.2638 H   0  0  0  0  0  0  0  0  0  0  0  0
   18.8713   18.0888   19.7191 H   0  0  0  0  0  0  0  0  0  0  0  0
   19.4175   18.7894   21.6946 C   0  0  0  0  0  0  0  0  0  0  0  0
   18.7717   19.6779   21.6722 H   0  0  0  0  0  0  0  0  0  0  0  0
   18.8164   17.9801   22.1281 H   0  0  0  0  0  0  0  0  0  0  0  0
   20.6502   19.0606   22.5944 C   0  0  0  0  0  0  0  0  0  0  0  0
   21.2525   19.8651   22.1532 H   0  0  0  0  0  0  0  0  0  0  0  0
   21.2944   18.1709   22.6201 H   0  0  0  0  0  0  0  0  0  0  0  0
   20.2840   19.4782   24.0403 C   0  0  0  0  0  0  0  0  0  0  0  0
   21.2055   19.7954   24.5462 H   0  0  0  0  0  0  0  0  0  0  0  0
   19.6280   20.3593   24.0138 H   0  0  0  0  0  0  0  0  0  0  0  0
   19.6113   18.3498   24.8621 C   0  0  0  0  0  0  0  0  0  0  0  0
   20.2493   17.4561   24.8677 H   0  0  0  0  0  0  0  0  0  0  0  0
   18.6651   18.0580   24.3903 H   0  0  0  0  0  0  0  0  0  0  0  0
   19.3064   18.7724   26.3124 C   0  0  0  0  0  0  0  0  0  0  0  0
   18.6881   19.6741   26.3109 H   0  0  0  0  0  0  0  0  0  0  0  0
   18.7469   17.9764   26.8111 H   0  0  0  0  0  0  0  0  0  0  0  0
   20.5444   19.0512   27.1423 N   0  3  0  0  0  0  0  0  0  0  0  0
   20.3061   19.3148   28.1046 H   0  0  0  0  0  0  0  0  0  0  0  0
   21.1000   19.8178   26.7504 H   0  0  0  0  0  0  0  0  0  0  0  0
   21.1570   18.2311   27.1996 H   0  0  0  0  0  0  0  0  0  0  0  0
  1  2  1  0  0  0  0
  1  3  1  0  0  0  0
  1  4  1  0  0  0  0
  1  5  1  0  0  0  0
  5  6  1  0  0  0  0
  5  7  1  0  0  0  0
  5  8  1  0  0  0  0
  8  9  1  0  0  0  0
  8 10  1  0  0  0  0
  8 11  1  0  0  0  0
 11 12  1  0  0  0  0
 11 13  1  0  0  0  0
 11 14  1  0  0  0  0
 14 15  1  0  0  0  0
 14 16  1  0  0  0  0
 14 17  1  0  0  0  0
 17 18  1  0  0  0  0
 17 19  1  0  0  0  0
 17 20  1  0  0  0  0
 20 21  1  0  0  0  0
 20 22  1  0  0  0  0
 20 23  1  0  0  0  0
 23 24  1  0  0  0  0
 23 25  1  0  0  0  0
 23 26  1  0  0  0  0
M  END
> <VM2 Rank>
59

> <Conf_Id>
1239

> <Probability>
0.48

> <Sum Probability>
87.48

> <Delta G>
1.634

> <G>
49.896

> <E>
17.316

> <-TS>
32.579

> <U+W>
-4.145

> <U>
49.323

> <W>
-53.468

> <W(PB)>
-55.769

> <W(SA)>
2.301

> <Valence>
3.408

> <Coulomb>
44.893

> <VdW>
1.021

> <VdW6>
-7.482

> <VdW12>
8.503

> <Bond>
0.238

> <Angle>
1.013

> <Pdih>
2.156

> <Idih>
0.000

> <Tether>
0.000

$$$$
VeraChem MOL file


 26 25  0  0  0  0  0  0  0  0999 V2000     
   20.6458   20.3700   20.5103 C   0  0  0  0  0  0  0  0  0  0  0  0
   19.7209   20.8556   20.8454 H   0  0  0  0  0  0  0  0  0  0  0  0
   21.4619   20.6907   21.1707 H   0  0  0  0  0  0  0  0  0  0  0  0
   20.8657   20.7403   19.5006 H   0  0  0  0  0  0  0  0  0  0  0  0
   20.5084   18.8306   20.5038 C   0  0  0  0  0  0  0  0  0  0  0  0
   21.4107   18.3961   20.0510 H   0  0  0  0  0  0  0  0  0  0  0  0
   19.6688   18.5369   19.8584 H   0  0  0  0  0  0  0  0  0  0  0  0
   20.3206   18.2260   21.9160 C   0  0  0  0  0  0  0  0  0  0  0  0
   20.3389   17.1306   21.8331 H   0  0  0  0  0  0  0  0  0  0  0  0
   21.1784   18.5053   22.5419 H   0  0  0  0  0  0  0  0  0  0  0  0
   18.9990   18.6600   22.5985 C   0  0  0  0  0  0  0  0  0  0  0  0
   18.1632   18.4754   21.9098 H   0  0  0  0  0  0  0  0  0  0  0  0
   19.0074   19.7419   22.7827 H   0  0  0  0  0  0  0  0  0  0  0  0
   18.7148   17.9093   23.9251 C   0  0  0  0  0  0  0  0  0  0  0  0
   17.7479   18.2486   24.3219 H   0  0  0  0  0  0  0  0  0  0  0  0
   18.5953   16.8376   23.7144 H   0  0  0  0  0  0  0  0  0  0  0  0
   19.7967   18.0892   25.0190 C   0  0  0  0  0  0  0  0  0  0  0  0
   20.7399   17.6323   24.6934 H   0  0  0  0  0  0  0  0  0  0  0  0
   19.4848   17.5423   25.9187 H   0  0  0  0  0  0  0  0  0  0  0  0
   20.0345   19.5662   25.3845 C   0  0  0  0  0  0  0  0  0  0  0  0
   20.3850   20.1119   24.5045 H   0  0  0  0  0  0  0  0  0  0  0  0
   19.0970   20.0179   25.7196 H   0  0  0  0  0  0  0  0  0  0  0  0
   21.0611   19.7477   26.4837 N   0  3  0  0  0  0  0  0  0  0  0  0
   21.9754   19.3665   26.2196 H   0  0  0  0  0  0  0  0  0  0  0  0
   20.7782   19.2801   27.3512 H   0  0  0  0  0  0  0  0  0  0  0  0
   21.2045   20.7376   26.7115 H   0  0  0  0  0  0  0  0  0  0  0  0
  1  2  1  0  0  0  0
  1  3  1  0  0  0  0
  1  4  1  0  0  0  0
  1  5  1  0  0  0  0
  5  6  1  0  0  0  0
  5  7  1  0  0  0  0
  5  8  1  0  0  0  0
  8  9  1  0  0  0  0
  8 10  1  0  0  0  0
  8 11  1  0  0  0  0
 11 12  1  0  0  0  0
 11 13  1  0  0  0  0
 11 14  1  0  0  0  0
 14 15  1  0  0  0  0
 14 16  1  0  0  0  0
 14 17  1  0  0  0  0
 17 18  1  0  0  0  0
 17 19  1  0  0  0  0
 17 20  1  0  0  0  0
 20 21  1  0  0  0  0
 20 22  1  0  0  0  0
 20 23  1  0  0  0  0
 23 24  1  0  0  0  0
 23 25  1  0  0  0  0
 23 26  1  0  0  0  0
M  END
> <VM2 Rank>
60

> <Conf_Id>
144

> <Probability>
0.48

> <Sum Probability>
87.96

> <Delta G>
1.635

> <G>
49.896

> <E>
17.075

> <-TS>
32.821

> <U+W>
-4.386

> <U>
49.567

> <W>
-53.953

> <W(PB)>
-56.238

> <W(SA)>
2.285

> <Valence>
3.380

> <Coulomb>
45.516

> <VdW>
0.670

> <VdW6>
-8.071

> <VdW12>
8.741

> <Bond>
0.231

> <Angle>
1.069

> <Pdih>
2.080

> <Idih>
0.000

> <Tether>
0.000

$$$$
VeraChem MOL file


 26 25  0  0  0  0  0  0  0  0999 V2000     
   19.5767   19.1708   19.2684 C   0  0  0  0  0  0  0  0  0  0  0  0
   18.5448   19.5394   19.3356 H   0  0  0  0  0  0  0  0  0  0  0  0
   20.2105   19.9919   18.9089 H   0  0  0  0  0  0  0  0  0  0  0  0
   19.6011   18.3723   18.5154 H   0  0  0  0  0  0  0  0  0  0  0  0
   20.0683   18.6467   20.6344 C   0  0  0  0  0  0  0  0  0  0  0  0
   19.4365   17.8020   20.9390 H   0  0  0  0  0  0  0  0  0  0  0  0
   21.0910   18.2586   20.5288 H   0  0  0  0  0  0  0  0  0  0  0  0
   20.0386   19.7546   21.7139 C   0  0  0  0  0  0  0  0  0  0  0  0
   20.6080   20.6208   21.3496 H   0  0  0  0  0  0  0  0  0  0  0  0
   19.0070   20.1036   21.8588 H   0  0  0  0  0  0  0  0  0  0  0  0
   20.6346   19.3148   23.0739 C   0  0  0  0  0  0  0  0  0  0  0  0
   20.6950   20.2005   23.7199 H   0  0  0  0  0  0  0  0  0  0  0  0
   21.6671   18.9688   22.9277 H   0  0  0  0  0  0  0  0  0  0  0  0
   19.8090   18.2117   23.7839 C   0  0  0  0  0  0  0  0  0  0  0  0
   18.7695   18.5446   23.9038 H   0  0  0  0  0  0  0  0  0  0  0  0
   19.7721   17.3153   23.1518 H   0  0  0  0  0  0  0  0  0  0  0  0
   20.3940   17.8032   25.1595 C   0  0  0  0  0  0  0  0  0  0  0  0
   21.4061   17.4017   25.0173 H   0  0  0  0  0  0  0  0  0  0  0  0
   19.7958   16.9828   25.5779 H   0  0  0  0  0  0  0  0  0  0  0  0
   20.4572   18.9527   26.1860 C   0  0  0  0  0  0  0  0  0  0  0  0
   20.8984   18.5842   27.1161 H   0  0  0  0  0  0  0  0  0  0  0  0
   21.0932   19.7556   25.8048 H   0  0  0  0  0  0  0  0  0  0  0  0
   19.1025   19.5446   26.5209 N   0  3  0  0  0  0  0  0  0  0  0  0
   19.1765   20.2997   27.2112 H   0  0  0  0  0  0  0  0  0  0  0  0
   18.4667   18.8420   26.9120 H   0  0  0  0  0  0  0  0  0  0  0  0
   18.6473   19.9379   25.6914 H   0  0  0  0  0  0  0  0  0  0  0  0
  1  2  1  0  0  0  0
  1  3  1  0  0  0  0
  1  4  1  0  0  0  0
  1  5  1  0  0  0  0
  5  6  1  0  0  0  0
  5  7  1  0  0  0  0
  5  8  1  0  0  0  0
  8  9  1  0  0  0  0
  8 10  1  0  0  0  0
  8 11  1  0  0  0  0
 11 12  1  0  0  0  0
 11 13  1  0  0  0  0
 11 14  1  0  0  0  0
 14 15  1  0  0  0  0
 14 16  1  0  0  0  0
 14 17  1  0  0  0  0
 17 18  1  0  0  0  0
 17 19  1  0  0  0  0
 17 20  1  0  0  0  0
 20 21  1  0  0  0  0
 20 22  1  0  0  0  0
 20 23  1  0  0  0  0
 23 24  1  0  0  0  0
 23 25  1  0  0  0  0
 23 26  1  0  0  0  0
M  END
> <VM2 Rank>
61

> <Conf_Id>
273

> <Probability>
0.47

> <Sum Probability>
88.43

> <Delta G>
1.643

> <G>
49.904

> <E>
17.197

> <-TS>
32.708

> <U+W>
-4.265

> <U>
49.425

> <W>
-53.690

> <W(PB)>
-55.973

> <W(SA)>
2.283

> <Valence>
3.135

> <Coulomb>
45.468

> <VdW>
0.822

> <VdW6>
-7.704

> <VdW12>
8.526

> <Bond>
0.222

> <Angle>
0.941

> <Pdih>
1.972

> <Idih>
0.000

> <Tether>
0.000

$$$$
VeraChem MOL file


 26 25  0  0  0  0  0  0  0  0999 V2000     
   19.4649   18.8445   19.4138 C   0  0  0  0  0  0  0  0  0  0  0  0
   18.8662   19.7646   19.4126 H   0  0  0  0  0  0  0  0  0  0  0  0
   19.7354   18.6191   18.3741 H   0  0  0  0  0  0  0  0  0  0  0  0
   18.8336   18.0233   19.7744 H   0  0  0  0  0  0  0  0  0  0  0  0
   20.7353   19.0089   20.2789 C   0  0  0  0  0  0  0  0  0  0  0  0
   21.3914   19.7512   19.8033 H   0  0  0  0  0  0  0  0  0  0  0  0
   21.2985   18.0653   20.2927 H   0  0  0  0  0  0  0  0  0  0  0  0
   20.4416   19.4649   21.7288 C   0  0  0  0  0  0  0  0  0  0  0  0
   21.4007   19.6847   22.2144 H   0  0  0  0  0  0  0  0  0  0  0  0
   19.8800   20.4090   21.7092 H   0  0  0  0  0  0  0  0  0  0  0  0
   19.6666   18.4118   22.5615 C   0  0  0  0  0  0  0  0  0  0  0  0
   20.2296   17.4687   22.5845 H   0  0  0  0  0  0  0  0  0  0  0  0
   18.7117   18.1894   22.0683 H   0  0  0  0  0  0  0  0  0  0  0  0
   19.3596   18.8684   24.0094 C   0  0  0  0  0  0  0  0  0  0  0  0
   18.8092   19.8192   23.9865 H   0  0  0  0  0  0  0  0  0  0  0  0
   18.6829   18.1316   24.4619 H   0  0  0  0  0  0  0  0  0  0  0  0
   20.6220   19.0161   24.8959 C   0  0  0  0  0  0  0  0  0  0  0  0
   21.2836   19.7844   24.4778 H   0  0  0  0  0  0  0  0  0  0  0  0
   21.1919   18.0775   24.8993 H   0  0  0  0  0  0  0  0  0  0  0  0
   20.2861   19.4184   26.3451 C   0  0  0  0  0  0  0  0  0  0  0  0
   21.2138   19.6031   26.8935 H   0  0  0  0  0  0  0  0  0  0  0  0
   19.7010   20.3420   26.3446 H   0  0  0  0  0  0  0  0  0  0  0  0
   19.5050   18.3660   27.1076 N   0  3  0  0  0  0  0  0  0  0  0  0
   19.3117   18.6594   28.0714 H   0  0  0  0  0  0  0  0  0  0  0  0
   20.0149   17.4782   27.1616 H   0  0  0  0  0  0  0  0  0  0  0  0
   18.6010   18.1701   26.6670 H   0  0  0  0  0  0  0  0  0  0  0  0
  1  2  1  0  0  0  0
  1  3  1  0  0  0  0
  1  4  1  0  0  0  0
  1  5  1  0  0  0  0
  5  6  1  0  0  0  0
  5  7  1  0  0  0  0
  5  8  1  0  0  0  0
  8  9  1  0  0  0  0
  8 10  1  0  0  0  0
  8 11  1  0  0  0  0
 11 12  1  0  0  0  0
 11 13  1  0  0  0  0
 11 14  1  0  0  0  0
 14 15  1  0  0  0  0
 14 16  1  0  0  0  0
 14 17  1  0  0  0  0
 17 18  1  0  0  0  0
 17 19  1  0  0  0  0
 17 20  1  0  0  0  0
 20 21  1  0  0  0  0
 20 22  1  0  0  0  0
 20 23  1  0  0  0  0
 23 24  1  0  0  0  0
 23 25  1  0  0  0  0
 23 26  1  0  0  0  0
M  END
> <VM2 Rank>
62

> <Conf_Id>
982

> <Probability>
0.47

> <Sum Probability>
88.90

> <Delta G>
1.649

> <G>
49.910

> <E>
17.331

> <-TS>
32.579

> <U+W>
-4.131

> <U>
49.323

> <W>
-53.453

> <W(PB)>
-55.749

> <W(SA)>
2.296

> <Valence>
3.408

> <Coulomb>
44.893

> <VdW>
1.021

> <VdW6>
-7.482

> <VdW12>
8.503

> <Bond>
0.239

> <Angle>
1.013

> <Pdih>
2.156

> <Idih>
0.000

> <Tether>
0.000

$$$$
VeraChem MOL file


 26 25  0  0  0  0  0  0  0  0999 V2000     
   19.3415   19.8342   19.7328 C   0  0  0  0  0  0  0  0  0  0  0  0
   19.5659   20.8718   20.0125 H   0  0  0  0  0  0  0  0  0  0  0  0
   20.0396   19.5350   18.9401 H   0  0  0  0  0  0  0  0  0  0  0  0
   18.3268   19.8098   19.3147 H   0  0  0  0  0  0  0  0  0  0  0  0
   19.4510   18.8952   20.9527 C   0  0  0  0  0  0  0  0  0  0  0  0
   19.1924   17.8711   20.6492 H   0  0  0  0  0  0  0  0  0  0  0  0
   18.7119   19.2012   21.7051 H   0  0  0  0  0  0  0  0  0  0  0  0
   20.8723   18.9158   21.5626 C   0  0  0  0  0  0  0  0  0  0  0  0
   21.6014   18.6817   20.7746 H   0  0  0  0  0  0  0  0  0  0  0  0
   21.1157   19.9304   21.9040 H   0  0  0  0  0  0  0  0  0  0  0  0
   21.0667   17.9033   22.7211 C   0  0  0  0  0  0  0  0  0  0  0  0
   22.1059   17.9653   23.0724 H   0  0  0  0  0  0  0  0  0  0  0  0
   20.9444   16.8853   22.3263 H   0  0  0  0  0  0  0  0  0  0  0  0
   20.1156   18.0836   23.9327 C   0  0  0  0  0  0  0  0  0  0  0  0
   19.0765   17.9080   23.6241 H   0  0  0  0  0  0  0  0  0  0  0  0
   20.3486   17.2995   24.6651 H   0  0  0  0  0  0  0  0  0  0  0  0
   20.2325   19.4717   24.6108 C   0  0  0  0  0  0  0  0  0  0  0  0
   19.9586   20.2576   23.8959 H   0  0  0  0  0  0  0  0  0  0  0  0
   21.2735   19.6611   24.9043 H   0  0  0  0  0  0  0  0  0  0  0  0
   19.3169   19.6104   25.8425 C   0  0  0  0  0  0  0  0  0  0  0  0
   19.3683   20.6360   26.2180 H   0  0  0  0  0  0  0  0  0  0  0  0
   18.2819   19.4035   25.5571 H   0  0  0  0  0  0  0  0  0  0  0  0
   19.6845   18.6849   26.9858 N   0  3  0  0  0  0  0  0  0  0  0  0
   19.0655   18.8133   27.7936 H   0  0  0  0  0  0  0  0  0  0  0  0
   20.6422   18.8471   27.3139 H   0  0  0  0  0  0  0  0  0  0  0  0
   19.6205   17.6994   26.7127 H   0  0  0  0  0  0  0  0  0  0  0  0
  1  2  1  0  0  0  0
  1  3  1  0  0  0  0
  1  4  1  0  0  0  0
  1  5  1  0  0  0  0
  5  6  1  0  0  0  0
  5  7  1  0  0  0  0
  5  8  1  0  0  0  0
  8  9  1  0  0  0  0
  8 10  1  0  0  0  0
  8 11  1  0  0  0  0
 11 12  1  0  0  0  0
 11 13  1  0  0  0  0
 11 14  1  0  0  0  0
 14 15  1  0  0  0  0
 14 16  1  0  0  0  0
 14 17  1  0  0  0  0
 17 18  1  0  0  0  0
 17 19  1  0  0  0  0
 17 20  1  0  0  0  0
 20 21  1  0  0  0  0
 20 22  1  0  0  0  0
 20 23  1  0  0  0  0
 23 24  1  0  0  0  0
 23 25  1  0  0  0  0
 23 26  1  0  0  0  0
M  END
> <VM2 Rank>
63

> <Conf_Id>
157

> <Probability>
0.46

> <Sum Probability>
89.37

> <Delta G>
1.653

> <G>
49.914

> <E>
17.024

> <-TS>
32.890

> <U+W>
-4.438

> <U>
49.231

> <W>
-53.665

> <W(PB)>
-55.961

> <W(SA)>
2.296

> <Valence>
3.277

> <Coulomb>
45.175

> <VdW>
0.779

> <VdW6>
-7.944

> <VdW12>
8.722

> <Bond>
0.239

> <Angle>
1.155

> <Pdih>
1.883

> <Idih>
0.000

> <Tether>
0.000

$$$$
VeraChem MOL file


 26 25  0  0  0  0  0  0  0  0999 V2000     
   20.9192   20.0874   20.0859 C   0  0  0  0  0  0  0  0  0  0  0  0
   20.4274   19.7572   19.1616 H   0  0  0  0  0  0  0  0  0  0  0  0
   20.4833   21.0511   20.3799 H   0  0  0  0  0  0  0  0  0  0  0  0
   21.9812   20.2521   19.8618 H   0  0  0  0  0  0  0  0  0  0  0  0
   20.7551   19.0396   21.2072 C   0  0  0  0  0  0  0  0  0  0  0  0
   21.2260   18.0964   20.8970 H   0  0  0  0  0  0  0  0  0  0  0  0
   21.2926   19.3863   22.0997 H   0  0  0  0  0  0  0  0  0  0  0  0
   19.2655   18.7934   21.5439 C   0  0  0  0  0  0  0  0  0  0  0  0
   18.8046   19.7267   21.8933 H   0  0  0  0  0  0  0  0  0  0  0  0
   18.7322   18.5213   20.6227 H   0  0  0  0  0  0  0  0  0  0  0  0
   19.0419   17.6675   22.5866 C   0  0  0  0  0  0  0  0  0  0  0  0
   19.4019   16.7178   22.1676 H   0  0  0  0  0  0  0  0  0  0  0  0
   17.9615   17.5376   22.7385 H   0  0  0  0  0  0  0  0  0  0  0  0
   19.7193   17.8932   23.9630 C   0  0  0  0  0  0  0  0  0  0  0  0
   19.4885   17.0332   24.6068 H   0  0  0  0  0  0  0  0  0  0  0  0
   20.8100   17.8961   23.8424 H   0  0  0  0  0  0  0  0  0  0  0  0
   19.2570   19.1901   24.6727 C   0  0  0  0  0  0  0  0  0  0  0  0
   18.1601   19.2091   24.7170 H   0  0  0  0  0  0  0  0  0  0  0  0
   19.5647   20.0724   24.0971 H   0  0  0  0  0  0  0  0  0  0  0  0
   19.8062   19.3077   26.1073 C   0  0  0  0  0  0  0  0  0  0  0  0
   19.3858   20.1967   26.5853 H   0  0  0  0  0  0  0  0  0  0  0  0
   19.5050   18.4327   26.6897 H   0  0  0  0  0  0  0  0  0  0  0  0
   21.3167   19.4200   26.1743 N   0  3  0  0  0  0  0  0  0  0  0  0
   21.6605   20.2400   25.6640 H   0  0  0  0  0  0  0  0  0  0  0  0
   21.7764   18.5971   25.7726 H   0  0  0  0  0  0  0  0  0  0  0  0
   21.6490   19.5076   27.1409 H   0  0  0  0  0  0  0  0  0  0  0  0
  1  2  1  0  0  0  0
  1  3  1  0  0  0  0
  1  4  1  0  0  0  0
  1  5  1  0  0  0  0
  5  6  1  0  0  0  0
  5  7  1  0  0  0  0
  5  8  1  0  0  0  0
  8  9  1  0  0  0  0
  8 10  1  0  0  0  0
  8 11  1  0  0  0  0
 11 12  1  0  0  0  0
 11 13  1  0  0  0  0
 11 14  1  0  0  0  0
 14 15  1  0  0  0  0
 14 16  1  0  0  0  0
 14 17  1  0  0  0  0
 17 18  1  0  0  0  0
 17 19  1  0  0  0  0
 17 20  1  0  0  0  0
 20 21  1  0  0  0  0
 20 22  1  0  0  0  0
 20 23  1  0  0  0  0
 23 24  1  0  0  0  0
 23 25  1  0  0  0  0
 23 26  1  0  0  0  0
M  END
> <VM2 Rank>
64

> <Conf_Id>
271

> <Probability>
0.46

> <Sum Probability>
89.82

> <Delta G>
1.662

> <G>
49.923

> <E>
17.018

> <-TS>
32.905

> <U+W>
-4.444

> <U>
49.677

> <W>
-54.121

> <W(PB)>
-56.390

> <W(SA)>
2.269

> <Valence>
3.238

> <Coulomb>
45.761

> <VdW>
0.679

> <VdW6>
-8.038

> <VdW12>
8.717

> <Bond>
0.234

> <Angle>
1.079

> <Pdih>
1.925

> <Idih>
0.000

> <Tether>
0.000

$$$$
VeraChem MOL file


 26 25  0  0  0  0  0  0  0  0999 V2000     
   18.5626   18.9962   20.4407 C   0  0  0  0  0  0  0  0  0  0  0  0
   18.4641   20.0268   20.8035 H   0  0  0  0  0  0  0  0  0  0  0  0
   18.1830   18.9713   19.4110 H   0  0  0  0  0  0  0  0  0  0  0  0
   17.9169   18.3526   21.0522 H   0  0  0  0  0  0  0  0  0  0  0  0
   20.0308   18.5158   20.4877 C   0  0  0  0  0  0  0  0  0  0  0  0
   20.6602   19.1912   19.8915 H   0  0  0  0  0  0  0  0  0  0  0  0
   20.0967   17.5298   20.0068 H   0  0  0  0  0  0  0  0  0  0  0  0
   20.5942   18.4064   21.9249 C   0  0  0  0  0  0  0  0  0  0  0  0
   19.9718   17.7094   22.5013 H   0  0  0  0  0  0  0  0  0  0  0  0
   21.5971   17.9604   21.8748 H   0  0  0  0  0  0  0  0  0  0  0  0
   20.6827   19.7703   22.6548 C   0  0  0  0  0  0  0  0  0  0  0  0
   19.6772   20.1835   22.8052 H   0  0  0  0  0  0  0  0  0  0  0  0
   21.2126   20.4865   22.0118 H   0  0  0  0  0  0  0  0  0  0  0  0
   21.4222   19.6945   24.0156 C   0  0  0  0  0  0  0  0  0  0  0  0
   22.4633   19.3881   23.8436 H   0  0  0  0  0  0  0  0  0  0  0  0
   21.4720   20.7042   24.4463 H   0  0  0  0  0  0  0  0  0  0  0  0
   20.7811   18.7382   25.0519 C   0  0  0  0  0  0  0  0  0  0  0  0
   21.3641   18.7813   25.9814 H   0  0  0  0  0  0  0  0  0  0  0  0
   20.8452   17.7017   24.6968 H   0  0  0  0  0  0  0  0  0  0  0  0
   19.3142   19.0912   25.3605 C   0  0  0  0  0  0  0  0  0  0  0  0
   19.2521   20.1202   25.7248 H   0  0  0  0  0  0  0  0  0  0  0  0
   18.7161   19.0114   24.4489 H   0  0  0  0  0  0  0  0  0  0  0  0
   18.6932   18.1863   26.4049 N   0  3  0  0  0  0  0  0  0  0  0  0
   18.6963   17.2043   26.1105 H   0  0  0  0  0  0  0  0  0  0  0  0
   17.7171   18.4381   26.5953 H   0  0  0  0  0  0  0  0  0  0  0  0
   19.1934   18.2351   27.2985 H   0  0  0  0  0  0  0  0  0  0  0  0
  1  2  1  0  0  0  0
  1  3  1  0  0  0  0
  1  4  1  0  0  0  0
  1  5  1  0  0  0  0
  5  6  1  0  0  0  0
  5  7  1  0  0  0  0
  5  8  1  0  0  0  0
  8  9  1  0  0  0  0
  8 10  1  0  0  0  0
  8 11  1  0  0  0  0
 11 12  1  0  0  0  0
 11 13  1  0  0  0  0
 11 14  1  0  0  0  0
 14 15  1  0  0  0  0
 14 16  1  0  0  0  0
 14 17  1  0  0  0  0
 17 18  1  0  0  0  0
 17 19  1  0  0  0  0
 17 20  1  0  0  0  0
 20 21  1  0  0  0  0
 20 22  1  0  0  0  0
 20 23  1  0  0  0  0
 23 24  1  0  0  0  0
 23 25  1  0  0  0  0
 23 26  1  0  0  0  0
M  END
> <VM2 Rank>
65

> <Conf_Id>
446

> <Probability>
0.46

> <Sum Probability>
90.28

> <Delta G>
1.664

> <G>
49.926

> <E>
17.105

> <-TS>
32.820

> <U+W>
-4.356

> <U>
49.566

> <W>
-53.923

> <W(PB)>
-56.210

> <W(SA)>
2.287

> <Valence>
3.381

> <Coulomb>
45.516

> <VdW>
0.670

> <VdW6>
-8.070

> <VdW12>
8.741

> <Bond>
0.231

> <Angle>
1.069

> <Pdih>
2.080

> <Idih>
0.000

> <Tether>
0.000

$$$$
VeraChem MOL file


 26 25  0  0  0  0  0  0  0  0999 V2000     
   19.9450   19.6220   19.4852 C   0  0  0  0  0  0  0  0  0  0  0  0
   18.8775   19.7236   19.7159 H   0  0  0  0  0  0  0  0  0  0  0  0
   20.4275   20.5941   19.6503 H   0  0  0  0  0  0  0  0  0  0  0  0
   20.0293   19.3829   18.4171 H   0  0  0  0  0  0  0  0  0  0  0  0
   20.6100   18.5190   20.3398 C   0  0  0  0  0  0  0  0  0  0  0  0
   21.6384   18.3687   19.9825 H   0  0  0  0  0  0  0  0  0  0  0  0
   20.0882   17.5645   20.1836 H   0  0  0  0  0  0  0  0  0  0  0  0
   20.6546   18.8505   21.8512 C   0  0  0  0  0  0  0  0  0  0  0  0
   21.2592   18.0814   22.3487 H   0  0  0  0  0  0  0  0  0  0  0  0
   21.1797   19.8037   22.0020 H   0  0  0  0  0  0  0  0  0  0  0  0
   19.2531   18.9147   22.5102 C   0  0  0  0  0  0  0  0  0  0  0  0
   18.7282   17.9613   22.3599 H   0  0  0  0  0  0  0  0  0  0  0  0
   18.6491   19.6821   22.0092 H   0  0  0  0  0  0  0  0  0  0  0  0
   19.2957   19.2514   24.0212 C   0  0  0  0  0  0  0  0  0  0  0  0
   19.8159   20.2078   24.1648 H   0  0  0  0  0  0  0  0  0  0  0  0
   18.2654   19.4036   24.3719 H   0  0  0  0  0  0  0  0  0  0  0  0
   19.9602   18.1490   24.8834 C   0  0  0  0  0  0  0  0  0  0  0  0
   21.0237   18.0520   24.6319 H   0  0  0  0  0  0  0  0  0  0  0  0
   19.4932   17.1807   24.6598 H   0  0  0  0  0  0  0  0  0  0  0  0
   19.8240   18.4186   26.3943 C   0  0  0  0  0  0  0  0  0  0  0  0
   18.7671   18.5137   26.6575 H   0  0  0  0  0  0  0  0  0  0  0  0
   20.2400   17.5755   26.9526 H   0  0  0  0  0  0  0  0  0  0  0  0
   20.5384   19.6738   26.8558 N   0  3  0  0  0  0  0  0  0  0  0  0
   20.4379   19.8193   27.8662 H   0  0  0  0  0  0  0  0  0  0  0  0
   20.1703   20.5111   26.3939 H   0  0  0  0  0  0  0  0  0  0  0  0
   21.5434   19.6347   26.6573 H   0  0  0  0  0  0  0  0  0  0  0  0
  1  2  1  0  0  0  0
  1  3  1  0  0  0  0
  1  4  1  0  0  0  0
  1  5  1  0  0  0  0
  5  6  1  0  0  0  0
  5  7  1  0  0  0  0
  5  8  1  0  0  0  0
  8  9  1  0  0  0  0
  8 10  1  0  0  0  0
  8 11  1  0  0  0  0
 11 12  1  0  0  0  0
 11 13  1  0  0  0  0
 11 14  1  0  0  0  0
 14 15  1  0  0  0  0
 14 16  1  0  0  0  0
 14 17  1  0  0  0  0
 17 18  1  0  0  0  0
 17 19  1  0  0  0  0
 17 20  1  0  0  0  0
 20 21  1  0  0  0  0
 20 22  1  0  0  0  0
 20 23  1  0  0  0  0
 23 24  1  0  0  0  0
 23 25  1  0  0  0  0
 23 26  1  0  0  0  0
M  END
> <VM2 Rank>
66

> <Conf_Id>
226

> <Probability>
0.45

> <Sum Probability>
90.73

> <Delta G>
1.669

> <G>
49.930

> <E>
17.305

> <-TS>
32.626

> <U+W>
-4.157

> <U>
49.401

> <W>
-53.558

> <W(PB)>
-55.887

> <W(SA)>
2.328

> <Valence>
3.370

> <Coulomb>
45.066

> <VdW>
0.965

> <VdW6>
-7.528

> <VdW12>
8.494

> <Bond>
0.232

> <Angle>
0.963

> <Pdih>
2.174

> <Idih>
0.000

> <Tether>
0.000

$$$$
VeraChem MOL file


 26 25  0  0  0  0  0  0  0  0999 V2000     
   20.1415   19.5438   19.2874 C   0  0  0  0  0  0  0  0  0  0  0  0
   19.1555   19.2954   18.8736 H   0  0  0  0  0  0  0  0  0  0  0  0
   20.2038   20.6350   19.3914 H   0  0  0  0  0  0  0  0  0  0  0  0
   20.9009   19.2308   18.5591 H   0  0  0  0  0  0  0  0  0  0  0  0
   20.3668   18.8439   20.6445 C   0  0  0  0  0  0  0  0  0  0  0  0
   21.3763   19.0830   21.0042 H   0  0  0  0  0  0  0  0  0  0  0  0
   20.3279   17.7548   20.5032 H   0  0  0  0  0  0  0  0  0  0  0  0
   19.3099   19.2735   21.6896 C   0  0  0  0  0  0  0  0  0  0  0  0
   19.3866   20.3543   21.8717 H   0  0  0  0  0  0  0  0  0  0  0  0
   18.3079   19.1022   21.2725 H   0  0  0  0  0  0  0  0  0  0  0  0
   19.4171   18.5109   23.0332 C   0  0  0  0  0  0  0  0  0  0  0  0
   19.3370   17.4306   22.8496 H   0  0  0  0  0  0  0  0  0  0  0  0
   18.5496   18.7841   23.6481 H   0  0  0  0  0  0  0  0  0  0  0  0
   20.7212   18.8133   23.8144 C   0  0  0  0  0  0  0  0  0  0  0  0
   21.5887   18.5135   23.2126 H   0  0  0  0  0  0  0  0  0  0  0  0
   20.8176   19.8957   23.9720 H   0  0  0  0  0  0  0  0  0  0  0  0
   20.8030   18.0731   25.1733 C   0  0  0  0  0  0  0  0  0  0  0  0
   21.7719   18.2866   25.6439 H   0  0  0  0  0  0  0  0  0  0  0  0
   20.7813   16.9894   24.9968 H   0  0  0  0  0  0  0  0  0  0  0  0
   19.6746   18.4365   26.1599 C   0  0  0  0  0  0  0  0  0  0  0  0
   18.7052   18.1802   25.7252 H   0  0  0  0  0  0  0  0  0  0  0  0
   19.7968   17.8578   27.0795 H   0  0  0  0  0  0  0  0  0  0  0  0
   19.6468   19.9040   26.5388 N   0  3  0  0  0  0  0  0  0  0  0  0
   19.5027   20.5023   25.7195 H   0  0  0  0  0  0  0  0  0  0  0  0
   20.5236   20.1994   26.9802 H   0  0  0  0  0  0  0  0  0  0  0  0
   18.8921   20.1124   27.2014 H   0  0  0  0  0  0  0  0  0  0  0  0
  1  2  1  0  0  0  0
  1  3  1  0  0  0  0
  1  4  1  0  0  0  0
  1  5  1  0  0  0  0
  5  6  1  0  0  0  0
  5  7  1  0  0  0  0
  5  8  1  0  0  0  0
  8  9  1  0  0  0  0
  8 10  1  0  0  0  0
  8 11  1  0  0  0  0
 11 12  1  0  0  0  0
 11 13  1  0  0  0  0
 11 14  1  0  0  0  0
 14 15  1  0  0  0  0
 14 16  1  0  0  0  0
 14 17  1  0  0  0  0
 17 18  1  0  0  0  0
 17 19  1  0  0  0  0
 17 20  1  0  0  0  0
 20 21  1  0  0  0  0
 20 22  1  0  0  0  0
 20 23  1  0  0  0  0
 23 24  1  0  0  0  0
 23 25  1  0  0  0  0
 23 26  1  0  0  0  0
M  END
> <VM2 Rank>
67

> <Conf_Id>
1080

> <Probability>
0.45

> <Sum Probability>
91.18

> <Delta G>
1.674

> <G>
49.935

> <E>
17.227

> <-TS>
32.708

> <U+W>
-4.235

> <U>
49.425

> <W>
-53.659

> <W(PB)>
-55.946

> <W(SA)>
2.286

> <Valence>
3.135

> <Coulomb>
45.468

> <VdW>
0.822

> <VdW6>
-7.705

> <VdW12>
8.527

> <Bond>
0.222

> <Angle>
0.941

> <Pdih>
1.972

> <Idih>
0.000

> <Tether>
0.000

$$$$
VeraChem MOL file


 26 25  0  0  0  0  0  0  0  0999 V2000     
   20.3464   18.2637   19.4853 C   0  0  0  0  0  0  0  0  0  0  0  0
   21.1119   18.9284   19.0640 H   0  0  0  0  0  0  0  0  0  0  0  0
   20.5617   17.2430   19.1435 H   0  0  0  0  0  0  0  0  0  0  0  0
   19.3727   18.5589   19.0730 H   0  0  0  0  0  0  0  0  0  0  0  0
   20.3392   18.3320   21.0272 C   0  0  0  0  0  0  0  0  0  0  0  0
   21.3153   18.0034   21.4105 H   0  0  0  0  0  0  0  0  0  0  0  0
   19.5913   17.6256   21.4111 H   0  0  0  0  0  0  0  0  0  0  0  0
   20.0334   19.7617   21.5329 C   0  0  0  0  0  0  0  0  0  0  0  0
   20.7459   20.4619   21.0753 H   0  0  0  0  0  0  0  0  0  0  0  0
   19.0359   20.0703   21.1910 H   0  0  0  0  0  0  0  0  0  0  0  0
   20.1231   19.9063   23.0718 C   0  0  0  0  0  0  0  0  0  0  0  0
   20.0075   20.9685   23.3283 H   0  0  0  0  0  0  0  0  0  0  0  0
   21.1288   19.6160   23.4036 H   0  0  0  0  0  0  0  0  0  0  0  0
   19.0510   19.0852   23.8319 C   0  0  0  0  0  0  0  0  0  0  0  0
   18.0593   19.3194   23.4210 H   0  0  0  0  0  0  0  0  0  0  0  0
   19.2062   18.0118   23.6649 H   0  0  0  0  0  0  0  0  0  0  0  0
   19.0345   19.3731   25.3541 C   0  0  0  0  0  0  0  0  0  0  0  0
   18.2329   18.7894   25.8257 H   0  0  0  0  0  0  0  0  0  0  0  0
   18.7823   20.4289   25.5202 H   0  0  0  0  0  0  0  0  0  0  0  0
   20.3685   19.0659   26.0644 C   0  0  0  0  0  0  0  0  0  0  0  0
   21.1665   19.6746   25.6317 H   0  0  0  0  0  0  0  0  0  0  0  0
   20.2829   19.3220   27.1239 H   0  0  0  0  0  0  0  0  0  0  0  0
   20.7849   17.6112   25.9735 N   0  3  0  0  0  0  0  0  0  0  0  0
   21.6707   17.4373   26.4607 H   0  0  0  0  0  0  0  0  0  0  0  0
   20.9123   17.3154   25.0008 H   0  0  0  0  0  0  0  0  0  0  0  0
   20.0858   16.9888   26.3915 H   0  0  0  0  0  0  0  0  0  0  0  0
  1  2  1  0  0  0  0
  1  3  1  0  0  0  0
  1  4  1  0  0  0  0
  1  5  1  0  0  0  0
  5  6  1  0  0  0  0
  5  7  1  0  0  0  0
  5  8  1  0  0  0  0
  8  9  1  0  0  0  0
  8 10  1  0  0  0  0
  8 11  1  0  0  0  0
 11 12  1  0  0  0  0
 11 13  1  0  0  0  0
 11 14  1  0  0  0  0
 14 15  1  0  0  0  0
 14 16  1  0  0  0  0
 14 17  1  0  0  0  0
 17 18  1  0  0  0  0
 17 19  1  0  0  0  0
 17 20  1  0  0  0  0
 20 21  1  0  0  0  0
 20 22  1  0  0  0  0
 20 23  1  0  0  0  0
 23 24  1  0  0  0  0
 23 25  1  0  0  0  0
 23 26  1  0  0  0  0
M  END
> <VM2 Rank>
68

> <Conf_Id>
828

> <Probability>
0.43

> <Sum Probability>
91.61

> <Delta G>
1.697

> <G>
49.959

> <E>
17.208

> <-TS>
32.751

> <U+W>
-4.254

> <U>
49.691

> <W>
-53.945

> <W(PB)>
-56.226

> <W(SA)>
2.281

> <Valence>
3.067

> <Coulomb>
45.912

> <VdW>
0.712

> <VdW6>
-7.810

> <VdW12>
8.522

> <Bond>
0.215

> <Angle>
0.854

> <Pdih>
1.998

> <Idih>
0.000

> <Tether>
0.000

$$$$
VeraChem MOL file


 26 25  0  0  0  0  0  0  0  0999 V2000     
   18.8833   18.4736   19.9565 C   0  0  0  0  0  0  0  0  0  0  0  0
   18.7277   19.4060   19.3982 H   0  0  0  0  0  0  0  0  0  0  0  0
   19.0650   17.6719   19.2290 H   0  0  0  0  0  0  0  0  0  0  0  0
   17.9553   18.2377   20.4935 H   0  0  0  0  0  0  0  0  0  0  0  0
   20.0713   18.6028   20.9331 C   0  0  0  0  0  0  0  0  0  0  0  0
   20.9895   18.8088   20.3654 H   0  0  0  0  0  0  0  0  0  0  0  0
   20.2206   17.6414   21.4422 H   0  0  0  0  0  0  0  0  0  0  0  0
   19.8368   19.7253   21.9711 C   0  0  0  0  0  0  0  0  0  0  0  0
   19.6242   20.6632   21.4396 H   0  0  0  0  0  0  0  0  0  0  0  0
   18.9380   19.5036   22.5615 H   0  0  0  0  0  0  0  0  0  0  0  0
   21.0461   19.9612   22.9123 C   0  0  0  0  0  0  0  0  0  0  0  0
   20.8182   20.8058   23.5763 H   0  0  0  0  0  0  0  0  0  0  0  0
   21.9068   20.2838   22.3103 H   0  0  0  0  0  0  0  0  0  0  0  0
   21.4700   18.7360   23.7667 C   0  0  0  0  0  0  0  0  0  0  0  0
   21.8662   17.9493   23.1110 H   0  0  0  0  0  0  0  0  0  0  0  0
   22.3088   19.0328   24.4115 H   0  0  0  0  0  0  0  0  0  0  0  0
   20.3465   18.1405   24.6510 C   0  0  0  0  0  0  0  0  0  0  0  0
   20.7553   17.2974   25.2235 H   0  0  0  0  0  0  0  0  0  0  0  0
   19.5506   17.7265   24.0188 H   0  0  0  0  0  0  0  0  0  0  0  0
   19.7507   19.1711   25.6277 C   0  0  0  0  0  0  0  0  0  0  0  0
   20.5419   19.5725   26.2667 H   0  0  0  0  0  0  0  0  0  0  0  0
   19.3084   19.9983   25.0664 H   0  0  0  0  0  0  0  0  0  0  0  0
   18.6762   18.5884   26.5227 N   0  3  0  0  0  0  0  0  0  0  0  0
   19.0351   17.8211   27.1002 H   0  0  0  0  0  0  0  0  0  0  0  0
   17.8885   18.2166   25.9820 H   0  0  0  0  0  0  0  0  0  0  0  0
   18.2930   19.2908   27.1647 H   0  0  0  0  0  0  0  0  0  0  0  0
  1  2  1  0  0  0  0
  1  3  1  0  0  0  0
  1  4  1  0  0  0  0
  1  5  1  0  0  0  0
  5  6  1  0  0  0  0
  5  7  1  0  0  0  0
  5  8  1  0  0  0  0
  8  9  1  0  0  0  0
  8 10  1  0  0  0  0
  8 11  1  0  0  0  0
 11 12  1  0  0  0  0
 11 13  1  0  0  0  0
 11 14  1  0  0  0  0
 14 15  1  0  0  0  0
 14 16  1  0  0  0  0
 14 17  1  0  0  0  0
 17 18  1  0  0  0  0
 17 19  1  0  0  0  0
 17 20  1  0  0  0  0
 20 21  1  0  0  0  0
 20 22  1  0  0  0  0
 20 23  1  0  0  0  0
 23 24  1  0  0  0  0
 23 25  1  0  0  0  0
 23 26  1  0  0  0  0
M  END
> <VM2 Rank>
69

> <Conf_Id>
1339

> <Probability>
0.43

> <Sum Probability>
92.04

> <Delta G>
1.702

> <G>
49.963

> <E>
16.926

> <-TS>
33.038

> <U+W>
-4.536

> <U>
49.453

> <W>
-53.989

> <W(PB)>
-56.276

> <W(SA)>
2.286

> <Valence>
3.376

> <Coulomb>
45.559

> <VdW>
0.518

> <VdW6>
-8.348

> <VdW12>
8.866

> <Bond>
0.240

> <Angle>
1.236

> <Pdih>
1.900

> <Idih>
0.000

> <Tether>
0.000

$$$$
VeraChem MOL file


 26 25  0  0  0  0  0  0  0  0999 V2000     
   19.2521   20.2704   20.6298 C   0  0  0  0  0  0  0  0  0  0  0  0
   20.0585   20.9462   20.3167 H   0  0  0  0  0  0  0  0  0  0  0  0
   18.3780   20.4747   19.9981 H   0  0  0  0  0  0  0  0  0  0  0  0
   18.9776   20.5172   21.6630 H   0  0  0  0  0  0  0  0  0  0  0  0
   19.6830   18.7923   20.4963 C   0  0  0  0  0  0  0  0  0  0  0  0
   19.8311   18.5619   19.4320 H   0  0  0  0  0  0  0  0  0  0  0  0
   18.8691   18.1371   20.8345 H   0  0  0  0  0  0  0  0  0  0  0  0
   20.9907   18.4598   21.2592 C   0  0  0  0  0  0  0  0  0  0  0  0
   21.2415   17.4039   21.0882 H   0  0  0  0  0  0  0  0  0  0  0  0
   21.8147   19.0391   20.8204 H   0  0  0  0  0  0  0  0  0  0  0  0
   20.9521   18.7282   22.7858 C   0  0  0  0  0  0  0  0  0  0  0  0
   20.8179   19.8023   22.9670 H   0  0  0  0  0  0  0  0  0  0  0  0
   21.9338   18.4705   23.2065 H   0  0  0  0  0  0  0  0  0  0  0  0
   19.8577   17.9189   23.5263 C   0  0  0  0  0  0  0  0  0  0  0  0
   18.8618   18.2331   23.1868 H   0  0  0  0  0  0  0  0  0  0  0  0
   19.9561   16.8560   23.2663 H   0  0  0  0  0  0  0  0  0  0  0  0
   19.9356   18.0646   25.0640 C   0  0  0  0  0  0  0  0  0  0  0  0
   20.9172   17.7228   25.4184 H   0  0  0  0  0  0  0  0  0  0  0  0
   19.1880   17.4041   25.5232 H   0  0  0  0  0  0  0  0  0  0  0  0
   19.6887   19.5098   25.5359 C   0  0  0  0  0  0  0  0  0  0  0  0
   20.4527   20.1709   25.1189 H   0  0  0  0  0  0  0  0  0  0  0  0
   18.7104   19.8492   25.1850 H   0  0  0  0  0  0  0  0  0  0  0  0
   19.7212   19.6549   27.0436 N   0  3  0  0  0  0  0  0  0  0  0  0
   19.5547   20.6237   27.3370 H   0  0  0  0  0  0  0  0  0  0  0  0
   20.6269   19.3759   27.4348 H   0  0  0  0  0  0  0  0  0  0  0  0
   19.0056   19.0783   27.4984 H   0  0  0  0  0  0  0  0  0  0  0  0
  1  2  1  0  0  0  0
  1  3  1  0  0  0  0
  1  4  1  0  0  0  0
  1  5  1  0  0  0  0
  5  6  1  0  0  0  0
  5  7  1  0  0  0  0
  5  8  1  0  0  0  0
  8  9  1  0  0  0  0
  8 10  1  0  0  0  0
  8 11  1  0  0  0  0
 11 12  1  0  0  0  0
 11 13  1  0  0  0  0
 11 14  1  0  0  0  0
 14 15  1  0  0  0  0
 14 16  1  0  0  0  0
 14 17  1  0  0  0  0
 17 18  1  0  0  0  0
 17 19  1  0  0  0  0
 17 20  1  0  0  0  0
 20 21  1  0  0  0  0
 20 22  1  0  0  0  0
 20 23  1  0  0  0  0
 23 24  1  0  0  0  0
 23 25  1  0  0  0  0
 23 26  1  0  0  0  0
M  END
> <VM2 Rank>
70

> <Conf_Id>
1326

> <Probability>
0.42

> <Sum Probability>
92.46

> <Delta G>
1.716

> <G>
49.977

> <E>
17.088

> <-TS>
32.889

> <U+W>
-4.374

> <U>
49.255

> <W>
-53.629

> <W(PB)>
-55.893

> <W(SA)>
2.264

> <Valence>
3.394

> <Coulomb>
45.181

> <VdW>
0.680

> <VdW6>
-8.024

> <VdW12>
8.704

> <Bond>
0.231

> <Angle>
1.123

> <Pdih>
2.041

> <Idih>
0.000

> <Tether>
0.000

$$$$
VeraChem MOL file


 26 25  0  0  0  0  0  0  0  0999 V2000     
   20.6611   18.4707   19.4958 C   0  0  0  0  0  0  0  0  0  0  0  0
   21.5285   17.8791   19.1757 H   0  0  0  0  0  0  0  0  0  0  0  0
   19.7686   18.0446   19.0192 H   0  0  0  0  0  0  0  0  0  0  0  0
   20.7937   19.4938   19.1203 H   0  0  0  0  0  0  0  0  0  0  0  0
   20.5296   18.4573   21.0335 C   0  0  0  0  0  0  0  0  0  0  0  0
   21.4552   18.8520   21.4732 H   0  0  0  0  0  0  0  0  0  0  0  0
   20.4280   17.4197   21.3810 H   0  0  0  0  0  0  0  0  0  0  0  0
   19.3149   19.2890   21.5089 C   0  0  0  0  0  0  0  0  0  0  0  0
   19.4414   20.3371   21.2045 H   0  0  0  0  0  0  0  0  0  0  0  0
   18.4124   18.9267   20.9976 H   0  0  0  0  0  0  0  0  0  0  0  0
   19.0753   19.2170   23.0369 C   0  0  0  0  0  0  0  0  0  0  0  0
   18.9291   18.1689   23.3303 H   0  0  0  0  0  0  0  0  0  0  0  0
   18.1344   19.7363   23.2659 H   0  0  0  0  0  0  0  0  0  0  0  0
   20.2167   19.8519   23.8708 C   0  0  0  0  0  0  0  0  0  0  0  0
   21.1480   19.2892   23.7296 H   0  0  0  0  0  0  0  0  0  0  0  0
   20.4125   20.8673   23.4994 H   0  0  0  0  0  0  0  0  0  0  0  0
   19.8882   19.9347   25.3825 C   0  0  0  0  0  0  0  0  0  0  0  0
   19.0114   20.5796   25.5278 H   0  0  0  0  0  0  0  0  0  0  0  0
   20.7185   20.4244   25.9085 H   0  0  0  0  0  0  0  0  0  0  0  0
   19.6103   18.5672   26.0391 C   0  0  0  0  0  0  0  0  0  0  0  0
   19.3599   18.7149   27.0931 H   0  0  0  0  0  0  0  0  0  0  0  0
   18.7567   18.0895   25.5514 H   0  0  0  0  0  0  0  0  0  0  0  0
   20.7848   17.6111   25.9735 N   0  3  0  0  0  0  0  0  0  0  0  0
   20.5719   16.7145   26.4241 H   0  0  0  0  0  0  0  0  0  0  0  0
   21.6126   17.9930   26.4423 H   0  0  0  0  0  0  0  0  0  0  0  0
   21.0510   17.4067   25.0054 H   0  0  0  0  0  0  0  0  0  0  0  0
  1  2  1  0  0  0  0
  1  3  1  0  0  0  0
  1  4  1  0  0  0  0
  1  5  1  0  0  0  0
  5  6  1  0  0  0  0
  5  7  1  0  0  0  0
  5  8  1  0  0  0  0
  8  9  1  0  0  0  0
  8 10  1  0  0  0  0
  8 11  1  0  0  0  0
 11 12  1  0  0  0  0
 11 13  1  0  0  0  0
 11 14  1  0  0  0  0
 14 15  1  0  0  0  0
 14 16  1  0  0  0  0
 14 17  1  0  0  0  0
 17 18  1  0  0  0  0
 17 19  1  0  0  0  0
 17 20  1  0  0  0  0
 20 21  1  0  0  0  0
 20 22  1  0  0  0  0
 20 23  1  0  0  0  0
 23 24  1  0  0  0  0
 23 25  1  0  0  0  0
 23 26  1  0  0  0  0
M  END
> <VM2 Rank>
71

> <Conf_Id>
551

> <Probability>
0.42

> <Sum Probability>
92.88

> <Delta G>
1.717

> <G>
49.979

> <E>
17.227

> <-TS>
32.751

> <U+W>
-4.234

> <U>
49.691

> <W>
-53.926

> <W(PB)>
-56.219

> <W(SA)>
2.294

> <Valence>
3.067

> <Coulomb>
45.912

> <VdW>
0.712

> <VdW6>
-7.810

> <VdW12>
8.522

> <Bond>
0.215

> <Angle>
0.855

> <Pdih>
1.997

> <Idih>
0.000

> <Tether>
0.000

$$$$
VeraChem MOL file


 26 25  0  0  0  0  0  0  0  0999 V2000     
   21.0217   19.8855   20.0284 C   0  0  0  0  0  0  0  0  0  0  0  0
   21.5773   20.6286   20.6153 H   0  0  0  0  0  0  0  0  0  0  0  0
   21.7210   19.4255   19.3182 H   0  0  0  0  0  0  0  0  0  0  0  0
   20.2521   20.4126   19.4496 H   0  0  0  0  0  0  0  0  0  0  0  0
   20.3918   18.8145   20.9439 C   0  0  0  0  0  0  0  0  0  0  0  0
   21.1929   18.2832   21.4748 H   0  0  0  0  0  0  0  0  0  0  0  0
   19.8692   18.0695   20.3278 H   0  0  0  0  0  0  0  0  0  0  0  0
   19.4039   19.4396   21.9567 C   0  0  0  0  0  0  0  0  0  0  0  0
   19.9323   20.1600   22.5949 H   0  0  0  0  0  0  0  0  0  0  0  0
   18.6501   20.0201   21.4072 H   0  0  0  0  0  0  0  0  0  0  0  0
   18.6696   18.3921   22.8328 C   0  0  0  0  0  0  0  0  0  0  0  0
   18.0639   17.7467   22.1818 H   0  0  0  0  0  0  0  0  0  0  0  0
   17.9518   18.9133   23.4804 H   0  0  0  0  0  0  0  0  0  0  0  0
   19.5895   17.4944   23.7039 C   0  0  0  0  0  0  0  0  0  0  0  0
   18.9582   16.8207   24.2996 H   0  0  0  0  0  0  0  0  0  0  0  0
   20.1877   16.8410   23.0549 H   0  0  0  0  0  0  0  0  0  0  0  0
   20.5358   18.2653   24.6572 C   0  0  0  0  0  0  0  0  0  0  0  0
   21.2576   18.8531   24.0757 H   0  0  0  0  0  0  0  0  0  0  0  0
   21.1236   17.5405   25.2358 H   0  0  0  0  0  0  0  0  0  0  0  0
   19.7769   19.1884   25.6284 C   0  0  0  0  0  0  0  0  0  0  0  0
   19.2163   19.9374   25.0630 H   0  0  0  0  0  0  0  0  0  0  0  0
   19.0684   18.5998   26.2174 H   0  0  0  0  0  0  0  0  0  0  0  0
   20.6917   19.9192   26.5897 N   0  3  0  0  0  0  0  0  0  0  0  0
   20.1666   20.5280   27.2269 H   0  0  0  0  0  0  0  0  0  0  0  0
   21.3671   20.5133   26.0978 H   0  0  0  0  0  0  0  0  0  0  0  0
   21.2294   19.2700   27.1732 H   0  0  0  0  0  0  0  0  0  0  0  0
  1  2  1  0  0  0  0
  1  3  1  0  0  0  0
  1  4  1  0  0  0  0
  1  5  1  0  0  0  0
  5  6  1  0  0  0  0
  5  7  1  0  0  0  0
  5  8  1  0  0  0  0
  8  9  1  0  0  0  0
  8 10  1  0  0  0  0
  8 11  1  0  0  0  0
 11 12  1  0  0  0  0
 11 13  1  0  0  0  0
 11 14  1  0  0  0  0
 14 15  1  0  0  0  0
 14 16  1  0  0  0  0
 14 17  1  0  0  0  0
 17 18  1  0  0  0  0
 17 19  1  0  0  0  0
 17 20  1  0  0  0  0
 20 21  1  0  0  0  0
 20 22  1  0  0  0  0
 20 23  1  0  0  0  0
 23 24  1  0  0  0  0
 23 25  1  0  0  0  0
 23 26  1  0  0  0  0
M  END
> <VM2 Rank>
72

> <Conf_Id>
716

> <Probability>
0.40

> <Sum Probability>
93.28

> <Delta G>
1.738

> <G>
49.999

> <E>
16.962

> <-TS>
33.038

> <U+W>
-4.500

> <U>
49.454

> <W>
-53.954

> <W(PB)>
-56.228

> <W(SA)>
2.274

> <Valence>
3.376

> <Coulomb>
45.559

> <VdW>
0.518

> <VdW6>
-8.349

> <VdW12>
8.867

> <Bond>
0.240

> <Angle>
1.236

> <Pdih>
1.900

> <Idih>
0.000

> <Tether>
0.000

$$$$
VeraChem MOL file


 26 25  0  0  0  0  0  0  0  0999 V2000     
   19.1944   20.2324   20.6282 C   0  0  0  0  0  0  0  0  0  0  0  0
   19.0272   20.5499   21.6650 H   0  0  0  0  0  0  0  0  0  0  0  0
   19.3784   21.1354   20.0318 H   0  0  0  0  0  0  0  0  0  0  0  0
   18.2722   19.7667   20.2574 H   0  0  0  0  0  0  0  0  0  0  0  0
   20.3902   19.2594   20.5200 C   0  0  0  0  0  0  0  0  0  0  0  0
   21.2953   19.7392   20.9158 H   0  0  0  0  0  0  0  0  0  0  0  0
   20.5934   19.0655   19.4576 H   0  0  0  0  0  0  0  0  0  0  0  0
   20.1481   17.9035   21.2310 C   0  0  0  0  0  0  0  0  0  0  0  0
   19.3135   17.3875   20.7366 H   0  0  0  0  0  0  0  0  0  0  0  0
   21.0282   17.2630   21.0809 H   0  0  0  0  0  0  0  0  0  0  0  0
   19.8455   17.9974   22.7487 C   0  0  0  0  0  0  0  0  0  0  0  0
   19.6783   16.9810   23.1310 H   0  0  0  0  0  0  0  0  0  0  0  0
   18.9026   18.5374   22.9029 H   0  0  0  0  0  0  0  0  0  0  0  0
   20.9833   18.6620   23.5639 C   0  0  0  0  0  0  0  0  0  0  0  0
   21.9337   18.1616   23.3325 H   0  0  0  0  0  0  0  0  0  0  0  0
   21.1006   19.7112   23.2616 H   0  0  0  0  0  0  0  0  0  0  0  0
   20.7473   18.6005   25.0912 C   0  0  0  0  0  0  0  0  0  0  0  0
   21.6257   19.0135   25.6047 H   0  0  0  0  0  0  0  0  0  0  0  0
   20.6603   17.5532   25.4098 H   0  0  0  0  0  0  0  0  0  0  0  0
   19.4941   19.3814   25.5293 C   0  0  0  0  0  0  0  0  0  0  0  0
   19.5819   20.4246   25.2140 H   0  0  0  0  0  0  0  0  0  0  0  0
   18.6068   18.9522   25.0571 H   0  0  0  0  0  0  0  0  0  0  0  0
   19.2779   19.3624   27.0287 N   0  3  0  0  0  0  0  0  0  0  0  0
   18.4392   19.8874   27.2995 H   0  0  0  0  0  0  0  0  0  0  0  0
   20.0668   19.7791   27.5338 H   0  0  0  0  0  0  0  0  0  0  0  0
   19.1612   18.4084   27.3858 H   0  0  0  0  0  0  0  0  0  0  0  0
  1  2  1  0  0  0  0
  1  3  1  0  0  0  0
  1  4  1  0  0  0  0
  1  5  1  0  0  0  0
  5  6  1  0  0  0  0
  5  7  1  0  0  0  0
  5  8  1  0  0  0  0
  8  9  1  0  0  0  0
  8 10  1  0  0  0  0
  8 11  1  0  0  0  0
 11 12  1  0  0  0  0
 11 13  1  0  0  0  0
 11 14  1  0  0  0  0
 14 15  1  0  0  0  0
 14 16  1  0  0  0  0
 14 17  1  0  0  0  0
 17 18  1  0  0  0  0
 17 19  1  0  0  0  0
 17 20  1  0  0  0  0
 20 21  1  0  0  0  0
 20 22  1  0  0  0  0
 20 23  1  0  0  0  0
 23 24  1  0  0  0  0
 23 25  1  0  0  0  0
 23 26  1  0  0  0  0
M  END
> <VM2 Rank>
73

> <Conf_Id>
826

> <Probability>
0.39

> <Sum Probability>
93.67

> <Delta G>
1.753

> <G>
50.015

> <E>
17.126

> <-TS>
32.889

> <U+W>
-4.336

> <U>
49.255

> <W>
-53.591

> <W(PB)>
-55.889

> <W(SA)>
2.298

> <Valence>
3.394

> <Coulomb>
45.181

> <VdW>
0.680

> <VdW6>
-8.024

> <VdW12>
8.705

> <Bond>
0.231

> <Angle>
1.122

> <Pdih>
2.041

> <Idih>
0.000

> <Tether>
0.000

$$$$
VeraChem MOL file


 26 25  0  0  0  0  0  0  0  0999 V2000     
   20.9282   18.3413   20.0345 C   0  0  0  0  0  0  0  0  0  0  0  0
   21.6337   19.1292   19.7409 H   0  0  0  0  0  0  0  0  0  0  0  0
   21.3559   17.7952   20.8845 H   0  0  0  0  0  0  0  0  0  0  0  0
   20.8442   17.6362   19.1974 H   0  0  0  0  0  0  0  0  0  0  0  0
   19.5449   18.9360   20.3823 C   0  0  0  0  0  0  0  0  0  0  0  0
   18.8631   18.1328   20.6923 H   0  0  0  0  0  0  0  0  0  0  0  0
   19.1059   19.3660   19.4712 H   0  0  0  0  0  0  0  0  0  0  0  0
   19.6033   20.0399   21.4690 C   0  0  0  0  0  0  0  0  0  0  0  0
   20.1846   20.8875   21.0806 H   0  0  0  0  0  0  0  0  0  0  0  0
   18.5881   20.4246   21.6375 H   0  0  0  0  0  0  0  0  0  0  0  0
   20.2095   19.6050   22.8286 C   0  0  0  0  0  0  0  0  0  0  0  0
   20.2202   20.4821   23.4888 H   0  0  0  0  0  0  0  0  0  0  0  0
   21.2602   19.3159   22.6941 H   0  0  0  0  0  0  0  0  0  0  0  0
   19.4319   18.4521   23.5127 C   0  0  0  0  0  0  0  0  0  0  0  0
   18.3769   18.7353   23.6320 H   0  0  0  0  0  0  0  0  0  0  0  0
   19.4459   17.5650   22.8663 H   0  0  0  0  0  0  0  0  0  0  0  0
   20.0192   18.0566   24.8880 C   0  0  0  0  0  0  0  0  0  0  0  0
   21.0712   17.7645   24.7698 H   0  0  0  0  0  0  0  0  0  0  0  0
   19.4871   17.1711   25.2603 H   0  0  0  0  0  0  0  0  0  0  0  0
   19.9078   19.1839   25.9317 C   0  0  0  0  0  0  0  0  0  0  0  0
   20.4731   20.0571   25.5965 H   0  0  0  0  0  0  0  0  0  0  0  0
   18.8604   19.4751   26.0481 H   0  0  0  0  0  0  0  0  0  0  0  0
   20.4363   18.7842   27.2942 N   0  3  0  0  0  0  0  0  0  0  0  0
   19.9271   17.9830   27.6815 H   0  0  0  0  0  0  0  0  0  0  0  0
   20.3529   19.5478   27.9742 H   0  0  0  0  0  0  0  0  0  0  0  0
   21.4271   18.5233   27.2582 H   0  0  0  0  0  0  0  0  0  0  0  0
  1  2  1  0  0  0  0
  1  3  1  0  0  0  0
  1  4  1  0  0  0  0
  1  5  1  0  0  0  0
  5  6  1  0  0  0  0
  5  7  1  0  0  0  0
  5  8  1  0  0  0  0
  8  9  1  0  0  0  0
  8 10  1  0  0  0  0
  8 11  1  0  0  0  0
 11 12  1  0  0  0  0
 11 13  1  0  0  0  0
 11 14  1  0  0  0  0
 14 15  1  0  0  0  0
 14 16  1  0  0  0  0
 14 17  1  0  0  0  0
 17 18  1  0  0  0  0
 17 19  1  0  0  0  0
 17 20  1  0  0  0  0
 20 21  1  0  0  0  0
 20 22  1  0  0  0  0
 20 23  1  0  0  0  0
 23 24  1  0  0  0  0
 23 25  1  0  0  0  0
 23 26  1  0  0  0  0
M  END
> <VM2 Rank>
74

> <Conf_Id>
117

> <Probability>
0.38

> <Sum Probability>
94.05

> <Delta G>
1.779

> <G>
50.040

> <E>
17.174

> <-TS>
32.867

> <U+W>
-4.288

> <U>
49.209

> <W>
-53.498

> <W(PB)>
-55.784

> <W(SA)>
2.286

> <Valence>
3.465

> <Coulomb>
44.958

> <VdW>
0.786

> <VdW6>
-7.903

> <VdW12>
8.690

> <Bond>
0.237

> <Angle>
1.213

> <Pdih>
2.015

> <Idih>
0.000

> <Tether>
0.000

$$$$
VeraChem MOL file


 26 25  0  0  0  0  0  0  0  0999 V2000     
   20.3370   17.9517   20.0145 C   0  0  0  0  0  0  0  0  0  0  0  0
   20.6309   17.3172   20.8599 H   0  0  0  0  0  0  0  0  0  0  0  0
   19.3497   17.6236   19.6642 H   0  0  0  0  0  0  0  0  0  0  0  0
   21.0565   17.7765   19.2042 H   0  0  0  0  0  0  0  0  0  0  0  0
   20.3182   19.4459   20.4082 C   0  0  0  0  0  0  0  0  0  0  0  0
   20.1381   20.0468   19.5059 H   0  0  0  0  0  0  0  0  0  0  0  0
   21.3092   19.7456   20.7741 H   0  0  0  0  0  0  0  0  0  0  0  0
   19.2307   19.7942   21.4566 C   0  0  0  0  0  0  0  0  0  0  0  0
   19.2685   20.8732   21.6604 H   0  0  0  0  0  0  0  0  0  0  0  0
   18.2420   19.6066   21.0158 H   0  0  0  0  0  0  0  0  0  0  0  0
   19.3288   19.0241   22.7991 C   0  0  0  0  0  0  0  0  0  0  0  0
   19.1878   17.9493   22.6248 H   0  0  0  0  0  0  0  0  0  0  0  0
   18.4883   19.3399   23.4309 H   0  0  0  0  0  0  0  0  0  0  0  0
   20.6613   19.2626   23.5538 C   0  0  0  0  0  0  0  0  0  0  0  0
   21.5006   18.9195   22.9350 H   0  0  0  0  0  0  0  0  0  0  0  0
   20.8101   20.3395   23.7133 H   0  0  0  0  0  0  0  0  0  0  0  0
   20.7297   18.5250   24.9118 C   0  0  0  0  0  0  0  0  0  0  0  0
   21.7348   18.6530   25.3354 H   0  0  0  0  0  0  0  0  0  0  0  0
   20.5901   17.4473   24.7539 H   0  0  0  0  0  0  0  0  0  0  0  0
   19.6896   19.0401   25.9245 C   0  0  0  0  0  0  0  0  0  0  0  0
   19.8282   20.1133   26.0804 H   0  0  0  0  0  0  0  0  0  0  0  0
   18.6812   18.8756   25.5366 H   0  0  0  0  0  0  0  0  0  0  0  0
   19.7856   18.3554   27.2726 N   0  3  0  0  0  0  0  0  0  0  0  0
   20.7035   18.4952   27.7076 H   0  0  0  0  0  0  0  0  0  0  0  0
   19.6377   17.3436   27.1987 H   0  0  0  0  0  0  0  0  0  0  0  0
   19.0854   18.7123   27.9319 H   0  0  0  0  0  0  0  0  0  0  0  0
  1  2  1  0  0  0  0
  1  3  1  0  0  0  0
  1  4  1  0  0  0  0
  1  5  1  0  0  0  0
  5  6  1  0  0  0  0
  5  7  1  0  0  0  0
  5  8  1  0  0  0  0
  8  9  1  0  0  0  0
  8 10  1  0  0  0  0
  8 11  1  0  0  0  0
 11 12  1  0  0  0  0
 11 13  1  0  0  0  0
 11 14  1  0  0  0  0
 14 15  1  0  0  0  0
 14 16  1  0  0  0  0
 14 17  1  0  0  0  0
 17 18  1  0  0  0  0
 17 19  1  0  0  0  0
 17 20  1  0  0  0  0
 20 21  1  0  0  0  0
 20 22  1  0  0  0  0
 20 23  1  0  0  0  0
 23 24  1  0  0  0  0
 23 25  1  0  0  0  0
 23 26  1  0  0  0  0
M  END
> <VM2 Rank>
75

> <Conf_Id>
191

> <Probability>
0.36

> <Sum Probability>
94.41

> <Delta G>
1.805

> <G>
50.066

> <E>
17.200

> <-TS>
32.866

> <U+W>
-4.262

> <U>
49.209

> <W>
-53.471

> <W(PB)>
-55.745

> <W(SA)>
2.274

> <Valence>
3.465

> <Coulomb>
44.958

> <VdW>
0.786

> <VdW6>
-7.903

> <VdW12>
8.689

> <Bond>
0.237

> <Angle>
1.212

> <Pdih>
2.015

> <Idih>
0.000

> <Tether>
0.000

$$$$
VeraChem MOL file


 26 25  0  0  0  0  0  0  0  0999 V2000     
   20.3770   19.1768   19.5971 C   0  0  0  0  0  0  0  0  0  0  0  0
   19.3367   19.0278   19.2799 H   0  0  0  0  0  0  0  0  0  0  0  0
   20.5090   20.2336   19.8597 H   0  0  0  0  0  0  0  0  0  0  0  0
   21.0236   18.9690   18.7347 H   0  0  0  0  0  0  0  0  0  0  0  0
   20.7367   18.2471   20.7783 C   0  0  0  0  0  0  0  0  0  0  0  0
   21.7699   18.4395   21.0997 H   0  0  0  0  0  0  0  0  0  0  0  0
   20.7134   17.2061   20.4268 H   0  0  0  0  0  0  0  0  0  0  0  0
   19.7783   18.3829   21.9863 C   0  0  0  0  0  0  0  0  0  0  0  0
   18.7474   18.1869   21.6609 H   0  0  0  0  0  0  0  0  0  0  0  0
   20.0311   17.5959   22.7084 H   0  0  0  0  0  0  0  0  0  0  0  0
   19.8539   19.7662   22.6812 C   0  0  0  0  0  0  0  0  0  0  0  0
   19.6084   20.5527   21.9561 H   0  0  0  0  0  0  0  0  0  0  0  0
   20.8850   19.9629   23.0039 H   0  0  0  0  0  0  0  0  0  0  0  0
   18.8847   19.9105   23.8835 C   0  0  0  0  0  0  0  0  0  0  0  0
   18.9656   20.9328   24.2783 H   0  0  0  0  0  0  0  0  0  0  0  0
   17.8507   19.8061   23.5268 H   0  0  0  0  0  0  0  0  0  0  0  0
   19.1209   18.9089   25.0415 C   0  0  0  0  0  0  0  0  0  0  0  0
   18.9019   17.8870   24.7067 H   0  0  0  0  0  0  0  0  0  0  0  0
   18.4076   19.1264   25.8475 H   0  0  0  0  0  0  0  0  0  0  0  0
   20.5525   18.9757   25.6052 C   0  0  0  0  0  0  0  0  0  0  0  0
   21.2698   18.7194   24.8211 H   0  0  0  0  0  0  0  0  0  0  0  0
   20.7655   19.9915   25.9489 H   0  0  0  0  0  0  0  0  0  0  0  0
   20.7770   18.0309   26.7680 N   0  3  0  0  0  0  0  0  0  0  0  0
   21.7358   18.0910   27.1279 H   0  0  0  0  0  0  0  0  0  0  0  0
   20.6184   17.0534   26.5025 H   0  0  0  0  0  0  0  0  0  0  0  0
   20.1504   18.2360   27.5531 H   0  0  0  0  0  0  0  0  0  0  0  0
  1  2  1  0  0  0  0
  1  3  1  0  0  0  0
  1  4  1  0  0  0  0
  1  5  1  0  0  0  0
  5  6  1  0  0  0  0
  5  7  1  0  0  0  0
  5  8  1  0  0  0  0
  8  9  1  0  0  0  0
  8 10  1  0  0  0  0
  8 11  1  0  0  0  0
 11 12  1  0  0  0  0
 11 13  1  0  0  0  0
 11 14  1  0  0  0  0
 14 15  1  0  0  0  0
 14 16  1  0  0  0  0
 14 17  1  0  0  0  0
 17 18  1  0  0  0  0
 17 19  1  0  0  0  0
 17 20  1  0  0  0  0
 20 21  1  0  0  0  0
 20 22  1  0  0  0  0
 20 23  1  0  0  0  0
 23 24  1  0  0  0  0
 23 25  1  0  0  0  0
 23 26  1  0  0  0  0
M  END
> <VM2 Rank>
76

> <Conf_Id>
764

> <Probability>
0.34

> <Sum Probability>
94.75

> <Delta G>
1.843

> <G>
50.105

> <E>
17.344

> <-TS>
32.761

> <U+W>
-4.118

> <U>
49.638

> <W>
-53.757

> <W(PB)>
-56.037

> <W(SA)>
2.280

> <Valence>
3.490

> <Coulomb>
45.361

> <VdW>
0.787

> <VdW6>
-7.914

> <VdW12>
8.701

> <Bond>
0.240

> <Angle>
1.203

> <Pdih>
2.047

> <Idih>
0.000

> <Tether>
0.000

$$$$
VeraChem MOL file


 26 25  0  0  0  0  0  0  0  0999 V2000     
   19.8067   18.8012   19.5779 C   0  0  0  0  0  0  0  0  0  0  0  0
   20.3680   19.7071   19.3145 H   0  0  0  0  0  0  0  0  0  0  0  0
   19.7832   18.1522   18.6930 H   0  0  0  0  0  0  0  0  0  0  0  0
   18.7723   19.0897   19.8014 H   0  0  0  0  0  0  0  0  0  0  0  0
   20.4633   18.0670   20.7691 C   0  0  0  0  0  0  0  0  0  0  0  0
   21.4446   17.6877   20.4512 H   0  0  0  0  0  0  0  0  0  0  0  0
   19.8648   17.1848   21.0358 H   0  0  0  0  0  0  0  0  0  0  0  0
   20.6596   18.9634   22.0158 C   0  0  0  0  0  0  0  0  0  0  0  0
   21.2489   18.3979   22.7491 H   0  0  0  0  0  0  0  0  0  0  0  0
   21.2606   19.8423   21.7451 H   0  0  0  0  0  0  0  0  0  0  0  0
   19.3275   19.4193   22.6636 C   0  0  0  0  0  0  0  0  0  0  0  0
   18.7261   18.5405   22.9318 H   0  0  0  0  0  0  0  0  0  0  0  0
   18.7358   19.9777   21.9269 H   0  0  0  0  0  0  0  0  0  0  0  0
   19.5205   20.3294   23.9047 C   0  0  0  0  0  0  0  0  0  0  0  0
   20.0399   21.2484   23.5998 H   0  0  0  0  0  0  0  0  0  0  0  0
   18.5318   20.6469   24.2638 H   0  0  0  0  0  0  0  0  0  0  0  0
   20.2934   19.6814   25.0806 C   0  0  0  0  0  0  0  0  0  0  0  0
   20.3370   20.3976   25.9118 H   0  0  0  0  0  0  0  0  0  0  0  0
   21.3333   19.4889   24.7878 H   0  0  0  0  0  0  0  0  0  0  0  0
   19.6425   18.3762   25.5749 C   0  0  0  0  0  0  0  0  0  0  0  0
   18.6100   18.5715   25.8771 H   0  0  0  0  0  0  0  0  0  0  0  0
   19.6318   17.6403   24.7666 H   0  0  0  0  0  0  0  0  0  0  0  0
   20.3675   17.7612   26.7544 N   0  3  0  0  0  0  0  0  0  0  0  0
   19.9183   16.8937   27.0675 H   0  0  0  0  0  0  0  0  0  0  0  0
   20.3894   18.3935   27.5611 H   0  0  0  0  0  0  0  0  0  0  0  0
   21.3397   17.5287   26.5266 H   0  0  0  0  0  0  0  0  0  0  0  0
  1  2  1  0  0  0  0
  1  3  1  0  0  0  0
  1  4  1  0  0  0  0
  1  5  1  0  0  0  0
  5  6  1  0  0  0  0
  5  7  1  0  0  0  0
  5  8  1  0  0  0  0
  8  9  1  0  0  0  0
  8 10  1  0  0  0  0
  8 11  1  0  0  0  0
 11 12  1  0  0  0  0
 11 13  1  0  0  0  0
 11 14  1  0  0  0  0
 14 15  1  0  0  0  0
 14 16  1  0  0  0  0
 14 17  1  0  0  0  0
 17 18  1  0  0  0  0
 17 19  1  0  0  0  0
 17 20  1  0  0  0  0
 20 21  1  0  0  0  0
 20 22  1  0  0  0  0
 20 23  1  0  0  0  0
 23 24  1  0  0  0  0
 23 25  1  0  0  0  0
 23 26  1  0  0  0  0
M  END
> <VM2 Rank>
77

> <Conf_Id>
1359

> <Probability>
0.34

> <Sum Probability>
95.08

> <Delta G>
1.843

> <G>
50.105

> <E>
17.344

> <-TS>
32.761

> <U+W>
-4.118

> <U>
49.638

> <W>
-53.756

> <W(PB)>
-56.050

> <W(SA)>
2.294

> <Valence>
3.491

> <Coulomb>
45.360

> <VdW>
0.787

> <VdW6>
-7.914

> <VdW12>
8.701

> <Bond>
0.240

> <Angle>
1.203

> <Pdih>
2.047

> <Idih>
0.000

> <Tether>
0.000

$$$$
VeraChem MOL file


 26 25  0  0  0  0  0  0  0  0999 V2000     
   19.0727   19.1979   20.0757 C   0  0  0  0  0  0  0  0  0  0  0  0
   19.7813   19.3692   19.2550 H   0  0  0  0  0  0  0  0  0  0  0  0
   18.1203   18.8755   19.6356 H   0  0  0  0  0  0  0  0  0  0  0  0
   18.8959   20.1547   20.5824 H   0  0  0  0  0  0  0  0  0  0  0  0
   19.6063   18.1285   21.0554 C   0  0  0  0  0  0  0  0  0  0  0  0
   19.6636   17.1649   20.5303 H   0  0  0  0  0  0  0  0  0  0  0  0
   18.8877   17.9833   21.8731 H   0  0  0  0  0  0  0  0  0  0  0  0
   21.0074   18.4637   21.6268 C   0  0  0  0  0  0  0  0  0  0  0  0
   21.3401   17.6346   22.2653 H   0  0  0  0  0  0  0  0  0  0  0  0
   21.7273   18.5027   20.7978 H   0  0  0  0  0  0  0  0  0  0  0  0
   21.0958   19.7948   22.4211 C   0  0  0  0  0  0  0  0  0  0  0  0
   20.9345   20.6373   21.7355 H   0  0  0  0  0  0  0  0  0  0  0  0
   22.1223   19.9125   22.7948 H   0  0  0  0  0  0  0  0  0  0  0  0
   20.1110   19.9218   23.6119 C   0  0  0  0  0  0  0  0  0  0  0  0
   20.2555   20.9066   24.0774 H   0  0  0  0  0  0  0  0  0  0  0  0
   19.0758   19.9102   23.2457 H   0  0  0  0  0  0  0  0  0  0  0  0
   20.2980   18.8262   24.6874 C   0  0  0  0  0  0  0  0  0  0  0  0
   21.3419   18.8172   25.0280 H   0  0  0  0  0  0  0  0  0  0  0  0
   20.0882   17.8379   24.2593 H   0  0  0  0  0  0  0  0  0  0  0  0
   19.3686   19.0589   25.8914 C   0  0  0  0  0  0  0  0  0  0  0  0
   19.5816   20.0340   26.3378 H   0  0  0  0  0  0  0  0  0  0  0  0
   18.3270   19.0528   25.5589 H   0  0  0  0  0  0  0  0  0  0  0  0
   19.5211   18.0071   26.9712 N   0  3  0  0  0  0  0  0  0  0  0  0
   18.8936   18.1814   27.7639 H   0  0  0  0  0  0  0  0  0  0  0  0
   20.4750   17.9802   27.3462 H   0  0  0  0  0  0  0  0  0  0  0  0
   19.3071   17.0672   26.6223 H   0  0  0  0  0  0  0  0  0  0  0  0
  1  2  1  0  0  0  0
  1  3  1  0  0  0  0
  1  4  1  0  0  0  0
  1  5  1  0  0  0  0
  5  6  1  0  0  0  0
  5  7  1  0  0  0  0
  5  8  1  0  0  0  0
  8  9  1  0  0  0  0
  8 10  1  0  0  0  0
  8 11  1  0  0  0  0
 11 12  1  0  0  0  0
 11 13  1  0  0  0  0
 11 14  1  0  0  0  0
 14 15  1  0  0  0  0
 14 16  1  0  0  0  0
 14 17  1  0  0  0  0
 17 18  1  0  0  0  0
 17 19  1  0  0  0  0
 17 20  1  0  0  0  0
 20 21  1  0  0  0  0
 20 22  1  0  0  0  0
 20 23  1  0  0  0  0
 23 24  1  0  0  0  0
 23 25  1  0  0  0  0
 23 26  1  0  0  0  0
M  END
> <VM2 Rank>
78

> <Conf_Id>
957

> <Probability>
0.32

> <Sum Probability>
95.40

> <Delta G>
1.879

> <G>
50.140

> <E>
17.022

> <-TS>
33.119

> <U+W>
-4.440

> <U>
49.278

> <W>
-53.718

> <W(PB)>
-55.975

> <W(SA)>
2.257

> <Valence>
3.566

> <Coulomb>
45.108

> <VdW>
0.604

> <VdW6>
-8.326

> <VdW12>
8.930

> <Bond>
0.252

> <Angle>
1.371

> <Pdih>
1.943

> <Idih>
0.000

> <Tether>
0.000

$$$$
VeraChem MOL file


 26 25  0  0  0  0  0  0  0  0999 V2000     
   20.2773   19.9921   20.1157 C   0  0  0  0  0  0  0  0  0  0  0  0
   19.4445   20.5164   20.6006 H   0  0  0  0  0  0  0  0  0  0  0  0
   20.9681   20.7531   19.7304 H   0  0  0  0  0  0  0  0  0  0  0  0
   19.8796   19.4339   19.2582 H   0  0  0  0  0  0  0  0  0  0  0  0
   21.0042   19.0503   21.1020 C   0  0  0  0  0  0  0  0  0  0  0  0
   21.3819   19.6280   21.9562 H   0  0  0  0  0  0  0  0  0  0  0  0
   21.8912   18.6337   20.6046 H   0  0  0  0  0  0  0  0  0  0  0  0
   20.1194   17.8782   21.5972 C   0  0  0  0  0  0  0  0  0  0  0  0
   19.8392   17.2578   20.7348 H   0  0  0  0  0  0  0  0  0  0  0  0
   20.7205   17.2262   22.2446 H   0  0  0  0  0  0  0  0  0  0  0  0
   18.8252   18.2977   22.3453 C   0  0  0  0  0  0  0  0  0  0  0  0
   18.2964   17.3900   22.6671 H   0  0  0  0  0  0  0  0  0  0  0  0
   18.1467   18.7992   21.6424 H   0  0  0  0  0  0  0  0  0  0  0  0
   19.0402   19.2157   23.5762 C   0  0  0  0  0  0  0  0  0  0  0  0
   19.4746   20.1731   23.2591 H   0  0  0  0  0  0  0  0  0  0  0  0
   18.0573   19.4573   24.0040 H   0  0  0  0  0  0  0  0  0  0  0  0
   19.9228   18.5788   24.6749 C   0  0  0  0  0  0  0  0  0  0  0  0
   20.9328   18.3947   24.2876 H   0  0  0  0  0  0  0  0  0  0  0  0
   19.5050   17.6061   24.9667 H   0  0  0  0  0  0  0  0  0  0  0  0
   20.0182   19.4872   25.9132 C   0  0  0  0  0  0  0  0  0  0  0  0
   20.4486   20.4515   25.6300 H   0  0  0  0  0  0  0  0  0  0  0  0
   19.0181   19.6627   26.3189 H   0  0  0  0  0  0  0  0  0  0  0  0
   20.8737   18.8990   27.0166 N   0  3  0  0  0  0  0  0  0  0  0  0
   20.9233   19.5197   27.8319 H   0  0  0  0  0  0  0  0  0  0  0  0
   21.8373   18.7353   26.7071 H   0  0  0  0  0  0  0  0  0  0  0  0
   20.5060   18.0009   27.3474 H   0  0  0  0  0  0  0  0  0  0  0  0
  1  2  1  0  0  0  0
  1  3  1  0  0  0  0
  1  4  1  0  0  0  0
  1  5  1  0  0  0  0
  5  6  1  0  0  0  0
  5  7  1  0  0  0  0
  5  8  1  0  0  0  0
  8  9  1  0  0  0  0
  8 10  1  0  0  0  0
  8 11  1  0  0  0  0
 11 12  1  0  0  0  0
 11 13  1  0  0  0  0
 11 14  1  0  0  0  0
 14 15  1  0  0  0  0
 14 16  1  0  0  0  0
 14 17  1  0  0  0  0
 17 18  1  0  0  0  0
 17 19  1  0  0  0  0
 17 20  1  0  0  0  0
 20 21  1  0  0  0  0
 20 22  1  0  0  0  0
 20 23  1  0  0  0  0
 23 24  1  0  0  0  0
 23 25  1  0  0  0  0
 23 26  1  0  0  0  0
M  END
> <VM2 Rank>
79

> <Conf_Id>
1211

> <Probability>
0.32

> <Sum Probability>
95.72

> <Delta G>
1.884

> <G>
50.145

> <E>
17.027

> <-TS>
33.118

> <U+W>
-4.435

> <U>
49.278

> <W>
-53.712

> <W(PB)>
-55.986

> <W(SA)>
2.274

> <Valence>
3.566

> <Coulomb>
45.108

> <VdW>
0.604

> <VdW6>
-8.325

> <VdW12>
8.930

> <Bond>
0.252

> <Angle>
1.371

> <Pdih>
1.943

> <Idih>
0.000

> <Tether>
0.000

$$$$
VeraChem MOL file


 26 25  0  0  0  0  0  0  0  0999 V2000     
   18.5780   19.0170   20.4708 C   0  0  0  0  0  0  0  0  0  0  0  0
   18.1026   19.8777   20.9590 H   0  0  0  0  0  0  0  0  0  0  0  0
   18.2021   18.9655   19.4408 H   0  0  0  0  0  0  0  0  0  0  0  0
   18.2520   18.1054   20.9867 H   0  0  0  0  0  0  0  0  0  0  0  0
   20.1174   19.1540   20.4785 C   0  0  0  0  0  0  0  0  0  0  0  0
   20.4001   20.0113   19.8516 H   0  0  0  0  0  0  0  0  0  0  0  0
   20.5699   18.2686   20.0105 H   0  0  0  0  0  0  0  0  0  0  0  0
   20.7077   19.3577   21.8945 C   0  0  0  0  0  0  0  0  0  0  0  0
   21.7849   19.5522   21.8001 H   0  0  0  0  0  0  0  0  0  0  0  0
   20.2667   20.2590   22.3402 H   0  0  0  0  0  0  0  0  0  0  0  0
   20.4932   18.1411   22.8296 C   0  0  0  0  0  0  0  0  0  0  0  0
   20.8442   17.2328   22.3208 H   0  0  0  0  0  0  0  0  0  0  0  0
   19.4218   17.9920   23.0136 H   0  0  0  0  0  0  0  0  0  0  0  0
   21.2416   18.2653   24.1819 C   0  0  0  0  0  0  0  0  0  0  0  0
   21.0808   17.3467   24.7619 H   0  0  0  0  0  0  0  0  0  0  0  0
   22.3226   18.3103   23.9910 H   0  0  0  0  0  0  0  0  0  0  0  0
   20.8342   19.4912   25.0410 C   0  0  0  0  0  0  0  0  0  0  0  0
   21.1517   20.4147   24.5401 H   0  0  0  0  0  0  0  0  0  0  0  0
   21.3817   19.4632   25.9924 H   0  0  0  0  0  0  0  0  0  0  0  0
   19.3223   19.5776   25.3312 C   0  0  0  0  0  0  0  0  0  0  0  0
   19.1141   20.4817   25.9097 H   0  0  0  0  0  0  0  0  0  0  0  0
   18.7693   19.6410   24.3903 H   0  0  0  0  0  0  0  0  0  0  0  0
   18.7866   18.3950   26.1135 N   0  3  0  0  0  0  0  0  0  0  0  0
   19.2474   18.3019   27.0245 H   0  0  0  0  0  0  0  0  0  0  0  0
   18.9296   17.5140   25.6102 H   0  0  0  0  0  0  0  0  0  0  0  0
   17.7805   18.4808   26.2935 H   0  0  0  0  0  0  0  0  0  0  0  0
  1  2  1  0  0  0  0
  1  3  1  0  0  0  0
  1  4  1  0  0  0  0
  1  5  1  0  0  0  0
  5  6  1  0  0  0  0
  5  7  1  0  0  0  0
  5  8  1  0  0  0  0
  8  9  1  0  0  0  0
  8 10  1  0  0  0  0
  8 11  1  0  0  0  0
 11 12  1  0  0  0  0
 11 13  1  0  0  0  0
 11 14  1  0  0  0  0
 14 15  1  0  0  0  0
 14 16  1  0  0  0  0
 14 17  1  0  0  0  0
 17 18  1  0  0  0  0
 17 19  1  0  0  0  0
 17 20  1  0  0  0  0
 20 21  1  0  0  0  0
 20 22  1  0  0  0  0
 20 23  1  0  0  0  0
 23 24  1  0  0  0  0
 23 25  1  0  0  0  0
 23 26  1  0  0  0  0
M  END
> <VM2 Rank>
80

> <Conf_Id>
1308

> <Probability>
0.24

> <Sum Probability>
95.96

> <Delta G>
2.046

> <G>
50.307

> <E>
17.280

> <-TS>
33.027

> <U+W>
-4.182

> <U>
49.857

> <W>
-54.038

> <W(PB)>
-56.299

> <W(SA)>
2.260

> <Valence>
3.483

> <Coulomb>
45.719

> <VdW>
0.655

> <VdW6>
-8.795

> <VdW12>
9.450

> <Bond>
0.257

> <Angle>
1.140

> <Pdih>
2.086

> <Idih>
0.000

> <Tether>
0.000

$$$$
VeraChem MOL file


 26 25  0  0  0  0  0  0  0  0999 V2000     
   20.6179   20.3638   20.5390 C   0  0  0  0  0  0  0  0  0  0  0  0
   21.5592   20.2889   21.0973 H   0  0  0  0  0  0  0  0  0  0  0  0
   20.8605   20.7204   19.5296 H   0  0  0  0  0  0  0  0  0  0  0  0
   19.9906   21.1241   21.0219 H   0  0  0  0  0  0  0  0  0  0  0  0
   19.8885   19.0028   20.4708 C   0  0  0  0  0  0  0  0  0  0  0  0
   20.5465   18.2531   20.0097 H   0  0  0  0  0  0  0  0  0  0  0  0
   19.0192   19.0996   19.8055 H   0  0  0  0  0  0  0  0  0  0  0  0
   19.4041   18.4972   21.8509 C   0  0  0  0  0  0  0  0  0  0  0  0
   18.7281   19.2433   22.2887 H   0  0  0  0  0  0  0  0  0  0  0  0
   18.8077   17.5868   21.7006 H   0  0  0  0  0  0  0  0  0  0  0  0
   20.5625   18.1868   22.8320 C   0  0  0  0  0  0  0  0  0  0  0  0
   21.1108   19.1069   23.0701 H   0  0  0  0  0  0  0  0  0  0  0  0
   21.2832   17.5226   22.3355 H   0  0  0  0  0  0  0  0  0  0  0  0
   20.0922   17.5066   24.1435 C   0  0  0  0  0  0  0  0  0  0  0  0
   19.6361   16.5368   23.9012 H   0  0  0  0  0  0  0  0  0  0  0  0
   20.9723   17.2751   24.7583 H   0  0  0  0  0  0  0  0  0  0  0  0
   19.0855   18.3368   24.9825 C   0  0  0  0  0  0  0  0  0  0  0  0
   18.8523   17.7935   25.9078 H   0  0  0  0  0  0  0  0  0  0  0  0
   18.1359   18.4238   24.4392 H   0  0  0  0  0  0  0  0  0  0  0  0
   19.5851   19.7511   25.3399 C   0  0  0  0  0  0  0  0  0  0  0  0
   19.7875   20.3129   24.4243 H   0  0  0  0  0  0  0  0  0  0  0  0
   18.8090   20.2804   25.8994 H   0  0  0  0  0  0  0  0  0  0  0  0
   20.8452   19.7540   26.1824 N   0  3  0  0  0  0  0  0  0  0  0  0
   21.1523   20.7067   26.4063 H   0  0  0  0  0  0  0  0  0  0  0  0
   21.6220   19.2914   25.7004 H   0  0  0  0  0  0  0  0  0  0  0  0
   20.7076   19.2661   27.0734 H   0  0  0  0  0  0  0  0  0  0  0  0
  1  2  1  0  0  0  0
  1  3  1  0  0  0  0
  1  4  1  0  0  0  0
  1  5  1  0  0  0  0
  5  6  1  0  0  0  0
  5  7  1  0  0  0  0
  5  8  1  0  0  0  0
  8  9  1  0  0  0  0
  8 10  1  0  0  0  0
  8 11  1  0  0  0  0
 11 12  1  0  0  0  0
 11 13  1  0  0  0  0
 11 14  1  0  0  0  0
 14 15  1  0  0  0  0
 14 16  1  0  0  0  0
 14 17  1  0  0  0  0
 17 18  1  0  0  0  0
 17 19  1  0  0  0  0
 17 20  1  0  0  0  0
 20 21  1  0  0  0  0
 20 22  1  0  0  0  0
 20 23  1  0  0  0  0
 23 24  1  0  0  0  0
 23 25  1  0  0  0  0
 23 26  1  0  0  0  0
M  END
> <VM2 Rank>
81

> <Conf_Id>
1105

> <Probability>
0.24

> <Sum Probability>
96.20

> <Delta G>
2.057

> <G>
50.318

> <E>
17.291

> <-TS>
33.027

> <U+W>
-4.171

> <U>
49.857

> <W>
-54.027

> <W(PB)>
-56.274

> <W(SA)>
2.247

> <Valence>
3.483

> <Coulomb>
45.718

> <VdW>
0.655

> <VdW6>
-8.795

> <VdW12>
9.450

> <Bond>
0.257

> <Angle>
1.140

> <Pdih>
2.086

> <Idih>
0.000

> <Tether>
0.000

$$$$
VeraChem MOL file


 26 25  0  0  0  0  0  0  0  0999 V2000     
   19.3228   19.5453   19.7459 C   0  0  0  0  0  0  0  0  0  0  0  0
   20.1074   20.1489   19.2714 H   0  0  0  0  0  0  0  0  0  0  0  0
   18.8680   18.9148   18.9709 H   0  0  0  0  0  0  0  0  0  0  0  0
   18.5488   20.2262   20.1236 H   0  0  0  0  0  0  0  0  0  0  0  0
   19.9012   18.6780   20.8839 C   0  0  0  0  0  0  0  0  0  0  0  0
   20.6498   17.9872   20.4716 H   0  0  0  0  0  0  0  0  0  0  0  0
   19.0969   18.0611   21.3061 H   0  0  0  0  0  0  0  0  0  0  0  0
   20.5454   19.5453   21.9909 C   0  0  0  0  0  0  0  0  0  0  0  0
   21.2994   20.2019   21.5353 H   0  0  0  0  0  0  0  0  0  0  0  0
   19.7898   20.2118   22.4272 H   0  0  0  0  0  0  0  0  0  0  0  0
   21.2312   18.7162   23.1072 C   0  0  0  0  0  0  0  0  0  0  0  0
   21.7113   19.4055   23.8145 H   0  0  0  0  0  0  0  0  0  0  0  0
   22.0492   18.1319   22.6637 H   0  0  0  0  0  0  0  0  0  0  0  0
   20.2958   17.7506   23.8839 C   0  0  0  0  0  0  0  0  0  0  0  0
   19.9444   16.9588   23.2093 H   0  0  0  0  0  0  0  0  0  0  0  0
   20.8843   17.2345   24.6542 H   0  0  0  0  0  0  0  0  0  0  0  0
   19.0685   18.4281   24.5478 C   0  0  0  0  0  0  0  0  0  0  0  0
   18.4942   17.6732   25.1009 H   0  0  0  0  0  0  0  0  0  0  0  0
   18.3930   18.8095   23.7714 H   0  0  0  0  0  0  0  0  0  0  0  0
   19.4332   19.5835   25.5013 C   0  0  0  0  0  0  0  0  0  0  0  0
   19.9801   20.3551   24.9532 H   0  0  0  0  0  0  0  0  0  0  0  0
   18.5175   20.0314   25.8969 H   0  0  0  0  0  0  0  0  0  0  0  0
   20.2829   19.1519   26.6800 N   0  3  0  0  0  0  0  0  0  0  0  0
   19.8078   18.4472   27.2532 H   0  0  0  0  0  0  0  0  0  0  0  0
   20.5070   19.9397   27.2975 H   0  0  0  0  0  0  0  0  0  0  0  0
   21.1722   18.7450   26.3747 H   0  0  0  0  0  0  0  0  0  0  0  0
  1  2  1  0  0  0  0
  1  3  1  0  0  0  0
  1  4  1  0  0  0  0
  1  5  1  0  0  0  0
  5  6  1  0  0  0  0
  5  7  1  0  0  0  0
  5  8  1  0  0  0  0
  8  9  1  0  0  0  0
  8 10  1  0  0  0  0
  8 11  1  0  0  0  0
 11 12  1  0  0  0  0
 11 13  1  0  0  0  0
 11 14  1  0  0  0  0
 14 15  1  0  0  0  0
 14 16  1  0  0  0  0
 14 17  1  0  0  0  0
 17 18  1  0  0  0  0
 17 19  1  0  0  0  0
 17 20  1  0  0  0  0
 20 21  1  0  0  0  0
 20 22  1  0  0  0  0
 20 23  1  0  0  0  0
 23 24  1  0  0  0  0
 23 25  1  0  0  0  0
 23 26  1  0  0  0  0
M  END
> <VM2 Rank>
82

> <Conf_Id>
575

> <Probability>
0.21

> <Sum Probability>
96.40

> <Delta G>
2.130

> <G>
50.392

> <E>
17.162

> <-TS>
33.230

> <U+W>
-4.300

> <U>
49.635

> <W>
-53.934

> <W(PB)>
-56.177

> <W(SA)>
2.243

> <Valence>
3.474

> <Coulomb>
45.628

> <VdW>
0.532

> <VdW6>
-9.030

> <VdW12>
9.562

> <Bond>
0.265

> <Angle>
1.304

> <Pdih>
1.905

> <Idih>
0.000

> <Tether>
0.000

$$$$
VeraChem MOL file


 26 25  0  0  0  0  0  0  0  0999 V2000     
   19.8749   19.9096   19.7643 C   0  0  0  0  0  0  0  0  0  0  0  0
   20.6687   20.1028   19.0311 H   0  0  0  0  0  0  0  0  0  0  0  0
   19.0347   19.4410   19.2354 H   0  0  0  0  0  0  0  0  0  0  0  0
   19.5354   20.8771   20.1565 H   0  0  0  0  0  0  0  0  0  0  0  0
   20.3918   19.0016   20.9003 C   0  0  0  0  0  0  0  0  0  0  0  0
   20.7519   18.0545   20.4750 H   0  0  0  0  0  0  0  0  0  0  0  0
   21.2544   19.4846   21.3782 H   0  0  0  0  0  0  0  0  0  0  0  0
   19.2907   18.7175   21.9489 C   0  0  0  0  0  0  0  0  0  0  0  0
   18.9546   19.6607   22.3992 H   0  0  0  0  0  0  0  0  0  0  0  0
   18.4130   18.2974   21.4387 H   0  0  0  0  0  0  0  0  0  0  0  0
   19.7314   17.7267   23.0571 C   0  0  0  0  0  0  0  0  0  0  0  0
   19.9678   16.7587   22.5942 H   0  0  0  0  0  0  0  0  0  0  0  0
   18.8768   17.5354   23.7198 H   0  0  0  0  0  0  0  0  0  0  0  0
   20.9492   18.1818   23.9058 C   0  0  0  0  0  0  0  0  0  0  0  0
   21.1566   17.4142   24.6633 H   0  0  0  0  0  0  0  0  0  0  0  0
   21.8459   18.2135   23.2728 H   0  0  0  0  0  0  0  0  0  0  0  0
   20.7774   19.5557   24.6049 C   0  0  0  0  0  0  0  0  0  0  0  0
   20.7281   20.3503   23.8495 H   0  0  0  0  0  0  0  0  0  0  0  0
   21.6705   19.7690   25.2070 H   0  0  0  0  0  0  0  0  0  0  0  0
   19.5286   19.6465   25.5046 C   0  0  0  0  0  0  0  0  0  0  0  0
   19.4580   20.6519   25.9285 H   0  0  0  0  0  0  0  0  0  0  0  0
   18.6307   19.4648   24.9083 H   0  0  0  0  0  0  0  0  0  0  0  0
   19.5370   18.6597   26.6551 N   0  3  0  0  0  0  0  0  0  0  0  0
   20.3442   18.8009   27.2710 H   0  0  0  0  0  0  0  0  0  0  0  0
   19.5761   17.6918   26.3214 H   0  0  0  0  0  0  0  0  0  0  0  0
   18.6968   18.7451   27.2372 H   0  0  0  0  0  0  0  0  0  0  0  0
  1  2  1  0  0  0  0
  1  3  1  0  0  0  0
  1  4  1  0  0  0  0
  1  5  1  0  0  0  0
  5  6  1  0  0  0  0
  5  7  1  0  0  0  0
  5  8  1  0  0  0  0
  8  9  1  0  0  0  0
  8 10  1  0  0  0  0
  8 11  1  0  0  0  0
 11 12  1  0  0  0  0
 11 13  1  0  0  0  0
 11 14  1  0  0  0  0
 14 15  1  0  0  0  0
 14 16  1  0  0  0  0
 14 17  1  0  0  0  0
 17 18  1  0  0  0  0
 17 19  1  0  0  0  0
 17 20  1  0  0  0  0
 20 21  1  0  0  0  0
 20 22  1  0  0  0  0
 20 23  1  0  0  0  0
 23 24  1  0  0  0  0
 23 25  1  0  0  0  0
 23 26  1  0  0  0  0
M  END
> <VM2 Rank>
83

> <Conf_Id>
1085

> <Probability>
0.21

> <Sum Probability>
96.61

> <Delta G>
2.134

> <G>
50.396

> <E>
17.166

> <-TS>
33.230

> <U+W>
-4.296

> <U>
49.634

> <W>
-53.930

> <W(PB)>
-56.187

> <W(SA)>
2.257

> <Valence>
3.474

> <Coulomb>
45.628

> <VdW>
0.532

> <VdW6>
-9.030

> <VdW12>
9.562

> <Bond>
0.265

> <Angle>
1.304

> <Pdih>
1.905

> <Idih>
0.000

> <Tether>
0.000

$$$$
VeraChem MOL file


 26 25  0  0  0  0  0  0  0  0999 V2000     
   19.2121   19.7187   20.1751 C   0  0  0  0  0  0  0  0  0  0  0  0
   18.3418   19.5223   20.8135 H   0  0  0  0  0  0  0  0  0  0  0  0
   19.0767   20.7116   19.7272 H   0  0  0  0  0  0  0  0  0  0  0  0
   19.2158   18.9809   19.3624 H   0  0  0  0  0  0  0  0  0  0  0  0
   20.5295   19.6631   20.9810 C   0  0  0  0  0  0  0  0  0  0  0  0
   20.4980   20.4003   21.7944 H   0  0  0  0  0  0  0  0  0  0  0  0
   21.3573   19.9713   20.3273 H   0  0  0  0  0  0  0  0  0  0  0  0
   20.8444   18.2549   21.5464 C   0  0  0  0  0  0  0  0  0  0  0  0
   20.9718   17.5574   20.7072 H   0  0  0  0  0  0  0  0  0  0  0  0
   21.8177   18.2834   22.0538 H   0  0  0  0  0  0  0  0  0  0  0  0
   19.7748   17.6759   22.5116 C   0  0  0  0  0  0  0  0  0  0  0  0
   20.1176   16.6943   22.8666 H   0  0  0  0  0  0  0  0  0  0  0  0
   18.8512   17.4790   21.9511 H   0  0  0  0  0  0  0  0  0  0  0  0
   19.4368   18.5625   23.7380 C   0  0  0  0  0  0  0  0  0  0  0  0
   19.0006   19.5133   23.4042 H   0  0  0  0  0  0  0  0  0  0  0  0
   18.6524   18.0567   24.3162 H   0  0  0  0  0  0  0  0  0  0  0  0
   20.6546   18.8386   24.6548 C   0  0  0  0  0  0  0  0  0  0  0  0
   21.4287   19.3746   24.0916 H   0  0  0  0  0  0  0  0  0  0  0  0
   21.1024   17.8907   24.9816 H   0  0  0  0  0  0  0  0  0  0  0  0
   20.2897   19.6877   25.8877 C   0  0  0  0  0  0  0  0  0  0  0  0
   21.2001   19.9305   26.4424 H   0  0  0  0  0  0  0  0  0  0  0  0
   19.8268   20.6244   25.5656 H   0  0  0  0  0  0  0  0  0  0  0  0
   19.3392   18.9976   26.8464 N   0  3  0  0  0  0  0  0  0  0  0  0
   19.1287   19.5836   27.6617 H   0  0  0  0  0  0  0  0  0  0  0  0
   19.7291   18.1187   27.2021 H   0  0  0  0  0  0  0  0  0  0  0  0
   18.4450   18.7735   26.3993 H   0  0  0  0  0  0  0  0  0  0  0  0
  1  2  1  0  0  0  0
  1  3  1  0  0  0  0
  1  4  1  0  0  0  0
  1  5  1  0  0  0  0
  5  6  1  0  0  0  0
  5  7  1  0  0  0  0
  5  8  1  0  0  0  0
  8  9  1  0  0  0  0
  8 10  1  0  0  0  0
  8 11  1  0  0  0  0
 11 12  1  0  0  0  0
 11 13  1  0  0  0  0
 11 14  1  0  0  0  0
 14 15  1  0  0  0  0
 14 16  1  0  0  0  0
 14 17  1  0  0  0  0
 17 18  1  0  0  0  0
 17 19  1  0  0  0  0
 17 20  1  0  0  0  0
 20 21  1  0  0  0  0
 20 22  1  0  0  0  0
 20 23  1  0  0  0  0
 23 24  1  0  0  0  0
 23 25  1  0  0  0  0
 23 26  1  0  0  0  0
M  END
> <VM2 Rank>
84

> <Conf_Id>
477

> <Probability>
0.20

> <Sum Probability>
96.81

> <Delta G>
2.164

> <G>
50.425

> <E>
17.208

> <-TS>
33.217

> <U+W>
-4.254

> <U>
49.638

> <W>
-53.891

> <W(PB)>
-56.131

> <W(SA)>
2.239

> <Valence>
3.691

> <Coulomb>
45.199

> <VdW>
0.747

> <VdW6>
-8.826

> <VdW12>
9.573

> <Bond>
0.278

> <Angle>
1.445

> <Pdih>
1.969

> <Idih>
0.000

> <Tether>
0.000

$$$$
VeraChem MOL file


 26 25  0  0  0  0  0  0  0  0999 V2000     
   19.7390   20.0662   20.1924 C   0  0  0  0  0  0  0  0  0  0  0  0
   20.4533   19.7971   19.4036 H   0  0  0  0  0  0  0  0  0  0  0  0
   18.9008   20.5952   19.7208 H   0  0  0  0  0  0  0  0  0  0  0  0
   20.2309   20.7690   20.8763 H   0  0  0  0  0  0  0  0  0  0  0  0
   19.2358   18.8094   20.9376 C   0  0  0  0  0  0  0  0  0  0  0  0
   18.6585   18.1901   20.2370 H   0  0  0  0  0  0  0  0  0  0  0  0
   18.5330   19.1037   21.7284 H   0  0  0  0  0  0  0  0  0  0  0  0
   20.3797   17.9483   21.5310 C   0  0  0  0  0  0  0  0  0  0  0  0
   19.9482   17.0498   21.9914 H   0  0  0  0  0  0  0  0  0  0  0  0
   21.0096   17.5823   20.7086 H   0  0  0  0  0  0  0  0  0  0  0  0
   21.2861   18.6734   22.5622 C   0  0  0  0  0  0  0  0  0  0  0  0
   21.8552   19.4618   22.0516 H   0  0  0  0  0  0  0  0  0  0  0  0
   22.0370   17.9612   22.9309 H   0  0  0  0  0  0  0  0  0  0  0  0
   20.5470   19.2954   23.7751 C   0  0  0  0  0  0  0  0  0  0  0  0
   21.2923   19.7992   24.4045 H   0  0  0  0  0  0  0  0  0  0  0  0
   19.8599   20.0806   23.4329 H   0  0  0  0  0  0  0  0  0  0  0  0
   19.7732   18.2570   24.6254 C   0  0  0  0  0  0  0  0  0  0  0  0
   20.4532   17.4624   24.9598 H   0  0  0  0  0  0  0  0  0  0  0  0
   19.0033   17.7742   24.0106 H   0  0  0  0  0  0  0  0  0  0  0  0
   19.0789   18.8886   25.8474 C   0  0  0  0  0  0  0  0  0  0  0  0
   18.4147   19.6925   25.5188 H   0  0  0  0  0  0  0  0  0  0  0  0
   18.4732   18.1306   26.3514 H   0  0  0  0  0  0  0  0  0  0  0  0
   20.0412   19.4607   26.8700 N   0  3  0  0  0  0  0  0  0  0  0  0
   20.6794   18.7455   27.2337 H   0  0  0  0  0  0  0  0  0  0  0  0
   19.5475   19.8595   27.6759 H   0  0  0  0  0  0  0  0  0  0  0  0
   20.6184   20.2079   26.4721 H   0  0  0  0  0  0  0  0  0  0  0  0
  1  2  1  0  0  0  0
  1  3  1  0  0  0  0
  1  4  1  0  0  0  0
  1  5  1  0  0  0  0
  5  6  1  0  0  0  0
  5  7  1  0  0  0  0
  5  8  1  0  0  0  0
  8  9  1  0  0  0  0
  8 10  1  0  0  0  0
  8 11  1  0  0  0  0
 11 12  1  0  0  0  0
 11 13  1  0  0  0  0
 11 14  1  0  0  0  0
 14 15  1  0  0  0  0
 14 16  1  0  0  0  0
 14 17  1  0  0  0  0
 17 18  1  0  0  0  0
 17 19  1  0  0  0  0
 17 20  1  0  0  0  0
 20 21  1  0  0  0  0
 20 22  1  0  0  0  0
 20 23  1  0  0  0  0
 23 24  1  0  0  0  0
 23 25  1  0  0  0  0
 23 26  1  0  0  0  0
M  END
> <VM2 Rank>
85

> <Conf_Id>
1370

> <Probability>
0.19

> <Sum Probability>
97.00

> <Delta G>
2.186

> <G>
50.447

> <E>
17.230

> <-TS>
33.217

> <U+W>
-4.232

> <U>
49.638

> <W>
-53.869

> <W(PB)>
-56.099

> <W(SA)>
2.229

> <Valence>
3.691

> <Coulomb>
45.199

> <VdW>
0.747

> <VdW6>
-8.825

> <VdW12>
9.572

> <Bond>
0.278

> <Angle>
1.445

> <Pdih>
1.969

> <Idih>
0.000

> <Tether>
0.000

$$$$
VeraChem MOL file


 26 25  0  0  0  0  0  0  0  0999 V2000     
   19.2698   19.2737   19.9941 C   0  0  0  0  0  0  0  0  0  0  0  0
   19.6449   20.2497   19.6600 H   0  0  0  0  0  0  0  0  0  0  0  0
   18.8123   18.7755   19.1296 H   0  0  0  0  0  0  0  0  0  0  0  0
   18.4781   19.4439   20.7343 H   0  0  0  0  0  0  0  0  0  0  0  0
   20.4115   18.4094   20.5754 C   0  0  0  0  0  0  0  0  0  0  0  0
   21.1166   18.1662   19.7684 H   0  0  0  0  0  0  0  0  0  0  0  0
   20.0095   17.4478   20.9212 H   0  0  0  0  0  0  0  0  0  0  0  0
   21.1929   19.1070   21.7182 C   0  0  0  0  0  0  0  0  0  0  0  0
   21.9975   18.4392   22.0555 H   0  0  0  0  0  0  0  0  0  0  0  0
   21.6926   19.9973   21.3122 H   0  0  0  0  0  0  0  0  0  0  0  0
   20.3430   19.5317   22.9438 C   0  0  0  0  0  0  0  0  0  0  0  0
   19.5995   20.2811   22.6419 H   0  0  0  0  0  0  0  0  0  0  0  0
   21.0084   20.0370   23.6559 H   0  0  0  0  0  0  0  0  0  0  0  0
   19.6356   18.3459   23.6477 C   0  0  0  0  0  0  0  0  0  0  0  0
   18.9483   17.8594   22.9436 H   0  0  0  0  0  0  0  0  0  0  0  0
   20.3759   17.5851   23.9284 H   0  0  0  0  0  0  0  0  0  0  0  0
   18.8201   18.7751   24.8934 C   0  0  0  0  0  0  0  0  0  0  0  0
   18.3024   17.8991   25.3063 H   0  0  0  0  0  0  0  0  0  0  0  0
   18.0341   19.4779   24.5865 H   0  0  0  0  0  0  0  0  0  0  0  0
   19.6637   19.4307   26.0056 C   0  0  0  0  0  0  0  0  0  0  0  0
   20.1432   20.3351   25.6228 H   0  0  0  0  0  0  0  0  0  0  0  0
   19.0107   19.7184   26.8341 H   0  0  0  0  0  0  0  0  0  0  0  0
   20.7444   18.5256   26.5629 N   0  3  0  0  0  0  0  0  0  0  0  0
   21.4111   18.2438   25.8376 H   0  0  0  0  0  0  0  0  0  0  0  0
   20.3522   17.6679   26.9646 H   0  0  0  0  0  0  0  0  0  0  0  0
   21.2822   18.9860   27.3051 H   0  0  0  0  0  0  0  0  0  0  0  0
  1  2  1  0  0  0  0
  1  3  1  0  0  0  0
  1  4  1  0  0  0  0
  1  5  1  0  0  0  0
  5  6  1  0  0  0  0
  5  7  1  0  0  0  0
  5  8  1  0  0  0  0
  8  9  1  0  0  0  0
  8 10  1  0  0  0  0
  8 11  1  0  0  0  0
 11 12  1  0  0  0  0
 11 13  1  0  0  0  0
 11 14  1  0  0  0  0
 14 15  1  0  0  0  0
 14 16  1  0  0  0  0
 14 17  1  0  0  0  0
 17 18  1  0  0  0  0
 17 19  1  0  0  0  0
 17 20  1  0  0  0  0
 20 21  1  0  0  0  0
 20 22  1  0  0  0  0
 20 23  1  0  0  0  0
 23 24  1  0  0  0  0
 23 25  1  0  0  0  0
 23 26  1  0  0  0  0
M  END
> <VM2 Rank>
86

> <Conf_Id>
812

> <Probability>
0.18

> <Sum Probability>
97.18

> <Delta G>
2.204

> <G>
50.465

> <E>
17.410

> <-TS>
33.055

> <U+W>
-4.052

> <U>
49.822

> <W>
-53.873

> <W(PB)>
-56.119

> <W(SA)>
2.246

> <Valence>
3.548

> <Coulomb>
45.475

> <VdW>
0.799

> <VdW6>
-8.640

> <VdW12>
9.439

> <Bond>
0.263

> <Angle>
1.337

> <Pdih>
1.948

> <Idih>
0.000

> <Tether>
0.000

$$$$
VeraChem MOL file


 26 25  0  0  0  0  0  0  0  0999 V2000     
   19.9011   18.3943   19.6987 C   0  0  0  0  0  0  0  0  0  0  0  0
   19.2404   17.6125   20.0927 H   0  0  0  0  0  0  0  0  0  0  0  0
   19.2797   19.2372   19.3694 H   0  0  0  0  0  0  0  0  0  0  0  0
   20.4054   17.9839   18.8143 H   0  0  0  0  0  0  0  0  0  0  0  0
   20.9390   18.8466   20.7510 C   0  0  0  0  0  0  0  0  0  0  0  0
   21.6528   19.5303   20.2706 H   0  0  0  0  0  0  0  0  0  0  0  0
   21.5242   17.9803   21.0900 H   0  0  0  0  0  0  0  0  0  0  0  0
   20.3107   19.5639   21.9704 C   0  0  0  0  0  0  0  0  0  0  0  0
   21.1273   19.9610   22.5870 H   0  0  0  0  0  0  0  0  0  0  0  0
   19.7305   20.4314   21.6271 H   0  0  0  0  0  0  0  0  0  0  0  0
   19.4124   18.6416   22.8331 C   0  0  0  0  0  0  0  0  0  0  0  0
   19.9909   17.7709   23.1688 H   0  0  0  0  0  0  0  0  0  0  0  0
   18.5974   18.2442   22.2146 H   0  0  0  0  0  0  0  0  0  0  0  0
   18.7768   19.3604   24.0516 C   0  0  0  0  0  0  0  0  0  0  0  0
   18.1336   20.1751   23.6915 H   0  0  0  0  0  0  0  0  0  0  0  0
   18.1061   18.6585   24.5651 H   0  0  0  0  0  0  0  0  0  0  0  0
   19.7894   19.9382   25.0754 C   0  0  0  0  0  0  0  0  0  0  0  0
   19.2390   20.3718   25.9208 H   0  0  0  0  0  0  0  0  0  0  0  0
   20.3413   20.7706   24.6208 H   0  0  0  0  0  0  0  0  0  0  0  0
   20.7996   18.9032   25.6097 C   0  0  0  0  0  0  0  0  0  0  0  0
   21.3785   18.4904   24.7794 H   0  0  0  0  0  0  0  0  0  0  0  0
   21.4937   19.3939   26.2974 H   0  0  0  0  0  0  0  0  0  0  0  0
   20.1519   17.7507   26.3511 N   0  3  0  0  0  0  0  0  0  0  0  0
   19.5045   17.2320   25.7498 H   0  0  0  0  0  0  0  0  0  0  0  0
   19.6177   18.0742   27.1640 H   0  0  0  0  0  0  0  0  0  0  0  0
   20.8472   17.0803   26.6964 H   0  0  0  0  0  0  0  0  0  0  0  0
  1  2  1  0  0  0  0
  1  3  1  0  0  0  0
  1  4  1  0  0  0  0
  1  5  1  0  0  0  0
  5  6  1  0  0  0  0
  5  7  1  0  0  0  0
  5  8  1  0  0  0  0
  8  9  1  0  0  0  0
  8 10  1  0  0  0  0
  8 11  1  0  0  0  0
 11 12  1  0  0  0  0
 11 13  1  0  0  0  0
 11 14  1  0  0  0  0
 14 15  1  0  0  0  0
 14 16  1  0  0  0  0
 14 17  1  0  0  0  0
 17 18  1  0  0  0  0
 17 19  1  0  0  0  0
 17 20  1  0  0  0  0
 20 21  1  0  0  0  0
 20 22  1  0  0  0  0
 20 23  1  0  0  0  0
 23 24  1  0  0  0  0
 23 25  1  0  0  0  0
 23 26  1  0  0  0  0
M  END
> <VM2 Rank>
87

> <Conf_Id>
817

> <Probability>
0.18

> <Sum Probability>
97.37

> <Delta G>
2.208

> <G>
50.469

> <E>
17.492

> <-TS>
32.977

> <U+W>
-3.969

> <U>
49.925

> <W>
-53.895

> <W(PB)>
-56.135

> <W(SA)>
2.241

> <Valence>
3.593

> <Coulomb>
45.559

> <VdW>
0.774

> <VdW6>
-8.638

> <VdW12>
9.412

> <Bond>
0.265

> <Angle>
1.266

> <Pdih>
2.061

> <Idih>
0.000

> <Tether>
0.000

$$$$
VeraChem MOL file


 26 25  0  0  0  0  0  0  0  0999 V2000     
   20.7073   18.9250   19.7257 C   0  0  0  0  0  0  0  0  0  0  0  0
   20.9265   18.3268   18.8318 H   0  0  0  0  0  0  0  0  0  0  0  0
   20.1937   19.8389   19.3999 H   0  0  0  0  0  0  0  0  0  0  0  0
   21.6670   19.2103   20.1737 H   0  0  0  0  0  0  0  0  0  0  0  0
   19.8343   18.1191   20.7143 C   0  0  0  0  0  0  0  0  0  0  0  0
   20.3831   17.2290   21.0522 H   0  0  0  0  0  0  0  0  0  0  0  0
   18.9478   17.7490   20.1805 H   0  0  0  0  0  0  0  0  0  0  0  0
   19.3666   18.9423   21.9390 C   0  0  0  0  0  0  0  0  0  0  0  0
   18.8149   19.8285   21.5966 H   0  0  0  0  0  0  0  0  0  0  0  0
   18.6517   18.3309   22.5045 H   0  0  0  0  0  0  0  0  0  0  0  0
   20.5270   19.3757   22.8703 C   0  0  0  0  0  0  0  0  0  0  0  0
   21.2416   19.9856   22.3029 H   0  0  0  0  0  0  0  0  0  0  0  0
   21.0828   18.4900   23.2053 H   0  0  0  0  0  0  0  0  0  0  0  0
   20.0609   20.2061   24.0945 C   0  0  0  0  0  0  0  0  0  0  0  0
   20.9456   20.5284   24.6599 H   0  0  0  0  0  0  0  0  0  0  0  0
   19.5833   21.1299   23.7399 H   0  0  0  0  0  0  0  0  0  0  0  0
   19.0840   19.4738   25.0519 C   0  0  0  0  0  0  0  0  0  0  0  0
   18.1236   19.3104   24.5468 H   0  0  0  0  0  0  0  0  0  0  0  0
   18.8636   20.1246   25.9084 H   0  0  0  0  0  0  0  0  0  0  0  0
   19.6110   18.1206   25.5698 C   0  0  0  0  0  0  0  0  0  0  0  0
   18.8552   17.6565   26.2092 H   0  0  0  0  0  0  0  0  0  0  0  0
   19.8004   17.4514   24.7265 H   0  0  0  0  0  0  0  0  0  0  0  0
   20.8898   18.2363   26.3755 N   0  3  0  0  0  0  0  0  0  0  0  0
   21.2152   17.3223   26.7082 H   0  0  0  0  0  0  0  0  0  0  0  0
   20.7657   18.8297   27.2021 H   0  0  0  0  0  0  0  0  0  0  0  0
   21.6489   18.6440   25.8210 H   0  0  0  0  0  0  0  0  0  0  0  0
  1  2  1  0  0  0  0
  1  3  1  0  0  0  0
  1  4  1  0  0  0  0
  1  5  1  0  0  0  0
  5  6  1  0  0  0  0
  5  7  1  0  0  0  0
  5  8  1  0  0  0  0
  8  9  1  0  0  0  0
  8 10  1  0  0  0  0
  8 11  1  0  0  0  0
 11 12  1  0  0  0  0
 11 13  1  0  0  0  0
 11 14  1  0  0  0  0
 14 15  1  0  0  0  0
 14 16  1  0  0  0  0
 14 17  1  0  0  0  0
 17 18  1  0  0  0  0
 17 19  1  0  0  0  0
 17 20  1  0  0  0  0
 20 21  1  0  0  0  0
 20 22  1  0  0  0  0
 20 23  1  0  0  0  0
 23 24  1  0  0  0  0
 23 25  1  0  0  0  0
 23 26  1  0  0  0  0
M  END
> <VM2 Rank>
88

> <Conf_Id>
750

> <Probability>
0.18

> <Sum Probability>
97.55

> <Delta G>
2.221

> <G>
50.482

> <E>
17.505

> <-TS>
32.977

> <U+W>
-3.956

> <U>
49.926

> <W>
-53.883

> <W(PB)>
-56.157

> <W(SA)>
2.275

> <Valence>
3.593

> <Coulomb>
45.559

> <VdW>
0.774

> <VdW6>
-8.638

> <VdW12>
9.412

> <Bond>
0.265

> <Angle>
1.266

> <Pdih>
2.061

> <Idih>
0.000

> <Tether>
0.000

$$$$
VeraChem MOL file


 26 25  0  0  0  0  0  0  0  0999 V2000     
   20.1349   19.8435   20.0230 C   0  0  0  0  0  0  0  0  0  0  0  0
   20.2557   20.6149   20.7938 H   0  0  0  0  0  0  0  0  0  0  0  0
   20.8127   20.0933   19.1966 H   0  0  0  0  0  0  0  0  0  0  0  0
   19.1068   19.8951   19.6420 H   0  0  0  0  0  0  0  0  0  0  0  0
   20.4519   18.4360   20.5768 C   0  0  0  0  0  0  0  0  0  0  0  0
   21.4769   18.4145   20.9703 H   0  0  0  0  0  0  0  0  0  0  0  0
   20.4354   17.7173   19.7456 H   0  0  0  0  0  0  0  0  0  0  0  0
   19.4507   17.9591   21.6599 C   0  0  0  0  0  0  0  0  0  0  0  0
   18.4556   17.8646   21.2039 H   0  0  0  0  0  0  0  0  0  0  0  0
   19.7315   16.9462   21.9797 H   0  0  0  0  0  0  0  0  0  0  0  0
   19.3381   18.8696   22.9102 C   0  0  0  0  0  0  0  0  0  0  0  0
   18.5792   18.4365   23.5747 H   0  0  0  0  0  0  0  0  0  0  0  0
   18.9566   19.8576   22.6204 H   0  0  0  0  0  0  0  0  0  0  0  0
   20.6724   19.0292   23.6822 C   0  0  0  0  0  0  0  0  0  0  0  0
   21.0667   18.0404   23.9514 H   0  0  0  0  0  0  0  0  0  0  0  0
   21.4223   19.4897   23.0261 H   0  0  0  0  0  0  0  0  0  0  0  0
   20.5412   19.9093   24.9508 C   0  0  0  0  0  0  0  0  0  0  0  0
   20.2192   20.9179   24.6594 H   0  0  0  0  0  0  0  0  0  0  0  0
   21.5300   20.0261   25.4140 H   0  0  0  0  0  0  0  0  0  0  0  0
   19.5557   19.3594   26.0020 C   0  0  0  0  0  0  0  0  0  0  0  0
   19.5097   20.0473   26.8507 H   0  0  0  0  0  0  0  0  0  0  0  0
   18.5544   19.2879   25.5698 H   0  0  0  0  0  0  0  0  0  0  0  0
   19.9360   17.9927   26.5360 N   0  3  0  0  0  0  0  0  0  0  0  0
   19.2671   17.6579   27.2379 H   0  0  0  0  0  0  0  0  0  0  0  0
   20.8591   18.0020   26.9818 H   0  0  0  0  0  0  0  0  0  0  0  0
   19.9664   17.2914   25.7895 H   0  0  0  0  0  0  0  0  0  0  0  0
  1  2  1  0  0  0  0
  1  3  1  0  0  0  0
  1  4  1  0  0  0  0
  1  5  1  0  0  0  0
  5  6  1  0  0  0  0
  5  7  1  0  0  0  0
  5  8  1  0  0  0  0
  8  9  1  0  0  0  0
  8 10  1  0  0  0  0
  8 11  1  0  0  0  0
 11 12  1  0  0  0  0
 11 13  1  0  0  0  0
 11 14  1  0  0  0  0
 14 15  1  0  0  0  0
 14 16  1  0  0  0  0
 14 17  1  0  0  0  0
 17 18  1  0  0  0  0
 17 19  1  0  0  0  0
 17 20  1  0  0  0  0
 20 21  1  0  0  0  0
 20 22  1  0  0  0  0
 20 23  1  0  0  0  0
 23 24  1  0  0  0  0
 23 25  1  0  0  0  0
 23 26  1  0  0  0  0
M  END
> <VM2 Rank>
89

> <Conf_Id>
697

> <Probability>
0.18

> <Sum Probability>
97.72

> <Delta G>
2.225

> <G>
50.486

> <E>
17.431

> <-TS>
33.055

> <U+W>
-4.031

> <U>
49.821

> <W>
-53.852

> <W(PB)>
-56.098

> <W(SA)>
2.246

> <Valence>
3.548

> <Coulomb>
45.474

> <VdW>
0.799

> <VdW6>
-8.640

> <VdW12>
9.439

> <Bond>
0.263

> <Angle>
1.337

> <Pdih>
1.948

> <Idih>
0.000

> <Tether>
0.000

$$$$
VeraChem MOL file


 26 25  0  0  0  0  0  0  0  0999 V2000     
   20.4314   19.2148   19.8954 C   0  0  0  0  0  0  0  0  0  0  0  0
   20.4732   20.2489   20.2593 H   0  0  0  0  0  0  0  0  0  0  0  0
   21.2721   19.0733   19.2039 H   0  0  0  0  0  0  0  0  0  0  0  0
   19.5021   19.0880   19.3252 H   0  0  0  0  0  0  0  0  0  0  0  0
   20.5112   18.2014   21.0593 C   0  0  0  0  0  0  0  0  0  0  0  0
   21.4408   18.3573   21.6226 H   0  0  0  0  0  0  0  0  0  0  0  0
   20.5784   17.1873   20.6413 H   0  0  0  0  0  0  0  0  0  0  0  0
   19.2903   18.2629   22.0120 C   0  0  0  0  0  0  0  0  0  0  0  0
   18.3848   18.0107   21.4434 H   0  0  0  0  0  0  0  0  0  0  0  0
   19.3899   17.4753   22.7707 H   0  0  0  0  0  0  0  0  0  0  0  0
   19.0698   19.6301   22.7133 C   0  0  0  0  0  0  0  0  0  0  0  0
   18.1851   19.5554   23.3598 H   0  0  0  0  0  0  0  0  0  0  0  0
   18.8126   20.3863   21.9598 H   0  0  0  0  0  0  0  0  0  0  0  0
   20.2733   20.1452   23.5477 C   0  0  0  0  0  0  0  0  0  0  0  0
   21.1149   20.3689   22.8788 H   0  0  0  0  0  0  0  0  0  0  0  0
   19.9966   21.1045   24.0065 H   0  0  0  0  0  0  0  0  0  0  0  0
   20.7524   19.1791   24.6594 C   0  0  0  0  0  0  0  0  0  0  0  0
   21.5938   19.6414   25.1922 H   0  0  0  0  0  0  0  0  0  0  0  0
   21.1406   18.2550   24.2127 H   0  0  0  0  0  0  0  0  0  0  0  0
   19.6415   18.8396   25.6703 C   0  0  0  0  0  0  0  0  0  0  0  0
   19.2639   19.7596   26.1246 H   0  0  0  0  0  0  0  0  0  0  0  0
   18.8137   18.3444   25.1560 H   0  0  0  0  0  0  0  0  0  0  0  0
   20.1112   17.9258   26.7836 N   0  3  0  0  0  0  0  0  0  0  0  0
   19.3567   17.7123   27.4450 H   0  0  0  0  0  0  0  0  0  0  0  0
   20.8733   18.3455   27.3260 H   0  0  0  0  0  0  0  0  0  0  0  0
   20.4550   17.0297   26.4232 H   0  0  0  0  0  0  0  0  0  0  0  0
  1  2  1  0  0  0  0
  1  3  1  0  0  0  0
  1  4  1  0  0  0  0
  1  5  1  0  0  0  0
  5  6  1  0  0  0  0
  5  7  1  0  0  0  0
  5  8  1  0  0  0  0
  8  9  1  0  0  0  0
  8 10  1  0  0  0  0
  8 11  1  0  0  0  0
 11 12  1  0  0  0  0
 11 13  1  0  0  0  0
 11 14  1  0  0  0  0
 14 15  1  0  0  0  0
 14 16  1  0  0  0  0
 14 17  1  0  0  0  0
 17 18  1  0  0  0  0
 17 19  1  0  0  0  0
 17 20  1  0  0  0  0
 20 21  1  0  0  0  0
 20 22  1  0  0  0  0
 20 23  1  0  0  0  0
 23 24  1  0  0  0  0
 23 25  1  0  0  0  0
 23 26  1  0  0  0  0
M  END
> <VM2 Rank>
90

> <Conf_Id>
682

> <Probability>
0.16

> <Sum Probability>
97.89

> <Delta G>
2.277

> <G>
50.538

> <E>
17.206

> <-TS>
33.332

> <U+W>
-4.256

> <U>
49.824

> <W>
-54.080

> <W(PB)>
-56.299

> <W(SA)>
2.219

> <Valence>
3.796

> <Coulomb>
45.507

> <VdW>
0.521

> <VdW6>
-9.173

> <VdW12>
9.694

> <Bond>
0.280

> <Angle>
1.536

> <Pdih>
1.980

> <Idih>
0.000

> <Tether>
0.000

$$$$
VeraChem MOL file


 26 25  0  0  0  0  0  0  0  0999 V2000     
   20.9538   19.8911   20.4475 C   0  0  0  0  0  0  0  0  0  0  0  0
   20.5517   20.7203   21.0428 H   0  0  0  0  0  0  0  0  0  0  0  0
   21.9842   20.1505   20.1721 H   0  0  0  0  0  0  0  0  0  0  0  0
   20.3674   19.8159   19.5225 H   0  0  0  0  0  0  0  0  0  0  0  0
   20.9218   18.5614   21.2343 C   0  0  0  0  0  0  0  0  0  0  0  0
   21.5040   18.6641   22.1596 H   0  0  0  0  0  0  0  0  0  0  0  0
   21.4310   17.7880   20.6426 H   0  0  0  0  0  0  0  0  0  0  0  0
   19.4867   18.0723   21.5558 C   0  0  0  0  0  0  0  0  0  0  0  0
   18.9594   17.8780   20.6118 H   0  0  0  0  0  0  0  0  0  0  0  0
   19.5467   17.1007   22.0638 H   0  0  0  0  0  0  0  0  0  0  0  0
   18.6313   19.0483   22.4080 C   0  0  0  0  0  0  0  0  0  0  0  0
   17.6510   18.5872   22.5910 H   0  0  0  0  0  0  0  0  0  0  0  0
   18.4249   19.9548   21.8235 H   0  0  0  0  0  0  0  0  0  0  0  0
   19.2545   19.4585   23.7670 C   0  0  0  0  0  0  0  0  0  0  0  0
   20.1832   20.0167   23.5933 H   0  0  0  0  0  0  0  0  0  0  0  0
   18.5689   20.1575   24.2656 H   0  0  0  0  0  0  0  0  0  0  0  0
   19.5208   18.2579   24.7087 C   0  0  0  0  0  0  0  0  0  0  0  0
   20.2728   17.5881   24.2729 H   0  0  0  0  0  0  0  0  0  0  0  0
   18.5999   17.6698   24.8170 H   0  0  0  0  0  0  0  0  0  0  0  0
   19.9877   18.6971   26.1097 C   0  0  0  0  0  0  0  0  0  0  0  0
   19.2448   19.3663   26.5523 H   0  0  0  0  0  0  0  0  0  0  0  0
   20.0813   17.8182   26.7533 H   0  0  0  0  0  0  0  0  0  0  0  0
   21.3245   19.4123   26.1100 N   0  3  0  0  0  0  0  0  0  0  0  0
   21.6112   19.6821   27.0573 H   0  0  0  0  0  0  0  0  0  0  0  0
   21.2961   20.2696   25.5496 H   0  0  0  0  0  0  0  0  0  0  0  0
   22.0713   18.8234   25.7275 H   0  0  0  0  0  0  0  0  0  0  0  0
  1  2  1  0  0  0  0
  1  3  1  0  0  0  0
  1  4  1  0  0  0  0
  1  5  1  0  0  0  0
  5  6  1  0  0  0  0
  5  7  1  0  0  0  0
  5  8  1  0  0  0  0
  8  9  1  0  0  0  0
  8 10  1  0  0  0  0
  8 11  1  0  0  0  0
 11 12  1  0  0  0  0
 11 13  1  0  0  0  0
 11 14  1  0  0  0  0
 14 15  1  0  0  0  0
 14 16  1  0  0  0  0
 14 17  1  0  0  0  0
 17 18  1  0  0  0  0
 17 19  1  0  0  0  0
 17 20  1  0  0  0  0
 20 21  1  0  0  0  0
 20 22  1  0  0  0  0
 20 23  1  0  0  0  0
 23 24  1  0  0  0  0
 23 25  1  0  0  0  0
 23 26  1  0  0  0  0
M  END
> <VM2 Rank>
91

> <Conf_Id>
1312

> <Probability>
0.16

> <Sum Probability>
98.05

> <Delta G>
2.285

> <G>
50.546

> <E>
17.315

> <-TS>
33.231

> <U+W>
-4.147

> <U>
50.091

> <W>
-54.237

> <W(PB)>
-56.466

> <W(SA)>
2.229

> <Valence>
3.653

> <Coulomb>
45.797

> <VdW>
0.641

> <VdW6>
-8.932

> <VdW12>
9.573

> <Bond>
0.273

> <Angle>
1.380

> <Pdih>
2.000

> <Idih>
0.000

> <Tether>
0.000

$$$$
VeraChem MOL file


 26 25  0  0  0  0  0  0  0  0999 V2000     
   18.8840   18.5276   20.3785 C   0  0  0  0  0  0  0  0  0  0  0  0
   18.2533   19.2062   20.9662 H   0  0  0  0  0  0  0  0  0  0  0  0
   19.2268   19.0646   19.4846 H   0  0  0  0  0  0  0  0  0  0  0  0
   18.2530   17.6926   20.0476 H   0  0  0  0  0  0  0  0  0  0  0  0
   20.0807   18.0074   21.2062 C   0  0  0  0  0  0  0  0  0  0  0  0
   20.6178   17.2523   20.6154 H   0  0  0  0  0  0  0  0  0  0  0  0
   19.7142   17.4850   22.0999 H   0  0  0  0  0  0  0  0  0  0  0  0
   21.0797   19.1217   21.6091 C   0  0  0  0  0  0  0  0  0  0  0  0
   21.9245   18.6670   22.1433 H   0  0  0  0  0  0  0  0  0  0  0  0
   21.5096   19.5579   20.6970 H   0  0  0  0  0  0  0  0  0  0  0  0
   20.4808   20.2667   22.4697 C   0  0  0  0  0  0  0  0  0  0  0  0
   19.7571   20.8323   21.8679 H   0  0  0  0  0  0  0  0  0  0  0  0
   21.2816   20.9788   22.7122 H   0  0  0  0  0  0  0  0  0  0  0  0
   19.7956   19.8150   23.7850 C   0  0  0  0  0  0  0  0  0  0  0  0
   19.4005   20.7054   24.2933 H   0  0  0  0  0  0  0  0  0  0  0  0
   18.9257   19.1883   23.5512 H   0  0  0  0  0  0  0  0  0  0  0  0
   20.7491   19.0673   24.7498 C   0  0  0  0  0  0  0  0  0  0  0  0
   21.6465   19.6771   24.9189 H   0  0  0  0  0  0  0  0  0  0  0  0
   21.0885   18.1256   24.3002 H   0  0  0  0  0  0  0  0  0  0  0  0
   20.0968   18.7692   26.1133 C   0  0  0  0  0  0  0  0  0  0  0  0
   20.8369   18.3163   26.7786 H   0  0  0  0  0  0  0  0  0  0  0  0
   19.7541   19.7020   26.5692 H   0  0  0  0  0  0  0  0  0  0  0  0
   18.9142   17.8242   26.0294 N   0  3  0  0  0  0  0  0  0  0  0  0
   18.5095   17.6385   26.9535 H   0  0  0  0  0  0  0  0  0  0  0  0
   19.1789   16.9177   25.6307 H   0  0  0  0  0  0  0  0  0  0  0  0
   18.1644   18.2061   25.4447 H   0  0  0  0  0  0  0  0  0  0  0  0
  1  2  1  0  0  0  0
  1  3  1  0  0  0  0
  1  4  1  0  0  0  0
  1  5  1  0  0  0  0
  5  6  1  0  0  0  0
  5  7  1  0  0  0  0
  5  8  1  0  0  0  0
  8  9  1  0  0  0  0
  8 10  1  0  0  0  0
  8 11  1  0  0  0  0
 11 12  1  0  0  0  0
 11 13  1  0  0  0  0
 11 14  1  0  0  0  0
 14 15  1  0  0  0  0
 14 16  1  0  0  0  0
 14 17  1  0  0  0  0
 17 18  1  0  0  0  0
 17 19  1  0  0  0  0
 17 20  1  0  0  0  0
 20 21  1  0  0  0  0
 20 22  1  0  0  0  0
 20 23  1  0  0  0  0
 23 24  1  0  0  0  0
 23 25  1  0  0  0  0
 23 26  1  0  0  0  0
M  END
> <VM2 Rank>
92

> <Conf_Id>
800

> <Probability>
0.16

> <Sum Probability>
98.21

> <Delta G>
2.289

> <G>
50.550

> <E>
17.319

> <-TS>
33.231

> <U+W>
-4.143

> <U>
50.091

> <W>
-54.234

> <W(PB)>
-56.461

> <W(SA)>
2.228

> <Valence>
3.653

> <Coulomb>
45.797

> <VdW>
0.641

> <VdW6>
-8.932

> <VdW12>
9.573

> <Bond>
0.273

> <Angle>
1.380

> <Pdih>
2.000

> <Idih>
0.000

> <Tether>
0.000

$$$$
VeraChem MOL file


 26 25  0  0  0  0  0  0  0  0999 V2000     
   19.7363   18.7568   19.8722 C   0  0  0  0  0  0  0  0  0  0  0  0
   20.2449   19.5775   19.3501 H   0  0  0  0  0  0  0  0  0  0  0  0
   19.5677   17.9503   19.1469 H   0  0  0  0  0  0  0  0  0  0  0  0
   18.7534   19.1157   20.2019 H   0  0  0  0  0  0  0  0  0  0  0  0
   20.5812   18.2475   21.0617 C   0  0  0  0  0  0  0  0  0  0  0  0
   21.5052   17.7980   20.6723 H   0  0  0  0  0  0  0  0  0  0  0  0
   20.0461   17.4382   21.5760 H   0  0  0  0  0  0  0  0  0  0  0  0
   20.9608   19.3635   22.0679 C   0  0  0  0  0  0  0  0  0  0  0  0
   21.6093   18.9377   22.8449 H   0  0  0  0  0  0  0  0  0  0  0  0
   21.5751   20.1128   21.5500 H   0  0  0  0  0  0  0  0  0  0  0  0
   19.7596   20.0846   22.7364 C   0  0  0  0  0  0  0  0  0  0  0  0
   19.2015   20.6425   21.9728 H   0  0  0  0  0  0  0  0  0  0  0  0
   20.1461   20.8475   23.4253 H   0  0  0  0  0  0  0  0  0  0  0  0
   18.7742   19.1576   23.4976 C   0  0  0  0  0  0  0  0  0  0  0  0
   17.9810   19.7765   23.9392 H   0  0  0  0  0  0  0  0  0  0  0  0
   18.2688   18.4937   22.7837 H   0  0  0  0  0  0  0  0  0  0  0  0
   19.4209   18.3019   24.6149 C   0  0  0  0  0  0  0  0  0  0  0  0
   20.1374   17.5941   24.1792 H   0  0  0  0  0  0  0  0  0  0  0  0
   18.6405   17.6957   25.0937 H   0  0  0  0  0  0  0  0  0  0  0  0
   20.1228   19.1568   25.6863 C   0  0  0  0  0  0  0  0  0  0  0  0
   20.9271   19.7369   25.2265 H   0  0  0  0  0  0  0  0  0  0  0  0
   19.4056   19.8529   26.1294 H   0  0  0  0  0  0  0  0  0  0  0  0
   20.7253   18.3304   26.8040 N   0  3  0  0  0  0  0  0  0  0  0  0
   21.1874   18.9185   27.5060 H   0  0  0  0  0  0  0  0  0  0  0  0
   21.4295   17.6718   26.4556 H   0  0  0  0  0  0  0  0  0  0  0  0
   20.0148   17.7798   27.2972 H   0  0  0  0  0  0  0  0  0  0  0  0
  1  2  1  0  0  0  0
  1  3  1  0  0  0  0
  1  4  1  0  0  0  0
  1  5  1  0  0  0  0
  5  6  1  0  0  0  0
  5  7  1  0  0  0  0
  5  8  1  0  0  0  0
  8  9  1  0  0  0  0
  8 10  1  0  0  0  0
  8 11  1  0  0  0  0
 11 12  1  0  0  0  0
 11 13  1  0  0  0  0
 11 14  1  0  0  0  0
 14 15  1  0  0  0  0
 14 16  1  0  0  0  0
 14 17  1  0  0  0  0
 17 18  1  0  0  0  0
 17 19  1  0  0  0  0
 17 20  1  0  0  0  0
 20 21  1  0  0  0  0
 20 22  1  0  0  0  0
 20 23  1  0  0  0  0
 23 24  1  0  0  0  0
 23 25  1  0  0  0  0
 23 26  1  0  0  0  0
M  END
> <VM2 Rank>
93

> <Conf_Id>
121

> <Probability>
0.15

> <Sum Probability>
98.36

> <Delta G>
2.314

> <G>
50.575

> <E>
17.243

> <-TS>
33.332

> <U+W>
-4.219

> <U>
49.824

> <W>
-54.043

> <W(PB)>
-56.275

> <W(SA)>
2.232

> <Valence>
3.796

> <Coulomb>
45.507

> <VdW>
0.521

> <VdW6>
-9.173

> <VdW12>
9.694

> <Bond>
0.280

> <Angle>
1.536

> <Pdih>
1.980

> <Idih>
0.000

> <Tether>
0.000

$$$$
VeraChem MOL file


 26 25  0  0  0  0  0  0  0  0999 V2000     
   18.4608   18.7618   20.9236 C   0  0  0  0  0  0  0  0  0  0  0  0
   18.2230   19.7523   20.5145 H   0  0  0  0  0  0  0  0  0  0  0  0
   17.8465   18.0229   20.3930 H   0  0  0  0  0  0  0  0  0  0  0  0
   18.1610   18.7445   21.9783 H   0  0  0  0  0  0  0  0  0  0  0  0
   19.9626   18.4380   20.7552 C   0  0  0  0  0  0  0  0  0  0  0  0
   20.1875   18.3544   19.6828 H   0  0  0  0  0  0  0  0  0  0  0  0
   20.1801   17.4511   21.1847 H   0  0  0  0  0  0  0  0  0  0  0  0
   20.8972   19.5098   21.3720 C   0  0  0  0  0  0  0  0  0  0  0  0
   21.9401   19.2265   21.1740 H   0  0  0  0  0  0  0  0  0  0  0  0
   20.7400   20.4621   20.8471 H   0  0  0  0  0  0  0  0  0  0  0  0
   20.7190   19.7455   22.8940 C   0  0  0  0  0  0  0  0  0  0  0  0
   19.7112   20.1323   23.0910 H   0  0  0  0  0  0  0  0  0  0  0  0
   21.4132   20.5386   23.2040 H   0  0  0  0  0  0  0  0  0  0  0  0
   20.9863   18.4809   23.7486 C   0  0  0  0  0  0  0  0  0  0  0  0
   20.2501   17.7023   23.5128 H   0  0  0  0  0  0  0  0  0  0  0  0
   21.9679   18.0666   23.4805 H   0  0  0  0  0  0  0  0  0  0  0  0
   20.9689   18.7643   25.2715 C   0  0  0  0  0  0  0  0  0  0  0  0
   21.7655   19.4796   25.5160 H   0  0  0  0  0  0  0  0  0  0  0  0
   21.2090   17.8414   25.8158 H   0  0  0  0  0  0  0  0  0  0  0  0
   19.6273   19.3215   25.7889 C   0  0  0  0  0  0  0  0  0  0  0  0
   19.7082   19.5267   26.8598 H   0  0  0  0  0  0  0  0  0  0  0  0
   19.3960   20.2609   25.2802 H   0  0  0  0  0  0  0  0  0  0  0  0
   18.4588   18.3771   25.5872 N   0  3  0  0  0  0  0  0  0  0  0  0
   18.6032   17.4858   26.0727 H   0  0  0  0  0  0  0  0  0  0  0  0
   18.3138   18.1633   24.5959 H   0  0  0  0  0  0  0  0  0  0  0  0
   17.5825   18.7739   25.9434 H   0  0  0  0  0  0  0  0  0  0  0  0
  1  2  1  0  0  0  0
  1  3  1  0  0  0  0
  1  4  1  0  0  0  0
  1  5  1  0  0  0  0
  5  6  1  0  0  0  0
  5  7  1  0  0  0  0
  5  8  1  0  0  0  0
  8  9  1  0  0  0  0
  8 10  1  0  0  0  0
  8 11  1  0  0  0  0
 11 12  1  0  0  0  0
 11 13  1  0  0  0  0
 11 14  1  0  0  0  0
 14 15  1  0  0  0  0
 14 16  1  0  0  0  0
 14 17  1  0  0  0  0
 17 18  1  0  0  0  0
 17 19  1  0  0  0  0
 17 20  1  0  0  0  0
 20 21  1  0  0  0  0
 20 22  1  0  0  0  0
 20 23  1  0  0  0  0
 23 24  1  0  0  0  0
 23 25  1  0  0  0  0
 23 26  1  0  0  0  0
M  END
> <VM2 Rank>
94

> <Conf_Id>
862

> <Probability>
0.10

> <Sum Probability>
98.46

> <Delta G>
2.556

> <G>
50.817

> <E>
17.764

> <-TS>
33.053

> <U+W>
-3.698

> <U>
50.414

> <W>
-54.112

> <W(PB)>
-56.311

> <W(SA)>
2.199

> <Valence>
3.472

> <Coulomb>
46.374

> <VdW>
0.568

> <VdW6>
-8.861

> <VdW12>
9.429

> <Bond>
0.255

> <Angle>
1.219

> <Pdih>
1.997

> <Idih>
0.000

> <Tether>
0.000

$$$$
VeraChem MOL file


 26 25  0  0  0  0  0  0  0  0999 V2000     
   20.8778   20.3567   21.0044 C   0  0  0  0  0  0  0  0  0  0  0  0
   20.9622   20.5929   22.0719 H   0  0  0  0  0  0  0  0  0  0  0  0
   21.8222   20.6465   20.5259 H   0  0  0  0  0  0  0  0  0  0  0  0
   20.0801   20.9779   20.5767 H   0  0  0  0  0  0  0  0  0  0  0  0
   20.5939   18.8548   20.7762 C   0  0  0  0  0  0  0  0  0  0  0  0
   21.3954   18.2531   21.2250 H   0  0  0  0  0  0  0  0  0  0  0  0
   20.6323   18.6483   19.6975 H   0  0  0  0  0  0  0  0  0  0  0  0
   19.2141   18.3992   21.3158 C   0  0  0  0  0  0  0  0  0  0  0  0
   18.4253   18.9348   20.7699 H   0  0  0  0  0  0  0  0  0  0  0  0
   19.0745   17.3357   21.0782 H   0  0  0  0  0  0  0  0  0  0  0  0
   18.9968   18.6089   22.8365 C   0  0  0  0  0  0  0  0  0  0  0  0
   17.9816   18.2738   23.0896 H   0  0  0  0  0  0  0  0  0  0  0  0
   19.0274   19.6811   23.0682 H   0  0  0  0  0  0  0  0  0  0  0  0
   20.0142   17.8393   23.7160 C   0  0  0  0  0  0  0  0  0  0  0  0
   20.0227   16.7827   23.4152 H   0  0  0  0  0  0  0  0  0  0  0  0
   21.0292   18.2167   23.5387 H   0  0  0  0  0  0  0  0  0  0  0  0
   19.6899   17.9199   25.2287 C   0  0  0  0  0  0  0  0  0  0  0  0
   20.4187   17.3194   25.7892 H   0  0  0  0  0  0  0  0  0  0  0  0
   18.7092   17.4618   25.4138 H   0  0  0  0  0  0  0  0  0  0  0  0
   19.6796   19.3559   25.7907 C   0  0  0  0  0  0  0  0  0  0  0  0
   18.9308   19.9536   25.2648 H   0  0  0  0  0  0  0  0  0  0  0  0
   19.4096   19.3293   26.8499 H   0  0  0  0  0  0  0  0  0  0  0  0
   21.0146   20.0642   25.6727 N   0  3  0  0  0  0  0  0  0  0  0  0
   21.3140   20.1439   24.6963 H   0  0  0  0  0  0  0  0  0  0  0  0
   21.7545   19.5659   26.1781 H   0  0  0  0  0  0  0  0  0  0  0  0
   20.9769   21.0145   26.0571 H   0  0  0  0  0  0  0  0  0  0  0  0
  1  2  1  0  0  0  0
  1  3  1  0  0  0  0
  1  4  1  0  0  0  0
  1  5  1  0  0  0  0
  5  6  1  0  0  0  0
  5  7  1  0  0  0  0
  5  8  1  0  0  0  0
  8  9  1  0  0  0  0
  8 10  1  0  0  0  0
  8 11  1  0  0  0  0
 11 12  1  0  0  0  0
 11 13  1  0  0  0  0
 11 14  1  0  0  0  0
 14 15  1  0  0  0  0
 14 16  1  0  0  0  0
 14 17  1  0  0  0  0
 17 18  1  0  0  0  0
 17 19  1  0  0  0  0
 17 20  1  0  0  0  0
 20 21  1  0  0  0  0
 20 22  1  0  0  0  0
 20 23  1  0  0  0  0
 23 24  1  0  0  0  0
 23 25  1  0  0  0  0
 23 26  1  0  0  0  0
M  END
> <VM2 Rank>
95

> <Conf_Id>
1108

> <Probability>
0.09

> <Sum Probability>
98.56

> <Delta G>
2.618

> <G>
50.879

> <E>
17.826

> <-TS>
33.053

> <U+W>
-3.636

> <U>
50.414

> <W>
-54.049

> <W(PB)>
-56.263

> <W(SA)>
2.213

> <Valence>
3.472

> <Coulomb>
46.374

> <VdW>
0.568

> <VdW6>
-8.861

> <VdW12>
9.429

> <Bond>
0.255

> <Angle>
1.219

> <Pdih>
1.997

> <Idih>
0.000

> <Tether>
0.000

$$$$
VeraChem MOL file


 26 25  0  0  0  0  0  0  0  0999 V2000     
   20.5913   19.2036   19.9560 C   0  0  0  0  0  0  0  0  0  0  0  0
   21.4023   19.7190   20.4853 H   0  0  0  0  0  0  0  0  0  0  0  0
   21.0456   18.6102   19.1521 H   0  0  0  0  0  0  0  0  0  0  0  0
   19.9472   19.9615   19.4916 H   0  0  0  0  0  0  0  0  0  0  0  0
   19.7814   18.2951   20.9083 C   0  0  0  0  0  0  0  0  0  0  0  0
   20.4488   17.5562   21.3714 H   0  0  0  0  0  0  0  0  0  0  0  0
   19.0577   17.7180   20.3160 H   0  0  0  0  0  0  0  0  0  0  0  0
   19.0113   19.0806   22.0000 C   0  0  0  0  0  0  0  0  0  0  0  0
   18.2829   19.7426   21.5119 H   0  0  0  0  0  0  0  0  0  0  0  0
   18.4156   18.3746   22.5937 H   0  0  0  0  0  0  0  0  0  0  0  0
   19.8972   19.9329   22.9479 C   0  0  0  0  0  0  0  0  0  0  0  0
   19.2477   20.4413   23.6729 H   0  0  0  0  0  0  0  0  0  0  0  0
   20.3728   20.7382   22.3726 H   0  0  0  0  0  0  0  0  0  0  0  0
   20.9973   19.1440   23.7076 C   0  0  0  0  0  0  0  0  0  0  0  0
   21.7311   18.7557   22.9889 H   0  0  0  0  0  0  0  0  0  0  0  0
   21.5560   19.8427   24.3444 H   0  0  0  0  0  0  0  0  0  0  0  0
   20.4721   17.9702   24.5750 C   0  0  0  0  0  0  0  0  0  0  0  0
   21.3168   17.4983   25.0940 H   0  0  0  0  0  0  0  0  0  0  0  0
   20.0465   17.1938   23.9266 H   0  0  0  0  0  0  0  0  0  0  0  0
   19.4109   18.3866   25.6131 C   0  0  0  0  0  0  0  0  0  0  0  0
   18.5510   18.8294   25.1040 H   0  0  0  0  0  0  0  0  0  0  0  0
   19.0667   17.5023   26.1561 H   0  0  0  0  0  0  0  0  0  0  0  0
   19.9195   19.3859   26.6331 N   0  3  0  0  0  0  0  0  0  0  0  0
   19.1939   19.6416   27.3114 H   0  0  0  0  0  0  0  0  0  0  0  0
   20.2347   20.2527   26.1867 H   0  0  0  0  0  0  0  0  0  0  0  0
   20.7118   19.0143   27.1669 H   0  0  0  0  0  0  0  0  0  0  0  0
  1  2  1  0  0  0  0
  1  3  1  0  0  0  0
  1  4  1  0  0  0  0
  1  5  1  0  0  0  0
  5  6  1  0  0  0  0
  5  7  1  0  0  0  0
  5  8  1  0  0  0  0
  8  9  1  0  0  0  0
  8 10  1  0  0  0  0
  8 11  1  0  0  0  0
 11 12  1  0  0  0  0
 11 13  1  0  0  0  0
 11 14  1  0  0  0  0
 14 15  1  0  0  0  0
 14 16  1  0  0  0  0
 14 17  1  0  0  0  0
 17 18  1  0  0  0  0
 17 19  1  0  0  0  0
 17 20  1  0  0  0  0
 20 21  1  0  0  0  0
 20 22  1  0  0  0  0
 20 23  1  0  0  0  0
 23 24  1  0  0  0  0
 23 25  1  0  0  0  0
 23 26  1  0  0  0  0
M  END
> <VM2 Rank>
96

> <Conf_Id>
825

> <Probability>
0.08

> <Sum Probability>
98.64

> <Delta G>
2.670

> <G>
50.931

> <E>
17.404

> <-TS>
33.527

> <U+W>
-4.058

> <U>
50.051

> <W>
-54.109

> <W(PB)>
-56.310

> <W(SA)>
2.201

> <Valence>
3.896

> <Coulomb>
45.624

> <VdW>
0.532

> <VdW6>
-9.866

> <VdW12>
10.398

> <Bond>
0.306

> <Angle>
1.609

> <Pdih>
1.981

> <Idih>
0.000

> <Tether>
0.000

$$$$
VeraChem MOL file


 26 25  0  0  0  0  0  0  0  0999 V2000     
   20.5432   19.0161   19.2135 C   0  0  0  0  0  0  0  0  0  0  0  0
   19.5545   18.7090   18.8483 H   0  0  0  0  0  0  0  0  0  0  0  0
   20.6242   20.1056   19.1060 H   0  0  0  0  0  0  0  0  0  0  0  0
   21.2999   18.5563   18.5647 H   0  0  0  0  0  0  0  0  0  0  0  0
   20.7503   18.5866   20.6814 C   0  0  0  0  0  0  0  0  0  0  0  0
   21.7591   18.8769   21.0070 H   0  0  0  0  0  0  0  0  0  0  0  0
   20.6974   17.4910   20.7515 H   0  0  0  0  0  0  0  0  0  0  0  0
   19.6970   19.2206   21.6169 C   0  0  0  0  0  0  0  0  0  0  0  0
   19.7526   20.3156   21.5425 H   0  0  0  0  0  0  0  0  0  0  0  0
   18.6909   18.9302   21.2842 H   0  0  0  0  0  0  0  0  0  0  0  0
   19.9001   18.7918   23.0877 C   0  0  0  0  0  0  0  0  0  0  0  0
   20.9094   19.0837   23.4028 H   0  0  0  0  0  0  0  0  0  0  0  0
   19.8355   17.6973   23.1613 H   0  0  0  0  0  0  0  0  0  0  0  0
   18.8515   19.4392   24.0231 C   0  0  0  0  0  0  0  0  0  0  0  0
   18.9925   20.5289   24.0331 H   0  0  0  0  0  0  0  0  0  0  0  0
   17.8490   19.2643   23.6087 H   0  0  0  0  0  0  0  0  0  0  0  0
   18.8713   18.9032   25.4775 C   0  0  0  0  0  0  0  0  0  0  0  0
   18.6695   17.8239   25.4903 H   0  0  0  0  0  0  0  0  0  0  0  0
   18.0390   19.3715   26.0197 H   0  0  0  0  0  0  0  0  0  0  0  0
   20.1685   19.2077   26.2552 C   0  0  0  0  0  0  0  0  0  0  0  0
   20.5147   20.2176   26.0192 H   0  0  0  0  0  0  0  0  0  0  0  0
   19.9592   19.1631   27.3274 H   0  0  0  0  0  0  0  0  0  0  0  0
   21.2991   18.2338   25.9855 N   0  3  0  0  0  0  0  0  0  0  0  0
   21.0435   17.2753   26.2443 H   0  0  0  0  0  0  0  0  0  0  0  0
   22.1418   18.4725   26.5197 H   0  0  0  0  0  0  0  0  0  0  0  0
   21.5617   18.2203   24.9962 H   0  0  0  0  0  0  0  0  0  0  0  0
  1  2  1  0  0  0  0
  1  3  1  0  0  0  0
  1  4  1  0  0  0  0
  1  5  1  0  0  0  0
  5  6  1  0  0  0  0
  5  7  1  0  0  0  0
  5  8  1  0  0  0  0
  8  9  1  0  0  0  0
  8 10  1  0  0  0  0
  8 11  1  0  0  0  0
 11 12  1  0  0  0  0
 11 13  1  0  0  0  0
 11 14  1  0  0  0  0
 14 15  1  0  0  0  0
 14 16  1  0  0  0  0
 14 17  1  0  0  0  0
 17 18  1  0  0  0  0
 17 19  1  0  0  0  0
 17 20  1  0  0  0  0
 20 21  1  0  0  0  0
 20 22  1  0  0  0  0
 20 23  1  0  0  0  0
 23 24  1  0  0  0  0
 23 25  1  0  0  0  0
 23 26  1  0  0  0  0
M  END
> <VM2 Rank>
97

> <Conf_Id>
253

> <Probability>
0.07

> <Sum Probability>
98.71

> <Delta G>
2.756

> <G>
51.017

> <E>
18.518

> <-TS>
32.499

> <U+W>
-2.944

> <U>
50.881

> <W>
-53.825

> <W(PB)>
-56.140

> <W(SA)>
2.315

> <Valence>
3.754

> <Coulomb>
46.574

> <VdW>
0.552

> <VdW6>
-7.276

> <VdW12>
7.828

> <Bond>
0.187

> <Angle>
0.957

> <Pdih>
2.610

> <Idih>
0.000

> <Tether>
0.000

$$$$
VeraChem MOL file


 26 25  0  0  0  0  0  0  0  0999 V2000     
   19.9070   18.5964   19.1923 C   0  0  0  0  0  0  0  0  0  0  0  0
   20.0619   17.7399   18.5234 H   0  0  0  0  0  0  0  0  0  0  0  0
   18.8798   18.9557   19.0475 H   0  0  0  0  0  0  0  0  0  0  0  0
   20.5950   19.3941   18.8832 H   0  0  0  0  0  0  0  0  0  0  0  0
   20.1512   18.1917   20.6616 C   0  0  0  0  0  0  0  0  0  0  0  0
   19.4726   17.3701   20.9306 H   0  0  0  0  0  0  0  0  0  0  0  0
   21.1747   17.8054   20.7679 H   0  0  0  0  0  0  0  0  0  0  0  0
   19.9396   19.3805   21.6250 C   0  0  0  0  0  0  0  0  0  0  0  0
   20.6175   20.2000   21.3486 H   0  0  0  0  0  0  0  0  0  0  0  0
   18.9158   19.7641   21.5144 H   0  0  0  0  0  0  0  0  0  0  0  0
   20.1849   18.9797   23.0973 C   0  0  0  0  0  0  0  0  0  0  0  0
   21.2119   18.6048   23.2075 H   0  0  0  0  0  0  0  0  0  0  0  0
   19.5053   18.1584   23.3559 H   0  0  0  0  0  0  0  0  0  0  0  0
   19.9590   20.1695   24.0601 C   0  0  0  0  0  0  0  0  0  0  0  0
   20.5329   21.0339   23.6983 H   0  0  0  0  0  0  0  0  0  0  0  0
   18.9024   20.4697   24.0300 H   0  0  0  0  0  0  0  0  0  0  0  0
   20.3756   19.8953   25.5278 C   0  0  0  0  0  0  0  0  0  0  0  0
   20.2471   20.8277   26.0936 H   0  0  0  0  0  0  0  0  0  0  0  0
   21.4456   19.6546   25.5831 H   0  0  0  0  0  0  0  0  0  0  0  0
   19.5502   18.8000   26.2344 C   0  0  0  0  0  0  0  0  0  0  0  0
   19.6233   18.9417   27.3161 H   0  0  0  0  0  0  0  0  0  0  0  0
   18.4978   18.8874   25.9515 H   0  0  0  0  0  0  0  0  0  0  0  0
   20.0134   17.3859   25.9425 N   0  3  0  0  0  0  0  0  0  0  0  0
   20.9821   17.2348   26.2423 H   0  0  0  0  0  0  0  0  0  0  0  0
   19.9689   17.1698   24.9428 H   0  0  0  0  0  0  0  0  0  0  0  0
   19.4383   16.6895   26.4291 H   0  0  0  0  0  0  0  0  0  0  0  0
  1  2  1  0  0  0  0
  1  3  1  0  0  0  0
  1  4  1  0  0  0  0
  1  5  1  0  0  0  0
  5  6  1  0  0  0  0
  5  7  1  0  0  0  0
  5  8  1  0  0  0  0
  8  9  1  0  0  0  0
  8 10  1  0  0  0  0
  8 11  1  0  0  0  0
 11 12  1  0  0  0  0
 11 13  1  0  0  0  0
 11 14  1  0  0  0  0
 14 15  1  0  0  0  0
 14 16  1  0  0  0  0
 14 17  1  0  0  0  0
 17 18  1  0  0  0  0
 17 19  1  0  0  0  0
 17 20  1  0  0  0  0
 20 21  1  0  0  0  0
 20 22  1  0  0  0  0
 20 23  1  0  0  0  0
 23 24  1  0  0  0  0
 23 25  1  0  0  0  0
 23 26  1  0  0  0  0
M  END
> <VM2 Rank>
98

> <Conf_Id>
1082

> <Probability>
0.07

> <Sum Probability>
98.78

> <Delta G>
2.775

> <G>
51.037

> <E>
18.536

> <-TS>
32.500

> <U+W>
-2.925

> <U>
50.881

> <W>
-53.807

> <W(PB)>
-56.131

> <W(SA)>
2.324

> <Valence>
3.754

> <Coulomb>
46.574

> <VdW>
0.553

> <VdW6>
-7.276

> <VdW12>
7.829

> <Bond>
0.187

> <Angle>
0.957

> <Pdih>
2.610

> <Idih>
0.000

> <Tether>
0.000

$$$$
VeraChem MOL file


 26 25  0  0  0  0  0  0  0  0999 V2000     
   20.5849   20.3112   19.8923 C   0  0  0  0  0  0  0  0  0  0  0  0
   21.0330   21.1024   20.5076 H   0  0  0  0  0  0  0  0  0  0  0  0
   21.1775   20.2235   18.9725 H   0  0  0  0  0  0  0  0  0  0  0  0
   19.5721   20.6286   19.6117 H   0  0  0  0  0  0  0  0  0  0  0  0
   20.5549   18.9677   20.6514 C   0  0  0  0  0  0  0  0  0  0  0  0
   21.5830   18.6604   20.8891 H   0  0  0  0  0  0  0  0  0  0  0  0
   20.1344   18.1898   19.9987 H   0  0  0  0  0  0  0  0  0  0  0  0
   19.7258   19.0632   21.9513 C   0  0  0  0  0  0  0  0  0  0  0  0
   20.1455   19.8525   22.5852 H   0  0  0  0  0  0  0  0  0  0  0  0
   18.6997   19.3699   21.7058 H   0  0  0  0  0  0  0  0  0  0  0  0
   19.6918   17.7134   22.7099 C   0  0  0  0  0  0  0  0  0  0  0  0
   20.7124   17.3771   22.9391 H   0  0  0  0  0  0  0  0  0  0  0  0
   19.2671   16.9557   22.0368 H   0  0  0  0  0  0  0  0  0  0  0  0
   18.8384   17.7439   24.0048 C   0  0  0  0  0  0  0  0  0  0  0  0
   17.9764   18.4133   23.8773 H   0  0  0  0  0  0  0  0  0  0  0  0
   18.4156   16.7413   24.1581 H   0  0  0  0  0  0  0  0  0  0  0  0
   19.6219   18.1198   25.2878 C   0  0  0  0  0  0  0  0  0  0  0  0
   20.4346   17.3985   25.4463 H   0  0  0  0  0  0  0  0  0  0  0  0
   18.9482   18.0223   26.1495 H   0  0  0  0  0  0  0  0  0  0  0  0
   20.2007   19.5454   25.2687 C   0  0  0  0  0  0  0  0  0  0  0  0
   20.9512   19.6265   24.4787 H   0  0  0  0  0  0  0  0  0  0  0  0
   19.4028   20.2650   25.0665 H   0  0  0  0  0  0  0  0  0  0  0  0
   20.8626   19.9343   26.5748 N   0  3  0  0  0  0  0  0  0  0  0  0
   21.2442   20.8859   26.5403 H   0  0  0  0  0  0  0  0  0  0  0  0
   21.6404   19.3091   26.8100 H   0  0  0  0  0  0  0  0  0  0  0  0
   20.2042   19.9053   27.3602 H   0  0  0  0  0  0  0  0  0  0  0  0
  1  2  1  0  0  0  0
  1  3  1  0  0  0  0
  1  4  1  0  0  0  0
  1  5  1  0  0  0  0
  5  6  1  0  0  0  0
  5  7  1  0  0  0  0
  5  8  1  0  0  0  0
  8  9  1  0  0  0  0
  8 10  1  0  0  0  0
  8 11  1  0  0  0  0
 11 12  1  0  0  0  0
 11 13  1  0  0  0  0
 11 14  1  0  0  0  0
 14 15  1  0  0  0  0
 14 16  1  0  0  0  0
 14 17  1  0  0  0  0
 17 18  1  0  0  0  0
 17 19  1  0  0  0  0
 17 20  1  0  0  0  0
 20 21  1  0  0  0  0
 20 22  1  0  0  0  0
 20 23  1  0  0  0  0
 23 24  1  0  0  0  0
 23 25  1  0  0  0  0
 23 26  1  0  0  0  0
M  END
> <VM2 Rank>
99

> <Conf_Id>
251

> <Probability>
0.07

> <Sum Probability>
98.85

> <Delta G>
2.782

> <G>
51.043

> <E>
18.556

> <-TS>
32.487

> <U+W>
-2.906

> <U>
50.868

> <W>
-53.774

> <W(PB)>
-56.095

> <W(SA)>
2.321

> <Valence>
4.695

> <Coulomb>
45.536

> <VdW>
0.636

> <VdW6>
-7.287

> <VdW12>
7.923

> <Bond>
0.211

> <Angle>
1.115

> <Pdih>
3.370

> <Idih>
0.000

> <Tether>
0.000

$$$$
VeraChem MOL file


 26 25  0  0  0  0  0  0  0  0999 V2000     
   18.6694   19.0473   19.8282 C   0  0  0  0  0  0  0  0  0  0  0  0
   18.5603   18.4965   18.8850 H   0  0  0  0  0  0  0  0  0  0  0  0
   17.7381   18.9287   20.3973 H   0  0  0  0  0  0  0  0  0  0  0  0
   18.7884   20.1113   19.5852 H   0  0  0  0  0  0  0  0  0  0  0  0
   19.8799   18.5223   20.6289 C   0  0  0  0  0  0  0  0  0  0  0  0
   20.7899   18.6220   20.0207 H   0  0  0  0  0  0  0  0  0  0  0  0
   19.7476   17.4496   20.8280 H   0  0  0  0  0  0  0  0  0  0  0  0
   20.0570   19.2818   21.9624 C   0  0  0  0  0  0  0  0  0  0  0  0
   20.1894   20.3527   21.7554 H   0  0  0  0  0  0  0  0  0  0  0  0
   19.1378   19.1879   22.5515 H   0  0  0  0  0  0  0  0  0  0  0  0
   21.2750   18.7581   22.7628 C   0  0  0  0  0  0  0  0  0  0  0  0
   22.1690   18.8703   22.1338 H   0  0  0  0  0  0  0  0  0  0  0  0
   21.1727   17.6810   22.9546 H   0  0  0  0  0  0  0  0  0  0  0  0
   21.5215   19.5143   24.0945 C   0  0  0  0  0  0  0  0  0  0  0  0
   22.6013   19.5031   24.2979 H   0  0  0  0  0  0  0  0  0  0  0  0
   21.2507   20.5738   23.9867 H   0  0  0  0  0  0  0  0  0  0  0  0
   20.8092   18.9033   25.3275 C   0  0  0  0  0  0  0  0  0  0  0  0
   21.1229   19.4575   26.2222 H   0  0  0  0  0  0  0  0  0  0  0  0
   21.1457   17.8677   25.4702 H   0  0  0  0  0  0  0  0  0  0  0  0
   19.2734   18.9335   25.2376 C   0  0  0  0  0  0  0  0  0  0  0  0
   18.9347   19.9560   25.0508 H   0  0  0  0  0  0  0  0  0  0  0  0
   18.9413   18.3001   24.4115 H   0  0  0  0  0  0  0  0  0  0  0  0
   18.5957   18.4385   26.4990 N   0  3  0  0  0  0  0  0  0  0  0  0
   18.8540   17.4705   26.7169 H   0  0  0  0  0  0  0  0  0  0  0  0
   17.5734   18.4637   26.4176 H   0  0  0  0  0  0  0  0  0  0  0  0
   18.8439   19.0079   27.3147 H   0  0  0  0  0  0  0  0  0  0  0  0
  1  2  1  0  0  0  0
  1  3  1  0  0  0  0
  1  4  1  0  0  0  0
  1  5  1  0  0  0  0
  5  6  1  0  0  0  0
  5  7  1  0  0  0  0
  5  8  1  0  0  0  0
  8  9  1  0  0  0  0
  8 10  1  0  0  0  0
  8 11  1  0  0  0  0
 11 12  1  0  0  0  0
 11 13  1  0  0  0  0
 11 14  1  0  0  0  0
 14 15  1  0  0  0  0
 14 16  1  0  0  0  0
 14 17  1  0  0  0  0
 17 18  1  0  0  0  0
 17 19  1  0  0  0  0
 17 20  1  0  0  0  0
 20 21  1  0  0  0  0
 20 22  1  0  0  0  0
 20 23  1  0  0  0  0
 23 24  1  0  0  0  0
 23 25  1  0  0  0  0
 23 26  1  0  0  0  0
M  END
> <VM2 Rank>
100

> <Conf_Id>
548

> <Probability>
0.06

> <Sum Probability>
98.92

> <Delta G>
2.859

> <G>
51.120

> <E>
18.633

> <-TS>
32.487

> <U+W>
-2.829

> <U>
50.868

> <W>
-53.697

> <W(PB)>
-56.030

> <W(SA)>
2.333

> <Valence>
4.696

> <Coulomb>
45.536

> <VdW>
0.636

> <VdW6>
-7.287

> <VdW12>
7.923

> <Bond>
0.211

> <Angle>
1.115

> <Pdih>
3.370

> <Idih>
0.000

> <Tether>
0.000

$$$$
VeraChem MOL file


 26 25  0  0  0  0  0  0  0  0999 V2000     
   20.5645   20.4473   20.0732 C   0  0  0  0  0  0  0  0  0  0  0  0
   21.4046   20.9009   20.6152 H   0  0  0  0  0  0  0  0  0  0  0  0
   20.8206   20.4332   19.0058 H   0  0  0  0  0  0  0  0  0  0  0  0
   19.6864   21.0937   20.2006 H   0  0  0  0  0  0  0  0  0  0  0  0
   20.2807   19.0189   20.5844 C   0  0  0  0  0  0  0  0  0  0  0  0
   21.1644   18.3881   20.4139 H   0  0  0  0  0  0  0  0  0  0  0  0
   19.4599   18.5798   20.0001 H   0  0  0  0  0  0  0  0  0  0  0  0
   19.9162   19.0110   22.0855 C   0  0  0  0  0  0  0  0  0  0  0  0
   20.7430   19.4590   22.6513 H   0  0  0  0  0  0  0  0  0  0  0  0
   19.0291   19.6380   22.2501 H   0  0  0  0  0  0  0  0  0  0  0  0
   19.6459   17.5791   22.6037 C   0  0  0  0  0  0  0  0  0  0  0  0
   20.5712   16.9895   22.5448 H   0  0  0  0  0  0  0  0  0  0  0  0
   18.9279   17.0868   21.9332 H   0  0  0  0  0  0  0  0  0  0  0  0
   19.0819   17.5112   24.0467 C   0  0  0  0  0  0  0  0  0  0  0  0
   18.1020   18.0066   24.0929 H   0  0  0  0  0  0  0  0  0  0  0  0
   18.8914   16.4540   24.2782 H   0  0  0  0  0  0  0  0  0  0  0  0
   20.0175   18.0831   25.1415 C   0  0  0  0  0  0  0  0  0  0  0  0
   21.0642   17.8536   24.9015 H   0  0  0  0  0  0  0  0  0  0  0  0
   19.7979   17.5739   26.0895 H   0  0  0  0  0  0  0  0  0  0  0  0
   19.8369   19.5981   25.3601 C   0  0  0  0  0  0  0  0  0  0  0  0
   20.0526   20.1427   24.4391 H   0  0  0  0  0  0  0  0  0  0  0  0
   18.8017   19.8056   25.6444 H   0  0  0  0  0  0  0  0  0  0  0  0
   20.7375   20.1503   26.4459 N   0  3  0  0  0  0  0  0  0  0  0  0
   20.5995   21.1580   26.5797 H   0  0  0  0  0  0  0  0  0  0  0  0
   21.7295   20.0111   26.2273 H   0  0  0  0  0  0  0  0  0  0  0  0
   20.5625   19.7027   27.3515 H   0  0  0  0  0  0  0  0  0  0  0  0
  1  2  1  0  0  0  0
  1  3  1  0  0  0  0
  1  4  1  0  0  0  0
  1  5  1  0  0  0  0
  5  6  1  0  0  0  0
  5  7  1  0  0  0  0
  5  8  1  0  0  0  0
  8  9  1  0  0  0  0
  8 10  1  0  0  0  0
  8 11  1  0  0  0  0
 11 12  1  0  0  0  0
 11 13  1  0  0  0  0
 11 14  1  0  0  0  0
 14 15  1  0  0  0  0
 14 16  1  0  0  0  0
 14 17  1  0  0  0  0
 17 18  1  0  0  0  0
 17 19  1  0  0  0  0
 17 20  1  0  0  0  0
 20 21  1  0  0  0  0
 20 22  1  0  0  0  0
 20 23  1  0  0  0  0
 23 24  1  0  0  0  0
 23 25  1  0  0  0  0
 23 26  1  0  0  0  0
M  END
> <VM2 Rank>
101

> <Conf_Id>
1115

> <Probability>
0.06

> <Sum Probability>
98.98

> <Delta G>
2.861

> <G>
51.122

> <E>
18.434

> <-TS>
32.689

> <U+W>
-3.028

> <U>
50.862

> <W>
-53.891

> <W(PB)>
-56.211

> <W(SA)>
2.321

> <Valence>
4.548

> <Coulomb>
45.757

> <VdW>
0.557

> <VdW6>
-7.490

> <VdW12>
8.047

> <Bond>
0.198

> <Angle>
1.148

> <Pdih>
3.202

> <Idih>
0.000

> <Tether>
0.000

$$$$
VeraChem MOL file


 26 25  0  0  0  0  0  0  0  0999 V2000     
   18.5438   19.1138   20.0057 C   0  0  0  0  0  0  0  0  0  0  0  0
   18.5060   18.9058   18.9286 H   0  0  0  0  0  0  0  0  0  0  0  0
   17.7724   18.5039   20.4939 H   0  0  0  0  0  0  0  0  0  0  0  0
   18.2883   20.1711   20.1539 H   0  0  0  0  0  0  0  0  0  0  0  0
   19.9436   18.7965   20.5731 C   0  0  0  0  0  0  0  0  0  0  0  0
   20.6961   19.3956   20.0414 H   0  0  0  0  0  0  0  0  0  0  0  0
   20.1846   17.7415   20.3812 H   0  0  0  0  0  0  0  0  0  0  0  0
   20.0240   19.0821   22.0891 C   0  0  0  0  0  0  0  0  0  0  0  0
   19.7881   20.1389   22.2755 H   0  0  0  0  0  0  0  0  0  0  0  0
   19.2619   18.4815   22.6018 H   0  0  0  0  0  0  0  0  0  0  0  0
   21.4215   18.7508   22.6630 C   0  0  0  0  0  0  0  0  0  0  0  0
   22.1865   19.2374   22.0421 H   0  0  0  0  0  0  0  0  0  0  0  0
   21.6030   17.6704   22.5793 H   0  0  0  0  0  0  0  0  0  0  0  0
   21.6379   19.1979   24.1322 C   0  0  0  0  0  0  0  0  0  0  0  0
   22.6731   18.9495   24.4046 H   0  0  0  0  0  0  0  0  0  0  0  0
   21.5649   20.2917   24.2087 H   0  0  0  0  0  0  0  0  0  0  0  0
   20.6946   18.5299   25.1641 C   0  0  0  0  0  0  0  0  0  0  0  0
   21.2043   18.5019   26.1364 H   0  0  0  0  0  0  0  0  0  0  0  0
   20.5060   17.4853   24.8827 H   0  0  0  0  0  0  0  0  0  0  0  0
   19.3635   19.2857   25.3443 C   0  0  0  0  0  0  0  0  0  0  0  0
   19.5656   20.3096   25.6701 H   0  0  0  0  0  0  0  0  0  0  0  0
   18.8215   19.3305   24.3979 H   0  0  0  0  0  0  0  0  0  0  0  0
   18.4522   18.6423   26.3693 N   0  3  0  0  0  0  0  0  0  0  0  0
   18.2012   17.6829   26.1091 H   0  0  0  0  0  0  0  0  0  0  0  0
   17.5744   19.1618   26.4784 H   0  0  0  0  0  0  0  0  0  0  0  0
   18.8899   18.5988   27.2955 H   0  0  0  0  0  0  0  0  0  0  0  0
  1  2  1  0  0  0  0
  1  3  1  0  0  0  0
  1  4  1  0  0  0  0
  1  5  1  0  0  0  0
  5  6  1  0  0  0  0
  5  7  1  0  0  0  0
  5  8  1  0  0  0  0
  8  9  1  0  0  0  0
  8 10  1  0  0  0  0
  8 11  1  0  0  0  0
 11 12  1  0  0  0  0
 11 13  1  0  0  0  0
 11 14  1  0  0  0  0
 14 15  1  0  0  0  0
 14 16  1  0  0  0  0
 14 17  1  0  0  0  0
 17 18  1  0  0  0  0
 17 19  1  0  0  0  0
 17 20  1  0  0  0  0
 20 21  1  0  0  0  0
 20 22  1  0  0  0  0
 20 23  1  0  0  0  0
 23 24  1  0  0  0  0
 23 25  1  0  0  0  0
 23 26  1  0  0  0  0
M  END
> <VM2 Rank>
102

> <Conf_Id>
1070

> <Probability>
0.06

> <Sum Probability>
99.04

> <Delta G>
2.871

> <G>
51.132

> <E>
18.443

> <-TS>
32.689

> <U+W>
-3.019

> <U>
50.863

> <W>
-53.881

> <W(PB)>
-56.199

> <W(SA)>
2.318

> <Valence>
4.548

> <Coulomb>
45.757

> <VdW>
0.558

> <VdW6>
-7.490

> <VdW12>
8.047

> <Bond>
0.198

> <Angle>
1.148

> <Pdih>
3.203

> <Idih>
0.000

> <Tether>
0.000

$$$$
VeraChem MOL file


 26 25  0  0  0  0  0  0  0  0999 V2000     
   19.8408   20.4592   20.4513 C   0  0  0  0  0  0  0  0  0  0  0  0
   18.8716   20.4149   19.9378 H   0  0  0  0  0  0  0  0  0  0  0  0
   19.6634   20.8010   21.4768 H   0  0  0  0  0  0  0  0  0  0  0  0
   20.4494   21.2213   19.9476 H   0  0  0  0  0  0  0  0  0  0  0  0
   20.5506   19.0858   20.4090 C   0  0  0  0  0  0  0  0  0  0  0  0
   21.5490   19.1573   20.8625 H   0  0  0  0  0  0  0  0  0  0  0  0
   20.7160   18.8231   19.3547 H   0  0  0  0  0  0  0  0  0  0  0  0
   19.7347   17.9498   21.0783 C   0  0  0  0  0  0  0  0  0  0  0  0
   18.6584   18.1527   20.9911 H   0  0  0  0  0  0  0  0  0  0  0  0
   19.9077   17.0250   20.5107 H   0  0  0  0  0  0  0  0  0  0  0  0
   20.1055   17.6648   22.5567 C   0  0  0  0  0  0  0  0  0  0  0  0
   21.1592   17.3593   22.6159 H   0  0  0  0  0  0  0  0  0  0  0  0
   19.5175   16.8013   22.8973 H   0  0  0  0  0  0  0  0  0  0  0  0
   19.8595   18.8514   23.5171 C   0  0  0  0  0  0  0  0  0  0  0  0
   20.5382   19.6767   23.2653 H   0  0  0  0  0  0  0  0  0  0  0  0
   18.8333   19.2230   23.3894 H   0  0  0  0  0  0  0  0  0  0  0  0
   20.0835   18.4527   24.9924 C   0  0  0  0  0  0  0  0  0  0  0  0
   21.1079   18.0792   25.1229 H   0  0  0  0  0  0  0  0  0  0  0  0
   19.4043   17.6329   25.2620 H   0  0  0  0  0  0  0  0  0  0  0  0
   19.8481   19.6431   25.9388 C   0  0  0  0  0  0  0  0  0  0  0  0
   20.5337   20.4563   25.6851 H   0  0  0  0  0  0  0  0  0  0  0  0
   18.8239   20.0080   25.8237 H   0  0  0  0  0  0  0  0  0  0  0  0
   20.0584   19.2921   27.3975 N   0  3  0  0  0  0  0  0  0  0  0  0
   21.0136   18.9666   27.5785 H   0  0  0  0  0  0  0  0  0  0  0  0
   19.4228   18.5497   27.7074 H   0  0  0  0  0  0  0  0  0  0  0  0
   19.8967   20.0986   28.0106 H   0  0  0  0  0  0  0  0  0  0  0  0
  1  2  1  0  0  0  0
  1  3  1  0  0  0  0
  1  4  1  0  0  0  0
  1  5  1  0  0  0  0
  5  6  1  0  0  0  0
  5  7  1  0  0  0  0
  5  8  1  0  0  0  0
  8  9  1  0  0  0  0
  8 10  1  0  0  0  0
  8 11  1  0  0  0  0
 11 12  1  0  0  0  0
 11 13  1  0  0  0  0
 11 14  1  0  0  0  0
 14 15  1  0  0  0  0
 14 16  1  0  0  0  0
 14 17  1  0  0  0  0
 17 18  1  0  0  0  0
 17 19  1  0  0  0  0
 17 20  1  0  0  0  0
 20 21  1  0  0  0  0
 20 22  1  0  0  0  0
 20 23  1  0  0  0  0
 23 24  1  0  0  0  0
 23 25  1  0  0  0  0
 23 26  1  0  0  0  0
M  END
> <VM2 Rank>
103

> <Conf_Id>
727

> <Probability>
0.03

> <Sum Probability>
99.07

> <Delta G>
3.307

> <G>
51.568

> <E>
18.875

> <-TS>
32.693

> <U+W>
-2.586

> <U>
50.680

> <W>
-53.266

> <W(PB)>
-55.566

> <W(SA)>
2.299

> <Valence>
5.154

> <Coulomb>
44.813

> <VdW>
0.713

> <VdW6>
-7.314

> <VdW12>
8.027

> <Bond>
0.213

> <Angle>
1.193

> <Pdih>
3.747

> <Idih>
0.000

> <Tether>
0.000

$$$$
VeraChem MOL file


 26 25  0  0  0  0  0  0  0  0999 V2000     
   18.7995   19.7724   20.4164 C   0  0  0  0  0  0  0  0  0  0  0  0
   18.5075   20.0386   21.4381 H   0  0  0  0  0  0  0  0  0  0  0  0
   19.2447   20.6610   19.9502 H   0  0  0  0  0  0  0  0  0  0  0  0
   17.8840   19.5292   19.8619 H   0  0  0  0  0  0  0  0  0  0  0  0
   19.7844   18.5804   20.3833 C   0  0  0  0  0  0  0  0  0  0  0  0
   20.0098   18.3574   19.3310 H   0  0  0  0  0  0  0  0  0  0  0  0
   19.3056   17.6776   20.7874 H   0  0  0  0  0  0  0  0  0  0  0  0
   21.1169   18.8616   21.1245 C   0  0  0  0  0  0  0  0  0  0  0  0
   21.9249   18.3556   20.5781 H   0  0  0  0  0  0  0  0  0  0  0  0
   21.3571   19.9329   21.0813 H   0  0  0  0  0  0  0  0  0  0  0  0
   21.1644   18.3632   22.5921 C   0  0  0  0  0  0  0  0  0  0  0  0
   22.1725   18.5525   22.9860 H   0  0  0  0  0  0  0  0  0  0  0  0
   21.0286   17.2730   22.6115 H   0  0  0  0  0  0  0  0  0  0  0  0
   20.1262   19.0273   23.5260 C   0  0  0  0  0  0  0  0  0  0  0  0
   20.1935   20.1202   23.4347 H   0  0  0  0  0  0  0  0  0  0  0  0
   19.1134   18.7367   23.2177 H   0  0  0  0  0  0  0  0  0  0  0  0
   20.3359   18.6192   25.0009 C   0  0  0  0  0  0  0  0  0  0  0  0
   21.3430   18.9119   25.3267 H   0  0  0  0  0  0  0  0  0  0  0  0
   20.2709   17.5270   25.0951 H   0  0  0  0  0  0  0  0  0  0  0  0
   19.2908   19.2754   25.9201 C   0  0  0  0  0  0  0  0  0  0  0  0
   19.3628   20.3636   25.8415 H   0  0  0  0  0  0  0  0  0  0  0  0
   18.2866   18.9737   25.6102 H   0  0  0  0  0  0  0  0  0  0  0  0
   19.4630   18.8995   27.3777 N   0  3  0  0  0  0  0  0  0  0  0  0
   19.3787   17.8882   27.5241 H   0  0  0  0  0  0  0  0  0  0  0  0
   18.7571   19.3470   27.9725 H   0  0  0  0  0  0  0  0  0  0  0  0
   20.3800   19.1814   27.7393 H   0  0  0  0  0  0  0  0  0  0  0  0
  1  2  1  0  0  0  0
  1  3  1  0  0  0  0
  1  4  1  0  0  0  0
  1  5  1  0  0  0  0
  5  6  1  0  0  0  0
  5  7  1  0  0  0  0
  5  8  1  0  0  0  0
  8  9  1  0  0  0  0
  8 10  1  0  0  0  0
  8 11  1  0  0  0  0
 11 12  1  0  0  0  0
 11 13  1  0  0  0  0
 11 14  1  0  0  0  0
 14 15  1  0  0  0  0
 14 16  1  0  0  0  0
 14 17  1  0  0  0  0
 17 18  1  0  0  0  0
 17 19  1  0  0  0  0
 17 20  1  0  0  0  0
 20 21  1  0  0  0  0
 20 22  1  0  0  0  0
 20 23  1  0  0  0  0
 23 24  1  0  0  0  0
 23 25  1  0  0  0  0
 23 26  1  0  0  0  0
M  END
> <VM2 Rank>
104

> <Conf_Id>
558

> <Probability>
0.03

> <Sum Probability>
99.10

> <Delta G>
3.307

> <G>
51.569

> <E>
18.875

> <-TS>
32.693

> <U+W>
-2.586

> <U>
50.680

> <W>
-53.266

> <W(PB)>
-55.569

> <W(SA)>
2.303

> <Valence>
5.154

> <Coulomb>
44.813

> <VdW>
0.712

> <VdW6>
-7.314

> <VdW12>
8.027

> <Bond>
0.213

> <Angle>
1.193

> <Pdih>
3.748

> <Idih>
0.000

> <Tether>
0.000

$$$$
VeraChem MOL file


 26 25  0  0  0  0  0  0  0  0999 V2000     
   18.5980   19.0208   20.5787 C   0  0  0  0  0  0  0  0  0  0  0  0
   18.4179   20.0648   20.8660 H   0  0  0  0  0  0  0  0  0  0  0  0
   17.9126   18.7754   19.7572 H   0  0  0  0  0  0  0  0  0  0  0  0
   18.3378   18.3742   21.4258 H   0  0  0  0  0  0  0  0  0  0  0  0
   20.0633   18.8080   20.1404 C   0  0  0  0  0  0  0  0  0  0  0  0
   20.2283   19.3404   19.1932 H   0  0  0  0  0  0  0  0  0  0  0  0
   20.2275   17.7433   19.9232 H   0  0  0  0  0  0  0  0  0  0  0  0
   21.1155   19.2969   21.1684 C   0  0  0  0  0  0  0  0  0  0  0  0
   22.1083   19.1395   20.7245 H   0  0  0  0  0  0  0  0  0  0  0  0
   21.0254   20.3821   21.3139 H   0  0  0  0  0  0  0  0  0  0  0  0
   21.0765   18.5647   22.5352 C   0  0  0  0  0  0  0  0  0  0  0  0
   22.1061   18.4687   22.9069 H   0  0  0  0  0  0  0  0  0  0  0  0
   20.7049   17.5393   22.4023 H   0  0  0  0  0  0  0  0  0  0  0  0
   20.2438   19.3074   23.6088 C   0  0  0  0  0  0  0  0  0  0  0  0
   20.6656   20.3095   23.7682 H   0  0  0  0  0  0  0  0  0  0  0  0
   19.2140   19.4541   23.2619 H   0  0  0  0  0  0  0  0  0  0  0  0
   20.2242   18.5417   24.9501 C   0  0  0  0  0  0  0  0  0  0  0  0
   21.2516   18.4044   25.3131 H   0  0  0  0  0  0  0  0  0  0  0  0
   19.7993   17.5406   24.7978 H   0  0  0  0  0  0  0  0  0  0  0  0
   19.4015   19.2900   26.0137 C   0  0  0  0  0  0  0  0  0  0  0  0
   19.8304   20.2819   26.1803 H   0  0  0  0  0  0  0  0  0  0  0  0
   18.3732   19.4142   25.6636 H   0  0  0  0  0  0  0  0  0  0  0  0
   19.3583   18.5695   27.3458 N   0  3  0  0  0  0  0  0  0  0  0  0
   18.9391   17.6375   27.2628 H   0  0  0  0  0  0  0  0  0  0  0  0
   18.8056   19.0847   28.0397 H   0  0  0  0  0  0  0  0  0  0  0  0
   20.2951   18.4449   27.7434 H   0  0  0  0  0  0  0  0  0  0  0  0
  1  2  1  0  0  0  0
  1  3  1  0  0  0  0
  1  4  1  0  0  0  0
  1  5  1  0  0  0  0
  5  6  1  0  0  0  0
  5  7  1  0  0  0  0
  5  8  1  0  0  0  0
  8  9  1  0  0  0  0
  8 10  1  0  0  0  0
  8 11  1  0  0  0  0
 11 12  1  0  0  0  0
 11 13  1  0  0  0  0
 11 14  1  0  0  0  0
 14 15  1  0  0  0  0
 14 16  1  0  0  0  0
 14 17  1  0  0  0  0
 17 18  1  0  0  0  0
 17 19  1  0  0  0  0
 17 20  1  0  0  0  0
 20 21  1  0  0  0  0
 20 22  1  0  0  0  0
 20 23  1  0  0  0  0
 23 24  1  0  0  0  0
 23 25  1  0  0  0  0
 23 26  1  0  0  0  0
M  END
> <VM2 Rank>
105

> <Conf_Id>
758

> <Probability>
0.03

> <Sum Probability>
99.12

> <Delta G>
3.309

> <G>
51.571

> <E>
18.867

> <-TS>
32.703

> <U+W>
-2.594

> <U>
50.662

> <W>
-53.256

> <W(PB)>
-55.568

> <W(SA)>
2.312

> <Valence>
5.128

> <Coulomb>
44.842

> <VdW>
0.692

> <VdW6>
-7.327

> <VdW12>
8.019

> <Bond>
0.214

> <Angle>
1.153

> <Pdih>
3.761

> <Idih>
0.000

> <Tether>
0.000

$$$$
VeraChem MOL file


 26 25  0  0  0  0  0  0  0  0999 V2000     
   19.3728   20.2472   20.0064 C   0  0  0  0  0  0  0  0  0  0  0  0
   18.3211   20.2834   20.3192 H   0  0  0  0  0  0  0  0  0  0  0  0
   19.8578   21.1777   20.3292 H   0  0  0  0  0  0  0  0  0  0  0  0
   19.3972   20.2175   18.9094 H   0  0  0  0  0  0  0  0  0  0  0  0
   20.0866   19.0146   20.6010 C   0  0  0  0  0  0  0  0  0  0  0  0
   21.1250   18.9873   20.2420 H   0  0  0  0  0  0  0  0  0  0  0  0
   19.6002   18.0995   20.2350 H   0  0  0  0  0  0  0  0  0  0  0  0
   20.0676   19.0330   22.1455 C   0  0  0  0  0  0  0  0  0  0  0  0
   20.5599   19.9463   22.5068 H   0  0  0  0  0  0  0  0  0  0  0  0
   19.0244   19.0675   22.4838 H   0  0  0  0  0  0  0  0  0  0  0  0
   20.7679   17.7906   22.7436 C   0  0  0  0  0  0  0  0  0  0  0  0
   21.7508   17.6720   22.2669 H   0  0  0  0  0  0  0  0  0  0  0  0
   20.1942   16.8895   22.4863 H   0  0  0  0  0  0  0  0  0  0  0  0
   20.9828   17.8460   24.2785 C   0  0  0  0  0  0  0  0  0  0  0  0
   21.5303   16.9377   24.5658 H   0  0  0  0  0  0  0  0  0  0  0  0
   21.6477   18.6811   24.5338 H   0  0  0  0  0  0  0  0  0  0  0  0
   19.6812   17.9043   25.1225 C   0  0  0  0  0  0  0  0  0  0  0  0
   19.8807   17.4749   26.1133 H   0  0  0  0  0  0  0  0  0  0  0  0
   18.9162   17.2626   24.6657 H   0  0  0  0  0  0  0  0  0  0  0  0
   19.1078   19.3232   25.3229 C   0  0  0  0  0  0  0  0  0  0  0  0
   18.9164   19.7966   24.3585 H   0  0  0  0  0  0  0  0  0  0  0  0
   18.1575   19.2538   25.8592 H   0  0  0  0  0  0  0  0  0  0  0  0
   20.0143   20.2400   26.1206 N   0  3  0  0  0  0  0  0  0  0  0  0
   19.5972   21.1679   26.2521 H   0  0  0  0  0  0  0  0  0  0  0  0
   20.9170   20.3794   25.6566 H   0  0  0  0  0  0  0  0  0  0  0  0
   20.2084   19.8643   27.0545 H   0  0  0  0  0  0  0  0  0  0  0  0
  1  2  1  0  0  0  0
  1  3  1  0  0  0  0
  1  4  1  0  0  0  0
  1  5  1  0  0  0  0
  5  6  1  0  0  0  0
  5  7  1  0  0  0  0
  5  8  1  0  0  0  0
  8  9  1  0  0  0  0
  8 10  1  0  0  0  0
  8 11  1  0  0  0  0
 11 12  1  0  0  0  0
 11 13  1  0  0  0  0
 11 14  1  0  0  0  0
 14 15  1  0  0  0  0
 14 16  1  0  0  0  0
 14 17  1  0  0  0  0
 17 18  1  0  0  0  0
 17 19  1  0  0  0  0
 17 20  1  0  0  0  0
 20 21  1  0  0  0  0
 20 22  1  0  0  0  0
 20 23  1  0  0  0  0
 23 24  1  0  0  0  0
 23 25  1  0  0  0  0
 23 26  1  0  0  0  0
M  END
> <VM2 Rank>
106

> <Conf_Id>
285

> <Probability>
0.03

> <Sum Probability>
99.15

> <Delta G>
3.319

> <G>
51.580

> <E>
18.831

> <-TS>
32.749

> <U+W>
-2.631

> <U>
51.398

> <W>
-54.029

> <W(PB)>
-56.346

> <W(SA)>
2.318

> <Valence>
4.709

> <Coulomb>
46.080

> <VdW>
0.609

> <VdW6>
-8.057

> <VdW12>
8.666

> <Bond>
0.231

> <Angle>
1.341

> <Pdih>
3.136

> <Idih>
0.000

> <Tether>
0.000

$$$$
VeraChem MOL file


 26 25  0  0  0  0  0  0  0  0999 V2000     
   19.6945   18.7532   19.3396 C   0  0  0  0  0  0  0  0  0  0  0  0
   20.2782   17.8782   19.0252 H   0  0  0  0  0  0  0  0  0  0  0  0
   18.7295   18.7196   18.8174 H   0  0  0  0  0  0  0  0  0  0  0  0
   20.2255   19.6554   19.0088 H   0  0  0  0  0  0  0  0  0  0  0  0
   19.4866   18.7618   20.8689 C   0  0  0  0  0  0  0  0  0  0  0  0
   18.9275   17.8634   21.1655 H   0  0  0  0  0  0  0  0  0  0  0  0
   18.8664   19.6268   21.1396 H   0  0  0  0  0  0  0  0  0  0  0  0
   20.8339   18.8131   21.6273 C   0  0  0  0  0  0  0  0  0  0  0  0
   21.4670   17.9813   21.2885 H   0  0  0  0  0  0  0  0  0  0  0  0
   21.3713   19.7350   21.3654 H   0  0  0  0  0  0  0  0  0  0  0  0
   20.6809   18.7201   23.1653 C   0  0  0  0  0  0  0  0  0  0  0  0
   21.6835   18.6650   23.6114 H   0  0  0  0  0  0  0  0  0  0  0  0
   20.1688   17.7820   23.4126 H   0  0  0  0  0  0  0  0  0  0  0  0
   19.9154   19.9190   23.7788 C   0  0  0  0  0  0  0  0  0  0  0  0
   20.3211   20.8509   23.3614 H   0  0  0  0  0  0  0  0  0  0  0  0
   18.8597   19.8809   23.4785 H   0  0  0  0  0  0  0  0  0  0  0  0
   19.9985   20.0063   25.3243 C   0  0  0  0  0  0  0  0  0  0  0  0
   19.5053   20.9367   25.6357 H   0  0  0  0  0  0  0  0  0  0  0  0
   21.0441   20.0971   25.6472 H   0  0  0  0  0  0  0  0  0  0  0  0
   19.3141   18.8408   26.0684 C   0  0  0  0  0  0  0  0  0  0  0  0
   19.0887   19.1553   27.0910 H   0  0  0  0  0  0  0  0  0  0  0  0
   18.3712   18.5887   25.5757 H   0  0  0  0  0  0  0  0  0  0  0  0
   20.1571   17.5845   26.1684 N   0  3  0  0  0  0  0  0  0  0  0  0
   20.4045   17.2185   25.2450 H   0  0  0  0  0  0  0  0  0  0  0  0
   19.6660   16.8362   26.6695 H   0  0  0  0  0  0  0  0  0  0  0  0
   21.0338   17.7553   26.6718 H   0  0  0  0  0  0  0  0  0  0  0  0
  1  2  1  0  0  0  0
  1  3  1  0  0  0  0
  1  4  1  0  0  0  0
  1  5  1  0  0  0  0
  5  6  1  0  0  0  0
  5  7  1  0  0  0  0
  5  8  1  0  0  0  0
  8  9  1  0  0  0  0
  8 10  1  0  0  0  0
  8 11  1  0  0  0  0
 11 12  1  0  0  0  0
 11 13  1  0  0  0  0
 11 14  1  0  0  0  0
 14 15  1  0  0  0  0
 14 16  1  0  0  0  0
 14 17  1  0  0  0  0
 17 18  1  0  0  0  0
 17 19  1  0  0  0  0
 17 20  1  0  0  0  0
 20 21  1  0  0  0  0
 20 22  1  0  0  0  0
 20 23  1  0  0  0  0
 23 24  1  0  0  0  0
 23 25  1  0  0  0  0
 23 26  1  0  0  0  0
M  END
> <VM2 Rank>
107

> <Conf_Id>
246

> <Probability>
0.03

> <Sum Probability>
99.18

> <Delta G>
3.344

> <G>
51.606

> <E>
18.964

> <-TS>
32.642

> <U+W>
-2.498

> <U>
51.400

> <W>
-53.898

> <W(PB)>
-56.163

> <W(SA)>
2.265

> <Valence>
4.232

> <Coulomb>
46.515

> <VdW>
0.653

> <VdW6>
-7.962

> <VdW12>
8.615

> <Bond>
0.225

> <Angle>
1.150

> <Pdih>
2.856

> <Idih>
0.000

> <Tether>
0.000

$$$$
VeraChem MOL file


 26 25  0  0  0  0  0  0  0  0999 V2000     
   21.0870   18.6127   20.0375 C   0  0  0  0  0  0  0  0  0  0  0  0
   22.0175   18.4015   20.5803 H   0  0  0  0  0  0  0  0  0  0  0  0
   20.4811   17.6981   20.0247 H   0  0  0  0  0  0  0  0  0  0  0  0
   21.3506   18.8491   18.9985 H   0  0  0  0  0  0  0  0  0  0  0  0
   20.3221   19.7902   20.6832 C   0  0  0  0  0  0  0  0  0  0  0  0
   19.3855   19.9666   20.1359 H   0  0  0  0  0  0  0  0  0  0  0  0
   20.9199   20.7057   20.5723 H   0  0  0  0  0  0  0  0  0  0  0  0
   20.0182   19.5731   22.1851 C   0  0  0  0  0  0  0  0  0  0  0  0
   20.9657   19.4312   22.7205 H   0  0  0  0  0  0  0  0  0  0  0  0
   19.5592   20.4876   22.5851 H   0  0  0  0  0  0  0  0  0  0  0  0
   19.0788   18.3712   22.4518 C   0  0  0  0  0  0  0  0  0  0  0  0
   19.6009   17.4340   22.2173 H   0  0  0  0  0  0  0  0  0  0  0  0
   18.2249   18.4273   21.7626 H   0  0  0  0  0  0  0  0  0  0  0  0
   18.5269   18.2957   23.8991 C   0  0  0  0  0  0  0  0  0  0  0  0
   17.9206   19.1851   24.1198 H   0  0  0  0  0  0  0  0  0  0  0  0
   17.8334   17.4445   23.9447 H   0  0  0  0  0  0  0  0  0  0  0  0
   19.6019   18.0995   24.9978 C   0  0  0  0  0  0  0  0  0  0  0  0
   20.3932   17.4295   24.6362 H   0  0  0  0  0  0  0  0  0  0  0  0
   19.1363   17.5953   25.8551 H   0  0  0  0  0  0  0  0  0  0  0  0
   20.2090   19.4257   25.4955 C   0  0  0  0  0  0  0  0  0  0  0  0
   20.6950   19.9526   24.6725 H   0  0  0  0  0  0  0  0  0  0  0  0
   19.4154   20.0662   25.8896 H   0  0  0  0  0  0  0  0  0  0  0  0
   21.2372   19.2310   26.5909 N   0  3  0  0  0  0  0  0  0  0  0  0
   21.6262   20.1243   26.9119 H   0  0  0  0  0  0  0  0  0  0  0  0
   22.0265   18.6571   26.2767 H   0  0  0  0  0  0  0  0  0  0  0  0
   20.8362   18.7679   27.4131 H   0  0  0  0  0  0  0  0  0  0  0  0
  1  2  1  0  0  0  0
  1  3  1  0  0  0  0
  1  4  1  0  0  0  0
  1  5  1  0  0  0  0
  5  6  1  0  0  0  0
  5  7  1  0  0  0  0
  5  8  1  0  0  0  0
  8  9  1  0  0  0  0
  8 10  1  0  0  0  0
  8 11  1  0  0  0  0
 11 12  1  0  0  0  0
 11 13  1  0  0  0  0
 11 14  1  0  0  0  0
 14 15  1  0  0  0  0
 14 16  1  0  0  0  0
 14 17  1  0  0  0  0
 17 18  1  0  0  0  0
 17 19  1  0  0  0  0
 17 20  1  0  0  0  0
 20 21  1  0  0  0  0
 20 22  1  0  0  0  0
 20 23  1  0  0  0  0
 23 24  1  0  0  0  0
 23 25  1  0  0  0  0
 23 26  1  0  0  0  0
M  END
> <VM2 Rank>
108

> <Conf_Id>
1277

> <Probability>
0.03

> <Sum Probability>
99.21

> <Delta G>
3.345

> <G>
51.607

> <E>
18.792

> <-TS>
32.815

> <U+W>
-2.670

> <U>
51.327

> <W>
-53.997

> <W(PB)>
-56.278

> <W(SA)>
2.281

> <Valence>
4.992

> <Coulomb>
45.664

> <VdW>
0.672

> <VdW6>
-8.113

> <VdW12>
8.785

> <Bond>
0.231

> <Angle>
1.333

> <Pdih>
3.427

> <Idih>
0.000

> <Tether>
0.000

$$$$
VeraChem MOL file


 26 25  0  0  0  0  0  0  0  0999 V2000     
   20.6030   20.3430   20.6459 C   0  0  0  0  0  0  0  0  0  0  0  0
   21.2596   20.3009   21.5236 H   0  0  0  0  0  0  0  0  0  0  0  0
   21.1359   20.9010   19.8651 H   0  0  0  0  0  0  0  0  0  0  0  0
   19.7016   20.9113   20.9091 H   0  0  0  0  0  0  0  0  0  0  0  0
   20.2433   18.9268   20.1464 C   0  0  0  0  0  0  0  0  0  0  0  0
   21.1668   18.3628   19.9544 H   0  0  0  0  0  0  0  0  0  0  0  0
   19.7335   19.0144   19.1768 H   0  0  0  0  0  0  0  0  0  0  0  0
   19.3332   18.1215   21.1088 C   0  0  0  0  0  0  0  0  0  0  0  0
   18.3650   18.6277   21.2250 H   0  0  0  0  0  0  0  0  0  0  0  0
   19.1085   17.1613   20.6242 H   0  0  0  0  0  0  0  0  0  0  0  0
   19.9573   17.8267   22.4978 C   0  0  0  0  0  0  0  0  0  0  0  0
   21.0513   17.7679   22.4139 H   0  0  0  0  0  0  0  0  0  0  0  0
   19.6240   16.8317   22.8239 H   0  0  0  0  0  0  0  0  0  0  0  0
   19.5522   18.8513   23.5857 C   0  0  0  0  0  0  0  0  0  0  0  0
   19.8378   19.8657   23.2828 H   0  0  0  0  0  0  0  0  0  0  0  0
   18.4587   18.8538   23.6946 H   0  0  0  0  0  0  0  0  0  0  0  0
   20.2009   18.5263   24.9492 C   0  0  0  0  0  0  0  0  0  0  0  0
   21.2944   18.5269   24.8476 H   0  0  0  0  0  0  0  0  0  0  0  0
   19.9070   17.5174   25.2681 H   0  0  0  0  0  0  0  0  0  0  0  0
   19.7870   19.5442   26.0266 C   0  0  0  0  0  0  0  0  0  0  0  0
   20.0926   20.5485   25.7210 H   0  0  0  0  0  0  0  0  0  0  0  0
   18.6998   19.5357   26.1427 H   0  0  0  0  0  0  0  0  0  0  0  0
   20.4041   19.2592   27.3806 N   0  3  0  0  0  0  0  0  0  0  0  0
   20.1155   19.9486   28.0835 H   0  0  0  0  0  0  0  0  0  0  0  0
   21.4286   19.2797   27.3457 H   0  0  0  0  0  0  0  0  0  0  0  0
   20.1327   18.3374   27.7379 H   0  0  0  0  0  0  0  0  0  0  0  0
  1  2  1  0  0  0  0
  1  3  1  0  0  0  0
  1  4  1  0  0  0  0
  1  5  1  0  0  0  0
  5  6  1  0  0  0  0
  5  7  1  0  0  0  0
  5  8  1  0  0  0  0
  8  9  1  0  0  0  0
  8 10  1  0  0  0  0
  8 11  1  0  0  0  0
 11 12  1  0  0  0  0
 11 13  1  0  0  0  0
 11 14  1  0  0  0  0
 14 15  1  0  0  0  0
 14 16  1  0  0  0  0
 14 17  1  0  0  0  0
 17 18  1  0  0  0  0
 17 19  1  0  0  0  0
 17 20  1  0  0  0  0
 20 21  1  0  0  0  0
 20 22  1  0  0  0  0
 20 23  1  0  0  0  0
 23 24  1  0  0  0  0
 23 25  1  0  0  0  0
 23 26  1  0  0  0  0
M  END
> <VM2 Rank>
109

> <Conf_Id>
991

> <Probability>
0.03

> <Sum Probability>
99.23

> <Delta G>
3.355

> <G>
51.616

> <E>
18.913

> <-TS>
32.704

> <U+W>
-2.549

> <U>
50.662

> <W>
-53.211

> <W(PB)>
-55.518

> <W(SA)>
2.307

> <Valence>
5.128

> <Coulomb>
44.842

> <VdW>
0.692

> <VdW6>
-7.327

> <VdW12>
8.019

> <Bond>
0.214

> <Angle>
1.153

> <Pdih>
3.761

> <Idih>
0.000

> <Tether>
0.000

$$$$
VeraChem MOL file


 26 25  0  0  0  0  0  0  0  0999 V2000     
   21.4427   19.5815   20.1268 C   0  0  0  0  0  0  0  0  0  0  0  0
   21.5622   20.5914   20.5404 H   0  0  0  0  0  0  0  0  0  0  0  0
   22.4424   19.1918   19.8951 H   0  0  0  0  0  0  0  0  0  0  0  0
   20.8857   19.6618   19.1841 H   0  0  0  0  0  0  0  0  0  0  0  0
   20.7148   18.6563   21.1247 C   0  0  0  0  0  0  0  0  0  0  0  0
   21.3189   18.5642   22.0352 H   0  0  0  0  0  0  0  0  0  0  0  0
   20.6422   17.6472   20.6955 H   0  0  0  0  0  0  0  0  0  0  0  0
   19.2969   19.1801   21.4579 C   0  0  0  0  0  0  0  0  0  0  0  0
   19.3466   20.2131   21.8289 H   0  0  0  0  0  0  0  0  0  0  0  0
   18.7208   19.2219   20.5231 H   0  0  0  0  0  0  0  0  0  0  0  0
   18.5295   18.2869   22.4673 C   0  0  0  0  0  0  0  0  0  0  0  0
   18.8614   17.2430   22.3820 H   0  0  0  0  0  0  0  0  0  0  0  0
   17.4682   18.2833   22.1824 H   0  0  0  0  0  0  0  0  0  0  0  0
   18.6137   18.7547   23.9434 C   0  0  0  0  0  0  0  0  0  0  0  0
   18.1778   19.7595   24.0332 H   0  0  0  0  0  0  0  0  0  0  0  0
   17.9816   18.0924   24.5513 H   0  0  0  0  0  0  0  0  0  0  0  0
   20.0430   18.7615   24.5312 C   0  0  0  0  0  0  0  0  0  0  0  0
   20.6539   19.5134   24.0162 H   0  0  0  0  0  0  0  0  0  0  0  0
   20.5155   17.7837   24.3689 H   0  0  0  0  0  0  0  0  0  0  0  0
   20.0283   19.0792   26.0368 C   0  0  0  0  0  0  0  0  0  0  0  0
   19.5713   20.0587   26.2018 H   0  0  0  0  0  0  0  0  0  0  0  0
   19.4342   18.3289   26.5656 H   0  0  0  0  0  0  0  0  0  0  0  0
   21.4123   19.0988   26.6530 N   0  3  0  0  0  0  0  0  0  0  0  0
   21.3793   19.3118   27.6559 H   0  0  0  0  0  0  0  0  0  0  0  0
   22.0146   19.8051   26.2177 H   0  0  0  0  0  0  0  0  0  0  0  0
   21.8868   18.1952   26.5555 H   0  0  0  0  0  0  0  0  0  0  0  0
  1  2  1  0  0  0  0
  1  3  1  0  0  0  0
  1  4  1  0  0  0  0
  1  5  1  0  0  0  0
  5  6  1  0  0  0  0
  5  7  1  0  0  0  0
  5  8  1  0  0  0  0
  8  9  1  0  0  0  0
  8 10  1  0  0  0  0
  8 11  1  0  0  0  0
 11 12  1  0  0  0  0
 11 13  1  0  0  0  0
 11 14  1  0  0  0  0
 14 15  1  0  0  0  0
 14 16  1  0  0  0  0
 14 17  1  0  0  0  0
 17 18  1  0  0  0  0
 17 19  1  0  0  0  0
 17 20  1  0  0  0  0
 20 21  1  0  0  0  0
 20 22  1  0  0  0  0
 20 23  1  0  0  0  0
 23 24  1  0  0  0  0
 23 25  1  0  0  0  0
 23 26  1  0  0  0  0
M  END
> <VM2 Rank>
110

> <Conf_Id>
1058

> <Probability>
0.03

> <Sum Probability>
99.26

> <Delta G>
3.395

> <G>
51.656

> <E>
18.928

> <-TS>
32.728

> <U+W>
-2.534

> <U>
51.184

> <W>
-53.717

> <W(PB)>
-56.008

> <W(SA)>
2.290

> <Valence>
5.187

> <Coulomb>
45.355

> <VdW>
0.642

> <VdW6>
-7.428

> <VdW12>
8.070

> <Bond>
0.216

> <Angle>
1.173

> <Pdih>
3.798

> <Idih>
0.000

> <Tether>
0.000

$$$$
VeraChem MOL file


 26 25  0  0  0  0  0  0  0  0999 V2000     
   20.4759   19.2682   19.3657 C   0  0  0  0  0  0  0  0  0  0  0  0
   20.9108   20.1569   18.8903 H   0  0  0  0  0  0  0  0  0  0  0  0
   21.0643   18.3963   19.0514 H   0  0  0  0  0  0  0  0  0  0  0  0
   19.4540   19.1472   18.9830 H   0  0  0  0  0  0  0  0  0  0  0  0
   20.4786   19.4156   20.9021 C   0  0  0  0  0  0  0  0  0  0  0  0
   21.5097   19.5648   21.2517 H   0  0  0  0  0  0  0  0  0  0  0  0
   19.9158   20.3183   21.1747 H   0  0  0  0  0  0  0  0  0  0  0  0
   19.8661   18.1754   21.5949 C   0  0  0  0  0  0  0  0  0  0  0  0
   18.8204   18.0542   21.2801 H   0  0  0  0  0  0  0  0  0  0  0  0
   20.3965   17.2760   21.2527 H   0  0  0  0  0  0  0  0  0  0  0  0
   19.9401   18.2319   23.1405 C   0  0  0  0  0  0  0  0  0  0  0  0
   20.9915   18.3240   23.4401 H   0  0  0  0  0  0  0  0  0  0  0  0
   19.5755   17.2759   23.5409 H   0  0  0  0  0  0  0  0  0  0  0  0
   19.1119   19.3895   23.7520 C   0  0  0  0  0  0  0  0  0  0  0  0
   19.5762   20.3530   23.5025 H   0  0  0  0  0  0  0  0  0  0  0  0
   18.1161   19.3978   23.2878 H   0  0  0  0  0  0  0  0  0  0  0  0
   18.9272   19.3003   25.2885 C   0  0  0  0  0  0  0  0  0  0  0  0
   18.4176   18.3661   25.5595 H   0  0  0  0  0  0  0  0  0  0  0  0
   18.2524   20.1109   25.5939 H   0  0  0  0  0  0  0  0  0  0  0  0
   20.2319   19.4457   26.0990 C   0  0  0  0  0  0  0  0  0  0  0  0
   20.8571   20.2270   25.6587 H   0  0  0  0  0  0  0  0  0  0  0  0
   19.9842   19.7455   27.1209 H   0  0  0  0  0  0  0  0  0  0  0  0
   21.0493   18.1725   26.1982 N   0  3  0  0  0  0  0  0  0  0  0  0
   21.3311   17.8291   25.2759 H   0  0  0  0  0  0  0  0  0  0  0  0
   20.5243   17.4195   26.6548 H   0  0  0  0  0  0  0  0  0  0  0  0
   21.9063   18.3127   26.7443 H   0  0  0  0  0  0  0  0  0  0  0  0
  1  2  1  0  0  0  0
  1  3  1  0  0  0  0
  1  4  1  0  0  0  0
  1  5  1  0  0  0  0
  5  6  1  0  0  0  0
  5  7  1  0  0  0  0
  5  8  1  0  0  0  0
  8  9  1  0  0  0  0
  8 10  1  0  0  0  0
  8 11  1  0  0  0  0
 11 12  1  0  0  0  0
 11 13  1  0  0  0  0
 11 14  1  0  0  0  0
 14 15  1  0  0  0  0
 14 16  1  0  0  0  0
 14 17  1  0  0  0  0
 17 18  1  0  0  0  0
 17 19  1  0  0  0  0
 17 20  1  0  0  0  0
 20 21  1  0  0  0  0
 20 22  1  0  0  0  0
 20 23  1  0  0  0  0
 23 24  1  0  0  0  0
 23 25  1  0  0  0  0
 23 26  1  0  0  0  0
M  END
> <VM2 Rank>
111

> <Conf_Id>
1084

> <Probability>
0.02

> <Sum Probability>
99.28

> <Delta G>
3.412

> <G>
51.674

> <E>
19.033

> <-TS>
32.641

> <U+W>
-2.429

> <U>
51.400

> <W>
-53.829

> <W(PB)>
-56.114

> <W(SA)>
2.284

> <Valence>
4.232

> <Coulomb>
46.515

> <VdW>
0.653

> <VdW6>
-7.962

> <VdW12>
8.615

> <Bond>
0.225

> <Angle>
1.151

> <Pdih>
2.857

> <Idih>
0.000

> <Tether>
0.000

$$$$
VeraChem MOL file


 26 25  0  0  0  0  0  0  0  0999 V2000     
   21.2753   19.6498   19.9813 C   0  0  0  0  0  0  0  0  0  0  0  0
   21.1398   18.9224   19.1703 H   0  0  0  0  0  0  0  0  0  0  0  0
   20.7489   20.5726   19.7046 H   0  0  0  0  0  0  0  0  0  0  0  0
   22.3462   19.8805   20.0510 H   0  0  0  0  0  0  0  0  0  0  0  0
   20.7497   19.0923   21.3212 C   0  0  0  0  0  0  0  0  0  0  0  0
   20.9383   19.8325   22.1099 H   0  0  0  0  0  0  0  0  0  0  0  0
   21.3121   18.1857   21.5844 H   0  0  0  0  0  0  0  0  0  0  0  0
   19.2395   18.7706   21.2518 C   0  0  0  0  0  0  0  0  0  0  0  0
   18.6769   19.6981   21.0769 H   0  0  0  0  0  0  0  0  0  0  0  0
   19.0512   18.1306   20.3788 H   0  0  0  0  0  0  0  0  0  0  0  0
   18.6769   18.0558   22.5076 C   0  0  0  0  0  0  0  0  0  0  0  0
   19.1580   17.0758   22.6317 H   0  0  0  0  0  0  0  0  0  0  0  0
   17.6160   17.8415   22.3173 H   0  0  0  0  0  0  0  0  0  0  0  0
   18.7754   18.8751   23.8210 C   0  0  0  0  0  0  0  0  0  0  0  0
   18.7507   19.9508   23.5982 H   0  0  0  0  0  0  0  0  0  0  0  0
   17.8812   18.6707   24.4263 H   0  0  0  0  0  0  0  0  0  0  0  0
   20.0205   18.5281   24.6721 C   0  0  0  0  0  0  0  0  0  0  0  0
   20.9394   18.6904   24.0976 H   0  0  0  0  0  0  0  0  0  0  0  0
   19.9969   17.4630   24.9385 H   0  0  0  0  0  0  0  0  0  0  0  0
   20.0722   19.3718   25.9579 C   0  0  0  0  0  0  0  0  0  0  0  0
   20.1131   20.4335   25.6999 H   0  0  0  0  0  0  0  0  0  0  0  0
   19.1700   19.1961   26.5500 H   0  0  0  0  0  0  0  0  0  0  0  0
   21.2715   19.0556   26.8281 N   0  3  0  0  0  0  0  0  0  0  0  0
   22.1556   19.2273   26.3382 H   0  0  0  0  0  0  0  0  0  0  0  0
   21.2778   18.0752   27.1283 H   0  0  0  0  0  0  0  0  0  0  0  0
   21.2858   19.6281   27.6792 H   0  0  0  0  0  0  0  0  0  0  0  0
  1  2  1  0  0  0  0
  1  3  1  0  0  0  0
  1  4  1  0  0  0  0
  1  5  1  0  0  0  0
  5  6  1  0  0  0  0
  5  7  1  0  0  0  0
  5  8  1  0  0  0  0
  8  9  1  0  0  0  0
  8 10  1  0  0  0  0
  8 11  1  0  0  0  0
 11 12  1  0  0  0  0
 11 13  1  0  0  0  0
 11 14  1  0  0  0  0
 14 15  1  0  0  0  0
 14 16  1  0  0  0  0
 14 17  1  0  0  0  0
 17 18  1  0  0  0  0
 17 19  1  0  0  0  0
 17 20  1  0  0  0  0
 20 21  1  0  0  0  0
 20 22  1  0  0  0  0
 20 23  1  0  0  0  0
 23 24  1  0  0  0  0
 23 25  1  0  0  0  0
 23 26  1  0  0  0  0
M  END
> <VM2 Rank>
112

> <Conf_Id>
743

> <Probability>
0.02

> <Sum Probability>
99.31

> <Delta G>
3.421

> <G>
51.682

> <E>
18.960

> <-TS>
32.722

> <U+W>
-2.502

> <U>
51.214

> <W>
-53.716

> <W(PB)>
-56.009

> <W(SA)>
2.294

> <Valence>
5.193

> <Coulomb>
45.364

> <VdW>
0.656

> <VdW6>
-7.405

> <VdW12>
8.062

> <Bond>
0.216

> <Angle>
1.176

> <Pdih>
3.800

> <Idih>
0.000

> <Tether>
0.000

$$$$
VeraChem MOL file


 26 25  0  0  0  0  0  0  0  0999 V2000     
   19.9726   18.9638   19.2274 C   0  0  0  0  0  0  0  0  0  0  0  0
   19.3365   19.8469   19.0838 H   0  0  0  0  0  0  0  0  0  0  0  0
   20.8236   19.0458   18.5389 H   0  0  0  0  0  0  0  0  0  0  0  0
   19.3938   18.0754   18.9429 H   0  0  0  0  0  0  0  0  0  0  0  0
   20.4612   18.8642   20.6882 C   0  0  0  0  0  0  0  0  0  0  0  0
   21.0697   19.7480   20.9195 H   0  0  0  0  0  0  0  0  0  0  0  0
   21.1175   17.9890   20.7932 H   0  0  0  0  0  0  0  0  0  0  0  0
   19.2774   18.7515   21.6782 C   0  0  0  0  0  0  0  0  0  0  0  0
   18.6499   19.6510   21.6119 H   0  0  0  0  0  0  0  0  0  0  0  0
   18.6407   17.9095   21.3728 H   0  0  0  0  0  0  0  0  0  0  0  0
   19.7118   18.5266   23.1477 C   0  0  0  0  0  0  0  0  0  0  0  0
   20.3652   17.6453   23.2067 H   0  0  0  0  0  0  0  0  0  0  0  0
   18.8101   18.2937   23.7266 H   0  0  0  0  0  0  0  0  0  0  0  0
   20.4185   19.7527   23.7789 C   0  0  0  0  0  0  0  0  0  0  0  0
   21.2685   20.0494   23.1518 H   0  0  0  0  0  0  0  0  0  0  0  0
   19.7292   20.6083   23.7856 H   0  0  0  0  0  0  0  0  0  0  0  0
   20.9558   19.5134   25.2132 C   0  0  0  0  0  0  0  0  0  0  0  0
   21.4992   20.4160   25.5228 H   0  0  0  0  0  0  0  0  0  0  0  0
   21.6957   18.7019   25.2139 H   0  0  0  0  0  0  0  0  0  0  0  0
   19.8664   19.2369   26.2702 C   0  0  0  0  0  0  0  0  0  0  0  0
   20.2566   19.4944   27.2586 H   0  0  0  0  0  0  0  0  0  0  0  0
   18.9928   19.8651   26.0766 H   0  0  0  0  0  0  0  0  0  0  0  0
   19.4173   17.7900   26.3372 N   0  3  0  0  0  0  0  0  0  0  0  0
   20.1931   17.1628   26.5734 H   0  0  0  0  0  0  0  0  0  0  0  0
   19.0303   17.4695   25.4453 H   0  0  0  0  0  0  0  0  0  0  0  0
   18.6927   17.6496   27.0497 H   0  0  0  0  0  0  0  0  0  0  0  0
  1  2  1  0  0  0  0
  1  3  1  0  0  0  0
  1  4  1  0  0  0  0
  1  5  1  0  0  0  0
  5  6  1  0  0  0  0
  5  7  1  0  0  0  0
  5  8  1  0  0  0  0
  8  9  1  0  0  0  0
  8 10  1  0  0  0  0
  8 11  1  0  0  0  0
 11 12  1  0  0  0  0
 11 13  1  0  0  0  0
 11 14  1  0  0  0  0
 14 15  1  0  0  0  0
 14 16  1  0  0  0  0
 14 17  1  0  0  0  0
 17 18  1  0  0  0  0
 17 19  1  0  0  0  0
 17 20  1  0  0  0  0
 20 21  1  0  0  0  0
 20 22  1  0  0  0  0
 20 23  1  0  0  0  0
 23 24  1  0  0  0  0
 23 25  1  0  0  0  0
 23 26  1  0  0  0  0
M  END
> <VM2 Rank>
113

> <Conf_Id>
819

> <Probability>
0.02

> <Sum Probability>
99.33

> <Delta G>
3.446

> <G>
51.708

> <E>
19.200

> <-TS>
32.507

> <U+W>
-2.261

> <U>
51.605

> <W>
-53.867

> <W(PB)>
-56.159

> <W(SA)>
2.292

> <Valence>
4.452

> <Coulomb>
46.417

> <VdW>
0.736

> <VdW6>
-7.820

> <VdW12>
8.557

> <Bond>
0.235

> <Angle>
1.295

> <Pdih>
2.922

> <Idih>
0.000

> <Tether>
0.000

$$$$
VeraChem MOL file


 26 25  0  0  0  0  0  0  0  0999 V2000     
   20.0278   17.6560   20.1498 C   0  0  0  0  0  0  0  0  0  0  0  0
   19.9915   16.9686   21.0039 H   0  0  0  0  0  0  0  0  0  0  0  0
   18.9983   17.8627   19.8299 H   0  0  0  0  0  0  0  0  0  0  0  0
   20.5361   17.1345   19.3284 H   0  0  0  0  0  0  0  0  0  0  0  0
   20.7729   18.9632   20.5033 C   0  0  0  0  0  0  0  0  0  0  0  0
   21.7893   18.7275   20.8483 H   0  0  0  0  0  0  0  0  0  0  0  0
   20.8900   19.5622   19.5894 H   0  0  0  0  0  0  0  0  0  0  0  0
   20.0435   19.8187   21.5673 C   0  0  0  0  0  0  0  0  0  0  0  0
   20.5823   20.7697   21.6795 H   0  0  0  0  0  0  0  0  0  0  0  0
   19.0380   20.0738   21.2053 H   0  0  0  0  0  0  0  0  0  0  0  0
   19.9425   19.1291   22.9489 C   0  0  0  0  0  0  0  0  0  0  0  0
   20.9486   18.8291   23.2664 H   0  0  0  0  0  0  0  0  0  0  0  0
   19.3357   18.2178   22.8662 H   0  0  0  0  0  0  0  0  0  0  0  0
   19.3158   20.0650   24.0094 C   0  0  0  0  0  0  0  0  0  0  0  0
   19.9813   20.9224   24.1810 H   0  0  0  0  0  0  0  0  0  0  0  0
   18.3800   20.4792   23.6091 H   0  0  0  0  0  0  0  0  0  0  0  0
   18.9990   19.3794   25.3631 C   0  0  0  0  0  0  0  0  0  0  0  0
   18.2837   18.5589   25.2182 H   0  0  0  0  0  0  0  0  0  0  0  0
   18.4896   20.1139   26.0010 H   0  0  0  0  0  0  0  0  0  0  0  0
   20.2380   18.8711   26.1293 C   0  0  0  0  0  0  0  0  0  0  0  0
   21.0528   19.5946   26.0393 H   0  0  0  0  0  0  0  0  0  0  0  0
   19.9860   18.7744   27.1889 H   0  0  0  0  0  0  0  0  0  0  0  0
   20.7415   17.5165   25.6700 N   0  3  0  0  0  0  0  0  0  0  0  0
   21.5656   17.2170   26.2026 H   0  0  0  0  0  0  0  0  0  0  0  0
   21.0066   17.5248   24.6812 H   0  0  0  0  0  0  0  0  0  0  0  0
   20.0297   16.7880   25.7871 H   0  0  0  0  0  0  0  0  0  0  0  0
  1  2  1  0  0  0  0
  1  3  1  0  0  0  0
  1  4  1  0  0  0  0
  1  5  1  0  0  0  0
  5  6  1  0  0  0  0
  5  7  1  0  0  0  0
  5  8  1  0  0  0  0
  8  9  1  0  0  0  0
  8 10  1  0  0  0  0
  8 11  1  0  0  0  0
 11 12  1  0  0  0  0
 11 13  1  0  0  0  0
 11 14  1  0  0  0  0
 14 15  1  0  0  0  0
 14 16  1  0  0  0  0
 14 17  1  0  0  0  0
 17 18  1  0  0  0  0
 17 19  1  0  0  0  0
 17 20  1  0  0  0  0
 20 21  1  0  0  0  0
 20 22  1  0  0  0  0
 20 23  1  0  0  0  0
 23 24  1  0  0  0  0
 23 25  1  0  0  0  0
 23 26  1  0  0  0  0
M  END
> <VM2 Rank>
114

> <Conf_Id>
1118

> <Probability>
0.02

> <Sum Probability>
99.35

> <Delta G>
3.493

> <G>
51.754

> <E>
19.126

> <-TS>
32.629

> <U+W>
-2.336

> <U>
51.553

> <W>
-53.889

> <W(PB)>
-56.153

> <W(SA)>
2.263

> <Valence>
4.249

> <Coulomb>
46.644

> <VdW>
0.661

> <VdW6>
-7.941

> <VdW12>
8.602

> <Bond>
0.222

> <Angle>
1.190

> <Pdih>
2.837

> <Idih>
0.000

> <Tether>
0.000

$$$$
VeraChem MOL file


 26 25  0  0  0  0  0  0  0  0999 V2000     
   21.3144   18.5024   20.1933 C   0  0  0  0  0  0  0  0  0  0  0  0
   21.9194   18.2371   21.0691 H   0  0  0  0  0  0  0  0  0  0  0  0
   21.6310   17.8547   19.3656 H   0  0  0  0  0  0  0  0  0  0  0  0
   21.5460   19.5389   19.9159 H   0  0  0  0  0  0  0  0  0  0  0  0
   19.8043   18.3257   20.4710 C   0  0  0  0  0  0  0  0  0  0  0  0
   19.6033   17.2889   20.7752 H   0  0  0  0  0  0  0  0  0  0  0  0
   19.2513   18.4836   19.5345 H   0  0  0  0  0  0  0  0  0  0  0  0
   19.2570   19.3011   21.5409 C   0  0  0  0  0  0  0  0  0  0  0  0
   19.4363   20.3361   21.2186 H   0  0  0  0  0  0  0  0  0  0  0  0
   18.1664   19.1798   21.5986 H   0  0  0  0  0  0  0  0  0  0  0  0
   19.8652   19.0784   22.9463 C   0  0  0  0  0  0  0  0  0  0  0  0
   20.9446   19.2774   22.9202 H   0  0  0  0  0  0  0  0  0  0  0  0
   19.7291   18.0265   23.2255 H   0  0  0  0  0  0  0  0  0  0  0  0
   19.2035   19.9913   24.0057 C   0  0  0  0  0  0  0  0  0  0  0  0
   19.2106   21.0265   23.6371 H   0  0  0  0  0  0  0  0  0  0  0  0
   18.1462   19.7143   24.1196 H   0  0  0  0  0  0  0  0  0  0  0  0
   19.8944   19.9691   25.3932 C   0  0  0  0  0  0  0  0  0  0  0  0
   19.3908   20.7073   26.0315 H   0  0  0  0  0  0  0  0  0  0  0  0
   20.9360   20.3062   25.3072 H   0  0  0  0  0  0  0  0  0  0  0  0
   19.8376   18.6070   26.1155 C   0  0  0  0  0  0  0  0  0  0  0  0
   19.9759   18.7672   27.1883 H   0  0  0  0  0  0  0  0  0  0  0  0
   18.8570   18.1476   25.9652 H   0  0  0  0  0  0  0  0  0  0  0  0
   20.9047   17.6239   25.6750 N   0  3  0  0  0  0  0  0  0  0  0  0
   20.8391   17.4145   24.6750 H   0  0  0  0  0  0  0  0  0  0  0  0
   20.8305   16.7323   26.1771 H   0  0  0  0  0  0  0  0  0  0  0  0
   21.8482   17.9859   25.8478 H   0  0  0  0  0  0  0  0  0  0  0  0
  1  2  1  0  0  0  0
  1  3  1  0  0  0  0
  1  4  1  0  0  0  0
  1  5  1  0  0  0  0
  5  6  1  0  0  0  0
  5  7  1  0  0  0  0
  5  8  1  0  0  0  0
  8  9  1  0  0  0  0
  8 10  1  0  0  0  0
  8 11  1  0  0  0  0
 11 12  1  0  0  0  0
 11 13  1  0  0  0  0
 11 14  1  0  0  0  0
 14 15  1  0  0  0  0
 14 16  1  0  0  0  0
 14 17  1  0  0  0  0
 17 18  1  0  0  0  0
 17 19  1  0  0  0  0
 17 20  1  0  0  0  0
 20 21  1  0  0  0  0
 20 22  1  0  0  0  0
 20 23  1  0  0  0  0
 23 24  1  0  0  0  0
 23 25  1  0  0  0  0
 23 26  1  0  0  0  0
M  END
> <VM2 Rank>
115

> <Conf_Id>
1263

> <Probability>
0.02

> <Sum Probability>
99.37

> <Delta G>
3.547

> <G>
51.809

> <E>
19.180

> <-TS>
32.629

> <U+W>
-2.282

> <U>
51.554

> <W>
-53.837

> <W(PB)>
-56.124

> <W(SA)>
2.288

> <Valence>
4.248

> <Coulomb>
46.645

> <VdW>
0.661

> <VdW6>
-7.943

> <VdW12>
8.604

> <Bond>
0.222

> <Angle>
1.189

> <Pdih>
2.838

> <Idih>
0.000

> <Tether>
0.000

$$$$
VeraChem MOL file


 26 25  0  0  0  0  0  0  0  0999 V2000     
   19.6134   20.3359   20.6844 C   0  0  0  0  0  0  0  0  0  0  0  0
   20.2982   20.7213   21.4497 H   0  0  0  0  0  0  0  0  0  0  0  0
   19.6445   21.0327   19.8368 H   0  0  0  0  0  0  0  0  0  0  0  0
   18.5934   20.3452   21.0897 H   0  0  0  0  0  0  0  0  0  0  0  0
   20.0204   18.9169   20.2313 C   0  0  0  0  0  0  0  0  0  0  0  0
   21.0663   18.9283   19.8938 H   0  0  0  0  0  0  0  0  0  0  0  0
   19.4205   18.6424   19.3524 H   0  0  0  0  0  0  0  0  0  0  0  0
   19.8355   17.8226   21.3134 C   0  0  0  0  0  0  0  0  0  0  0  0
   18.7740   17.7328   21.5820 H   0  0  0  0  0  0  0  0  0  0  0  0
   20.1078   16.8599   20.8589 H   0  0  0  0  0  0  0  0  0  0  0  0
   20.6995   18.0163   22.5869 C   0  0  0  0  0  0  0  0  0  0  0  0
   21.6261   18.5502   22.3349 H   0  0  0  0  0  0  0  0  0  0  0  0
   21.0087   17.0265   22.9504 H   0  0  0  0  0  0  0  0  0  0  0  0
   19.9528   18.7391   23.7348 C   0  0  0  0  0  0  0  0  0  0  0  0
   19.6002   19.7227   23.4025 H   0  0  0  0  0  0  0  0  0  0  0  0
   19.0595   18.1592   24.0020 H   0  0  0  0  0  0  0  0  0  0  0  0
   20.8533   18.9157   24.9802 C   0  0  0  0  0  0  0  0  0  0  0  0
   21.7618   19.4636   24.6967 H   0  0  0  0  0  0  0  0  0  0  0  0
   21.1813   17.9352   25.3504 H   0  0  0  0  0  0  0  0  0  0  0  0
   20.1540   19.6869   26.1162 C   0  0  0  0  0  0  0  0  0  0  0  0
   20.8634   19.8541   26.9313 H   0  0  0  0  0  0  0  0  0  0  0  0
   19.8208   20.6614   25.7490 H   0  0  0  0  0  0  0  0  0  0  0  0
   18.9520   18.9656   26.6939 N   0  3  0  0  0  0  0  0  0  0  0  0
   18.5179   19.4986   27.4553 H   0  0  0  0  0  0  0  0  0  0  0  0
   19.2060   18.0492   27.0770 H   0  0  0  0  0  0  0  0  0  0  0  0
   18.2275   18.8083   25.9866 H   0  0  0  0  0  0  0  0  0  0  0  0
  1  2  1  0  0  0  0
  1  3  1  0  0  0  0
  1  4  1  0  0  0  0
  1  5  1  0  0  0  0
  5  6  1  0  0  0  0
  5  7  1  0  0  0  0
  5  8  1  0  0  0  0
  8  9  1  0  0  0  0
  8 10  1  0  0  0  0
  8 11  1  0  0  0  0
 11 12  1  0  0  0  0
 11 13  1  0  0  0  0
 11 14  1  0  0  0  0
 14 15  1  0  0  0  0
 14 16  1  0  0  0  0
 14 17  1  0  0  0  0
 17 18  1  0  0  0  0
 17 19  1  0  0  0  0
 17 20  1  0  0  0  0
 20 21  1  0  0  0  0
 20 22  1  0  0  0  0
 20 23  1  0  0  0  0
 23 24  1  0  0  0  0
 23 25  1  0  0  0  0
 23 26  1  0  0  0  0
M  END
> <VM2 Rank>
116

> <Conf_Id>
569

> <Probability>
0.02

> <Sum Probability>
99.39

> <Delta G>
3.553

> <G>
51.815

> <E>
19.009

> <-TS>
32.805

> <U+W>
-2.452

> <U>
51.297

> <W>
-53.749

> <W(PB)>
-56.017

> <W(SA)>
2.267

> <Valence>
5.228

> <Coulomb>
45.276

> <VdW>
0.793

> <VdW6>
-7.860

> <VdW12>
8.653

> <Bond>
0.234

> <Angle>
1.197

> <Pdih>
3.797

> <Idih>
0.000

> <Tether>
0.000

$$$$
VeraChem MOL file


 26 25  0  0  0  0  0  0  0  0999 V2000     
   18.8430   18.0884   20.3480 C   0  0  0  0  0  0  0  0  0  0  0  0
   18.1251   18.9160   20.2785 H   0  0  0  0  0  0  0  0  0  0  0  0
   18.6995   17.4452   19.4702 H   0  0  0  0  0  0  0  0  0  0  0  0
   18.5974   17.4929   21.2358 H   0  0  0  0  0  0  0  0  0  0  0  0
   20.2952   18.6151   20.4002 C   0  0  0  0  0  0  0  0  0  0  0  0
   20.5327   19.0928   19.4393 H   0  0  0  0  0  0  0  0  0  0  0  0
   20.9912   17.7710   20.5038 H   0  0  0  0  0  0  0  0  0  0  0  0
   20.5397   19.6380   21.5359 C   0  0  0  0  0  0  0  0  0  0  0  0
   21.5564   20.0404   21.4280 H   0  0  0  0  0  0  0  0  0  0  0  0
   19.8559   20.4897   21.4163 H   0  0  0  0  0  0  0  0  0  0  0  0
   20.3807   19.0360   22.9527 C   0  0  0  0  0  0  0  0  0  0  0  0
   21.0347   18.1587   23.0522 H   0  0  0  0  0  0  0  0  0  0  0  0
   19.3475   18.6947   23.0828 H   0  0  0  0  0  0  0  0  0  0  0  0
   20.7225   20.0676   24.0539 C   0  0  0  0  0  0  0  0  0  0  0  0
   21.7024   20.5134   23.8335 H   0  0  0  0  0  0  0  0  0  0  0  0
   19.9968   20.8921   24.0207 H   0  0  0  0  0  0  0  0  0  0  0  0
   20.7725   19.4820   25.4884 C   0  0  0  0  0  0  0  0  0  0  0  0
   21.0955   20.2825   26.1672 H   0  0  0  0  0  0  0  0  0  0  0  0
   21.5417   18.7012   25.5560 H   0  0  0  0  0  0  0  0  0  0  0  0
   19.4239   18.9416   26.0075 C   0  0  0  0  0  0  0  0  0  0  0  0
   19.4430   18.9282   27.1006 H   0  0  0  0  0  0  0  0  0  0  0  0
   18.6124   19.6022   25.6907 H   0  0  0  0  0  0  0  0  0  0  0  0
   19.1034   17.5303   25.5545 N   0  3  0  0  0  0  0  0  0  0  0  0
   19.8081   16.8595   25.8779 H   0  0  0  0  0  0  0  0  0  0  0  0
   19.0630   17.4585   24.5341 H   0  0  0  0  0  0  0  0  0  0  0  0
   18.1987   17.2109   25.9176 H   0  0  0  0  0  0  0  0  0  0  0  0
  1  2  1  0  0  0  0
  1  3  1  0  0  0  0
  1  4  1  0  0  0  0
  1  5  1  0  0  0  0
  5  6  1  0  0  0  0
  5  7  1  0  0  0  0
  5  8  1  0  0  0  0
  8  9  1  0  0  0  0
  8 10  1  0  0  0  0
  8 11  1  0  0  0  0
 11 12  1  0  0  0  0
 11 13  1  0  0  0  0
 11 14  1  0  0  0  0
 14 15  1  0  0  0  0
 14 16  1  0  0  0  0
 14 17  1  0  0  0  0
 17 18  1  0  0  0  0
 17 19  1  0  0  0  0
 17 20  1  0  0  0  0
 20 21  1  0  0  0  0
 20 22  1  0  0  0  0
 20 23  1  0  0  0  0
 23 24  1  0  0  0  0
 23 25  1  0  0  0  0
 23 26  1  0  0  0  0
M  END
> <VM2 Rank>
117

> <Conf_Id>
365

> <Probability>
0.02

> <Sum Probability>
99.41

> <Delta G>
3.565

> <G>
51.827

> <E>
19.218

> <-TS>
32.609

> <U+W>
-2.244

> <U>
51.693

> <W>
-53.937

> <W(PB)>
-56.183

> <W(SA)>
2.246

> <Valence>
4.262

> <Coulomb>
46.778

> <VdW>
0.653

> <VdW6>
-7.961

> <VdW12>
8.614

> <Bond>
0.225

> <Angle>
1.192

> <Pdih>
2.845

> <Idih>
0.000

> <Tether>
0.000

$$$$
VeraChem MOL file


 26 25  0  0  0  0  0  0  0  0999 V2000     
   19.3990   20.5648   20.6403 C   0  0  0  0  0  0  0  0  0  0  0  0
   20.1118   20.6072   19.8064 H   0  0  0  0  0  0  0  0  0  0  0  0
   18.3970   20.7607   20.2370 H   0  0  0  0  0  0  0  0  0  0  0  0
   19.6442   21.3732   21.3413 H   0  0  0  0  0  0  0  0  0  0  0  0
   19.4452   19.1905   21.3407 C   0  0  0  0  0  0  0  0  0  0  0  0
   19.1650   18.4061   20.6240 H   0  0  0  0  0  0  0  0  0  0  0  0
   18.6922   19.1718   22.1388 H   0  0  0  0  0  0  0  0  0  0  0  0
   20.8503   18.8912   21.9151 C   0  0  0  0  0  0  0  0  0  0  0  0
   21.5822   18.9414   21.0972 H   0  0  0  0  0  0  0  0  0  0  0  0
   21.1480   19.6731   22.6247 H   0  0  0  0  0  0  0  0  0  0  0  0
   20.9645   17.4972   22.5815 C   0  0  0  0  0  0  0  0  0  0  0  0
   22.0047   17.3462   22.9014 H   0  0  0  0  0  0  0  0  0  0  0  0
   20.7746   16.7285   21.8197 H   0  0  0  0  0  0  0  0  0  0  0  0
   20.0270   17.2337   23.7913 C   0  0  0  0  0  0  0  0  0  0  0  0
   18.9740   17.2650   23.4815 H   0  0  0  0  0  0  0  0  0  0  0  0
   20.2021   16.1998   24.1198 H   0  0  0  0  0  0  0  0  0  0  0  0
   20.2565   18.1638   25.0097 C   0  0  0  0  0  0  0  0  0  0  0  0
   21.3284   18.3696   25.1299 H   0  0  0  0  0  0  0  0  0  0  0  0
   19.9394   17.6334   25.9175 H   0  0  0  0  0  0  0  0  0  0  0  0
   19.4652   19.4835   24.9274 C   0  0  0  0  0  0  0  0  0  0  0  0
   19.7618   20.0483   24.0418 H   0  0  0  0  0  0  0  0  0  0  0  0
   18.3967   19.2651   24.8510 H   0  0  0  0  0  0  0  0  0  0  0  0
   19.6733   20.3744   26.1349 N   0  3  0  0  0  0  0  0  0  0  0  0
   19.1356   21.2451   26.0635 H   0  0  0  0  0  0  0  0  0  0  0  0
   20.6570   20.6392   26.2494 H   0  0  0  0  0  0  0  0  0  0  0  0
   19.3818   19.9144   27.0035 H   0  0  0  0  0  0  0  0  0  0  0  0
  1  2  1  0  0  0  0
  1  3  1  0  0  0  0
  1  4  1  0  0  0  0
  1  5  1  0  0  0  0
  5  6  1  0  0  0  0
  5  7  1  0  0  0  0
  5  8  1  0  0  0  0
  8  9  1  0  0  0  0
  8 10  1  0  0  0  0
  8 11  1  0  0  0  0
 11 12  1  0  0  0  0
 11 13  1  0  0  0  0
 11 14  1  0  0  0  0
 14 15  1  0  0  0  0
 14 16  1  0  0  0  0
 14 17  1  0  0  0  0
 17 18  1  0  0  0  0
 17 19  1  0  0  0  0
 17 20  1  0  0  0  0
 20 21  1  0  0  0  0
 20 22  1  0  0  0  0
 20 23  1  0  0  0  0
 23 24  1  0  0  0  0
 23 25  1  0  0  0  0
 23 26  1  0  0  0  0
M  END
> <VM2 Rank>
118

> <Conf_Id>
1229

> <Probability>
0.02

> <Sum Probability>
99.43

> <Delta G>
3.579

> <G>
51.840

> <E>
18.628

> <-TS>
33.212

> <U+W>
-2.834

> <U>
51.403

> <W>
-54.237

> <W(PB)>
-56.493

> <W(SA)>
2.257

> <Valence>
5.068

> <Coulomb>
46.079

> <VdW>
0.255

> <VdW6>
-8.819

> <VdW12>
9.075

> <Bond>
0.244

> <Angle>
1.724

> <Pdih>
3.100

> <Idih>
0.000

> <Tether>
0.000

$$$$
VeraChem MOL file


 26 25  0  0  0  0  0  0  0  0999 V2000     
   18.8656   20.2123   20.6220 C   0  0  0  0  0  0  0  0  0  0  0  0
   17.9938   20.2829   21.2854 H   0  0  0  0  0  0  0  0  0  0  0  0
   19.0964   21.2225   20.2600 H   0  0  0  0  0  0  0  0  0  0  0  0
   18.5868   19.5993   19.7549 H   0  0  0  0  0  0  0  0  0  0  0  0
   20.0779   19.6084   21.3619 C   0  0  0  0  0  0  0  0  0  0  0  0
   20.3523   20.2687   22.1944 H   0  0  0  0  0  0  0  0  0  0  0  0
   20.9420   19.5799   20.6836 H   0  0  0  0  0  0  0  0  0  0  0  0
   19.7764   18.1819   21.8792 C   0  0  0  0  0  0  0  0  0  0  0  0
   18.9082   18.1936   22.5496 H   0  0  0  0  0  0  0  0  0  0  0  0
   19.4820   17.5540   21.0269 H   0  0  0  0  0  0  0  0  0  0  0  0
   20.9818   17.5087   22.5822 C   0  0  0  0  0  0  0  0  0  0  0  0
   21.7981   17.4046   21.8540 H   0  0  0  0  0  0  0  0  0  0  0  0
   20.6986   16.4836   22.8578 H   0  0  0  0  0  0  0  0  0  0  0  0
   21.5346   18.2297   23.8417 C   0  0  0  0  0  0  0  0  0  0  0  0
   22.4011   17.6526   24.1932 H   0  0  0  0  0  0  0  0  0  0  0  0
   21.9322   19.2194   23.5804 H   0  0  0  0  0  0  0  0  0  0  0  0
   20.5334   18.3468   25.0190 C   0  0  0  0  0  0  0  0  0  0  0  0
   21.1029   18.4022   25.9563 H   0  0  0  0  0  0  0  0  0  0  0  0
   19.9195   17.4386   25.0830 H   0  0  0  0  0  0  0  0  0  0  0  0
   19.6337   19.5947   24.9331 C   0  0  0  0  0  0  0  0  0  0  0  0
   20.2558   20.4935   24.9129 H   0  0  0  0  0  0  0  0  0  0  0  0
   19.0395   19.5709   24.0179 H   0  0  0  0  0  0  0  0  0  0  0  0
   18.6776   19.7165   26.1019 N   0  3  0  0  0  0  0  0  0  0  0  0
   18.0908   20.5547   26.0288 H   0  0  0  0  0  0  0  0  0  0  0  0
   19.1743   19.7773   26.9967 H   0  0  0  0  0  0  0  0  0  0  0  0
   18.0441   18.9126   26.1627 H   0  0  0  0  0  0  0  0  0  0  0  0
  1  2  1  0  0  0  0
  1  3  1  0  0  0  0
  1  4  1  0  0  0  0
  1  5  1  0  0  0  0
  5  6  1  0  0  0  0
  5  7  1  0  0  0  0
  5  8  1  0  0  0  0
  8  9  1  0  0  0  0
  8 10  1  0  0  0  0
  8 11  1  0  0  0  0
 11 12  1  0  0  0  0
 11 13  1  0  0  0  0
 11 14  1  0  0  0  0
 14 15  1  0  0  0  0
 14 16  1  0  0  0  0
 14 17  1  0  0  0  0
 17 18  1  0  0  0  0
 17 19  1  0  0  0  0
 17 20  1  0  0  0  0
 20 21  1  0  0  0  0
 20 22  1  0  0  0  0
 20 23  1  0  0  0  0
 23 24  1  0  0  0  0
 23 25  1  0  0  0  0
 23 26  1  0  0  0  0
M  END
> <VM2 Rank>
119

> <Conf_Id>
1231

> <Probability>
0.02

> <Sum Probability>
99.44

> <Delta G>
3.595

> <G>
51.857

> <E>
18.645

> <-TS>
33.212

> <U+W>
-2.817

> <U>
51.402

> <W>
-54.219

> <W(PB)>
-56.462

> <W(SA)>
2.243

> <Valence>
5.069

> <Coulomb>
46.079

> <VdW>
0.255

> <VdW6>
-8.819

> <VdW12>
9.074

> <Bond>
0.244

> <Angle>
1.725

> <Pdih>
3.099

> <Idih>
0.000

> <Tether>
0.000

$$$$
VeraChem MOL file


 26 25  0  0  0  0  0  0  0  0999 V2000     
   18.7580   19.2289   19.9408 C   0  0  0  0  0  0  0  0  0  0  0  0
   19.3539   19.6853   19.1397 H   0  0  0  0  0  0  0  0  0  0  0  0
   18.0709   18.5073   19.4802 H   0  0  0  0  0  0  0  0  0  0  0  0
   18.1544   20.0171   20.4094 H   0  0  0  0  0  0  0  0  0  0  0  0
   19.6635   18.5332   20.9790 C   0  0  0  0  0  0  0  0  0  0  0  0
   20.2275   17.7291   20.4858 H   0  0  0  0  0  0  0  0  0  0  0  0
   19.0351   18.0523   21.7380 H   0  0  0  0  0  0  0  0  0  0  0  0
   20.6494   19.5302   21.6345 C   0  0  0  0  0  0  0  0  0  0  0  0
   21.2746   19.9624   20.8410 H   0  0  0  0  0  0  0  0  0  0  0  0
   20.1029   20.3721   22.0814 H   0  0  0  0  0  0  0  0  0  0  0  0
   21.5797   18.8773   22.6901 C   0  0  0  0  0  0  0  0  0  0  0  0
   22.5628   19.3640   22.6261 H   0  0  0  0  0  0  0  0  0  0  0  0
   21.7567   17.8216   22.4423 H   0  0  0  0  0  0  0  0  0  0  0  0
   21.0903   19.0078   24.1556 C   0  0  0  0  0  0  0  0  0  0  0  0
   21.8589   18.5805   24.8146 H   0  0  0  0  0  0  0  0  0  0  0  0
   21.0190   20.0721   24.4169 H   0  0  0  0  0  0  0  0  0  0  0  0
   19.7399   18.3075   24.4411 C   0  0  0  0  0  0  0  0  0  0  0  0
   19.7772   17.2757   24.0675 H   0  0  0  0  0  0  0  0  0  0  0  0
   18.9290   18.8149   23.9037 H   0  0  0  0  0  0  0  0  0  0  0  0
   19.3987   18.2709   25.9432 C   0  0  0  0  0  0  0  0  0  0  0  0
   18.4754   17.7046   26.0922 H   0  0  0  0  0  0  0  0  0  0  0  0
   20.2000   17.7669   26.4904 H   0  0  0  0  0  0  0  0  0  0  0  0
   19.2014   19.6432   26.5567 N   0  3  0  0  0  0  0  0  0  0  0  0
   18.9661   19.5843   27.5535 H   0  0  0  0  0  0  0  0  0  0  0  0
   18.4425   20.1592   26.0998 H   0  0  0  0  0  0  0  0  0  0  0  0
   20.0469   20.2173   26.4815 H   0  0  0  0  0  0  0  0  0  0  0  0
  1  2  1  0  0  0  0
  1  3  1  0  0  0  0
  1  4  1  0  0  0  0
  1  5  1  0  0  0  0
  5  6  1  0  0  0  0
  5  7  1  0  0  0  0
  5  8  1  0  0  0  0
  8  9  1  0  0  0  0
  8 10  1  0  0  0  0
  8 11  1  0  0  0  0
 11 12  1  0  0  0  0
 11 13  1  0  0  0  0
 11 14  1  0  0  0  0
 14 15  1  0  0  0  0
 14 16  1  0  0  0  0
 14 17  1  0  0  0  0
 17 18  1  0  0  0  0
 17 19  1  0  0  0  0
 17 20  1  0  0  0  0
 20 21  1  0  0  0  0
 20 22  1  0  0  0  0
 20 23  1  0  0  0  0
 23 24  1  0  0  0  0
 23 25  1  0  0  0  0
 23 26  1  0  0  0  0
M  END
> <VM2 Rank>
120

> <Conf_Id>
528

> <Probability>
0.02

> <Sum Probability>
99.46

> <Delta G>
3.619

> <G>
51.880

> <E>
19.049

> <-TS>
32.831

> <U+W>
-2.413

> <U>
51.464

> <W>
-53.876

> <W(PB)>
-56.138

> <W(SA)>
2.261

> <Valence>
5.277

> <Coulomb>
45.445

> <VdW>
0.741

> <VdW6>
-7.943

> <VdW12>
8.684

> <Bond>
0.235

> <Angle>
1.187

> <Pdih>
3.855

> <Idih>
0.000

> <Tether>
0.000

$$$$
VeraChem MOL file


 26 25  0  0  0  0  0  0  0  0999 V2000     
   20.1980   18.7716   19.5948 C   0  0  0  0  0  0  0  0  0  0  0  0
   21.2329   19.0697   19.8042 H   0  0  0  0  0  0  0  0  0  0  0  0
   20.2180   18.0993   18.7273 H   0  0  0  0  0  0  0  0  0  0  0  0
   19.6317   19.6683   19.3116 H   0  0  0  0  0  0  0  0  0  0  0  0
   19.5528   18.0673   20.8099 C   0  0  0  0  0  0  0  0  0  0  0  0
   20.1555   17.1930   21.0930 H   0  0  0  0  0  0  0  0  0  0  0  0
   18.5690   17.6787   20.5119 H   0  0  0  0  0  0  0  0  0  0  0  0
   19.3695   18.9949   22.0354 C   0  0  0  0  0  0  0  0  0  0  0  0
   18.7477   19.8550   21.7512 H   0  0  0  0  0  0  0  0  0  0  0  0
   18.8002   18.4478   22.7955 H   0  0  0  0  0  0  0  0  0  0  0  0
   20.7094   19.4991   22.6312 C   0  0  0  0  0  0  0  0  0  0  0  0
   21.2071   20.1298   21.8829 H   0  0  0  0  0  0  0  0  0  0  0  0
   21.3873   18.6549   22.8178 H   0  0  0  0  0  0  0  0  0  0  0  0
   20.5372   20.3387   23.9240 C   0  0  0  0  0  0  0  0  0  0  0  0
   21.3337   21.0953   23.9496 H   0  0  0  0  0  0  0  0  0  0  0  0
   19.5939   20.9012   23.8899 H   0  0  0  0  0  0  0  0  0  0  0  0
   20.6267   19.5225   25.2381 C   0  0  0  0  0  0  0  0  0  0  0  0
   20.5730   20.2173   26.0868 H   0  0  0  0  0  0  0  0  0  0  0  0
   21.6079   19.0331   25.2991 H   0  0  0  0  0  0  0  0  0  0  0  0
   19.5190   18.4651   25.3892 C   0  0  0  0  0  0  0  0  0  0  0  0
   18.5393   18.9423   25.3006 H   0  0  0  0  0  0  0  0  0  0  0  0
   19.6145   17.7178   24.5975 H   0  0  0  0  0  0  0  0  0  0  0  0
   19.5683   17.7397   26.7183 N   0  3  0  0  0  0  0  0  0  0  0  0
   18.8240   17.0383   26.7977 H   0  0  0  0  0  0  0  0  0  0  0  0
   19.4576   18.3830   27.5090 H   0  0  0  0  0  0  0  0  0  0  0  0
   20.4578   17.2476   26.8522 H   0  0  0  0  0  0  0  0  0  0  0  0
  1  2  1  0  0  0  0
  1  3  1  0  0  0  0
  1  4  1  0  0  0  0
  1  5  1  0  0  0  0
  5  6  1  0  0  0  0
  5  7  1  0  0  0  0
  5  8  1  0  0  0  0
  8  9  1  0  0  0  0
  8 10  1  0  0  0  0
  8 11  1  0  0  0  0
 11 12  1  0  0  0  0
 11 13  1  0  0  0  0
 11 14  1  0  0  0  0
 14 15  1  0  0  0  0
 14 16  1  0  0  0  0
 14 17  1  0  0  0  0
 17 18  1  0  0  0  0
 17 19  1  0  0  0  0
 17 20  1  0  0  0  0
 20 21  1  0  0  0  0
 20 22  1  0  0  0  0
 20 23  1  0  0  0  0
 23 24  1  0  0  0  0
 23 25  1  0  0  0  0
 23 26  1  0  0  0  0
M  END
> <VM2 Rank>
121

> <Conf_Id>
436

> <Probability>
0.02

> <Sum Probability>
99.48

> <Delta G>
3.620

> <G>
51.881

> <E>
19.217

> <-TS>
32.665

> <U+W>
-2.245

> <U>
51.521

> <W>
-53.766

> <W(PB)>
-56.075

> <W(SA)>
2.309

> <Valence>
5.275

> <Coulomb>
45.448

> <VdW>
0.798

> <VdW6>
-7.889

> <VdW12>
8.686

> <Bond>
0.249

> <Angle>
1.289

> <Pdih>
3.738

> <Idih>
0.000

> <Tether>
0.000

$$$$
VeraChem MOL file


 26 25  0  0  0  0  0  0  0  0999 V2000     
   21.3736   19.7574   20.4325 C   0  0  0  0  0  0  0  0  0  0  0  0
   22.0617   19.6625   19.5825 H   0  0  0  0  0  0  0  0  0  0  0  0
   20.8985   20.7451   20.3706 H   0  0  0  0  0  0  0  0  0  0  0  0
   21.9757   19.7214   21.3486 H   0  0  0  0  0  0  0  0  0  0  0  0
   20.3174   18.6294   20.4010 C   0  0  0  0  0  0  0  0  0  0  0  0
   20.8148   17.6543   20.4983 H   0  0  0  0  0  0  0  0  0  0  0  0
   19.8302   18.6287   19.4159 H   0  0  0  0  0  0  0  0  0  0  0  0
   19.2290   18.7734   21.4922 C   0  0  0  0  0  0  0  0  0  0  0  0
   18.7208   19.7409   21.3782 H   0  0  0  0  0  0  0  0  0  0  0  0
   18.4651   18.0015   21.3248 H   0  0  0  0  0  0  0  0  0  0  0  0
   19.7783   18.6387   22.9326 C   0  0  0  0  0  0  0  0  0  0  0  0
   20.4915   19.4491   23.1210 H   0  0  0  0  0  0  0  0  0  0  0  0
   20.3225   17.6891   23.0287 H   0  0  0  0  0  0  0  0  0  0  0  0
   18.6453   18.6981   23.9845 C   0  0  0  0  0  0  0  0  0  0  0  0
   18.1747   19.6908   23.9596 H   0  0  0  0  0  0  0  0  0  0  0  0
   17.8611   17.9808   23.7052 H   0  0  0  0  0  0  0  0  0  0  0  0
   19.0966   18.3774   25.4324 C   0  0  0  0  0  0  0  0  0  0  0  0
   19.5081   17.3608   25.4884 H   0  0  0  0  0  0  0  0  0  0  0  0
   18.2029   18.3760   26.0706 H   0  0  0  0  0  0  0  0  0  0  0  0
   20.0989   19.3868   26.0299 C   0  0  0  0  0  0  0  0  0  0  0  0
   19.8261   20.4024   25.7308 H   0  0  0  0  0  0  0  0  0  0  0  0
   20.0528   19.3307   27.1208 H   0  0  0  0  0  0  0  0  0  0  0  0
   21.5419   19.1377   25.6359 N   0  3  0  0  0  0  0  0  0  0  0  0
   22.1740   19.8315   26.0502 H   0  0  0  0  0  0  0  0  0  0  0  0
   21.6713   19.1775   24.6212 H   0  0  0  0  0  0  0  0  0  0  0  0
   21.8658   18.2161   25.9469 H   0  0  0  0  0  0  0  0  0  0  0  0
  1  2  1  0  0  0  0
  1  3  1  0  0  0  0
  1  4  1  0  0  0  0
  1  5  1  0  0  0  0
  5  6  1  0  0  0  0
  5  7  1  0  0  0  0
  5  8  1  0  0  0  0
  8  9  1  0  0  0  0
  8 10  1  0  0  0  0
  8 11  1  0  0  0  0
 11 12  1  0  0  0  0
 11 13  1  0  0  0  0
 11 14  1  0  0  0  0
 14 15  1  0  0  0  0
 14 16  1  0  0  0  0
 14 17  1  0  0  0  0
 17 18  1  0  0  0  0
 17 19  1  0  0  0  0
 17 20  1  0  0  0  0
 20 21  1  0  0  0  0
 20 22  1  0  0  0  0
 20 23  1  0  0  0  0
 23 24  1  0  0  0  0
 23 25  1  0  0  0  0
 23 26  1  0  0  0  0
M  END
> <VM2 Rank>
122

> <Conf_Id>
387

> <Probability>
0.02

> <Sum Probability>
99.50

> <Delta G>
3.625

> <G>
51.886

> <E>
19.277

> <-TS>
32.609

> <U+W>
-2.185

> <U>
51.693

> <W>
-53.877

> <W(PB)>
-56.146

> <W(SA)>
2.268

> <Valence>
4.262

> <Coulomb>
46.777

> <VdW>
0.653

> <VdW6>
-7.961

> <VdW12>
8.615

> <Bond>
0.225

> <Angle>
1.192

> <Pdih>
2.845

> <Idih>
0.000

> <Tether>
0.000

$$$$
VeraChem MOL file


 26 25  0  0  0  0  0  0  0  0999 V2000     
   20.1333   19.5128   19.6624 C   0  0  0  0  0  0  0  0  0  0  0  0
   19.2031   18.9368   19.5845 H   0  0  0  0  0  0  0  0  0  0  0  0
   19.8733   20.5656   19.8327 H   0  0  0  0  0  0  0  0  0  0  0  0
   20.6430   19.4462   18.6925 H   0  0  0  0  0  0  0  0  0  0  0  0
   21.0451   18.9760   20.7893 C   0  0  0  0  0  0  0  0  0  0  0  0
   22.0100   19.4997   20.7390 H   0  0  0  0  0  0  0  0  0  0  0  0
   21.2635   17.9130   20.6156 H   0  0  0  0  0  0  0  0  0  0  0  0
   20.4537   19.1656   22.2073 C   0  0  0  0  0  0  0  0  0  0  0  0
   21.2340   18.9003   22.9316 H   0  0  0  0  0  0  0  0  0  0  0  0
   20.2175   20.2264   22.3681 H   0  0  0  0  0  0  0  0  0  0  0  0
   19.1984   18.2981   22.4742 C   0  0  0  0  0  0  0  0  0  0  0  0
   19.4670   17.2358   22.3941 H   0  0  0  0  0  0  0  0  0  0  0  0
   18.4516   18.4834   21.6919 H   0  0  0  0  0  0  0  0  0  0  0  0
   18.5176   18.5556   23.8438 C   0  0  0  0  0  0  0  0  0  0  0  0
   18.1438   19.5879   23.8909 H   0  0  0  0  0  0  0  0  0  0  0  0
   17.6264   17.9148   23.8955 H   0  0  0  0  0  0  0  0  0  0  0  0
   19.4003   18.2538   25.0811 C   0  0  0  0  0  0  0  0  0  0  0  0
   20.0493   17.3909   24.8812 H   0  0  0  0  0  0  0  0  0  0  0  0
   18.7466   17.9636   25.9145 H   0  0  0  0  0  0  0  0  0  0  0  0
   20.2401   19.4648   25.5326 C   0  0  0  0  0  0  0  0  0  0  0  0
   20.9053   19.7861   24.7290 H   0  0  0  0  0  0  0  0  0  0  0  0
   19.5767   20.2981   25.7792 H   0  0  0  0  0  0  0  0  0  0  0  0
   21.0925   19.1724   26.7504 N   0  3  0  0  0  0  0  0  0  0  0  0
   20.5236   18.8955   27.5571 H   0  0  0  0  0  0  0  0  0  0  0  0
   21.6397   19.9910   27.0382 H   0  0  0  0  0  0  0  0  0  0  0  0
   21.7594   18.4132   26.5769 H   0  0  0  0  0  0  0  0  0  0  0  0
  1  2  1  0  0  0  0
  1  3  1  0  0  0  0
  1  4  1  0  0  0  0
  1  5  1  0  0  0  0
  5  6  1  0  0  0  0
  5  7  1  0  0  0  0
  5  8  1  0  0  0  0
  8  9  1  0  0  0  0
  8 10  1  0  0  0  0
  8 11  1  0  0  0  0
 11 12  1  0  0  0  0
 11 13  1  0  0  0  0
 11 14  1  0  0  0  0
 14 15  1  0  0  0  0
 14 16  1  0  0  0  0
 14 17  1  0  0  0  0
 17 18  1  0  0  0  0
 17 19  1  0  0  0  0
 17 20  1  0  0  0  0
 20 21  1  0  0  0  0
 20 22  1  0  0  0  0
 20 23  1  0  0  0  0
 23 24  1  0  0  0  0
 23 25  1  0  0  0  0
 23 26  1  0  0  0  0
M  END
> <VM2 Rank>
123

> <Conf_Id>
520

> <Probability>
0.02

> <Sum Probability>
99.51

> <Delta G>
3.641

> <G>
51.902

> <E>
19.157

> <-TS>
32.746

> <U+W>
-2.305

> <U>
51.609

> <W>
-53.914

> <W(PB)>
-56.221

> <W(SA)>
2.307

> <Valence>
5.204

> <Coulomb>
45.645

> <VdW>
0.760

> <VdW6>
-7.997

> <VdW12>
8.758

> <Bond>
0.240

> <Angle>
1.456

> <Pdih>
3.508

> <Idih>
0.000

> <Tether>
0.000

$$$$
VeraChem MOL file


 26 25  0  0  0  0  0  0  0  0999 V2000     
   19.5912   19.1548   19.6441 C   0  0  0  0  0  0  0  0  0  0  0  0
   19.4972   18.6900   18.6541 H   0  0  0  0  0  0  0  0  0  0  0  0
   18.7187   19.8039   19.7937 H   0  0  0  0  0  0  0  0  0  0  0  0
   20.4894   19.7840   19.6273 H   0  0  0  0  0  0  0  0  0  0  0  0
   19.6731   18.0712   20.7435 C   0  0  0  0  0  0  0  0  0  0  0  0
   20.5715   17.4565   20.5929 H   0  0  0  0  0  0  0  0  0  0  0  0
   18.8152   17.3933   20.6322 H   0  0  0  0  0  0  0  0  0  0  0  0
   19.6651   18.6459   22.1809 C   0  0  0  0  0  0  0  0  0  0  0  0
   18.7761   19.2763   22.3197 H   0  0  0  0  0  0  0  0  0  0  0  0
   19.5684   17.8025   22.8760 H   0  0  0  0  0  0  0  0  0  0  0  0
   20.9425   19.4485   22.5324 C   0  0  0  0  0  0  0  0  0  0  0  0
   21.1021   20.2315   21.7805 H   0  0  0  0  0  0  0  0  0  0  0  0
   21.8164   18.7853   22.4727 H   0  0  0  0  0  0  0  0  0  0  0  0
   20.9096   20.1333   23.9237 C   0  0  0  0  0  0  0  0  0  0  0  0
   21.8457   20.6976   24.0365 H   0  0  0  0  0  0  0  0  0  0  0  0
   20.1060   20.8821   23.9565 H   0  0  0  0  0  0  0  0  0  0  0  0
   20.7827   19.1656   25.1273 C   0  0  0  0  0  0  0  0  0  0  0  0
   21.2674   19.6259   25.9986 H   0  0  0  0  0  0  0  0  0  0  0  0
   21.3298   18.2354   24.9238 H   0  0  0  0  0  0  0  0  0  0  0  0
   19.3197   18.8578   25.5020 C   0  0  0  0  0  0  0  0  0  0  0  0
   18.8034   19.7881   25.7536 H   0  0  0  0  0  0  0  0  0  0  0  0
   18.8006   18.3983   24.6589 H   0  0  0  0  0  0  0  0  0  0  0  0
   19.1971   17.9221   26.6871 N   0  3  0  0  0  0  0  0  0  0  0  0
   18.2170   17.7334   26.9241 H   0  0  0  0  0  0  0  0  0  0  0  0
   19.6374   18.3107   27.5275 H   0  0  0  0  0  0  0  0  0  0  0  0
   19.6405   17.0156   26.5060 H   0  0  0  0  0  0  0  0  0  0  0  0
  1  2  1  0  0  0  0
  1  3  1  0  0  0  0
  1  4  1  0  0  0  0
  1  5  1  0  0  0  0
  5  6  1  0  0  0  0
  5  7  1  0  0  0  0
  5  8  1  0  0  0  0
  8  9  1  0  0  0  0
  8 10  1  0  0  0  0
  8 11  1  0  0  0  0
 11 12  1  0  0  0  0
 11 13  1  0  0  0  0
 11 14  1  0  0  0  0
 14 15  1  0  0  0  0
 14 16  1  0  0  0  0
 14 17  1  0  0  0  0
 17 18  1  0  0  0  0
 17 19  1  0  0  0  0
 17 20  1  0  0  0  0
 20 21  1  0  0  0  0
 20 22  1  0  0  0  0
 20 23  1  0  0  0  0
 23 24  1  0  0  0  0
 23 25  1  0  0  0  0
 23 26  1  0  0  0  0
M  END
> <VM2 Rank>
124

> <Conf_Id>
949

> <Probability>
0.02

> <Sum Probability>
99.53

> <Delta G>
3.646

> <G>
51.907

> <E>
19.162

> <-TS>
32.745

> <U+W>
-2.300

> <U>
51.609

> <W>
-53.909

> <W(PB)>
-56.179

> <W(SA)>
2.270

> <Valence>
5.204

> <Coulomb>
45.645

> <VdW>
0.760

> <VdW6>
-7.997

> <VdW12>
8.758

> <Bond>
0.240

> <Angle>
1.456

> <Pdih>
3.508

> <Idih>
0.000

> <Tether>
0.000

$$$$
VeraChem MOL file


 26 25  0  0  0  0  0  0  0  0999 V2000     
   20.3765   20.2981   19.9949 C   0  0  0  0  0  0  0  0  0  0  0  0
   19.7613   19.9541   19.1532 H   0  0  0  0  0  0  0  0  0  0  0  0
   19.8663   21.1481   20.4665 H   0  0  0  0  0  0  0  0  0  0  0  0
   21.3301   20.6604   19.5892 H   0  0  0  0  0  0  0  0  0  0  0  0
   20.6134   19.1607   21.0108 C   0  0  0  0  0  0  0  0  0  0  0  0
   21.2658   19.5261   21.8127 H   0  0  0  0  0  0  0  0  0  0  0  0
   21.1548   18.3417   20.5170 H   0  0  0  0  0  0  0  0  0  0  0  0
   19.2808   18.6260   21.5887 C   0  0  0  0  0  0  0  0  0  0  0  0
   18.6999   19.4452   22.0344 H   0  0  0  0  0  0  0  0  0  0  0  0
   18.6759   18.2455   20.7540 H   0  0  0  0  0  0  0  0  0  0  0  0
   19.4678   17.4821   22.6194 C   0  0  0  0  0  0  0  0  0  0  0  0
   20.3804   16.9124   22.3964 H   0  0  0  0  0  0  0  0  0  0  0  0
   18.6388   16.7716   22.4950 H   0  0  0  0  0  0  0  0  0  0  0  0
   19.4712   17.9382   24.1014 C   0  0  0  0  0  0  0  0  0  0  0  0
   18.5087   18.4137   24.3329 H   0  0  0  0  0  0  0  0  0  0  0  0
   19.5325   17.0437   24.7369 H   0  0  0  0  0  0  0  0  0  0  0  0
   20.6298   18.8956   24.4708 C   0  0  0  0  0  0  0  0  0  0  0  0
   20.5055   19.8568   23.9564 H   0  0  0  0  0  0  0  0  0  0  0  0
   21.5809   18.4676   24.1277 H   0  0  0  0  0  0  0  0  0  0  0  0
   20.7271   19.1486   25.9876 C   0  0  0  0  0  0  0  0  0  0  0  0
   20.8517   18.1973   26.5120 H   0  0  0  0  0  0  0  0  0  0  0  0
   21.6019   19.7704   26.1967 H   0  0  0  0  0  0  0  0  0  0  0  0
   19.5144   19.8498   26.5674 N   0  3  0  0  0  0  0  0  0  0  0  0
   19.3581   20.7640   26.1307 H   0  0  0  0  0  0  0  0  0  0  0  0
   19.6143   20.0121   27.5753 H   0  0  0  0  0  0  0  0  0  0  0  0
   18.6596   19.3004   26.4353 H   0  0  0  0  0  0  0  0  0  0  0  0
  1  2  1  0  0  0  0
  1  3  1  0  0  0  0
  1  4  1  0  0  0  0
  1  5  1  0  0  0  0
  5  6  1  0  0  0  0
  5  7  1  0  0  0  0
  5  8  1  0  0  0  0
  8  9  1  0  0  0  0
  8 10  1  0  0  0  0
  8 11  1  0  0  0  0
 11 12  1  0  0  0  0
 11 13  1  0  0  0  0
 11 14  1  0  0  0  0
 14 15  1  0  0  0  0
 14 16  1  0  0  0  0
 14 17  1  0  0  0  0
 17 18  1  0  0  0  0
 17 19  1  0  0  0  0
 17 20  1  0  0  0  0
 20 21  1  0  0  0  0
 20 22  1  0  0  0  0
 20 23  1  0  0  0  0
 23 24  1  0  0  0  0
 23 25  1  0  0  0  0
 23 26  1  0  0  0  0
M  END
> <VM2 Rank>
125

> <Conf_Id>
247

> <Probability>
0.02

> <Sum Probability>
99.55

> <Delta G>
3.649

> <G>
51.910

> <E>
19.079

> <-TS>
32.831

> <U+W>
-2.382

> <U>
51.463

> <W>
-53.846

> <W(PB)>
-56.122

> <W(SA)>
2.276

> <Valence>
5.277

> <Coulomb>
45.445

> <VdW>
0.741

> <VdW6>
-7.943

> <VdW12>
8.685

> <Bond>
0.235

> <Angle>
1.187

> <Pdih>
3.855

> <Idih>
0.000

> <Tether>
0.000

$$$$
VeraChem MOL file


 26 25  0  0  0  0  0  0  0  0999 V2000     
   19.1921   20.3128   20.7346 C   0  0  0  0  0  0  0  0  0  0  0  0
   19.4365   21.2439   20.2071 H   0  0  0  0  0  0  0  0  0  0  0  0
   18.2326   19.9507   20.3429 H   0  0  0  0  0  0  0  0  0  0  0  0
   19.0530   20.5581   21.7930 H   0  0  0  0  0  0  0  0  0  0  0  0
   20.3067   19.2621   20.5210 C   0  0  0  0  0  0  0  0  0  0  0  0
   21.2757   19.6599   20.8533 H   0  0  0  0  0  0  0  0  0  0  0  0
   20.4058   19.0896   19.4401 H   0  0  0  0  0  0  0  0  0  0  0  0
   20.0154   17.9052   21.2123 C   0  0  0  0  0  0  0  0  0  0  0  0
   18.9319   17.7314   21.2671 H   0  0  0  0  0  0  0  0  0  0  0  0
   20.4108   17.1042   20.5723 H   0  0  0  0  0  0  0  0  0  0  0  0
   20.6541   17.7377   22.6153 C   0  0  0  0  0  0  0  0  0  0  0  0
   21.7472   17.8073   22.5288 H   0  0  0  0  0  0  0  0  0  0  0  0
   20.4398   16.7202   22.9705 H   0  0  0  0  0  0  0  0  0  0  0  0
   20.1557   18.7534   23.6692 C   0  0  0  0  0  0  0  0  0  0  0  0
   20.4825   19.7636   23.3901 H   0  0  0  0  0  0  0  0  0  0  0  0
   19.0578   18.7560   23.6798 H   0  0  0  0  0  0  0  0  0  0  0  0
   20.6958   18.4255   25.0813 C   0  0  0  0  0  0  0  0  0  0  0  0
   21.7926   18.3822   25.0498 H   0  0  0  0  0  0  0  0  0  0  0  0
   20.3516   17.4310   25.3951 H   0  0  0  0  0  0  0  0  0  0  0  0
   20.2787   19.4696   26.1349 C   0  0  0  0  0  0  0  0  0  0  0  0
   20.7562   19.2323   27.0895 H   0  0  0  0  0  0  0  0  0  0  0  0
   20.6149   20.4621   25.8229 H   0  0  0  0  0  0  0  0  0  0  0  0
   18.7826   19.5327   26.3725 N   0  3  0  0  0  0  0  0  0  0  0  0
   18.2732   19.7876   25.5208 H   0  0  0  0  0  0  0  0  0  0  0  0
   18.5397   20.2275   27.0871 H   0  0  0  0  0  0  0  0  0  0  0  0
   18.4097   18.6326   26.6913 H   0  0  0  0  0  0  0  0  0  0  0  0
  1  2  1  0  0  0  0
  1  3  1  0  0  0  0
  1  4  1  0  0  0  0
  1  5  1  0  0  0  0
  5  6  1  0  0  0  0
  5  7  1  0  0  0  0
  5  8  1  0  0  0  0
  8  9  1  0  0  0  0
  8 10  1  0  0  0  0
  8 11  1  0  0  0  0
 11 12  1  0  0  0  0
 11 13  1  0  0  0  0
 11 14  1  0  0  0  0
 14 15  1  0  0  0  0
 14 16  1  0  0  0  0
 14 17  1  0  0  0  0
 17 18  1  0  0  0  0
 17 19  1  0  0  0  0
 17 20  1  0  0  0  0
 20 21  1  0  0  0  0
 20 22  1  0  0  0  0
 20 23  1  0  0  0  0
 23 24  1  0  0  0  0
 23 25  1  0  0  0  0
 23 26  1  0  0  0  0
M  END
> <VM2 Rank>
126

> <Conf_Id>
553

> <Probability>
0.02

> <Sum Probability>
99.56

> <Delta G>
3.662

> <G>
51.923

> <E>
19.125

> <-TS>
32.798

> <U+W>
-2.337

> <U>
51.512

> <W>
-53.848

> <W(PB)>
-56.117

> <W(SA)>
2.269

> <Valence>
5.253

> <Coulomb>
45.470

> <VdW>
0.789

> <VdW6>
-7.872

> <VdW12>
8.661

> <Bond>
0.233

> <Angle>
1.235

> <Pdih>
3.785

> <Idih>
0.000

> <Tether>
0.000

$$$$
VeraChem MOL file


 26 25  0  0  0  0  0  0  0  0999 V2000     
   18.5402   18.5280   20.9260 C   0  0  0  0  0  0  0  0  0  0  0  0
   18.0546   19.4415   21.2929 H   0  0  0  0  0  0  0  0  0  0  0  0
   17.8822   18.0777   20.1715 H   0  0  0  0  0  0  0  0  0  0  0  0
   18.6211   17.8158   21.7563 H   0  0  0  0  0  0  0  0  0  0  0  0
   19.9249   18.8389   20.3172 C   0  0  0  0  0  0  0  0  0  0  0  0
   19.7816   19.4137   19.3916 H   0  0  0  0  0  0  0  0  0  0  0  0
   20.4109   17.8993   20.0193 H   0  0  0  0  0  0  0  0  0  0  0  0
   20.8691   19.6387   21.2509 C   0  0  0  0  0  0  0  0  0  0  0  0
   21.7939   19.8386   20.6922 H   0  0  0  0  0  0  0  0  0  0  0  0
   20.4371   20.6248   21.4701 H   0  0  0  0  0  0  0  0  0  0  0  0
   21.2482   18.9116   22.5675 C   0  0  0  0  0  0  0  0  0  0  0  0
   22.2882   19.1640   22.8165 H   0  0  0  0  0  0  0  0  0  0  0  0
   21.2278   17.8236   22.4157 H   0  0  0  0  0  0  0  0  0  0  0  0
   20.3547   19.3070   23.7687 C   0  0  0  0  0  0  0  0  0  0  0  0
   20.4391   20.3884   23.9440 H   0  0  0  0  0  0  0  0  0  0  0  0
   19.3024   19.1088   23.5371 H   0  0  0  0  0  0  0  0  0  0  0  0
   20.7567   18.5472   25.0549 C   0  0  0  0  0  0  0  0  0  0  0  0
   21.8184   18.7294   25.2683 H   0  0  0  0  0  0  0  0  0  0  0  0
   20.6490   17.4651   24.9017 H   0  0  0  0  0  0  0  0  0  0  0  0
   19.9318   18.9773   26.2833 C   0  0  0  0  0  0  0  0  0  0  0  0
   20.3170   18.4724   27.1733 H   0  0  0  0  0  0  0  0  0  0  0  0
   20.0304   20.0557   26.4337 H   0  0  0  0  0  0  0  0  0  0  0  0
   18.4554   18.6504   26.1726 N   0  3  0  0  0  0  0  0  0  0  0  0
   18.0201   19.1248   25.3756 H   0  0  0  0  0  0  0  0  0  0  0  0
   17.9386   18.9366   27.0113 H   0  0  0  0  0  0  0  0  0  0  0  0
   18.2963   17.6448   26.0518 H   0  0  0  0  0  0  0  0  0  0  0  0
  1  2  1  0  0  0  0
  1  3  1  0  0  0  0
  1  4  1  0  0  0  0
  1  5  1  0  0  0  0
  5  6  1  0  0  0  0
  5  7  1  0  0  0  0
  5  8  1  0  0  0  0
  8  9  1  0  0  0  0
  8 10  1  0  0  0  0
  8 11  1  0  0  0  0
 11 12  1  0  0  0  0
 11 13  1  0  0  0  0
 11 14  1  0  0  0  0
 14 15  1  0  0  0  0
 14 16  1  0  0  0  0
 14 17  1  0  0  0  0
 17 18  1  0  0  0  0
 17 19  1  0  0  0  0
 17 20  1  0  0  0  0
 20 21  1  0  0  0  0
 20 22  1  0  0  0  0
 20 23  1  0  0  0  0
 23 24  1  0  0  0  0
 23 25  1  0  0  0  0
 23 26  1  0  0  0  0
M  END
> <VM2 Rank>
127

> <Conf_Id>
1068

> <Probability>
0.02

> <Sum Probability>
99.58

> <Delta G>
3.697

> <G>
51.959

> <E>
19.141

> <-TS>
32.817

> <U+W>
-2.321

> <U>
51.663

> <W>
-53.984

> <W(PB)>
-56.239

> <W(SA)>
2.256

> <Valence>
5.225

> <Coulomb>
45.676

> <VdW>
0.761

> <VdW6>
-7.910

> <VdW12>
8.671

> <Bond>
0.235

> <Angle>
1.177

> <Pdih>
3.813

> <Idih>
0.000

> <Tether>
0.000

$$$$
VeraChem MOL file


 26 25  0  0  0  0  0  0  0  0999 V2000     
   20.6660   20.0036   19.8195 C   0  0  0  0  0  0  0  0  0  0  0  0
   20.0978   19.6002   18.9712 H   0  0  0  0  0  0  0  0  0  0  0  0
   20.1962   20.9465   20.1283 H   0  0  0  0  0  0  0  0  0  0  0  0
   21.6804   20.2319   19.4675 H   0  0  0  0  0  0  0  0  0  0  0  0
   20.7084   18.9966   20.9883 C   0  0  0  0  0  0  0  0  0  0  0  0
   21.3185   19.4124   21.7992 H   0  0  0  0  0  0  0  0  0  0  0  0
   21.2144   18.0791   20.6570 H   0  0  0  0  0  0  0  0  0  0  0  0
   19.2873   18.6497   21.4941 C   0  0  0  0  0  0  0  0  0  0  0  0
   18.7424   19.5643   21.7659 H   0  0  0  0  0  0  0  0  0  0  0  0
   18.7288   18.2016   20.6606 H   0  0  0  0  0  0  0  0  0  0  0  0
   19.2818   17.6519   22.6816 C   0  0  0  0  0  0  0  0  0  0  0  0
   20.1682   17.0040   22.6396 H   0  0  0  0  0  0  0  0  0  0  0  0
   18.4201   16.9810   22.5601 H   0  0  0  0  0  0  0  0  0  0  0  0
   19.1673   18.3081   24.0820 C   0  0  0  0  0  0  0  0  0  0  0  0
   18.2219   18.8644   24.1474 H   0  0  0  0  0  0  0  0  0  0  0  0
   19.1009   17.5045   24.8271 H   0  0  0  0  0  0  0  0  0  0  0  0
   20.3418   19.2499   24.4432 C   0  0  0  0  0  0  0  0  0  0  0  0
   20.3488   20.1052   23.7563 H   0  0  0  0  0  0  0  0  0  0  0  0
   21.2991   18.7275   24.3152 H   0  0  0  0  0  0  0  0  0  0  0  0
   20.2433   19.8001   25.8793 C   0  0  0  0  0  0  0  0  0  0  0  0
   21.0339   20.5385   26.0387 H   0  0  0  0  0  0  0  0  0  0  0  0
   19.2796   20.2976   26.0179 H   0  0  0  0  0  0  0  0  0  0  0  0
   20.3851   18.7389   26.9529 N   0  3  0  0  0  0  0  0  0  0  0  0
   21.2838   18.2499   26.8886 H   0  0  0  0  0  0  0  0  0  0  0  0
   19.6487   18.0297   26.8861 H   0  0  0  0  0  0  0  0  0  0  0  0
   20.3297   19.1410   27.8951 H   0  0  0  0  0  0  0  0  0  0  0  0
  1  2  1  0  0  0  0
  1  3  1  0  0  0  0
  1  4  1  0  0  0  0
  1  5  1  0  0  0  0
  5  6  1  0  0  0  0
  5  7  1  0  0  0  0
  5  8  1  0  0  0  0
  8  9  1  0  0  0  0
  8 10  1  0  0  0  0
  8 11  1  0  0  0  0
 11 12  1  0  0  0  0
 11 13  1  0  0  0  0
 11 14  1  0  0  0  0
 14 15  1  0  0  0  0
 14 16  1  0  0  0  0
 14 17  1  0  0  0  0
 17 18  1  0  0  0  0
 17 19  1  0  0  0  0
 17 20  1  0  0  0  0
 20 21  1  0  0  0  0
 20 22  1  0  0  0  0
 20 23  1  0  0  0  0
 23 24  1  0  0  0  0
 23 25  1  0  0  0  0
 23 26  1  0  0  0  0
M  END
> <VM2 Rank>
128

> <Conf_Id>
815

> <Probability>
0.01

> <Sum Probability>
99.59

> <Delta G>
3.714

> <G>
51.975

> <E>
19.150

> <-TS>
32.825

> <U+W>
-2.312

> <U>
51.407

> <W>
-53.719

> <W(PB)>
-56.001

> <W(SA)>
2.281

> <Valence>
5.338

> <Coulomb>
45.268

> <VdW>
0.801

> <VdW6>
-7.902

> <VdW12>
8.703

> <Bond>
0.239

> <Angle>
1.230

> <Pdih>
3.868

> <Idih>
0.000

> <Tether>
0.000

$$$$
VeraChem MOL file


 26 25  0  0  0  0  0  0  0  0999 V2000     
   19.7693   20.1797   20.1830 C   0  0  0  0  0  0  0  0  0  0  0  0
   19.2570   20.6176   21.0465 H   0  0  0  0  0  0  0  0  0  0  0  0
   20.2912   20.9915   19.6601 H   0  0  0  0  0  0  0  0  0  0  0  0
   19.0051   19.7829   19.5021 H   0  0  0  0  0  0  0  0  0  0  0  0
   20.7679   19.0735   20.5965 C   0  0  0  0  0  0  0  0  0  0  0  0
   21.5649   19.4941   21.2254 H   0  0  0  0  0  0  0  0  0  0  0  0
   21.2629   18.7080   19.6859 H   0  0  0  0  0  0  0  0  0  0  0  0
   20.0969   17.8710   21.3091 C   0  0  0  0  0  0  0  0  0  0  0  0
   19.0688   17.7382   20.9450 H   0  0  0  0  0  0  0  0  0  0  0  0
   20.6339   16.9582   21.0162 H   0  0  0  0  0  0  0  0  0  0  0  0
   20.1103   17.9416   22.8580 C   0  0  0  0  0  0  0  0  0  0  0  0
   21.1513   17.9725   23.2066 H   0  0  0  0  0  0  0  0  0  0  0  0
   19.6839   17.0069   23.2475 H   0  0  0  0  0  0  0  0  0  0  0  0
   19.3235   19.1374   23.4478 C   0  0  0  0  0  0  0  0  0  0  0  0
   19.8317   20.0774   23.1963 H   0  0  0  0  0  0  0  0  0  0  0  0
   18.3273   19.1800   22.9863 H   0  0  0  0  0  0  0  0  0  0  0  0
   19.1576   19.0527   24.9832 C   0  0  0  0  0  0  0  0  0  0  0  0
   18.6179   18.1332   25.2463 H   0  0  0  0  0  0  0  0  0  0  0  0
   18.5340   19.8908   25.3216 H   0  0  0  0  0  0  0  0  0  0  0  0
   20.5049   19.0933   25.7285 C   0  0  0  0  0  0  0  0  0  0  0  0
   21.1189   18.2399   25.4293 H   0  0  0  0  0  0  0  0  0  0  0  0
   21.0407   20.0107   25.4701 H   0  0  0  0  0  0  0  0  0  0  0  0
   20.3507   19.0499   27.2350 N   0  3  0  0  0  0  0  0  0  0  0  0
   21.2585   19.0778   27.7120 H   0  0  0  0  0  0  0  0  0  0  0  0
   19.8762   18.1959   27.5460 H   0  0  0  0  0  0  0  0  0  0  0  0
   19.8047   19.8434   27.5862 H   0  0  0  0  0  0  0  0  0  0  0  0
  1  2  1  0  0  0  0
  1  3  1  0  0  0  0
  1  4  1  0  0  0  0
  1  5  1  0  0  0  0
  5  6  1  0  0  0  0
  5  7  1  0  0  0  0
  5  8  1  0  0  0  0
  8  9  1  0  0  0  0
  8 10  1  0  0  0  0
  8 11  1  0  0  0  0
 11 12  1  0  0  0  0
 11 13  1  0  0  0  0
 11 14  1  0  0  0  0
 14 15  1  0  0  0  0
 14 16  1  0  0  0  0
 14 17  1  0  0  0  0
 17 18  1  0  0  0  0
 17 19  1  0  0  0  0
 17 20  1  0  0  0  0
 20 21  1  0  0  0  0
 20 22  1  0  0  0  0
 20 23  1  0  0  0  0
 23 24  1  0  0  0  0
 23 25  1  0  0  0  0
 23 26  1  0  0  0  0
M  END
> <VM2 Rank>
129

> <Conf_Id>
531

> <Probability>
0.01

> <Sum Probability>
99.61

> <Delta G>
3.715

> <G>
51.976

> <E>
19.186

> <-TS>
32.790

> <U+W>
-2.276

> <U>
51.296

> <W>
-53.572

> <W(PB)>
-55.840

> <W(SA)>
2.268

> <Valence>
5.428

> <Coulomb>
45.118

> <VdW>
0.751

> <VdW6>
-7.913

> <VdW12>
8.664

> <Bond>
0.235

> <Angle>
1.292

> <Pdih>
3.901

> <Idih>
0.000

> <Tether>
0.000

$$$$
VeraChem MOL file


 26 25  0  0  0  0  0  0  0  0999 V2000     
   18.9771   19.1868   19.7258 C   0  0  0  0  0  0  0  0  0  0  0  0
   19.6013   18.7187   18.9535 H   0  0  0  0  0  0  0  0  0  0  0  0
   17.9402   18.8669   19.5600 H   0  0  0  0  0  0  0  0  0  0  0  0
   19.0204   20.2751   19.5873 H   0  0  0  0  0  0  0  0  0  0  0  0
   19.4508   18.7886   21.1397 C   0  0  0  0  0  0  0  0  0  0  0  0
   19.3711   17.6989   21.2572 H   0  0  0  0  0  0  0  0  0  0  0  0
   18.7795   19.2451   21.8791 H   0  0  0  0  0  0  0  0  0  0  0  0
   20.9062   19.2386   21.4013 C   0  0  0  0  0  0  0  0  0  0  0  0
   21.5445   18.8723   20.5854 H   0  0  0  0  0  0  0  0  0  0  0  0
   20.9614   20.3353   21.3628 H   0  0  0  0  0  0  0  0  0  0  0  0
   21.5005   18.7400   22.7440 C   0  0  0  0  0  0  0  0  0  0  0  0
   22.5443   19.0806   22.7892 H   0  0  0  0  0  0  0  0  0  0  0  0
   21.5477   17.6423   22.7521 H   0  0  0  0  0  0  0  0  0  0  0  0
   20.7685   19.2576   24.0097 C   0  0  0  0  0  0  0  0  0  0  0  0
   21.5210   19.4484   24.7865 H   0  0  0  0  0  0  0  0  0  0  0  0
   20.2940   20.2265   23.8012 H   0  0  0  0  0  0  0  0  0  0  0  0
   19.7270   18.2553   24.5694 C   0  0  0  0  0  0  0  0  0  0  0  0
   20.2283   17.3252   24.8683 H   0  0  0  0  0  0  0  0  0  0  0  0
   19.0078   17.9793   23.7900 H   0  0  0  0  0  0  0  0  0  0  0  0
   18.9438   18.8220   25.7692 C   0  0  0  0  0  0  0  0  0  0  0  0
   18.4467   19.7513   25.4783 H   0  0  0  0  0  0  0  0  0  0  0  0
   18.1758   18.1051   26.0721 H   0  0  0  0  0  0  0  0  0  0  0  0
   19.8072   19.1100   26.9818 N   0  3  0  0  0  0  0  0  0  0  0  0
   20.2848   18.2674   27.3179 H   0  0  0  0  0  0  0  0  0  0  0  0
   19.2540   19.4734   27.7655 H   0  0  0  0  0  0  0  0  0  0  0  0
   20.5299   19.8067   26.7763 H   0  0  0  0  0  0  0  0  0  0  0  0
  1  2  1  0  0  0  0
  1  3  1  0  0  0  0
  1  4  1  0  0  0  0
  1  5  1  0  0  0  0
  5  6  1  0  0  0  0
  5  7  1  0  0  0  0
  5  8  1  0  0  0  0
  8  9  1  0  0  0  0
  8 10  1  0  0  0  0
  8 11  1  0  0  0  0
 11 12  1  0  0  0  0
 11 13  1  0  0  0  0
 11 14  1  0  0  0  0
 14 15  1  0  0  0  0
 14 16  1  0  0  0  0
 14 17  1  0  0  0  0
 17 18  1  0  0  0  0
 17 19  1  0  0  0  0
 17 20  1  0  0  0  0
 20 21  1  0  0  0  0
 20 22  1  0  0  0  0
 20 23  1  0  0  0  0
 23 24  1  0  0  0  0
 23 25  1  0  0  0  0
 23 26  1  0  0  0  0
M  END
> <VM2 Rank>
130

> <Conf_Id>
1338

> <Probability>
0.01

> <Sum Probability>
99.62

> <Delta G>
3.725

> <G>
51.986

> <E>
19.141

> <-TS>
32.845

> <U+W>
-2.320

> <U>
51.425

> <W>
-53.746

> <W(PB)>
-56.027

> <W(SA)>
2.282

> <Valence>
5.322

> <Coulomb>
45.311

> <VdW>
0.792

> <VdW6>
-7.911

> <VdW12>
8.703

> <Bond>
0.240

> <Angle>
1.176

> <Pdih>
3.906

> <Idih>
0.000

> <Tether>
0.000

$$$$
VeraChem MOL file


 26 25  0  0  0  0  0  0  0  0999 V2000     
   20.3406   20.0865   19.7713 C   0  0  0  0  0  0  0  0  0  0  0  0
   19.3304   20.4796   19.5977 H   0  0  0  0  0  0  0  0  0  0  0  0
   21.0491   20.9181   19.6638 H   0  0  0  0  0  0  0  0  0  0  0  0
   20.5617   19.3524   18.9855 H   0  0  0  0  0  0  0  0  0  0  0  0
   20.4549   19.4512   21.1733 C   0  0  0  0  0  0  0  0  0  0  0  0
   20.2645   20.2249   21.9286 H   0  0  0  0  0  0  0  0  0  0  0  0
   21.4818   19.0916   21.3276 H   0  0  0  0  0  0  0  0  0  0  0  0
   19.4584   18.2833   21.3530 C   0  0  0  0  0  0  0  0  0  0  0  0
   18.4311   18.6657   21.2782 H   0  0  0  0  0  0  0  0  0  0  0  0
   19.5824   17.5777   20.5198 H   0  0  0  0  0  0  0  0  0  0  0  0
   19.6208   17.4998   22.6812 C   0  0  0  0  0  0  0  0  0  0  0  0
   20.6104   17.0239   22.7208 H   0  0  0  0  0  0  0  0  0  0  0  0
   18.8965   16.6736   22.6673 H   0  0  0  0  0  0  0  0  0  0  0  0
   19.3736   18.3373   23.9631 C   0  0  0  0  0  0  0  0  0  0  0  0
   18.6793   19.1611   23.7473 H   0  0  0  0  0  0  0  0  0  0  0  0
   18.8671   17.6972   24.6978 H   0  0  0  0  0  0  0  0  0  0  0  0
   20.6769   18.8821   24.6011 C   0  0  0  0  0  0  0  0  0  0  0  0
   21.2488   19.4581   23.8649 H   0  0  0  0  0  0  0  0  0  0  0  0
   21.3209   18.0461   24.9048 H   0  0  0  0  0  0  0  0  0  0  0  0
   20.4078   19.7879   25.8182 C   0  0  0  0  0  0  0  0  0  0  0  0
   21.3536   20.2017   26.1785 H   0  0  0  0  0  0  0  0  0  0  0  0
   19.7626   20.6196   25.5223 H   0  0  0  0  0  0  0  0  0  0  0  0
   19.7479   19.0709   26.9798 N   0  3  0  0  0  0  0  0  0  0  0  0
   19.5947   19.6982   27.7769 H   0  0  0  0  0  0  0  0  0  0  0  0
   20.3188   18.2898   27.3189 H   0  0  0  0  0  0  0  0  0  0  0  0
   18.8339   18.6878   26.7195 H   0  0  0  0  0  0  0  0  0  0  0  0
  1  2  1  0  0  0  0
  1  3  1  0  0  0  0
  1  4  1  0  0  0  0
  1  5  1  0  0  0  0
  5  6  1  0  0  0  0
  5  7  1  0  0  0  0
  5  8  1  0  0  0  0
  8  9  1  0  0  0  0
  8 10  1  0  0  0  0
  8 11  1  0  0  0  0
 11 12  1  0  0  0  0
 11 13  1  0  0  0  0
 11 14  1  0  0  0  0
 14 15  1  0  0  0  0
 14 16  1  0  0  0  0
 14 17  1  0  0  0  0
 17 18  1  0  0  0  0
 17 19  1  0  0  0  0
 17 20  1  0  0  0  0
 20 21  1  0  0  0  0
 20 22  1  0  0  0  0
 20 23  1  0  0  0  0
 23 24  1  0  0  0  0
 23 25  1  0  0  0  0
 23 26  1  0  0  0  0
M  END
> <VM2 Rank>
131

> <Conf_Id>
990

> <Probability>
0.01

> <Sum Probability>
99.63

> <Delta G>
3.728

> <G>
51.989

> <E>
19.145

> <-TS>
32.845

> <U+W>
-2.317

> <U>
51.425

> <W>
-53.742

> <W(PB)>
-56.025

> <W(SA)>
2.282

> <Valence>
5.322

> <Coulomb>
45.311

> <VdW>
0.792

> <VdW6>
-7.911

> <VdW12>
8.703

> <Bond>
0.240

> <Angle>
1.176

> <Pdih>
3.906

> <Idih>
0.000

> <Tether>
0.000

$$$$
VeraChem MOL file


 26 25  0  0  0  0  0  0  0  0999 V2000     
   18.4550   19.1190   20.7499 C   0  0  0  0  0  0  0  0  0  0  0  0
   18.4560   20.0748   20.2099 H   0  0  0  0  0  0  0  0  0  0  0  0
   17.6578   18.4968   20.3229 H   0  0  0  0  0  0  0  0  0  0  0  0
   18.1939   19.3226   21.7940 H   0  0  0  0  0  0  0  0  0  0  0  0
   19.8233   18.4102   20.6183 C   0  0  0  0  0  0  0  0  0  0  0  0
   20.0050   18.2215   19.5509 H   0  0  0  0  0  0  0  0  0  0  0  0
   19.7899   17.4222   21.0981 H   0  0  0  0  0  0  0  0  0  0  0  0
   21.0043   19.2429   21.1804 C   0  0  0  0  0  0  0  0  0  0  0  0
   21.8828   19.0615   20.5457 H   0  0  0  0  0  0  0  0  0  0  0  0
   20.7902   20.3166   21.0884 H   0  0  0  0  0  0  0  0  0  0  0  0
   21.4057   18.9025   22.6391 C   0  0  0  0  0  0  0  0  0  0  0  0
   22.2892   19.5015   22.9000 H   0  0  0  0  0  0  0  0  0  0  0  0
   21.7219   17.8517   22.6945 H   0  0  0  0  0  0  0  0  0  0  0  0
   20.2952   19.1606   23.6835 C   0  0  0  0  0  0  0  0  0  0  0  0
   19.9108   20.1834   23.5672 H   0  0  0  0  0  0  0  0  0  0  0  0
   19.4590   18.4747   23.5004 H   0  0  0  0  0  0  0  0  0  0  0  0
   20.8105   18.9645   25.1290 C   0  0  0  0  0  0  0  0  0  0  0  0
   21.6688   19.6271   25.3027 H   0  0  0  0  0  0  0  0  0  0  0  0
   21.1755   17.9374   25.2624 H   0  0  0  0  0  0  0  0  0  0  0  0
   19.7366   19.2713   26.1906 C   0  0  0  0  0  0  0  0  0  0  0  0
   20.1816   19.2012   27.1870 H   0  0  0  0  0  0  0  0  0  0  0  0
   19.3648   20.2904   26.0544 H   0  0  0  0  0  0  0  0  0  0  0  0
   18.5503   18.3280   26.1502 N   0  3  0  0  0  0  0  0  0  0  0  0
   17.8619   18.5512   26.8773 H   0  0  0  0  0  0  0  0  0  0  0  0
   18.8339   17.3536   26.2957 H   0  0  0  0  0  0  0  0  0  0  0  0
   18.0614   18.3708   25.2508 H   0  0  0  0  0  0  0  0  0  0  0  0
  1  2  1  0  0  0  0
  1  3  1  0  0  0  0
  1  4  1  0  0  0  0
  1  5  1  0  0  0  0
  5  6  1  0  0  0  0
  5  7  1  0  0  0  0
  5  8  1  0  0  0  0
  8  9  1  0  0  0  0
  8 10  1  0  0  0  0
  8 11  1  0  0  0  0
 11 12  1  0  0  0  0
 11 13  1  0  0  0  0
 11 14  1  0  0  0  0
 14 15  1  0  0  0  0
 14 16  1  0  0  0  0
 14 17  1  0  0  0  0
 17 18  1  0  0  0  0
 17 19  1  0  0  0  0
 17 20  1  0  0  0  0
 20 21  1  0  0  0  0
 20 22  1  0  0  0  0
 20 23  1  0  0  0  0
 23 24  1  0  0  0  0
 23 25  1  0  0  0  0
 23 26  1  0  0  0  0
M  END
> <VM2 Rank>
132

> <Conf_Id>
445

> <Probability>
0.01

> <Sum Probability>
99.65

> <Delta G>
3.733

> <G>
51.994

> <E>
19.192

> <-TS>
32.803

> <U+W>
-2.270

> <U>
51.677

> <W>
-53.947

> <W(PB)>
-56.190

> <W(SA)>
2.243

> <Valence>
5.252

> <Coulomb>
45.638

> <VdW>
0.787

> <VdW6>
-7.893

> <VdW12>
8.680

> <Bond>
0.235

> <Angle>
1.222

> <Pdih>
3.795

> <Idih>
0.000

> <Tether>
0.000

$$$$
VeraChem MOL file


 26 25  0  0  0  0  0  0  0  0999 V2000     
   18.9235   18.8542   19.7613 C   0  0  0  0  0  0  0  0  0  0  0  0
   18.2276   19.6482   20.0623 H   0  0  0  0  0  0  0  0  0  0  0  0
   19.5566   19.2428   18.9530 H   0  0  0  0  0  0  0  0  0  0  0  0
   18.3316   18.0234   19.3558 H   0  0  0  0  0  0  0  0  0  0  0  0
   19.7772   18.3825   20.9573 C   0  0  0  0  0  0  0  0  0  0  0  0
   20.4367   17.5660   20.6312 H   0  0  0  0  0  0  0  0  0  0  0  0
   19.1179   17.9613   21.7258 H   0  0  0  0  0  0  0  0  0  0  0  0
   20.6304   19.5356   21.5390 C   0  0  0  0  0  0  0  0  0  0  0  0
   21.3002   19.8973   20.7465 H   0  0  0  0  0  0  0  0  0  0  0  0
   19.9918   20.3883   21.8075 H   0  0  0  0  0  0  0  0  0  0  0  0
   21.4937   19.1109   22.7556 C   0  0  0  0  0  0  0  0  0  0  0  0
   22.4540   19.6415   22.6949 H   0  0  0  0  0  0  0  0  0  0  0  0
   21.7428   18.0426   22.6923 H   0  0  0  0  0  0  0  0  0  0  0  0
   20.8708   19.4318   24.1389 C   0  0  0  0  0  0  0  0  0  0  0  0
   21.6003   19.1532   24.9106 H   0  0  0  0  0  0  0  0  0  0  0  0
   20.7280   20.5174   24.2311 H   0  0  0  0  0  0  0  0  0  0  0  0
   19.5278   18.7131   24.4160 C   0  0  0  0  0  0  0  0  0  0  0  0
   19.6377   17.6319   24.2596 H   0  0  0  0  0  0  0  0  0  0  0  0
   18.7714   19.0650   23.7036 H   0  0  0  0  0  0  0  0  0  0  0  0
   18.9942   18.9763   25.8375 C   0  0  0  0  0  0  0  0  0  0  0  0
   18.9093   20.0533   26.0056 H   0  0  0  0  0  0  0  0  0  0  0  0
   17.9982   18.5363   25.9373 H   0  0  0  0  0  0  0  0  0  0  0  0
   19.8634   18.3947   26.9354 N   0  3  0  0  0  0  0  0  0  0  0  0
   19.4720   18.5750   27.8664 H   0  0  0  0  0  0  0  0  0  0  0  0
   20.8071   18.7937   26.9248 H   0  0  0  0  0  0  0  0  0  0  0  0
   19.9628   17.3784   26.8442 H   0  0  0  0  0  0  0  0  0  0  0  0
  1  2  1  0  0  0  0
  1  3  1  0  0  0  0
  1  4  1  0  0  0  0
  1  5  1  0  0  0  0
  5  6  1  0  0  0  0
  5  7  1  0  0  0  0
  5  8  1  0  0  0  0
  8  9  1  0  0  0  0
  8 10  1  0  0  0  0
  8 11  1  0  0  0  0
 11 12  1  0  0  0  0
 11 13  1  0  0  0  0
 11 14  1  0  0  0  0
 14 15  1  0  0  0  0
 14 16  1  0  0  0  0
 14 17  1  0  0  0  0
 17 18  1  0  0  0  0
 17 19  1  0  0  0  0
 17 20  1  0  0  0  0
 20 21  1  0  0  0  0
 20 22  1  0  0  0  0
 20 23  1  0  0  0  0
 23 24  1  0  0  0  0
 23 25  1  0  0  0  0
 23 26  1  0  0  0  0
M  END
> <VM2 Rank>
133

> <Conf_Id>
1361

> <Probability>
0.01

> <Sum Probability>
99.66

> <Delta G>
3.745

> <G>
52.006

> <E>
19.181

> <-TS>
32.825

> <U+W>
-2.281

> <U>
51.407

> <W>
-53.688

> <W(PB)>
-55.962

> <W(SA)>
2.273

> <Valence>
5.338

> <Coulomb>
45.268

> <VdW>
0.801

> <VdW6>
-7.902

> <VdW12>
8.703

> <Bond>
0.239

> <Angle>
1.230

> <Pdih>
3.868

> <Idih>
0.000

> <Tether>
0.000

$$$$
VeraChem MOL file


 26 25  0  0  0  0  0  0  0  0999 V2000     
   18.6344   19.3928   20.7732 C   0  0  0  0  0  0  0  0  0  0  0  0
   18.9258   20.4506   20.7418 H   0  0  0  0  0  0  0  0  0  0  0  0
   17.8137   19.2490   20.0586 H   0  0  0  0  0  0  0  0  0  0  0  0
   18.2416   19.1668   21.7721 H   0  0  0  0  0  0  0  0  0  0  0  0
   19.8252   18.4757   20.4185 C   0  0  0  0  0  0  0  0  0  0  0  0
   20.0729   18.6149   19.3569 H   0  0  0  0  0  0  0  0  0  0  0  0
   19.5198   17.4254   20.5242 H   0  0  0  0  0  0  0  0  0  0  0  0
   21.1023   18.7326   21.2587 C   0  0  0  0  0  0  0  0  0  0  0  0
   21.8842   18.0567   20.8855 H   0  0  0  0  0  0  0  0  0  0  0  0
   21.4773   19.7486   21.0742 H   0  0  0  0  0  0  0  0  0  0  0  0
   20.9374   18.4862   22.7811 C   0  0  0  0  0  0  0  0  0  0  0  0
   21.8784   18.0724   23.1692 H   0  0  0  0  0  0  0  0  0  0  0  0
   20.1741   17.7152   22.9501 H   0  0  0  0  0  0  0  0  0  0  0  0
   20.6118   19.7742   23.5808 C   0  0  0  0  0  0  0  0  0  0  0  0
   21.4051   20.5139   23.4057 H   0  0  0  0  0  0  0  0  0  0  0  0
   19.6833   20.2312   23.2183 H   0  0  0  0  0  0  0  0  0  0  0  0
   20.4955   19.5271   25.1031 C   0  0  0  0  0  0  0  0  0  0  0  0
   20.3706   20.4921   25.6121 H   0  0  0  0  0  0  0  0  0  0  0  0
   21.4305   19.0915   25.4798 H   0  0  0  0  0  0  0  0  0  0  0  0
   19.3123   18.6104   25.4664 C   0  0  0  0  0  0  0  0  0  0  0  0
   18.3817   19.0450   25.0915 H   0  0  0  0  0  0  0  0  0  0  0  0
   19.4465   17.6303   25.0018 H   0  0  0  0  0  0  0  0  0  0  0  0
   19.1622   18.4000   26.9592 N   0  3  0  0  0  0  0  0  0  0  0  0
   19.0042   19.2831   27.4555 H   0  0  0  0  0  0  0  0  0  0  0  0
   19.9965   17.9683   27.3699 H   0  0  0  0  0  0  0  0  0  0  0  0
   18.3695   17.7875   27.1800 H   0  0  0  0  0  0  0  0  0  0  0  0
  1  2  1  0  0  0  0
  1  3  1  0  0  0  0
  1  4  1  0  0  0  0
  1  5  1  0  0  0  0
  5  6  1  0  0  0  0
  5  7  1  0  0  0  0
  5  8  1  0  0  0  0
  8  9  1  0  0  0  0
  8 10  1  0  0  0  0
  8 11  1  0  0  0  0
 11 12  1  0  0  0  0
 11 13  1  0  0  0  0
 11 14  1  0  0  0  0
 14 15  1  0  0  0  0
 14 16  1  0  0  0  0
 14 17  1  0  0  0  0
 17 18  1  0  0  0  0
 17 19  1  0  0  0  0
 17 20  1  0  0  0  0
 20 21  1  0  0  0  0
 20 22  1  0  0  0  0
 20 23  1  0  0  0  0
 23 24  1  0  0  0  0
 23 25  1  0  0  0  0
 23 26  1  0  0  0  0
M  END
> <VM2 Rank>
134

> <Conf_Id>
576

> <Probability>
0.01

> <Sum Probability>
99.68

> <Delta G>
3.765

> <G>
52.027

> <E>
19.238

> <-TS>
32.789

> <U+W>
-2.224

> <U>
51.443

> <W>
-53.667

> <W(PB)>
-55.926

> <W(SA)>
2.259

> <Valence>
5.421

> <Coulomb>
45.330

> <VdW>
0.692

> <VdW6>
-8.008

> <VdW12>
8.700

> <Bond>
0.240

> <Angle>
1.285

> <Pdih>
3.896

> <Idih>
0.000

> <Tether>
0.000

$$$$
VeraChem MOL file


 26 25  0  0  0  0  0  0  0  0999 V2000     
   20.2375   20.4502   20.8264 C   0  0  0  0  0  0  0  0  0  0  0  0
   19.1529   20.6002   20.7490 H   0  0  0  0  0  0  0  0  0  0  0  0
   20.5527   20.6915   21.8489 H   0  0  0  0  0  0  0  0  0  0  0  0
   20.7249   21.1692   20.1554 H   0  0  0  0  0  0  0  0  0  0  0  0
   20.6290   19.0059   20.4453 C   0  0  0  0  0  0  0  0  0  0  0  0
   21.7088   18.8693   20.5973 H   0  0  0  0  0  0  0  0  0  0  0  0
   20.4535   18.8655   19.3695 H   0  0  0  0  0  0  0  0  0  0  0  0
   19.8528   17.9082   21.2170 C   0  0  0  0  0  0  0  0  0  0  0  0
   18.7808   17.9697   20.9842 H   0  0  0  0  0  0  0  0  0  0  0  0
   20.1841   16.9351   20.8289 H   0  0  0  0  0  0  0  0  0  0  0  0
   20.0730   17.9161   22.7523 C   0  0  0  0  0  0  0  0  0  0  0  0
   21.0729   18.3083   22.9802 H   0  0  0  0  0  0  0  0  0  0  0  0
   20.0657   16.8768   23.1089 H   0  0  0  0  0  0  0  0  0  0  0  0
   18.9805   18.6984   23.5263 C   0  0  0  0  0  0  0  0  0  0  0  0
   18.9422   19.7424   23.1936 H   0  0  0  0  0  0  0  0  0  0  0  0
   17.9978   18.2667   23.2917 H   0  0  0  0  0  0  0  0  0  0  0  0
   19.1821   18.6610   25.0592 C   0  0  0  0  0  0  0  0  0  0  0  0
   19.1974   17.6189   25.4052 H   0  0  0  0  0  0  0  0  0  0  0  0
   18.3211   19.1406   25.5435 H   0  0  0  0  0  0  0  0  0  0  0  0
   20.4718   19.3751   25.5053 C   0  0  0  0  0  0  0  0  0  0  0  0
   21.3410   18.8796   25.0654 H   0  0  0  0  0  0  0  0  0  0  0  0
   20.4556   20.4126   25.1610 H   0  0  0  0  0  0  0  0  0  0  0  0
   20.6543   19.3841   27.0093 N   0  3  0  0  0  0  0  0  0  0  0  0
   21.5179   19.8640   27.2856 H   0  0  0  0  0  0  0  0  0  0  0  0
   20.7041   18.4350   27.3938 H   0  0  0  0  0  0  0  0  0  0  0  0
   19.8821   19.8622   27.4850 H   0  0  0  0  0  0  0  0  0  0  0  0
  1  2  1  0  0  0  0
  1  3  1  0  0  0  0
  1  4  1  0  0  0  0
  1  5  1  0  0  0  0
  5  6  1  0  0  0  0
  5  7  1  0  0  0  0
  5  8  1  0  0  0  0
  8  9  1  0  0  0  0
  8 10  1  0  0  0  0
  8 11  1  0  0  0  0
 11 12  1  0  0  0  0
 11 13  1  0  0  0  0
 11 14  1  0  0  0  0
 14 15  1  0  0  0  0
 14 16  1  0  0  0  0
 14 17  1  0  0  0  0
 17 18  1  0  0  0  0
 17 19  1  0  0  0  0
 17 20  1  0  0  0  0
 20 21  1  0  0  0  0
 20 22  1  0  0  0  0
 20 23  1  0  0  0  0
 23 24  1  0  0  0  0
 23 25  1  0  0  0  0
 23 26  1  0  0  0  0
M  END
> <VM2 Rank>
135

> <Conf_Id>
841

> <Probability>
0.01

> <Sum Probability>
99.69

> <Delta G>
3.768

> <G>
52.029

> <E>
19.241

> <-TS>
32.788

> <U+W>
-2.221

> <U>
51.443

> <W>
-53.664

> <W(PB)>
-55.932

> <W(SA)>
2.268

> <Valence>
5.420

> <Coulomb>
45.330

> <VdW>
0.692

> <VdW6>
-8.007

> <VdW12>
8.700

> <Bond>
0.240

> <Angle>
1.285

> <Pdih>
3.896

> <Idih>
0.000

> <Tether>
0.000

$$$$
VeraChem MOL file


 26 25  0  0  0  0  0  0  0  0999 V2000     
   20.5604   20.5080   20.8202 C   0  0  0  0  0  0  0  0  0  0  0  0
   19.7071   20.9002   20.2519 H   0  0  0  0  0  0  0  0  0  0  0  0
   20.4275   20.7960   21.8687 H   0  0  0  0  0  0  0  0  0  0  0  0
   21.4647   21.0081   20.4500 H   0  0  0  0  0  0  0  0  0  0  0  0
   20.6806   18.9758   20.6469 C   0  0  0  0  0  0  0  0  0  0  0  0
   21.5791   18.6024   21.1577 H   0  0  0  0  0  0  0  0  0  0  0  0
   20.8322   18.7673   19.5785 H   0  0  0  0  0  0  0  0  0  0  0  0
   19.4261   18.2017   21.1277 C   0  0  0  0  0  0  0  0  0  0  0  0
   18.5281   18.8243   21.0128 H   0  0  0  0  0  0  0  0  0  0  0  0
   19.2775   17.3428   20.4587 H   0  0  0  0  0  0  0  0  0  0  0  0
   19.5134   17.6541   22.5758 C   0  0  0  0  0  0  0  0  0  0  0  0
   20.3520   16.9480   22.6487 H   0  0  0  0  0  0  0  0  0  0  0  0
   18.6044   17.0706   22.7769 H   0  0  0  0  0  0  0  0  0  0  0  0
   19.6636   18.7439   23.6624 C   0  0  0  0  0  0  0  0  0  0  0  0
   20.6304   19.2473   23.5396 H   0  0  0  0  0  0  0  0  0  0  0  0
   18.8804   19.5036   23.5327 H   0  0  0  0  0  0  0  0  0  0  0  0
   19.5741   18.1489   25.0877 C   0  0  0  0  0  0  0  0  0  0  0  0
   20.3681   17.4048   25.2355 H   0  0  0  0  0  0  0  0  0  0  0  0
   18.6204   17.6163   25.2008 H   0  0  0  0  0  0  0  0  0  0  0  0
   19.6644   19.2237   26.1882 C   0  0  0  0  0  0  0  0  0  0  0  0
   18.8806   19.9710   26.0381 H   0  0  0  0  0  0  0  0  0  0  0  0
   19.5076   18.7568   27.1644 H   0  0  0  0  0  0  0  0  0  0  0  0
   20.9984   19.9429   26.2321 N   0  3  0  0  0  0  0  0  0  0  0  0
   21.7753   19.2939   26.3942 H   0  0  0  0  0  0  0  0  0  0  0  0
   21.0297   20.6408   26.9833 H   0  0  0  0  0  0  0  0  0  0  0  0
   21.1929   20.4365   25.3556 H   0  0  0  0  0  0  0  0  0  0  0  0
  1  2  1  0  0  0  0
  1  3  1  0  0  0  0
  1  4  1  0  0  0  0
  1  5  1  0  0  0  0
  5  6  1  0  0  0  0
  5  7  1  0  0  0  0
  5  8  1  0  0  0  0
  8  9  1  0  0  0  0
  8 10  1  0  0  0  0
  8 11  1  0  0  0  0
 11 12  1  0  0  0  0
 11 13  1  0  0  0  0
 11 14  1  0  0  0  0
 14 15  1  0  0  0  0
 14 16  1  0  0  0  0
 14 17  1  0  0  0  0
 17 18  1  0  0  0  0
 17 19  1  0  0  0  0
 17 20  1  0  0  0  0
 20 21  1  0  0  0  0
 20 22  1  0  0  0  0
 20 23  1  0  0  0  0
 23 24  1  0  0  0  0
 23 25  1  0  0  0  0
 23 26  1  0  0  0  0
M  END
> <VM2 Rank>
136

> <Conf_Id>
556

> <Probability>
0.01

> <Sum Probability>
99.70

> <Delta G>
3.788

> <G>
52.049

> <E>
19.247

> <-TS>
32.802

> <U+W>
-2.215

> <U>
51.677

> <W>
-53.891

> <W(PB)>
-56.164

> <W(SA)>
2.273

> <Valence>
5.252

> <Coulomb>
45.637

> <VdW>
0.787

> <VdW6>
-7.893

> <VdW12>
8.680

> <Bond>
0.235

> <Angle>
1.222

> <Pdih>
3.795

> <Idih>
0.000

> <Tether>
0.000

$$$$
VeraChem MOL file


 26 25  0  0  0  0  0  0  0  0999 V2000     
   19.0608   20.0057   20.0213 C   0  0  0  0  0  0  0  0  0  0  0  0
   19.6628   20.9237   20.0150 H   0  0  0  0  0  0  0  0  0  0  0  0
   18.8211   19.7530   18.9803 H   0  0  0  0  0  0  0  0  0  0  0  0
   18.1180   20.2185   20.5419 H   0  0  0  0  0  0  0  0  0  0  0  0
   19.8215   18.8479   20.7017 C   0  0  0  0  0  0  0  0  0  0  0  0
   20.7410   18.6356   20.1383 H   0  0  0  0  0  0  0  0  0  0  0  0
   19.2085   17.9365   20.6630 H   0  0  0  0  0  0  0  0  0  0  0  0
   20.1721   19.1783   22.1693 C   0  0  0  0  0  0  0  0  0  0  0  0
   20.7871   20.0882   22.1986 H   0  0  0  0  0  0  0  0  0  0  0  0
   19.2468   19.4022   22.7111 H   0  0  0  0  0  0  0  0  0  0  0  0
   20.9353   18.0161   22.8509 C   0  0  0  0  0  0  0  0  0  0  0  0
   21.8286   17.7980   22.2492 H   0  0  0  0  0  0  0  0  0  0  0  0
   20.3288   17.1002   22.8347 H   0  0  0  0  0  0  0  0  0  0  0  0
   21.3963   18.3226   24.3001 C   0  0  0  0  0  0  0  0  0  0  0  0
   22.2991   17.7278   24.4967 H   0  0  0  0  0  0  0  0  0  0  0  0
   21.7140   19.3701   24.3876 H   0  0  0  0  0  0  0  0  0  0  0  0
   20.3646   17.9672   25.4039 C   0  0  0  0  0  0  0  0  0  0  0  0
   20.8358   18.1015   26.3866 H   0  0  0  0  0  0  0  0  0  0  0  0
   20.1134   16.9006   25.3337 H   0  0  0  0  0  0  0  0  0  0  0  0
   19.0587   18.7840   25.3707 C   0  0  0  0  0  0  0  0  0  0  0  0
   18.5323   18.6039   24.4308 H   0  0  0  0  0  0  0  0  0  0  0  0
   18.4083   18.4574   26.1867 H   0  0  0  0  0  0  0  0  0  0  0  0
   19.2718   20.2771   25.5231 N   0  3  0  0  0  0  0  0  0  0  0  0
   18.3855   20.7932   25.5016 H   0  0  0  0  0  0  0  0  0  0  0  0
   19.8604   20.6518   24.7730 H   0  0  0  0  0  0  0  0  0  0  0  0
   19.7298   20.5057   26.4114 H   0  0  0  0  0  0  0  0  0  0  0  0
  1  2  1  0  0  0  0
  1  3  1  0  0  0  0
  1  4  1  0  0  0  0
  1  5  1  0  0  0  0
  5  6  1  0  0  0  0
  5  7  1  0  0  0  0
  5  8  1  0  0  0  0
  8  9  1  0  0  0  0
  8 10  1  0  0  0  0
  8 11  1  0  0  0  0
 11 12  1  0  0  0  0
 11 13  1  0  0  0  0
 11 14  1  0  0  0  0
 14 15  1  0  0  0  0
 14 16  1  0  0  0  0
 14 17  1  0  0  0  0
 17 18  1  0  0  0  0
 17 19  1  0  0  0  0
 17 20  1  0  0  0  0
 20 21  1  0  0  0  0
 20 22  1  0  0  0  0
 20 23  1  0  0  0  0
 23 24  1  0  0  0  0
 23 25  1  0  0  0  0
 23 26  1  0  0  0  0
M  END
> <VM2 Rank>
137

> <Conf_Id>
1218

> <Probability>
0.01

> <Sum Probability>
99.72

> <Delta G>
3.799

> <G>
52.061

> <E>
19.192

> <-TS>
32.869

> <U+W>
-2.270

> <U>
51.830

> <W>
-54.100

> <W(PB)>
-56.379

> <W(SA)>
2.279

> <Valence>
4.864

> <Coulomb>
46.522

> <VdW>
0.444

> <VdW6>
-8.266

> <VdW12>
8.710

> <Bond>
0.239

> <Angle>
1.440

> <Pdih>
3.185

> <Idih>
0.000

> <Tether>
0.000

$$$$
VeraChem MOL file


 26 25  0  0  0  0  0  0  0  0999 V2000     
   19.7068   19.6272   19.8851 C   0  0  0  0  0  0  0  0  0  0  0  0
   19.2189   20.5451   20.2378 H   0  0  0  0  0  0  0  0  0  0  0  0
   20.0155   19.7896   18.8443 H   0  0  0  0  0  0  0  0  0  0  0  0
   18.9637   18.8200   19.8872 H   0  0  0  0  0  0  0  0  0  0  0  0
   20.9287   19.2747   20.7634 C   0  0  0  0  0  0  0  0  0  0  0  0
   21.6908   20.0572   20.6427 H   0  0  0  0  0  0  0  0  0  0  0  0
   21.3858   18.3425   20.4031 H   0  0  0  0  0  0  0  0  0  0  0  0
   20.5844   19.1425   22.2664 C   0  0  0  0  0  0  0  0  0  0  0  0
   21.5159   18.9819   22.8263 H   0  0  0  0  0  0  0  0  0  0  0  0
   20.1614   20.0928   22.6157 H   0  0  0  0  0  0  0  0  0  0  0  0
   19.5992   17.9867   22.5686 C   0  0  0  0  0  0  0  0  0  0  0  0
   19.9298   17.0884   22.0293 H   0  0  0  0  0  0  0  0  0  0  0  0
   18.6057   18.2338   22.1712 H   0  0  0  0  0  0  0  0  0  0  0  0
   19.4706   17.6254   24.0711 C   0  0  0  0  0  0  0  0  0  0  0  0
   18.8025   16.7560   24.1429 H   0  0  0  0  0  0  0  0  0  0  0  0
   20.4383   17.2828   24.4593 H   0  0  0  0  0  0  0  0  0  0  0  0
   18.8858   18.7488   24.9689 C   0  0  0  0  0  0  0  0  0  0  0  0
   18.4203   18.2909   25.8518 H   0  0  0  0  0  0  0  0  0  0  0  0
   18.0759   19.2632   24.4351 H   0  0  0  0  0  0  0  0  0  0  0  0
   19.9176   19.7875   25.4572 C   0  0  0  0  0  0  0  0  0  0  0  0
   20.4143   20.2593   24.6080 H   0  0  0  0  0  0  0  0  0  0  0  0
   19.4009   20.5685   26.0216 H   0  0  0  0  0  0  0  0  0  0  0  0
   20.9878   19.2062   26.3603 N   0  3  0  0  0  0  0  0  0  0  0  0
   21.6458   19.9242   26.6821 H   0  0  0  0  0  0  0  0  0  0  0  0
   21.5383   18.4865   25.8822 H   0  0  0  0  0  0  0  0  0  0  0  0
   20.5847   18.7731   27.1974 H   0  0  0  0  0  0  0  0  0  0  0  0
  1  2  1  0  0  0  0
  1  3  1  0  0  0  0
  1  4  1  0  0  0  0
  1  5  1  0  0  0  0
  5  6  1  0  0  0  0
  5  7  1  0  0  0  0
  5  8  1  0  0  0  0
  8  9  1  0  0  0  0
  8 10  1  0  0  0  0
  8 11  1  0  0  0  0
 11 12  1  0  0  0  0
 11 13  1  0  0  0  0
 11 14  1  0  0  0  0
 14 15  1  0  0  0  0
 14 16  1  0  0  0  0
 14 17  1  0  0  0  0
 17 18  1  0  0  0  0
 17 19  1  0  0  0  0
 17 20  1  0  0  0  0
 20 21  1  0  0  0  0
 20 22  1  0  0  0  0
 20 23  1  0  0  0  0
 23 24  1  0  0  0  0
 23 25  1  0  0  0  0
 23 26  1  0  0  0  0
M  END
> <VM2 Rank>
138

> <Conf_Id>
422

> <Probability>
0.01

> <Sum Probability>
99.73

> <Delta G>
3.801

> <G>
52.063

> <E>
19.188

> <-TS>
32.875

> <U+W>
-2.274

> <U>
51.885

> <W>
-54.159

> <W(PB)>
-56.421

> <W(SA)>
2.262

> <Valence>
5.154

> <Coulomb>
46.017

> <VdW>
0.714

> <VdW6>
-8.701

> <VdW12>
9.415

> <Bond>
0.265

> <Angle>
1.543

> <Pdih>
3.346

> <Idih>
0.000

> <Tether>
0.000

$$$$
VeraChem MOL file


 26 25  0  0  0  0  0  0  0  0999 V2000     
   19.6426   19.5844   19.8828 C   0  0  0  0  0  0  0  0  0  0  0  0
   20.6756   19.9489   19.9443 H   0  0  0  0  0  0  0  0  0  0  0  0
   19.4208   19.3964   18.8243 H   0  0  0  0  0  0  0  0  0  0  0  0
   18.9744   20.3835   20.2293 H   0  0  0  0  0  0  0  0  0  0  0  0
   19.4460   18.2963   20.7140 C   0  0  0  0  0  0  0  0  0  0  0  0
   20.1397   17.5201   20.3619 H   0  0  0  0  0  0  0  0  0  0  0  0
   18.4337   17.9082   20.5341 H   0  0  0  0  0  0  0  0  0  0  0  0
   19.6326   18.5147   22.2348 C   0  0  0  0  0  0  0  0  0  0  0  0
   18.9093   19.2669   22.5739 H   0  0  0  0  0  0  0  0  0  0  0  0
   19.3887   17.5787   22.7555 H   0  0  0  0  0  0  0  0  0  0  0  0
   21.0668   18.9554   22.6176 C   0  0  0  0  0  0  0  0  0  0  0  0
   21.2479   19.9777   22.2596 H   0  0  0  0  0  0  0  0  0  0  0  0
   21.7875   18.3145   22.0913 H   0  0  0  0  0  0  0  0  0  0  0  0
   21.3794   18.8851   24.1349 C   0  0  0  0  0  0  0  0  0  0  0  0
   21.2967   17.8492   24.4880 H   0  0  0  0  0  0  0  0  0  0  0  0
   22.4368   19.1543   24.2642 H   0  0  0  0  0  0  0  0  0  0  0  0
   20.5350   19.8370   25.0242 C   0  0  0  0  0  0  0  0  0  0  0  0
   20.4050   20.8001   24.5133 H   0  0  0  0  0  0  0  0  0  0  0  0
   21.0971   20.0570   25.9415 H   0  0  0  0  0  0  0  0  0  0  0  0
   19.1533   19.2831   25.4317 C   0  0  0  0  0  0  0  0  0  0  0  0
   18.6123   20.0479   25.9955 H   0  0  0  0  0  0  0  0  0  0  0  0
   18.5645   19.0390   24.5461 H   0  0  0  0  0  0  0  0  0  0  0  0
   19.2254   18.0430   26.3009 N   0  3  0  0  0  0  0  0  0  0  0  0
   19.6928   17.2687   25.8198 H   0  0  0  0  0  0  0  0  0  0  0  0
   18.2926   17.7113   26.5695 H   0  0  0  0  0  0  0  0  0  0  0  0
   19.7425   18.2167   27.1689 H   0  0  0  0  0  0  0  0  0  0  0  0
  1  2  1  0  0  0  0
  1  3  1  0  0  0  0
  1  4  1  0  0  0  0
  1  5  1  0  0  0  0
  5  6  1  0  0  0  0
  5  7  1  0  0  0  0
  5  8  1  0  0  0  0
  8  9  1  0  0  0  0
  8 10  1  0  0  0  0
  8 11  1  0  0  0  0
 11 12  1  0  0  0  0
 11 13  1  0  0  0  0
 11 14  1  0  0  0  0
 14 15  1  0  0  0  0
 14 16  1  0  0  0  0
 14 17  1  0  0  0  0
 17 18  1  0  0  0  0
 17 19  1  0  0  0  0
 17 20  1  0  0  0  0
 20 21  1  0  0  0  0
 20 22  1  0  0  0  0
 20 23  1  0  0  0  0
 23 24  1  0  0  0  0
 23 25  1  0  0  0  0
 23 26  1  0  0  0  0
M  END
> <VM2 Rank>
139

> <Conf_Id>
813

> <Probability>
0.01

> <Sum Probability>
99.74

> <Delta G>
3.810

> <G>
52.072

> <E>
19.197

> <-TS>
32.875

> <U+W>
-2.265

> <U>
51.886

> <W>
-54.151

> <W(PB)>
-56.400

> <W(SA)>
2.249

> <Valence>
5.153

> <Coulomb>
46.018

> <VdW>
0.715

> <VdW6>
-8.701

> <VdW12>
9.416

> <Bond>
0.265

> <Angle>
1.543

> <Pdih>
3.345

> <Idih>
0.000

> <Tether>
0.000

$$$$
VeraChem MOL file


 26 25  0  0  0  0  0  0  0  0999 V2000     
   19.5412   20.3229   20.0373 C   0  0  0  0  0  0  0  0  0  0  0  0
   19.6905   21.2569   20.5945 H   0  0  0  0  0  0  0  0  0  0  0  0
   19.9161   20.4759   19.0169 H   0  0  0  0  0  0  0  0  0  0  0  0
   18.4622   20.1307   19.9745 H   0  0  0  0  0  0  0  0  0  0  0  0
   20.2755   19.1476   20.7169 C   0  0  0  0  0  0  0  0  0  0  0  0
   20.1370   18.2365   20.1181 H   0  0  0  0  0  0  0  0  0  0  0  0
   21.3549   19.3539   20.7352 H   0  0  0  0  0  0  0  0  0  0  0  0
   19.7659   18.9102   22.1557 C   0  0  0  0  0  0  0  0  0  0  0  0
   19.8970   19.8318   22.7328 H   0  0  0  0  0  0  0  0  0  0  0  0
   18.6876   18.7017   22.1280 H   0  0  0  0  0  0  0  0  0  0  0  0
   20.5031   17.7309   22.8365 C   0  0  0  0  0  0  0  0  0  0  0  0
   21.5831   17.9286   22.8769 H   0  0  0  0  0  0  0  0  0  0  0  0
   20.3818   16.8427   22.2009 H   0  0  0  0  0  0  0  0  0  0  0  0
   19.9733   17.3832   24.2524 C   0  0  0  0  0  0  0  0  0  0  0  0
   18.8822   17.5009   24.2928 H   0  0  0  0  0  0  0  0  0  0  0  0
   20.1568   16.3137   24.4249 H   0  0  0  0  0  0  0  0  0  0  0  0
   20.6527   18.1574   25.4135 C   0  0  0  0  0  0  0  0  0  0  0  0
   21.7345   17.9705   25.3881 H   0  0  0  0  0  0  0  0  0  0  0  0
   20.2988   17.7472   26.3687 H   0  0  0  0  0  0  0  0  0  0  0  0
   20.4159   19.6797   25.4160 C   0  0  0  0  0  0  0  0  0  0  0  0
   20.9330   20.1238   26.2710 H   0  0  0  0  0  0  0  0  0  0  0  0
   20.8312   20.1212   24.5075 H   0  0  0  0  0  0  0  0  0  0  0  0
   18.9534   20.0670   25.5126 N   0  3  0  0  0  0  0  0  0  0  0  0
   18.8277   21.0850   25.5163 H   0  0  0  0  0  0  0  0  0  0  0  0
   18.5226   19.7090   26.3713 H   0  0  0  0  0  0  0  0  0  0  0  0
   18.4131   19.6965   24.7250 H   0  0  0  0  0  0  0  0  0  0  0  0
  1  2  1  0  0  0  0
  1  3  1  0  0  0  0
  1  4  1  0  0  0  0
  1  5  1  0  0  0  0
  5  6  1  0  0  0  0
  5  7  1  0  0  0  0
  5  8  1  0  0  0  0
  8  9  1  0  0  0  0
  8 10  1  0  0  0  0
  8 11  1  0  0  0  0
 11 12  1  0  0  0  0
 11 13  1  0  0  0  0
 11 14  1  0  0  0  0
 14 15  1  0  0  0  0
 14 16  1  0  0  0  0
 14 17  1  0  0  0  0
 17 18  1  0  0  0  0
 17 19  1  0  0  0  0
 17 20  1  0  0  0  0
 20 21  1  0  0  0  0
 20 22  1  0  0  0  0
 20 23  1  0  0  0  0
 23 24  1  0  0  0  0
 23 25  1  0  0  0  0
 23 26  1  0  0  0  0
M  END
> <VM2 Rank>
140

> <Conf_Id>
1119

> <Probability>
0.01

> <Sum Probability>
99.75

> <Delta G>
3.821

> <G>
52.083

> <E>
19.213

> <-TS>
32.869

> <U+W>
-2.249

> <U>
51.830

> <W>
-54.079

> <W(PB)>
-56.360

> <W(SA)>
2.281

> <Valence>
4.864

> <Coulomb>
46.522

> <VdW>
0.444

> <VdW6>
-8.266

> <VdW12>
8.710

> <Bond>
0.239

> <Angle>
1.439

> <Pdih>
3.186

> <Idih>
0.000

> <Tether>
0.000

$$$$
VeraChem MOL file


 26 25  0  0  0  0  0  0  0  0999 V2000     
   21.1873   19.8146   20.0998 C   0  0  0  0  0  0  0  0  0  0  0  0
   20.9213   19.2340   19.2068 H   0  0  0  0  0  0  0  0  0  0  0  0
   20.7291   20.8083   20.0107 H   0  0  0  0  0  0  0  0  0  0  0  0
   22.2773   19.9452   20.1039 H   0  0  0  0  0  0  0  0  0  0  0  0
   20.7191   19.1015   21.3860 C   0  0  0  0  0  0  0  0  0  0  0  0
   21.0372   19.6940   22.2537 H   0  0  0  0  0  0  0  0  0  0  0  0
   21.2134   18.1230   21.4609 H   0  0  0  0  0  0  0  0  0  0  0  0
   19.1847   18.9169   21.4093 C   0  0  0  0  0  0  0  0  0  0  0  0
   18.6992   19.9024   21.4261 H   0  0  0  0  0  0  0  0  0  0  0  0
   18.8691   18.4376   20.4723 H   0  0  0  0  0  0  0  0  0  0  0  0
   18.6585   18.0629   22.5918 C   0  0  0  0  0  0  0  0  0  0  0  0
   19.0519   17.0394   22.5226 H   0  0  0  0  0  0  0  0  0  0  0  0
   17.5702   17.9692   22.4719 H   0  0  0  0  0  0  0  0  0  0  0  0
   18.9395   18.6554   23.9975 C   0  0  0  0  0  0  0  0  0  0  0  0
   18.9888   19.7506   23.9362 H   0  0  0  0  0  0  0  0  0  0  0  0
   18.0840   18.4259   24.6480 H   0  0  0  0  0  0  0  0  0  0  0  0
   20.2158   18.0809   24.6638 C   0  0  0  0  0  0  0  0  0  0  0  0
   21.1028   18.2767   24.0509 H   0  0  0  0  0  0  0  0  0  0  0  0
   20.1248   16.9889   24.7341 H   0  0  0  0  0  0  0  0  0  0  0  0
   20.4454   18.6390   26.0813 C   0  0  0  0  0  0  0  0  0  0  0  0
   19.5634   18.4496   26.6990 H   0  0  0  0  0  0  0  0  0  0  0  0
   21.2977   18.1290   26.5384 H   0  0  0  0  0  0  0  0  0  0  0  0
   20.7307   20.1278   26.1115 N   0  3  0  0  0  0  0  0  0  0  0  0
   20.8879   20.4654   27.0673 H   0  0  0  0  0  0  0  0  0  0  0  0
   19.9523   20.6712   25.7259 H   0  0  0  0  0  0  0  0  0  0  0  0
   21.5666   20.3666   25.5684 H   0  0  0  0  0  0  0  0  0  0  0  0
  1  2  1  0  0  0  0
  1  3  1  0  0  0  0
  1  4  1  0  0  0  0
  1  5  1  0  0  0  0
  5  6  1  0  0  0  0
  5  7  1  0  0  0  0
  5  8  1  0  0  0  0
  8  9  1  0  0  0  0
  8 10  1  0  0  0  0
  8 11  1  0  0  0  0
 11 12  1  0  0  0  0
 11 13  1  0  0  0  0
 11 14  1  0  0  0  0
 14 15  1  0  0  0  0
 14 16  1  0  0  0  0
 14 17  1  0  0  0  0
 17 18  1  0  0  0  0
 17 19  1  0  0  0  0
 17 20  1  0  0  0  0
 20 21  1  0  0  0  0
 20 22  1  0  0  0  0
 20 23  1  0  0  0  0
 23 24  1  0  0  0  0
 23 25  1  0  0  0  0
 23 26  1  0  0  0  0
M  END
> <VM2 Rank>
141

> <Conf_Id>
1097

> <Probability>
0.01

> <Sum Probability>
99.76

> <Delta G>
3.854

> <G>
52.115

> <E>
19.299

> <-TS>
32.817

> <U+W>
-2.163

> <U>
51.953

> <W>
-54.116

> <W(PB)>
-56.402

> <W(SA)>
2.286

> <Valence>
5.280

> <Coulomb>
45.973

> <VdW>
0.700

> <VdW6>
-7.998

> <VdW12>
8.698

> <Bond>
0.241

> <Angle>
1.239

> <Pdih>
3.800

> <Idih>
0.000

> <Tether>
0.000

$$$$
VeraChem MOL file


 26 25  0  0  0  0  0  0  0  0999 V2000     
   20.3935   20.1088   20.0762 C   0  0  0  0  0  0  0  0  0  0  0  0
   21.1681   20.2831   19.3181 H   0  0  0  0  0  0  0  0  0  0  0  0
   19.4536   20.5277   19.6937 H   0  0  0  0  0  0  0  0  0  0  0  0
   20.6732   20.6730   20.9727 H   0  0  0  0  0  0  0  0  0  0  0  0
   20.2468   18.5960   20.3618 C   0  0  0  0  0  0  0  0  0  0  0  0
   21.2116   18.1697   20.6702 H   0  0  0  0  0  0  0  0  0  0  0  0
   19.9845   18.0974   19.4182 H   0  0  0  0  0  0  0  0  0  0  0  0
   19.1534   18.2722   21.4124 C   0  0  0  0  0  0  0  0  0  0  0  0
   18.3674   19.0397   21.3919 H   0  0  0  0  0  0  0  0  0  0  0  0
   18.6600   17.3367   21.1144 H   0  0  0  0  0  0  0  0  0  0  0  0
   19.6750   18.0827   22.8604 C   0  0  0  0  0  0  0  0  0  0  0  0
   20.3806   17.2409   22.8855 H   0  0  0  0  0  0  0  0  0  0  0  0
   18.8242   17.7866   23.4876 H   0  0  0  0  0  0  0  0  0  0  0  0
   20.3519   19.3382   23.4635 C   0  0  0  0  0  0  0  0  0  0  0  0
   21.2558   19.5737   22.8873 H   0  0  0  0  0  0  0  0  0  0  0  0
   19.6817   20.2041   23.3718 H   0  0  0  0  0  0  0  0  0  0  0  0
   20.7617   19.1561   24.9441 C   0  0  0  0  0  0  0  0  0  0  0  0
   21.3397   20.0337   25.2629 H   0  0  0  0  0  0  0  0  0  0  0  0
   21.4290   18.2890   25.0388 H   0  0  0  0  0  0  0  0  0  0  0  0
   19.5522   18.9858   25.8826 C   0  0  0  0  0  0  0  0  0  0  0  0
   18.8878   19.8488   25.7866 H   0  0  0  0  0  0  0  0  0  0  0  0
   18.9926   18.0880   25.6083 H   0  0  0  0  0  0  0  0  0  0  0  0
   19.9465   18.8592   27.3400 N   0  3  0  0  0  0  0  0  0  0  0  0
   20.5524   18.0483   27.5028 H   0  0  0  0  0  0  0  0  0  0  0  0
   19.1278   18.7470   27.9479 H   0  0  0  0  0  0  0  0  0  0  0  0
   20.4534   19.6862   27.6719 H   0  0  0  0  0  0  0  0  0  0  0  0
  1  2  1  0  0  0  0
  1  3  1  0  0  0  0
  1  4  1  0  0  0  0
  1  5  1  0  0  0  0
  5  6  1  0  0  0  0
  5  7  1  0  0  0  0
  5  8  1  0  0  0  0
  8  9  1  0  0  0  0
  8 10  1  0  0  0  0
  8 11  1  0  0  0  0
 11 12  1  0  0  0  0
 11 13  1  0  0  0  0
 11 14  1  0  0  0  0
 14 15  1  0  0  0  0
 14 16  1  0  0  0  0
 14 17  1  0  0  0  0
 17 18  1  0  0  0  0
 17 19  1  0  0  0  0
 17 20  1  0  0  0  0
 20 21  1  0  0  0  0
 20 22  1  0  0  0  0
 20 23  1  0  0  0  0
 23 24  1  0  0  0  0
 23 25  1  0  0  0  0
 23 26  1  0  0  0  0
M  END
> <VM2 Rank>
142

> <Conf_Id>
547

> <Probability>
0.01

> <Sum Probability>
99.77

> <Delta G>
3.905

> <G>
52.166

> <E>
19.384

> <-TS>
32.782

> <U+W>
-2.078

> <U>
51.397

> <W>
-53.475

> <W(PB)>
-55.760

> <W(SA)>
2.285

> <Valence>
5.541

> <Coulomb>
45.028

> <VdW>
0.828

> <VdW6>
-7.846

> <VdW12>
8.674

> <Bond>
0.240

> <Angle>
1.341

> <Pdih>
3.960

> <Idih>
0.000

> <Tether>
0.000

$$$$
VeraChem MOL file


 26 25  0  0  0  0  0  0  0  0999 V2000     
   19.0651   18.3770   20.2228 C   0  0  0  0  0  0  0  0  0  0  0  0
   18.3778   19.2305   20.2864 H   0  0  0  0  0  0  0  0  0  0  0  0
   18.8504   17.8418   19.2888 H   0  0  0  0  0  0  0  0  0  0  0  0
   18.8488   17.6907   21.0508 H   0  0  0  0  0  0  0  0  0  0  0  0
   20.5369   18.8436   20.2510 C   0  0  0  0  0  0  0  0  0  0  0  0
   20.7499   19.3936   19.3236 H   0  0  0  0  0  0  0  0  0  0  0  0
   21.1976   17.9655   20.2422 H   0  0  0  0  0  0  0  0  0  0  0  0
   20.8962   19.7516   21.4549 C   0  0  0  0  0  0  0  0  0  0  0  0
   21.9449   20.0575   21.3363 H   0  0  0  0  0  0  0  0  0  0  0  0
   20.3109   20.6806   21.4156 H   0  0  0  0  0  0  0  0  0  0  0  0
   20.7436   19.0769   22.8431 C   0  0  0  0  0  0  0  0  0  0  0  0
   21.5509   19.4430   23.4914 H   0  0  0  0  0  0  0  0  0  0  0  0
   20.8942   17.9924   22.7522 H   0  0  0  0  0  0  0  0  0  0  0  0
   19.3850   19.3792   23.5264 C   0  0  0  0  0  0  0  0  0  0  0  0
   19.2966   20.4598   23.7052 H   0  0  0  0  0  0  0  0  0  0  0  0
   18.5588   19.1133   22.8565 H   0  0  0  0  0  0  0  0  0  0  0  0
   19.1972   18.6215   24.8617 C   0  0  0  0  0  0  0  0  0  0  0  0
   19.2569   17.5396   24.6828 H   0  0  0  0  0  0  0  0  0  0  0  0
   18.1881   18.8214   25.2459 H   0  0  0  0  0  0  0  0  0  0  0  0
   20.2313   19.0278   25.9284 C   0  0  0  0  0  0  0  0  0  0  0  0
   21.2388   18.7923   25.5759 H   0  0  0  0  0  0  0  0  0  0  0  0
   20.1716   20.1047   26.1072 H   0  0  0  0  0  0  0  0  0  0  0  0
   20.0256   18.3215   27.2528 N   0  3  0  0  0  0  0  0  0  0  0  0
   20.0963   17.3031   27.1578 H   0  0  0  0  0  0  0  0  0  0  0  0
   19.1043   18.5238   27.6546 H   0  0  0  0  0  0  0  0  0  0  0  0
   20.7236   18.6057   27.9487 H   0  0  0  0  0  0  0  0  0  0  0  0
  1  2  1  0  0  0  0
  1  3  1  0  0  0  0
  1  4  1  0  0  0  0
  1  5  1  0  0  0  0
  5  6  1  0  0  0  0
  5  7  1  0  0  0  0
  5  8  1  0  0  0  0
  8  9  1  0  0  0  0
  8 10  1  0  0  0  0
  8 11  1  0  0  0  0
 11 12  1  0  0  0  0
 11 13  1  0  0  0  0
 11 14  1  0  0  0  0
 14 15  1  0  0  0  0
 14 16  1  0  0  0  0
 14 17  1  0  0  0  0
 17 18  1  0  0  0  0
 17 19  1  0  0  0  0
 17 20  1  0  0  0  0
 20 21  1  0  0  0  0
 20 22  1  0  0  0  0
 20 23  1  0  0  0  0
 23 24  1  0  0  0  0
 23 25  1  0  0  0  0
 23 26  1  0  0  0  0
M  END
> <VM2 Rank>
143

> <Conf_Id>
280

> <Probability>
0.01

> <Sum Probability>
99.79

> <Delta G>
3.922

> <G>
52.183

> <E>
19.359

> <-TS>
32.824

> <U+W>
-2.102

> <U>
51.310

> <W>
-53.412

> <W(PB)>
-55.696

> <W(SA)>
2.284

> <Valence>
5.462

> <Coulomb>
45.075

> <VdW>
0.773

> <VdW6>
-7.908

> <VdW12>
8.681

> <Bond>
0.240

> <Angle>
1.238

> <Pdih>
3.984

> <Idih>
0.000

> <Tether>
0.000

$$$$
VeraChem MOL file


 26 25  0  0  0  0  0  0  0  0999 V2000     
   18.6249   19.3118   20.6797 C   0  0  0  0  0  0  0  0  0  0  0  0
   18.1692   18.3478   20.4190 H   0  0  0  0  0  0  0  0  0  0  0  0
   18.2748   19.5993   21.6789 H   0  0  0  0  0  0  0  0  0  0  0  0
   18.2522   20.0623   19.9708 H   0  0  0  0  0  0  0  0  0  0  0  0
   20.1671   19.2311   20.6212 C   0  0  0  0  0  0  0  0  0  0  0  0
   20.5998   20.1992   20.9072 H   0  0  0  0  0  0  0  0  0  0  0  0
   20.4730   19.0611   19.5795 H   0  0  0  0  0  0  0  0  0  0  0  0
   20.7592   18.0995   21.4997 C   0  0  0  0  0  0  0  0  0  0  0  0
   20.4004   17.1319   21.1227 H   0  0  0  0  0  0  0  0  0  0  0  0
   21.8503   18.0858   21.3710 H   0  0  0  0  0  0  0  0  0  0  0  0
   20.4309   18.1983   23.0117 C   0  0  0  0  0  0  0  0  0  0  0  0
   20.8941   17.3430   23.5224 H   0  0  0  0  0  0  0  0  0  0  0  0
   19.3483   18.0974   23.1512 H   0  0  0  0  0  0  0  0  0  0  0  0
   20.9314   19.5117   23.6624 C   0  0  0  0  0  0  0  0  0  0  0  0
   21.9738   19.6826   23.3600 H   0  0  0  0  0  0  0  0  0  0  0  0
   20.3549   20.3623   23.2748 H   0  0  0  0  0  0  0  0  0  0  0  0
   20.8694   19.5219   25.2111 C   0  0  0  0  0  0  0  0  0  0  0  0
   21.3328   20.4542   25.5602 H   0  0  0  0  0  0  0  0  0  0  0  0
   21.4806   18.7086   25.6245 H   0  0  0  0  0  0  0  0  0  0  0  0
   19.4422   19.4607   25.7939 C   0  0  0  0  0  0  0  0  0  0  0  0
   19.4585   19.8486   26.8161 H   0  0  0  0  0  0  0  0  0  0  0  0
   18.7726   20.0912   25.2028 H   0  0  0  0  0  0  0  0  0  0  0  0
   18.8558   18.0641   25.8612 N   0  3  0  0  0  0  0  0  0  0  0  0
   18.7981   17.6313   24.9353 H   0  0  0  0  0  0  0  0  0  0  0  0
   17.9081   18.0683   26.2537 H   0  0  0  0  0  0  0  0  0  0  0  0
   19.4203   17.4441   26.4511 H   0  0  0  0  0  0  0  0  0  0  0  0
  1  2  1  0  0  0  0
  1  3  1  0  0  0  0
  1  4  1  0  0  0  0
  1  5  1  0  0  0  0
  5  6  1  0  0  0  0
  5  7  1  0  0  0  0
  5  8  1  0  0  0  0
  8  9  1  0  0  0  0
  8 10  1  0  0  0  0
  8 11  1  0  0  0  0
 11 12  1  0  0  0  0
 11 13  1  0  0  0  0
 11 14  1  0  0  0  0
 14 15  1  0  0  0  0
 14 16  1  0  0  0  0
 14 17  1  0  0  0  0
 17 18  1  0  0  0  0
 17 19  1  0  0  0  0
 17 20  1  0  0  0  0
 20 21  1  0  0  0  0
 20 22  1  0  0  0  0
 20 23  1  0  0  0  0
 23 24  1  0  0  0  0
 23 25  1  0  0  0  0
 23 26  1  0  0  0  0
M  END
> <VM2 Rank>
144

> <Conf_Id>
554

> <Probability>
0.01

> <Sum Probability>
99.79

> <Delta G>
3.944

> <G>
52.205

> <E>
19.260

> <-TS>
32.946

> <U+W>
-2.202

> <U>
51.945

> <W>
-54.147

> <W(PB)>
-56.366

> <W(SA)>
2.219

> <Valence>
4.646

> <Coulomb>
46.716

> <VdW>
0.583

> <VdW6>
-8.945

> <VdW12>
9.528

> <Bond>
0.266

> <Angle>
1.504

> <Pdih>
2.877

> <Idih>
0.000

> <Tether>
0.000

$$$$
VeraChem MOL file


 26 25  0  0  0  0  0  0  0  0999 V2000     
   20.5946   17.9693   19.8502 C   0  0  0  0  0  0  0  0  0  0  0  0
   21.3814   18.5851   19.3952 H   0  0  0  0  0  0  0  0  0  0  0  0
   20.9039   16.9187   19.7752 H   0  0  0  0  0  0  0  0  0  0  0  0
   19.6780   18.0939   19.2590 H   0  0  0  0  0  0  0  0  0  0  0  0
   20.3618   18.3649   21.3238 C   0  0  0  0  0  0  0  0  0  0  0  0
   21.2871   18.2055   21.8948 H   0  0  0  0  0  0  0  0  0  0  0  0
   19.5978   17.7020   21.7505 H   0  0  0  0  0  0  0  0  0  0  0  0
   19.9120   19.8377   21.4547 C   0  0  0  0  0  0  0  0  0  0  0  0
   20.6166   20.4756   20.9034 H   0  0  0  0  0  0  0  0  0  0  0  0
   18.9370   19.9665   20.9647 H   0  0  0  0  0  0  0  0  0  0  0  0
   19.8294   20.3560   22.9137 C   0  0  0  0  0  0  0  0  0  0  0  0
   19.5513   21.4181   22.8689 H   0  0  0  0  0  0  0  0  0  0  0  0
   20.8256   20.3338   23.3737 H   0  0  0  0  0  0  0  0  0  0  0  0
   18.7887   19.6254   23.8059 C   0  0  0  0  0  0  0  0  0  0  0  0
   18.3372   20.3570   24.4904 H   0  0  0  0  0  0  0  0  0  0  0  0
   17.9626   19.2556   23.1832 H   0  0  0  0  0  0  0  0  0  0  0  0
   19.3634   18.4640   24.6561 C   0  0  0  0  0  0  0  0  0  0  0  0
   19.8551   17.7222   24.0172 H   0  0  0  0  0  0  0  0  0  0  0  0
   18.5314   17.9451   25.1505 H   0  0  0  0  0  0  0  0  0  0  0  0
   20.3526   18.9514   25.7318 C   0  0  0  0  0  0  0  0  0  0  0  0
   21.2094   19.4362   25.2576 H   0  0  0  0  0  0  0  0  0  0  0  0
   19.8601   19.6808   26.3805 H   0  0  0  0  0  0  0  0  0  0  0  0
   20.8786   17.8303   26.6047 N   0  3  0  0  0  0  0  0  0  0  0  0
   21.5336   18.1758   27.3147 H   0  0  0  0  0  0  0  0  0  0  0  0
   21.3781   17.1217   26.0574 H   0  0  0  0  0  0  0  0  0  0  0  0
   20.1238   17.3491   27.1046 H   0  0  0  0  0  0  0  0  0  0  0  0
  1  2  1  0  0  0  0
  1  3  1  0  0  0  0
  1  4  1  0  0  0  0
  1  5  1  0  0  0  0
  5  6  1  0  0  0  0
  5  7  1  0  0  0  0
  5  8  1  0  0  0  0
  8  9  1  0  0  0  0
  8 10  1  0  0  0  0
  8 11  1  0  0  0  0
 11 12  1  0  0  0  0
 11 13  1  0  0  0  0
 11 14  1  0  0  0  0
 14 15  1  0  0  0  0
 14 16  1  0  0  0  0
 14 17  1  0  0  0  0
 17 18  1  0  0  0  0
 17 19  1  0  0  0  0
 17 20  1  0  0  0  0
 20 21  1  0  0  0  0
 20 22  1  0  0  0  0
 20 23  1  0  0  0  0
 23 24  1  0  0  0  0
 23 25  1  0  0  0  0
 23 26  1  0  0  0  0
M  END
> <VM2 Rank>
145

> <Conf_Id>
1257

> <Probability>
0.01

> <Sum Probability>
99.80

> <Delta G>
3.977

> <G>
52.238

> <E>
19.461

> <-TS>
32.777

> <U+W>
-2.001

> <U>
51.979

> <W>
-53.980

> <W(PB)>
-56.267

> <W(SA)>
2.287

> <Valence>
5.609

> <Coulomb>
45.670

> <VdW>
0.701

> <VdW6>
-7.955

> <VdW12>
8.655

> <Bond>
0.249

> <Angle>
1.398

> <Pdih>
3.962

> <Idih>
0.000

> <Tether>
0.000

$$$$
VeraChem MOL file


 26 25  0  0  0  0  0  0  0  0999 V2000     
   20.8178   18.1168   19.8573 C   0  0  0  0  0  0  0  0  0  0  0  0
   21.6641   17.4200   19.8000 H   0  0  0  0  0  0  0  0  0  0  0  0
   19.9640   17.6518   19.3472 H   0  0  0  0  0  0  0  0  0  0  0  0
   21.0917   19.0259   19.3062 H   0  0  0  0  0  0  0  0  0  0  0  0
   20.4775   18.4410   21.3274 C   0  0  0  0  0  0  0  0  0  0  0  0
   21.3668   18.8674   21.8094 H   0  0  0  0  0  0  0  0  0  0  0  0
   20.2332   17.5108   21.8590 H   0  0  0  0  0  0  0  0  0  0  0  0
   19.2960   19.4318   21.4340 C   0  0  0  0  0  0  0  0  0  0  0  0
   19.5841   20.3930   20.9864 H   0  0  0  0  0  0  0  0  0  0  0  0
   18.4587   19.0537   20.8313 H   0  0  0  0  0  0  0  0  0  0  0  0
   18.7849   19.6675   22.8788 C   0  0  0  0  0  0  0  0  0  0  0  0
   18.3921   18.7298   23.2924 H   0  0  0  0  0  0  0  0  0  0  0  0
   17.9211   20.3435   22.8147 H   0  0  0  0  0  0  0  0  0  0  0  0
   19.8237   20.3070   23.8403 C   0  0  0  0  0  0  0  0  0  0  0  0
   20.5174   20.9384   23.2682 H   0  0  0  0  0  0  0  0  0  0  0  0
   19.2979   20.9898   24.5223 H   0  0  0  0  0  0  0  0  0  0  0  0
   20.6243   19.2946   24.6982 C   0  0  0  0  0  0  0  0  0  0  0  0
   21.4055   19.8382   25.2460 H   0  0  0  0  0  0  0  0  0  0  0  0
   21.1412   18.5692   24.0602 H   0  0  0  0  0  0  0  0  0  0  0  0
   19.7376   18.5465   25.7118 C   0  0  0  0  0  0  0  0  0  0  0  0
   19.2320   19.2674   26.3600 H   0  0  0  0  0  0  0  0  0  0  0  0
   18.9769   17.9661   25.1840 H   0  0  0  0  0  0  0  0  0  0  0  0
   20.5192   17.5938   26.5931 N   0  3  0  0  0  0  0  0  0  0  0  0
   21.2352   18.0812   27.1417 H   0  0  0  0  0  0  0  0  0  0  0  0
   20.9981   16.8716   26.0452 H   0  0  0  0  0  0  0  0  0  0  0  0
   19.9112   17.1076   27.2613 H   0  0  0  0  0  0  0  0  0  0  0  0
  1  2  1  0  0  0  0
  1  3  1  0  0  0  0
  1  4  1  0  0  0  0
  1  5  1  0  0  0  0
  5  6  1  0  0  0  0
  5  7  1  0  0  0  0
  5  8  1  0  0  0  0
  8  9  1  0  0  0  0
  8 10  1  0  0  0  0
  8 11  1  0  0  0  0
 11 12  1  0  0  0  0
 11 13  1  0  0  0  0
 11 14  1  0  0  0  0
 14 15  1  0  0  0  0
 14 16  1  0  0  0  0
 14 17  1  0  0  0  0
 17 18  1  0  0  0  0
 17 19  1  0  0  0  0
 17 20  1  0  0  0  0
 20 21  1  0  0  0  0
 20 22  1  0  0  0  0
 20 23  1  0  0  0  0
 23 24  1  0  0  0  0
 23 25  1  0  0  0  0
 23 26  1  0  0  0  0
M  END
> <VM2 Rank>
146

> <Conf_Id>
154

> <Probability>
0.01

> <Sum Probability>
99.81

> <Delta G>
4.001

> <G>
52.262

> <E>
19.485

> <-TS>
32.778

> <U+W>
-1.977

> <U>
51.979

> <W>
-53.956

> <W(PB)>
-56.240

> <W(SA)>
2.284

> <Valence>
5.609

> <Coulomb>
45.669

> <VdW>
0.700

> <VdW6>
-7.954

> <VdW12>
8.654

> <Bond>
0.249

> <Angle>
1.396

> <Pdih>
3.963

> <Idih>
0.000

> <Tether>
0.000

$$$$
VeraChem MOL file


 26 25  0  0  0  0  0  0  0  0999 V2000     
   19.9357   17.5000   20.3297 C   0  0  0  0  0  0  0  0  0  0  0  0
   20.2783   17.9973   19.4129 H   0  0  0  0  0  0  0  0  0  0  0  0
   20.3161   16.4703   20.3164 H   0  0  0  0  0  0  0  0  0  0  0  0
   18.8392   17.4545   20.3048 H   0  0  0  0  0  0  0  0  0  0  0  0
   20.4311   18.2478   21.5855 C   0  0  0  0  0  0  0  0  0  0  0  0
   21.5300   18.2474   21.5966 H   0  0  0  0  0  0  0  0  0  0  0  0
   20.1082   17.6975   22.4764 H   0  0  0  0  0  0  0  0  0  0  0  0
   19.9111   19.7051   21.6223 C   0  0  0  0  0  0  0  0  0  0  0  0
   20.2484   20.2085   20.7056 H   0  0  0  0  0  0  0  0  0  0  0  0
   18.8131   19.7202   21.5885 H   0  0  0  0  0  0  0  0  0  0  0  0
   20.4193   20.5222   22.8392 C   0  0  0  0  0  0  0  0  0  0  0  0
   20.5534   21.5627   22.5122 H   0  0  0  0  0  0  0  0  0  0  0  0
   21.4195   20.1826   23.1398 H   0  0  0  0  0  0  0  0  0  0  0  0
   19.4571   20.5459   24.0576 C   0  0  0  0  0  0  0  0  0  0  0  0
   19.8642   21.2359   24.8097 H   0  0  0  0  0  0  0  0  0  0  0  0
   18.4957   20.9774   23.7465 H   0  0  0  0  0  0  0  0  0  0  0  0
   19.1966   19.1787   24.7333 C   0  0  0  0  0  0  0  0  0  0  0  0
   18.6749   18.5101   24.0376 H   0  0  0  0  0  0  0  0  0  0  0  0
   18.5143   19.3287   25.5804 H   0  0  0  0  0  0  0  0  0  0  0  0
   20.4885   18.5140   25.2445 C   0  0  0  0  0  0  0  0  0  0  0  0
   21.1708   18.3400   24.4086 H   0  0  0  0  0  0  0  0  0  0  0  0
   20.9837   19.1759   25.9600 H   0  0  0  0  0  0  0  0  0  0  0  0
   20.2416   17.1853   25.9290 N   0  3  0  0  0  0  0  0  0  0  0  0
   19.6292   17.2851   26.7452 H   0  0  0  0  0  0  0  0  0  0  0  0
   21.1140   16.7602   26.2614 H   0  0  0  0  0  0  0  0  0  0  0  0
   19.7987   16.5070   25.3008 H   0  0  0  0  0  0  0  0  0  0  0  0
  1  2  1  0  0  0  0
  1  3  1  0  0  0  0
  1  4  1  0  0  0  0
  1  5  1  0  0  0  0
  5  6  1  0  0  0  0
  5  7  1  0  0  0  0
  5  8  1  0  0  0  0
  8  9  1  0  0  0  0
  8 10  1  0  0  0  0
  8 11  1  0  0  0  0
 11 12  1  0  0  0  0
 11 13  1  0  0  0  0
 11 14  1  0  0  0  0
 14 15  1  0  0  0  0
 14 16  1  0  0  0  0
 14 17  1  0  0  0  0
 17 18  1  0  0  0  0
 17 19  1  0  0  0  0
 17 20  1  0  0  0  0
 20 21  1  0  0  0  0
 20 22  1  0  0  0  0
 20 23  1  0  0  0  0
 23 24  1  0  0  0  0
 23 25  1  0  0  0  0
 23 26  1  0  0  0  0
M  END
> <VM2 Rank>
147

> <Conf_Id>
560

> <Probability>
0.01

> <Sum Probability>
99.82

> <Delta G>
4.014

> <G>
52.275

> <E>
19.189

> <-TS>
33.086

> <U+W>
-2.273

> <U>
52.111

> <W>
-54.383

> <W(PB)>
-56.638

> <W(SA)>
2.255

> <Valence>
5.498

> <Coulomb>
46.317

> <VdW>
0.296

> <VdW6>
-8.628

> <VdW12>
8.923

> <Bond>
0.245

> <Angle>
1.578

> <Pdih>
3.676

> <Idih>
0.000

> <Tether>
0.000

$$$$
VeraChem MOL file


 26 25  0  0  0  0  0  0  0  0999 V2000     
   19.5777   19.6286   19.8120 C   0  0  0  0  0  0  0  0  0  0  0  0
   19.9100   19.8180   18.7831 H   0  0  0  0  0  0  0  0  0  0  0  0
   18.9235   18.7487   19.7889 H   0  0  0  0  0  0  0  0  0  0  0  0
   18.9824   20.4920   20.1361 H   0  0  0  0  0  0  0  0  0  0  0  0
   20.7944   19.4122   20.7408 C   0  0  0  0  0  0  0  0  0  0  0  0
   21.4781   20.2650   20.6271 H   0  0  0  0  0  0  0  0  0  0  0  0
   21.3552   18.5240   20.4177 H   0  0  0  0  0  0  0  0  0  0  0  0
   20.4158   19.2789   22.2360 C   0  0  0  0  0  0  0  0  0  0  0  0
   21.3465   19.2914   22.8166 H   0  0  0  0  0  0  0  0  0  0  0  0
   19.8340   20.1571   22.5475 H   0  0  0  0  0  0  0  0  0  0  0  0
   19.6336   17.9825   22.5620 C   0  0  0  0  0  0  0  0  0  0  0  0
   20.2645   17.1112   22.3385 H   0  0  0  0  0  0  0  0  0  0  0  0
   18.7617   17.9045   21.9006 H   0  0  0  0  0  0  0  0  0  0  0  0
   19.1226   17.8884   24.0233 C   0  0  0  0  0  0  0  0  0  0  0  0
   18.3999   18.6911   24.2190 H   0  0  0  0  0  0  0  0  0  0  0  0
   18.5522   16.9534   24.1113 H   0  0  0  0  0  0  0  0  0  0  0  0
   20.2321   17.8735   25.1089 C   0  0  0  0  0  0  0  0  0  0  0  0
   21.0984   17.3058   24.7441 H   0  0  0  0  0  0  0  0  0  0  0  0
   19.8634   17.3271   25.9871 H   0  0  0  0  0  0  0  0  0  0  0  0
   20.6925   19.2715   25.5738 C   0  0  0  0  0  0  0  0  0  0  0  0
   21.5292   19.1613   26.2690 H   0  0  0  0  0  0  0  0  0  0  0  0
   21.0365   19.8618   24.7229 H   0  0  0  0  0  0  0  0  0  0  0  0
   19.6123   20.0634   26.2842 N   0  3  0  0  0  0  0  0  0  0  0  0
   19.9541   20.9788   26.5963 H   0  0  0  0  0  0  0  0  0  0  0  0
   19.2666   19.5739   27.1159 H   0  0  0  0  0  0  0  0  0  0  0  0
   18.8054   20.2352   25.6767 H   0  0  0  0  0  0  0  0  0  0  0  0
  1  2  1  0  0  0  0
  1  3  1  0  0  0  0
  1  4  1  0  0  0  0
  1  5  1  0  0  0  0
  5  6  1  0  0  0  0
  5  7  1  0  0  0  0
  5  8  1  0  0  0  0
  8  9  1  0  0  0  0
  8 10  1  0  0  0  0
  8 11  1  0  0  0  0
 11 12  1  0  0  0  0
 11 13  1  0  0  0  0
 11 14  1  0  0  0  0
 14 15  1  0  0  0  0
 14 16  1  0  0  0  0
 14 17  1  0  0  0  0
 17 18  1  0  0  0  0
 17 19  1  0  0  0  0
 17 20  1  0  0  0  0
 20 21  1  0  0  0  0
 20 22  1  0  0  0  0
 20 23  1  0  0  0  0
 23 24  1  0  0  0  0
 23 25  1  0  0  0  0
 23 26  1  0  0  0  0
M  END
> <VM2 Rank>
148

> <Conf_Id>
538

> <Probability>
0.01

> <Sum Probability>
99.83

> <Delta G>
4.040

> <G>
52.301

> <E>
19.495

> <-TS>
32.806

> <U+W>
-1.967

> <U>
52.151

> <W>
-54.117

> <W(PB)>
-56.367

> <W(SA)>
2.249

> <Valence>
5.368

> <Coulomb>
45.965

> <VdW>
0.817

> <VdW6>
-8.546

> <VdW12>
9.364

> <Bond>
0.273

> <Angle>
1.632

> <Pdih>
3.464

> <Idih>
0.000

> <Tether>
0.000

$$$$
VeraChem MOL file


 26 25  0  0  0  0  0  0  0  0999 V2000     
   18.4308   19.3575   21.2859 C   0  0  0  0  0  0  0  0  0  0  0  0
   18.5105   19.8308   22.2701 H   0  0  0  0  0  0  0  0  0  0  0  0
   17.8340   20.0229   20.6489 H   0  0  0  0  0  0  0  0  0  0  0  0
   17.8720   18.4199   21.4028 H   0  0  0  0  0  0  0  0  0  0  0  0
   19.8158   19.1010   20.6477 C   0  0  0  0  0  0  0  0  0  0  0  0
   20.3550   20.0491   20.5135 H   0  0  0  0  0  0  0  0  0  0  0  0
   19.6504   18.7028   19.6368 H   0  0  0  0  0  0  0  0  0  0  0  0
   20.6909   18.0898   21.4332 C   0  0  0  0  0  0  0  0  0  0  0  0
   20.0617   17.3330   21.9196 H   0  0  0  0  0  0  0  0  0  0  0  0
   21.2960   17.5345   20.7032 H   0  0  0  0  0  0  0  0  0  0  0  0
   21.6761   18.7268   22.4506 C   0  0  0  0  0  0  0  0  0  0  0  0
   22.3511   19.4055   21.9112 H   0  0  0  0  0  0  0  0  0  0  0  0
   22.3178   17.9336   22.8586 H   0  0  0  0  0  0  0  0  0  0  0  0
   21.0355   19.4994   23.6302 C   0  0  0  0  0  0  0  0  0  0  0  0
   21.8429   19.9255   24.2418 H   0  0  0  0  0  0  0  0  0  0  0  0
   20.4662   20.3574   23.2512 H   0  0  0  0  0  0  0  0  0  0  0  0
   20.1423   18.6169   24.5337 C   0  0  0  0  0  0  0  0  0  0  0  0
   20.7253   17.7651   24.9082 H   0  0  0  0  0  0  0  0  0  0  0  0
   19.3062   18.2045   23.9559 H   0  0  0  0  0  0  0  0  0  0  0  0
   19.5847   19.4180   25.7230 C   0  0  0  0  0  0  0  0  0  0  0  0
   20.4108   19.8151   26.3191 H   0  0  0  0  0  0  0  0  0  0  0  0
   18.9912   20.2590   25.3543 H   0  0  0  0  0  0  0  0  0  0  0  0
   18.7048   18.5896   26.6366 N   0  3  0  0  0  0  0  0  0  0  0  0
   19.2130   17.7952   27.0390 H   0  0  0  0  0  0  0  0  0  0  0  0
   17.8915   18.2087   26.1421 H   0  0  0  0  0  0  0  0  0  0  0  0
   18.3447   19.1422   27.4223 H   0  0  0  0  0  0  0  0  0  0  0  0
  1  2  1  0  0  0  0
  1  3  1  0  0  0  0
  1  4  1  0  0  0  0
  1  5  1  0  0  0  0
  5  6  1  0  0  0  0
  5  7  1  0  0  0  0
  5  8  1  0  0  0  0
  8  9  1  0  0  0  0
  8 10  1  0  0  0  0
  8 11  1  0  0  0  0
 11 12  1  0  0  0  0
 11 13  1  0  0  0  0
 11 14  1  0  0  0  0
 14 15  1  0  0  0  0
 14 16  1  0  0  0  0
 14 17  1  0  0  0  0
 17 18  1  0  0  0  0
 17 19  1  0  0  0  0
 17 20  1  0  0  0  0
 20 21  1  0  0  0  0
 20 22  1  0  0  0  0
 20 23  1  0  0  0  0
 23 24  1  0  0  0  0
 23 25  1  0  0  0  0
 23 26  1  0  0  0  0
M  END
> <VM2 Rank>
149

> <Conf_Id>
276

> <Probability>
0.01

> <Sum Probability>
99.84

> <Delta G>
4.052

> <G>
52.314

> <E>
19.142

> <-TS>
33.172

> <U+W>
-2.320

> <U>
51.692

> <W>
-54.012

> <W(PB)>
-56.248

> <W(SA)>
2.237

> <Valence>
5.738

> <Coulomb>
45.542

> <VdW>
0.411

> <VdW6>
-8.566

> <VdW12>
8.977

> <Bond>
0.261

> <Angle>
1.836

> <Pdih>
3.642

> <Idih>
0.000

> <Tether>
0.000

$$$$
VeraChem MOL file


 26 25  0  0  0  0  0  0  0  0999 V2000     
   21.4846   18.5186   20.3813 C   0  0  0  0  0  0  0  0  0  0  0  0
   22.2797   17.7617   20.3819 H   0  0  0  0  0  0  0  0  0  0  0  0
   20.9356   18.4294   19.4348 H   0  0  0  0  0  0  0  0  0  0  0  0
   21.9606   19.5075   20.4086 H   0  0  0  0  0  0  0  0  0  0  0  0
   20.5445   18.3224   21.5894 C   0  0  0  0  0  0  0  0  0  0  0  0
   21.1356   18.3734   22.5106 H   0  0  0  0  0  0  0  0  0  0  0  0
   20.1103   17.3137   21.5496 H   0  0  0  0  0  0  0  0  0  0  0  0
   19.4111   19.3762   21.6056 C   0  0  0  0  0  0  0  0  0  0  0  0
   19.8324   20.3907   21.6224 H   0  0  0  0  0  0  0  0  0  0  0  0
   18.8586   19.2943   20.6592 H   0  0  0  0  0  0  0  0  0  0  0  0
   18.4040   19.1968   22.7720 C   0  0  0  0  0  0  0  0  0  0  0  0
   18.3065   18.1353   23.0359 H   0  0  0  0  0  0  0  0  0  0  0  0
   17.4117   19.4965   22.4074 H   0  0  0  0  0  0  0  0  0  0  0  0
   18.7057   20.0518   24.0325 C   0  0  0  0  0  0  0  0  0  0  0  0
   18.7040   21.1145   23.7535 H   0  0  0  0  0  0  0  0  0  0  0  0
   17.8769   19.9288   24.7434 H   0  0  0  0  0  0  0  0  0  0  0  0
   20.0316   19.7279   24.7611 C   0  0  0  0  0  0  0  0  0  0  0  0
   20.1241   20.3875   25.6342 H   0  0  0  0  0  0  0  0  0  0  0  0
   20.8835   19.9627   24.1113 H   0  0  0  0  0  0  0  0  0  0  0  0
   20.1073   18.2633   25.2317 C   0  0  0  0  0  0  0  0  0  0  0  0
   19.2711   18.0495   25.9029 H   0  0  0  0  0  0  0  0  0  0  0  0
   20.0363   17.5939   24.3707 H   0  0  0  0  0  0  0  0  0  0  0  0
   21.3921   17.9419   25.9674 N   0  3  0  0  0  0  0  0  0  0  0  0
   22.2186   18.0985   25.3816 H   0  0  0  0  0  0  0  0  0  0  0  0
   21.4220   16.9627   26.2717 H   0  0  0  0  0  0  0  0  0  0  0  0
   21.5044   18.5183   26.8078 H   0  0  0  0  0  0  0  0  0  0  0  0
  1  2  1  0  0  0  0
  1  3  1  0  0  0  0
  1  4  1  0  0  0  0
  1  5  1  0  0  0  0
  5  6  1  0  0  0  0
  5  7  1  0  0  0  0
  5  8  1  0  0  0  0
  8  9  1  0  0  0  0
  8 10  1  0  0  0  0
  8 11  1  0  0  0  0
 11 12  1  0  0  0  0
 11 13  1  0  0  0  0
 11 14  1  0  0  0  0
 14 15  1  0  0  0  0
 14 16  1  0  0  0  0
 14 17  1  0  0  0  0
 17 18  1  0  0  0  0
 17 19  1  0  0  0  0
 17 20  1  0  0  0  0
 20 21  1  0  0  0  0
 20 22  1  0  0  0  0
 20 23  1  0  0  0  0
 23 24  1  0  0  0  0
 23 25  1  0  0  0  0
 23 26  1  0  0  0  0
M  END
> <VM2 Rank>
150

> <Conf_Id>
1317

> <Probability>
0.01

> <Sum Probability>
99.85

> <Delta G>
4.056

> <G>
52.317

> <E>
19.231

> <-TS>
33.086

> <U+W>
-2.231

> <U>
52.111

> <W>
-54.342

> <W(PB)>
-56.604

> <W(SA)>
2.263

> <Valence>
5.498

> <Coulomb>
46.317

> <VdW>
0.296

> <VdW6>
-8.628

> <VdW12>
8.923

> <Bond>
0.245

> <Angle>
1.578

> <Pdih>
3.675

> <Idih>
0.000

> <Tether>
0.000

$$$$
VeraChem MOL file


 26 25  0  0  0  0  0  0  0  0999 V2000     
   19.6949   19.7055   19.8156 C   0  0  0  0  0  0  0  0  0  0  0  0
   20.7609   19.9614   19.8500 H   0  0  0  0  0  0  0  0  0  0  0  0
   19.4388   19.5060   18.7670 H   0  0  0  0  0  0  0  0  0  0  0  0
   19.1196   20.5823   20.1400 H   0  0  0  0  0  0  0  0  0  0  0  0
   19.3739   18.4741   20.6932 C   0  0  0  0  0  0  0  0  0  0  0  0
   19.9855   17.6193   20.3720 H   0  0  0  0  0  0  0  0  0  0  0  0
   18.3277   18.1847   20.5216 H   0  0  0  0  0  0  0  0  0  0  0  0
   19.5750   18.7240   22.2077 C   0  0  0  0  0  0  0  0  0  0  0  0
   18.9813   19.5944   22.5186 H   0  0  0  0  0  0  0  0  0  0  0  0
   19.1720   17.8559   22.7439 H   0  0  0  0  0  0  0  0  0  0  0  0
   21.0575   18.9232   22.6096 C   0  0  0  0  0  0  0  0  0  0  0  0
   21.5013   19.7142   21.9922 H   0  0  0  0  0  0  0  0  0  0  0  0
   21.6215   18.0079   22.3837 H   0  0  0  0  0  0  0  0  0  0  0  0
   21.2759   19.3108   24.0953 C   0  0  0  0  0  0  0  0  0  0  0  0
   22.3544   19.4648   24.2385 H   0  0  0  0  0  0  0  0  0  0  0  0
   20.8120   20.2843   24.2998 H   0  0  0  0  0  0  0  0  0  0  0  0
   20.8048   18.2517   25.1278 C   0  0  0  0  0  0  0  0  0  0  0  0
   21.4106   18.3485   26.0386 H   0  0  0  0  0  0  0  0  0  0  0  0
   21.0042   17.2438   24.7405 H   0  0  0  0  0  0  0  0  0  0  0  0
   19.3183   18.3640   25.5279 C   0  0  0  0  0  0  0  0  0  0  0  0
   18.6805   18.3066   24.6442 H   0  0  0  0  0  0  0  0  0  0  0  0
   19.0595   17.5301   26.1861 H   0  0  0  0  0  0  0  0  0  0  0  0
   18.9807   19.6459   26.2638 N   0  3  0  0  0  0  0  0  0  0  0  0
   17.9912   19.6820   26.5317 H   0  0  0  0  0  0  0  0  0  0  0  0
   19.1670   20.4738   25.6899 H   0  0  0  0  0  0  0  0  0  0  0  0
   19.5275   19.7451   27.1253 H   0  0  0  0  0  0  0  0  0  0  0  0
  1  2  1  0  0  0  0
  1  3  1  0  0  0  0
  1  4  1  0  0  0  0
  1  5  1  0  0  0  0
  5  6  1  0  0  0  0
  5  7  1  0  0  0  0
  5  8  1  0  0  0  0
  8  9  1  0  0  0  0
  8 10  1  0  0  0  0
  8 11  1  0  0  0  0
 11 12  1  0  0  0  0
 11 13  1  0  0  0  0
 11 14  1  0  0  0  0
 14 15  1  0  0  0  0
 14 16  1  0  0  0  0
 14 17  1  0  0  0  0
 17 18  1  0  0  0  0
 17 19  1  0  0  0  0
 17 20  1  0  0  0  0
 20 21  1  0  0  0  0
 20 22  1  0  0  0  0
 20 23  1  0  0  0  0
 23 24  1  0  0  0  0
 23 25  1  0  0  0  0
 23 26  1  0  0  0  0
M  END
> <VM2 Rank>
151

> <Conf_Id>
506

> <Probability>
0.01

> <Sum Probability>
99.86

> <Delta G>
4.093

> <G>
52.354

> <E>
19.548

> <-TS>
32.806

> <U+W>
-1.914

> <U>
52.150

> <W>
-54.064

> <W(PB)>
-56.339

> <W(SA)>
2.275

> <Valence>
5.369

> <Coulomb>
45.964

> <VdW>
0.817

> <VdW6>
-8.546

> <VdW12>
9.363

> <Bond>
0.273

> <Angle>
1.631

> <Pdih>
3.464

> <Idih>
0.000

> <Tether>
0.000

$$$$
VeraChem MOL file


 26 25  0  0  0  0  0  0  0  0999 V2000     
   20.0199   19.9476   20.2947 C   0  0  0  0  0  0  0  0  0  0  0  0
   18.9447   19.8765   20.5011 H   0  0  0  0  0  0  0  0  0  0  0  0
   20.2232   20.9688   19.9474 H   0  0  0  0  0  0  0  0  0  0  0  0
   20.2591   19.2594   19.4737 H   0  0  0  0  0  0  0  0  0  0  0  0
   20.8593   19.6259   21.5516 C   0  0  0  0  0  0  0  0  0  0  0  0
   20.5908   20.3189   22.3590 H   0  0  0  0  0  0  0  0  0  0  0  0
   21.9180   19.8182   21.3284 H   0  0  0  0  0  0  0  0  0  0  0  0
   20.7134   18.1575   22.0267 C   0  0  0  0  0  0  0  0  0  0  0  0
   21.0681   17.4945   21.2256 H   0  0  0  0  0  0  0  0  0  0  0  0
   21.3904   17.9756   22.8705 H   0  0  0  0  0  0  0  0  0  0  0  0
   19.2739   17.7282   22.4145 C   0  0  0  0  0  0  0  0  0  0  0  0
   19.2962   16.6770   22.7330 H   0  0  0  0  0  0  0  0  0  0  0  0
   18.6447   17.7440   21.5147 H   0  0  0  0  0  0  0  0  0  0  0  0
   18.5785   18.5707   23.5179 C   0  0  0  0  0  0  0  0  0  0  0  0
   18.4843   19.6193   23.2057 H   0  0  0  0  0  0  0  0  0  0  0  0
   17.5479   18.2006   23.6086 H   0  0  0  0  0  0  0  0  0  0  0  0
   19.2360   18.4825   24.9187 C   0  0  0  0  0  0  0  0  0  0  0  0
   19.5776   17.4567   25.1102 H   0  0  0  0  0  0  0  0  0  0  0  0
   18.4709   18.7003   25.6757 H   0  0  0  0  0  0  0  0  0  0  0  0
   20.3971   19.4756   25.1149 C   0  0  0  0  0  0  0  0  0  0  0  0
   21.1924   19.2746   24.3952 H   0  0  0  0  0  0  0  0  0  0  0  0
   20.0380   20.4954   24.9522 H   0  0  0  0  0  0  0  0  0  0  0  0
   21.0028   19.4109   26.5020 N   0  3  0  0  0  0  0  0  0  0  0  0
   21.7712   20.0812   26.6144 H   0  0  0  0  0  0  0  0  0  0  0  0
   21.3840   18.4820   26.7094 H   0  0  0  0  0  0  0  0  0  0  0  0
   20.3130   19.6231   27.2302 H   0  0  0  0  0  0  0  0  0  0  0  0
  1  2  1  0  0  0  0
  1  3  1  0  0  0  0
  1  4  1  0  0  0  0
  1  5  1  0  0  0  0
  5  6  1  0  0  0  0
  5  7  1  0  0  0  0
  5  8  1  0  0  0  0
  8  9  1  0  0  0  0
  8 10  1  0  0  0  0
  8 11  1  0  0  0  0
 11 12  1  0  0  0  0
 11 13  1  0  0  0  0
 11 14  1  0  0  0  0
 14 15  1  0  0  0  0
 14 16  1  0  0  0  0
 14 17  1  0  0  0  0
 17 18  1  0  0  0  0
 17 19  1  0  0  0  0
 17 20  1  0  0  0  0
 20 21  1  0  0  0  0
 20 22  1  0  0  0  0
 20 23  1  0  0  0  0
 23 24  1  0  0  0  0
 23 25  1  0  0  0  0
 23 26  1  0  0  0  0
M  END
> <VM2 Rank>
152

> <Conf_Id>
529

> <Probability>
0.01

> <Sum Probability>
99.86

> <Delta G>
4.114

> <G>
52.376

> <E>
18.965

> <-TS>
33.411

> <U+W>
-2.497

> <U>
51.820

> <W>
-54.318

> <W(PB)>
-56.541

> <W(SA)>
2.224

> <Valence>
5.497

> <Coulomb>
46.010

> <VdW>
0.313

> <VdW6>
-9.491

> <VdW12>
9.804

> <Bond>
0.285

> <Angle>
2.062

> <Pdih>
3.150

> <Idih>
0.000

> <Tether>
0.000

$$$$
VeraChem MOL file


 26 25  0  0  0  0  0  0  0  0999 V2000     
   19.2064   19.4110   20.2675 C   0  0  0  0  0  0  0  0  0  0  0  0
   18.2048   19.6375   19.8798 H   0  0  0  0  0  0  0  0  0  0  0  0
   19.6843   20.3643   20.5257 H   0  0  0  0  0  0  0  0  0  0  0  0
   19.7829   18.9452   19.4578 H   0  0  0  0  0  0  0  0  0  0  0  0
   19.1138   18.4747   21.4932 C   0  0  0  0  0  0  0  0  0  0  0  0
   18.5319   17.5850   21.2153 H   0  0  0  0  0  0  0  0  0  0  0  0
   18.5451   18.9698   22.2906 H   0  0  0  0  0  0  0  0  0  0  0  0
   20.4977   18.0152   22.0195 C   0  0  0  0  0  0  0  0  0  0  0  0
   20.3597   17.2958   22.8360 H   0  0  0  0  0  0  0  0  0  0  0  0
   21.0048   17.4527   21.2235 H   0  0  0  0  0  0  0  0  0  0  0  0
   21.4392   19.1563   22.4868 C   0  0  0  0  0  0  0  0  0  0  0  0
   21.7136   19.7681   21.6173 H   0  0  0  0  0  0  0  0  0  0  0  0
   22.3811   18.7117   22.8362 H   0  0  0  0  0  0  0  0  0  0  0  0
   20.8870   20.0934   23.5951 C   0  0  0  0  0  0  0  0  0  0  0  0
   21.6275   20.8912   23.7450 H   0  0  0  0  0  0  0  0  0  0  0  0
   19.9755   20.6028   23.2555 H   0  0  0  0  0  0  0  0  0  0  0  0
   20.6447   19.4116   24.9658 C   0  0  0  0  0  0  0  0  0  0  0  0
   20.7099   20.1770   25.7505 H   0  0  0  0  0  0  0  0  0  0  0  0
   21.4439   18.6877   25.1726 H   0  0  0  0  0  0  0  0  0  0  0  0
   19.2675   18.7306   25.0772 C   0  0  0  0  0  0  0  0  0  0  0  0
   18.4794   19.4675   24.9002 H   0  0  0  0  0  0  0  0  0  0  0  0
   19.1734   17.9431   24.3277 H   0  0  0  0  0  0  0  0  0  0  0  0
   19.0246   18.1061   26.4359 N   0  3  0  0  0  0  0  0  0  0  0  0
   19.0667   18.8009   27.1886 H   0  0  0  0  0  0  0  0  0  0  0  0
   19.7185   17.3834   26.6536 H   0  0  0  0  0  0  0  0  0  0  0  0
   18.1020   17.6611   26.4918 H   0  0  0  0  0  0  0  0  0  0  0  0
  1  2  1  0  0  0  0
  1  3  1  0  0  0  0
  1  4  1  0  0  0  0
  1  5  1  0  0  0  0
  5  6  1  0  0  0  0
  5  7  1  0  0  0  0
  5  8  1  0  0  0  0
  8  9  1  0  0  0  0
  8 10  1  0  0  0  0
  8 11  1  0  0  0  0
 11 12  1  0  0  0  0
 11 13  1  0  0  0  0
 11 14  1  0  0  0  0
 14 15  1  0  0  0  0
 14 16  1  0  0  0  0
 14 17  1  0  0  0  0
 17 18  1  0  0  0  0
 17 19  1  0  0  0  0
 17 20  1  0  0  0  0
 20 21  1  0  0  0  0
 20 22  1  0  0  0  0
 20 23  1  0  0  0  0
 23 24  1  0  0  0  0
 23 25  1  0  0  0  0
 23 26  1  0  0  0  0
M  END
> <VM2 Rank>
153

> <Conf_Id>
1318

> <Probability>
0.01

> <Sum Probability>
99.87

> <Delta G>
4.138

> <G>
52.400

> <E>
18.989

> <-TS>
33.411

> <U+W>
-2.473

> <U>
51.820

> <W>
-54.294

> <W(PB)>
-56.510

> <W(SA)>
2.216

> <Valence>
5.497

> <Coulomb>
46.010

> <VdW>
0.313

> <VdW6>
-9.490

> <VdW12>
9.804

> <Bond>
0.285

> <Angle>
2.062

> <Pdih>
3.150

> <Idih>
0.000

> <Tether>
0.000

$$$$
VeraChem MOL file


 26 25  0  0  0  0  0  0  0  0999 V2000     
   19.6517   17.9287   20.2153 C   0  0  0  0  0  0  0  0  0  0  0  0
   20.5367   17.3059   20.0314 H   0  0  0  0  0  0  0  0  0  0  0  0
   19.0856   17.4869   21.0449 H   0  0  0  0  0  0  0  0  0  0  0  0
   19.0167   17.8831   19.3211 H   0  0  0  0  0  0  0  0  0  0  0  0
   20.0538   19.3894   20.5199 C   0  0  0  0  0  0  0  0  0  0  0  0
   19.1551   19.9867   20.7229 H   0  0  0  0  0  0  0  0  0  0  0  0
   20.5051   19.8268   19.6184 H   0  0  0  0  0  0  0  0  0  0  0  0
   21.0638   19.5218   21.6887 C   0  0  0  0  0  0  0  0  0  0  0  0
   22.0056   19.0379   21.3953 H   0  0  0  0  0  0  0  0  0  0  0  0
   21.3044   20.5844   21.8301 H   0  0  0  0  0  0  0  0  0  0  0  0
   20.6033   18.9237   23.0438 C   0  0  0  0  0  0  0  0  0  0  0  0
   21.4280   19.0524   23.7548 H   0  0  0  0  0  0  0  0  0  0  0  0
   20.4460   17.8420   22.9412 H   0  0  0  0  0  0  0  0  0  0  0  0
   19.3280   19.5919   23.6161 C   0  0  0  0  0  0  0  0  0  0  0  0
   19.5184   20.6610   23.7834 H   0  0  0  0  0  0  0  0  0  0  0  0
   18.5224   19.5356   22.8732 H   0  0  0  0  0  0  0  0  0  0  0  0
   18.8015   18.9502   24.9254 C   0  0  0  0  0  0  0  0  0  0  0  0
   18.5470   17.8951   24.7586 H   0  0  0  0  0  0  0  0  0  0  0  0
   17.8591   19.4491   25.1877 H   0  0  0  0  0  0  0  0  0  0  0  0
   19.7525   19.0811   26.1332 C   0  0  0  0  0  0  0  0  0  0  0  0
   20.2360   20.0615   26.1211 H   0  0  0  0  0  0  0  0  0  0  0  0
   19.1694   19.0021   27.0548 H   0  0  0  0  0  0  0  0  0  0  0  0
   20.8263   18.0122   26.1986 N   0  3  0  0  0  0  0  0  0  0  0  0
   21.4366   18.1362   27.0137 H   0  0  0  0  0  0  0  0  0  0  0  0
   21.4250   18.0225   25.3683 H   0  0  0  0  0  0  0  0  0  0  0  0
   20.4221   17.0727   26.2688 H   0  0  0  0  0  0  0  0  0  0  0  0
  1  2  1  0  0  0  0
  1  3  1  0  0  0  0
  1  4  1  0  0  0  0
  1  5  1  0  0  0  0
  5  6  1  0  0  0  0
  5  7  1  0  0  0  0
  5  8  1  0  0  0  0
  8  9  1  0  0  0  0
  8 10  1  0  0  0  0
  8 11  1  0  0  0  0
 11 12  1  0  0  0  0
 11 13  1  0  0  0  0
 11 14  1  0  0  0  0
 14 15  1  0  0  0  0
 14 16  1  0  0  0  0
 14 17  1  0  0  0  0
 17 18  1  0  0  0  0
 17 19  1  0  0  0  0
 17 20  1  0  0  0  0
 20 21  1  0  0  0  0
 20 22  1  0  0  0  0
 20 23  1  0  0  0  0
 23 24  1  0  0  0  0
 23 25  1  0  0  0  0
 23 26  1  0  0  0  0
M  END
> <VM2 Rank>
154

> <Conf_Id>
505

> <Probability>
0.01

> <Sum Probability>
99.88

> <Delta G>
4.171

> <G>
52.433

> <E>
19.589

> <-TS>
32.844

> <U+W>
-1.873

> <U>
52.059

> <W>
-53.932

> <W(PB)>
-56.175

> <W(SA)>
2.243

> <Valence>
4.855

> <Coulomb>
46.488

> <VdW>
0.717

> <VdW6>
-8.768

> <VdW12>
9.484

> <Bond>
0.277

> <Angle>
1.731

> <Pdih>
2.847

> <Idih>
0.000

> <Tether>
0.000

$$$$
VeraChem MOL file


 26 25  0  0  0  0  0  0  0  0999 V2000     
   20.0049   17.7785   20.1084 C   0  0  0  0  0  0  0  0  0  0  0  0
   19.9200   18.3930   19.2028 H   0  0  0  0  0  0  0  0  0  0  0  0
   20.4450   16.8155   19.8186 H   0  0  0  0  0  0  0  0  0  0  0  0
   18.9935   17.5793   20.4824 H   0  0  0  0  0  0  0  0  0  0  0  0
   20.8834   18.4756   21.1725 C   0  0  0  0  0  0  0  0  0  0  0  0
   21.9051   18.5624   20.7772 H   0  0  0  0  0  0  0  0  0  0  0  0
   20.9553   17.8384   22.0620 H   0  0  0  0  0  0  0  0  0  0  0  0
   20.3790   19.8931   21.5482 C   0  0  0  0  0  0  0  0  0  0  0  0
   21.1603   20.4251   22.1080 H   0  0  0  0  0  0  0  0  0  0  0  0
   20.2432   20.4652   20.6200 H   0  0  0  0  0  0  0  0  0  0  0  0
   19.0514   19.9257   22.3539 C   0  0  0  0  0  0  0  0  0  0  0  0
   18.4149   19.0703   22.0961 H   0  0  0  0  0  0  0  0  0  0  0  0
   18.4870   20.8153   22.0419 H   0  0  0  0  0  0  0  0  0  0  0  0
   19.2289   20.0044   23.8922 C   0  0  0  0  0  0  0  0  0  0  0  0
   19.7730   20.9232   24.1515 H   0  0  0  0  0  0  0  0  0  0  0  0
   18.2340   20.0998   24.3491 H   0  0  0  0  0  0  0  0  0  0  0  0
   19.9504   18.7873   24.5137 C   0  0  0  0  0  0  0  0  0  0  0  0
   20.9907   18.7542   24.1667 H   0  0  0  0  0  0  0  0  0  0  0  0
   19.4629   17.8597   24.1855 H   0  0  0  0  0  0  0  0  0  0  0  0
   19.9409   18.8547   26.0509 C   0  0  0  0  0  0  0  0  0  0  0  0
   20.4384   19.7702   26.3823 H   0  0  0  0  0  0  0  0  0  0  0  0
   18.9091   18.8737   26.4122 H   0  0  0  0  0  0  0  0  0  0  0  0
   20.6421   17.6796   26.7012 N   0  3  0  0  0  0  0  0  0  0  0  0
   20.2043   16.7870   26.4507 H   0  0  0  0  0  0  0  0  0  0  0  0
   20.6235   17.7442   27.7249 H   0  0  0  0  0  0  0  0  0  0  0  0
   21.6275   17.6213   26.4240 H   0  0  0  0  0  0  0  0  0  0  0  0
  1  2  1  0  0  0  0
  1  3  1  0  0  0  0
  1  4  1  0  0  0  0
  1  5  1  0  0  0  0
  5  6  1  0  0  0  0
  5  7  1  0  0  0  0
  5  8  1  0  0  0  0
  8  9  1  0  0  0  0
  8 10  1  0  0  0  0
  8 11  1  0  0  0  0
 11 12  1  0  0  0  0
 11 13  1  0  0  0  0
 11 14  1  0  0  0  0
 14 15  1  0  0  0  0
 14 16  1  0  0  0  0
 14 17  1  0  0  0  0
 17 18  1  0  0  0  0
 17 19  1  0  0  0  0
 17 20  1  0  0  0  0
 20 21  1  0  0  0  0
 20 22  1  0  0  0  0
 20 23  1  0  0  0  0
 23 24  1  0  0  0  0
 23 25  1  0  0  0  0
 23 26  1  0  0  0  0
M  END
> <VM2 Rank>
155

> <Conf_Id>
1324

> <Probability>
0.01

> <Sum Probability>
99.88

> <Delta G>
4.196

> <G>
52.457

> <E>
19.695

> <-TS>
32.763

> <U+W>
-1.767

> <U>
51.960

> <W>
-53.727

> <W(PB)>
-56.012

> <W(SA)>
2.285

> <Valence>
5.882

> <Coulomb>
45.296

> <VdW>
0.781

> <VdW6>
-7.931

> <VdW12>
8.711

> <Bond>
0.264

> <Angle>
1.487

> <Pdih>
4.131

> <Idih>
0.000

> <Tether>
0.000

$$$$
VeraChem MOL file


 26 25  0  0  0  0  0  0  0  0999 V2000     
   19.6434   20.0589   20.2798 C   0  0  0  0  0  0  0  0  0  0  0  0
   18.6891   19.5246   20.3651 H   0  0  0  0  0  0  0  0  0  0  0  0
   19.5745   20.9827   20.8689 H   0  0  0  0  0  0  0  0  0  0  0  0
   19.7705   20.3411   19.2267 H   0  0  0  0  0  0  0  0  0  0  0  0
   20.8275   19.1853   20.7524 C   0  0  0  0  0  0  0  0  0  0  0  0
   21.7661   19.7152   20.5379 H   0  0  0  0  0  0  0  0  0  0  0  0
   20.8586   18.2560   20.1666 H   0  0  0  0  0  0  0  0  0  0  0  0
   20.7789   18.8523   22.2630 C   0  0  0  0  0  0  0  0  0  0  0  0
   21.7064   18.3281   22.5308 H   0  0  0  0  0  0  0  0  0  0  0  0
   20.7770   19.7895   22.8301 H   0  0  0  0  0  0  0  0  0  0  0  0
   19.5663   17.9691   22.6555 C   0  0  0  0  0  0  0  0  0  0  0  0
   19.5583   17.0913   21.9947 H   0  0  0  0  0  0  0  0  0  0  0  0
   18.6235   18.4992   22.4677 H   0  0  0  0  0  0  0  0  0  0  0  0
   19.5973   17.4651   24.1224 C   0  0  0  0  0  0  0  0  0  0  0  0
   19.0450   16.5159   24.1614 H   0  0  0  0  0  0  0  0  0  0  0  0
   20.6242   17.2156   24.4209 H   0  0  0  0  0  0  0  0  0  0  0  0
   18.9415   18.4193   25.1561 C   0  0  0  0  0  0  0  0  0  0  0  0
   18.9070   17.9161   26.1315 H   0  0  0  0  0  0  0  0  0  0  0  0
   17.8958   18.5964   24.8716 H   0  0  0  0  0  0  0  0  0  0  0  0
   19.6413   19.7805   25.3311 C   0  0  0  0  0  0  0  0  0  0  0  0
   19.6142   20.3350   24.3906 H   0  0  0  0  0  0  0  0  0  0  0  0
   19.1054   20.3678   26.0816 H   0  0  0  0  0  0  0  0  0  0  0  0
   21.0847   19.6684   25.7807 N   0  3  0  0  0  0  0  0  0  0  0  0
   21.5223   20.5894   25.8922 H   0  0  0  0  0  0  0  0  0  0  0  0
   21.6490   19.1430   25.1062 H   0  0  0  0  0  0  0  0  0  0  0  0
   21.1643   19.1878   26.6827 H   0  0  0  0  0  0  0  0  0  0  0  0
  1  2  1  0  0  0  0
  1  3  1  0  0  0  0
  1  4  1  0  0  0  0
  1  5  1  0  0  0  0
  5  6  1  0  0  0  0
  5  7  1  0  0  0  0
  5  8  1  0  0  0  0
  8  9  1  0  0  0  0
  8 10  1  0  0  0  0
  8 11  1  0  0  0  0
 11 12  1  0  0  0  0
 11 13  1  0  0  0  0
 11 14  1  0  0  0  0
 14 15  1  0  0  0  0
 14 16  1  0  0  0  0
 14 17  1  0  0  0  0
 17 18  1  0  0  0  0
 17 19  1  0  0  0  0
 17 20  1  0  0  0  0
 20 21  1  0  0  0  0
 20 22  1  0  0  0  0
 20 23  1  0  0  0  0
 23 24  1  0  0  0  0
 23 25  1  0  0  0  0
 23 26  1  0  0  0  0
M  END
> <VM2 Rank>
156

> <Conf_Id>
275

> <Probability>
0.01

> <Sum Probability>
99.89

> <Delta G>
4.287

> <G>
52.549

> <E>
19.599

> <-TS>
32.950

> <U+W>
-1.863

> <U>
52.361

> <W>
-54.224

> <W(PB)>
-56.457

> <W(SA)>
2.233

> <Valence>
5.334

> <Coulomb>
46.481

> <VdW>
0.546

> <VdW6>
-8.933

> <VdW12>
9.479

> <Bond>
0.278

> <Angle>
1.663

> <Pdih>
3.393

> <Idih>
0.000

> <Tether>
0.000

$$$$
VeraChem MOL file


 26 25  0  0  0  0  0  0  0  0999 V2000     
   20.8138   19.8919   20.0746 C   0  0  0  0  0  0  0  0  0  0  0  0
   21.7378   20.4725   19.9563 H   0  0  0  0  0  0  0  0  0  0  0  0
   20.7822   19.1424   19.2731 H   0  0  0  0  0  0  0  0  0  0  0  0
   19.9661   20.5758   19.9369 H   0  0  0  0  0  0  0  0  0  0  0  0
   20.7651   19.2219   21.4641 C   0  0  0  0  0  0  0  0  0  0  0  0
   20.8445   19.9975   22.2340 H   0  0  0  0  0  0  0  0  0  0  0  0
   21.6417   18.5697   21.5818 H   0  0  0  0  0  0  0  0  0  0  0  0
   19.4712   18.3935   21.6512 C   0  0  0  0  0  0  0  0  0  0  0  0
   18.5868   19.0328   21.5243 H   0  0  0  0  0  0  0  0  0  0  0  0
   19.4252   17.6505   20.8430 H   0  0  0  0  0  0  0  0  0  0  0  0
   19.3956   17.6400   23.0052 C   0  0  0  0  0  0  0  0  0  0  0  0
   20.3991   17.3389   23.3340 H   0  0  0  0  0  0  0  0  0  0  0  0
   18.8530   16.6999   22.8340 H   0  0  0  0  0  0  0  0  0  0  0  0
   18.6485   18.3990   24.1350 C   0  0  0  0  0  0  0  0  0  0  0  0
   17.6270   18.6242   23.7990 H   0  0  0  0  0  0  0  0  0  0  0  0
   18.5316   17.7228   24.9924 H   0  0  0  0  0  0  0  0  0  0  0  0
   19.3146   19.7119   24.6185 C   0  0  0  0  0  0  0  0  0  0  0  0
   18.7179   20.1365   25.4366 H   0  0  0  0  0  0  0  0  0  0  0  0
   19.2862   20.4573   23.8144 H   0  0  0  0  0  0  0  0  0  0  0  0
   20.7687   19.5337   25.1003 C   0  0  0  0  0  0  0  0  0  0  0  0
   21.3802   19.1314   24.2887 H   0  0  0  0  0  0  0  0  0  0  0  0
   21.1788   20.5061   25.3863 H   0  0  0  0  0  0  0  0  0  0  0  0
   20.9035   18.6071   26.2921 N   0  3  0  0  0  0  0  0  0  0  0  0
   20.3732   18.9479   27.1005 H   0  0  0  0  0  0  0  0  0  0  0  0
   21.8795   18.5110   26.5924 H   0  0  0  0  0  0  0  0  0  0  0  0
   20.5591   17.6659   26.0787 H   0  0  0  0  0  0  0  0  0  0  0  0
  1  2  1  0  0  0  0
  1  3  1  0  0  0  0
  1  4  1  0  0  0  0
  1  5  1  0  0  0  0
  5  6  1  0  0  0  0
  5  7  1  0  0  0  0
  5  8  1  0  0  0  0
  8  9  1  0  0  0  0
  8 10  1  0  0  0  0
  8 11  1  0  0  0  0
 11 12  1  0  0  0  0
 11 13  1  0  0  0  0
 11 14  1  0  0  0  0
 14 15  1  0  0  0  0
 14 16  1  0  0  0  0
 14 17  1  0  0  0  0
 17 18  1  0  0  0  0
 17 19  1  0  0  0  0
 17 20  1  0  0  0  0
 20 21  1  0  0  0  0
 20 22  1  0  0  0  0
 20 23  1  0  0  0  0
 23 24  1  0  0  0  0
 23 25  1  0  0  0  0
 23 26  1  0  0  0  0
M  END
> <VM2 Rank>
157

> <Conf_Id>
550

> <Probability>
0.01

> <Sum Probability>
99.89

> <Delta G>
4.317

> <G>
52.578

> <E>
19.348

> <-TS>
33.230

> <U+W>
-2.113

> <U>
52.068

> <W>
-54.182

> <W(PB)>
-56.422

> <W(SA)>
2.240

> <Valence>
5.586

> <Coulomb>
46.106

> <VdW>
0.377

> <VdW6>
-9.203

> <VdW12>
9.580

> <Bond>
0.269

> <Angle>
1.679

> <Pdih>
3.638

> <Idih>
0.000

> <Tether>
0.000

$$$$
VeraChem MOL file


 26 25  0  0  0  0  0  0  0  0999 V2000     
   20.8888   20.0108   20.4872 C   0  0  0  0  0  0  0  0  0  0  0  0
   21.8898   20.2111   20.0837 H   0  0  0  0  0  0  0  0  0  0  0  0
   20.1579   20.2903   19.7174 H   0  0  0  0  0  0  0  0  0  0  0  0
   20.7405   20.6714   21.3483 H   0  0  0  0  0  0  0  0  0  0  0  0
   20.7476   18.5179   20.8656 C   0  0  0  0  0  0  0  0  0  0  0  0
   21.5259   18.2309   21.5862 H   0  0  0  0  0  0  0  0  0  0  0  0
   20.9380   17.9214   19.9624 H   0  0  0  0  0  0  0  0  0  0  0  0
   19.3441   18.1498   21.4122 C   0  0  0  0  0  0  0  0  0  0  0  0
   18.5793   18.8007   20.9667 H   0  0  0  0  0  0  0  0  0  0  0  0
   19.1015   17.1336   21.0718 H   0  0  0  0  0  0  0  0  0  0  0  0
   19.2230   18.1635   22.9579 C   0  0  0  0  0  0  0  0  0  0  0  0
   19.9266   17.4331   23.3791 H   0  0  0  0  0  0  0  0  0  0  0  0
   18.2177   17.8106   23.2264 H   0  0  0  0  0  0  0  0  0  0  0  0
   19.4565   19.5514   23.6027 C   0  0  0  0  0  0  0  0  0  0  0  0
   20.5020   19.8547   23.4673 H   0  0  0  0  0  0  0  0  0  0  0  0
   18.8436   20.3000   23.0821 H   0  0  0  0  0  0  0  0  0  0  0  0
   19.1041   19.5857   25.1109 C   0  0  0  0  0  0  0  0  0  0  0  0
   18.0342   19.3736   25.2376 H   0  0  0  0  0  0  0  0  0  0  0  0
   19.2626   20.6008   25.4984 H   0  0  0  0  0  0  0  0  0  0  0  0
   19.9107   18.5865   25.9650 C   0  0  0  0  0  0  0  0  0  0  0  0
   19.5807   18.6493   27.0055 H   0  0  0  0  0  0  0  0  0  0  0  0
   19.7291   17.5680   25.6123 H   0  0  0  0  0  0  0  0  0  0  0  0
   21.4061   18.8333   25.9396 N   0  3  0  0  0  0  0  0  0  0  0  0
   21.9137   18.1577   26.5210 H   0  0  0  0  0  0  0  0  0  0  0  0
   21.6432   19.7674   26.2892 H   0  0  0  0  0  0  0  0  0  0  0  0
   21.7845   18.7591   24.9903 H   0  0  0  0  0  0  0  0  0  0  0  0
  1  2  1  0  0  0  0
  1  3  1  0  0  0  0
  1  4  1  0  0  0  0
  1  5  1  0  0  0  0
  5  6  1  0  0  0  0
  5  7  1  0  0  0  0
  5  8  1  0  0  0  0
  8  9  1  0  0  0  0
  8 10  1  0  0  0  0
  8 11  1  0  0  0  0
 11 12  1  0  0  0  0
 11 13  1  0  0  0  0
 11 14  1  0  0  0  0
 14 15  1  0  0  0  0
 14 16  1  0  0  0  0
 14 17  1  0  0  0  0
 17 18  1  0  0  0  0
 17 19  1  0  0  0  0
 17 20  1  0  0  0  0
 20 21  1  0  0  0  0
 20 22  1  0  0  0  0
 20 23  1  0  0  0  0
 23 24  1  0  0  0  0
 23 25  1  0  0  0  0
 23 26  1  0  0  0  0
M  END
> <VM2 Rank>
158

> <Conf_Id>
1343

> <Probability>
0.01

> <Sum Probability>
99.90

> <Delta G>
4.340

> <G>
52.602

> <E>
19.625

> <-TS>
32.977

> <U+W>
-1.837

> <U>
52.217

> <W>
-54.054

> <W(PB)>
-56.277

> <W(SA)>
2.223

> <Valence>
5.510

> <Coulomb>
45.996

> <VdW>
0.712

> <VdW6>
-8.694

> <VdW12>
9.406

> <Bond>
0.259

> <Angle>
1.385

> <Pdih>
3.865

> <Idih>
0.000

> <Tether>
0.000

$$$$
VeraChem MOL file


 26 25  0  0  0  0  0  0  0  0999 V2000     
   18.7980   18.6329   20.4173 C   0  0  0  0  0  0  0  0  0  0  0  0
   18.2096   19.0034   21.2637 H   0  0  0  0  0  0  0  0  0  0  0  0
   18.8646   19.4381   19.6742 H   0  0  0  0  0  0  0  0  0  0  0  0
   18.2392   17.8053   19.9615 H   0  0  0  0  0  0  0  0  0  0  0  0
   20.2067   18.1615   20.8474 C   0  0  0  0  0  0  0  0  0  0  0  0
   20.7217   17.7790   19.9550 H   0  0  0  0  0  0  0  0  0  0  0  0
   20.1306   17.3113   21.5394 H   0  0  0  0  0  0  0  0  0  0  0  0
   21.0714   19.2880   21.4699 C   0  0  0  0  0  0  0  0  0  0  0  0
   22.1157   19.1200   21.1726 H   0  0  0  0  0  0  0  0  0  0  0  0
   20.7952   20.2610   21.0408 H   0  0  0  0  0  0  0  0  0  0  0  0
   21.0343   19.3572   23.0184 C   0  0  0  0  0  0  0  0  0  0  0  0
   21.7412   20.1326   23.3442 H   0  0  0  0  0  0  0  0  0  0  0  0
   21.4086   18.4097   23.4286 H   0  0  0  0  0  0  0  0  0  0  0  0
   19.6380   19.6710   23.6087 C   0  0  0  0  0  0  0  0  0  0  0  0
   19.2160   20.5453   23.0945 H   0  0  0  0  0  0  0  0  0  0  0  0
   18.9546   18.8349   23.4156 H   0  0  0  0  0  0  0  0  0  0  0  0
   19.6749   19.9619   25.1299 C   0  0  0  0  0  0  0  0  0  0  0  0
   18.6624   20.2053   25.4783 H   0  0  0  0  0  0  0  0  0  0  0  0
   20.2845   20.8569   25.3126 H   0  0  0  0  0  0  0  0  0  0  0  0
   20.2356   18.8008   25.9759 C   0  0  0  0  0  0  0  0  0  0  0  0
   21.2586   18.5762   25.6634 H   0  0  0  0  0  0  0  0  0  0  0  0
   20.2593   19.0967   27.0282 H   0  0  0  0  0  0  0  0  0  0  0  0
   19.4221   17.5257   25.8734 N   0  3  0  0  0  0  0  0  0  0  0  0
   19.3856   17.1780   24.9103 H   0  0  0  0  0  0  0  0  0  0  0  0
   18.4550   17.6661   26.1829 H   0  0  0  0  0  0  0  0  0  0  0  0
   19.8160   16.7751   26.4511 H   0  0  0  0  0  0  0  0  0  0  0  0
  1  2  1  0  0  0  0
  1  3  1  0  0  0  0
  1  4  1  0  0  0  0
  1  5  1  0  0  0  0
  5  6  1  0  0  0  0
  5  7  1  0  0  0  0
  5  8  1  0  0  0  0
  8  9  1  0  0  0  0
  8 10  1  0  0  0  0
  8 11  1  0  0  0  0
 11 12  1  0  0  0  0
 11 13  1  0  0  0  0
 11 14  1  0  0  0  0
 14 15  1  0  0  0  0
 14 16  1  0  0  0  0
 14 17  1  0  0  0  0
 17 18  1  0  0  0  0
 17 19  1  0  0  0  0
 17 20  1  0  0  0  0
 20 21  1  0  0  0  0
 20 22  1  0  0  0  0
 20 23  1  0  0  0  0
 23 24  1  0  0  0  0
 23 25  1  0  0  0  0
 23 26  1  0  0  0  0
M  END
> <VM2 Rank>
159

> <Conf_Id>
190

> <Probability>
0.00

> <Sum Probability>
99.90

> <Delta G>
4.362

> <G>
52.624

> <E>
19.647

> <-TS>
32.977

> <U+W>
-1.815

> <U>
52.217

> <W>
-54.032

> <W(PB)>
-56.255

> <W(SA)>
2.223

> <Valence>
5.510

> <Coulomb>
45.996

> <VdW>
0.712

> <VdW6>
-8.695

> <VdW12>
9.406

> <Bond>
0.259

> <Angle>
1.386

> <Pdih>
3.865

> <Idih>
0.000

> <Tether>
0.000

$$$$
VeraChem MOL file


 26 25  0  0  0  0  0  0  0  0999 V2000     
   19.8352   20.2163   20.2944 C   0  0  0  0  0  0  0  0  0  0  0  0
   18.7731   20.3418   20.0466 H   0  0  0  0  0  0  0  0  0  0  0  0
   20.0423   20.8041   21.1954 H   0  0  0  0  0  0  0  0  0  0  0  0
   20.4216   20.6483   19.4731 H   0  0  0  0  0  0  0  0  0  0  0  0
   20.1848   18.7213   20.4807 C   0  0  0  0  0  0  0  0  0  0  0  0
   21.2633   18.5992   20.6522 H   0  0  0  0  0  0  0  0  0  0  0  0
   19.9690   18.2032   19.5357 H   0  0  0  0  0  0  0  0  0  0  0  0
   19.3773   18.0382   21.6144 C   0  0  0  0  0  0  0  0  0  0  0  0
   18.4016   18.5286   21.7348 H   0  0  0  0  0  0  0  0  0  0  0  0
   19.1534   17.0089   21.3015 H   0  0  0  0  0  0  0  0  0  0  0  0
   20.1072   17.9609   22.9804 C   0  0  0  0  0  0  0  0  0  0  0  0
   21.0292   17.3741   22.8678 H   0  0  0  0  0  0  0  0  0  0  0  0
   19.4676   17.3952   23.6703 H   0  0  0  0  0  0  0  0  0  0  0  0
   20.4482   19.3386   23.5997 C   0  0  0  0  0  0  0  0  0  0  0  0
   21.1605   19.8602   22.9478 H   0  0  0  0  0  0  0  0  0  0  0  0
   19.5464   19.9638   23.6394 H   0  0  0  0  0  0  0  0  0  0  0  0
   21.0832   19.2352   25.0096 C   0  0  0  0  0  0  0  0  0  0  0  0
   21.3606   20.2399   25.3553 H   0  0  0  0  0  0  0  0  0  0  0  0
   22.0195   18.6653   24.9439 H   0  0  0  0  0  0  0  0  0  0  0  0
   20.1743   18.5747   26.0664 C   0  0  0  0  0  0  0  0  0  0  0  0
   19.9354   17.5522   25.7634 H   0  0  0  0  0  0  0  0  0  0  0  0
   20.7036   18.5295   27.0221 H   0  0  0  0  0  0  0  0  0  0  0  0
   18.8708   19.3137   26.2955 N   0  3  0  0  0  0  0  0  0  0  0  0
   18.3099   19.3629   25.4394 H   0  0  0  0  0  0  0  0  0  0  0  0
   19.0296   20.2762   26.6105 H   0  0  0  0  0  0  0  0  0  0  0  0
   18.2934   18.8558   27.0090 H   0  0  0  0  0  0  0  0  0  0  0  0
  1  2  1  0  0  0  0
  1  3  1  0  0  0  0
  1  4  1  0  0  0  0
  1  5  1  0  0  0  0
  5  6  1  0  0  0  0
  5  7  1  0  0  0  0
  5  8  1  0  0  0  0
  8  9  1  0  0  0  0
  8 10  1  0  0  0  0
  8 11  1  0  0  0  0
 11 12  1  0  0  0  0
 11 13  1  0  0  0  0
 11 14  1  0  0  0  0
 14 15  1  0  0  0  0
 14 16  1  0  0  0  0
 14 17  1  0  0  0  0
 17 18  1  0  0  0  0
 17 19  1  0  0  0  0
 17 20  1  0  0  0  0
 20 21  1  0  0  0  0
 20 22  1  0  0  0  0
 20 23  1  0  0  0  0
 23 24  1  0  0  0  0
 23 25  1  0  0  0  0
 23 26  1  0  0  0  0
M  END
> <VM2 Rank>
160

> <Conf_Id>
287

> <Probability>
0.00

> <Sum Probability>
99.91

> <Delta G>
4.364

> <G>
52.626

> <E>
19.661

> <-TS>
32.965

> <U+W>
-1.801

> <U>
52.090

> <W>
-53.891

> <W(PB)>
-56.115

> <W(SA)>
2.224

> <Valence>
5.621

> <Coulomb>
45.628

> <VdW>
0.841

> <VdW6>
-8.590

> <VdW12>
9.432

> <Bond>
0.266

> <Angle>
1.473

> <Pdih>
3.881

> <Idih>
0.000

> <Tether>
0.000

$$$$
VeraChem MOL file


 26 25  0  0  0  0  0  0  0  0999 V2000     
   19.2521   19.8016   20.2674 C   0  0  0  0  0  0  0  0  0  0  0  0
   20.1132   20.4652   20.4136 H   0  0  0  0  0  0  0  0  0  0  0  0
   18.9920   19.8287   19.2013 H   0  0  0  0  0  0  0  0  0  0  0  0
   18.4030   20.2101   20.8306 H   0  0  0  0  0  0  0  0  0  0  0  0
   19.5684   18.3550   20.7102 C   0  0  0  0  0  0  0  0  0  0  0  0
   20.4372   17.9788   20.1522 H   0  0  0  0  0  0  0  0  0  0  0  0
   18.7235   17.7080   20.4358 H   0  0  0  0  0  0  0  0  0  0  0  0
   19.8231   18.2214   22.2309 C   0  0  0  0  0  0  0  0  0  0  0  0
   18.9366   18.5748   22.7687 H   0  0  0  0  0  0  0  0  0  0  0  0
   19.9284   17.1546   22.4708 H   0  0  0  0  0  0  0  0  0  0  0  0
   21.0921   18.9751   22.7065 C   0  0  0  0  0  0  0  0  0  0  0  0
   20.9840   20.0559   22.5468 H   0  0  0  0  0  0  0  0  0  0  0  0
   21.9324   18.6569   22.0741 H   0  0  0  0  0  0  0  0  0  0  0  0
   21.4745   18.7027   24.1852 C   0  0  0  0  0  0  0  0  0  0  0  0
   21.2862   17.6521   24.4430 H   0  0  0  0  0  0  0  0  0  0  0  0
   22.5613   18.8343   24.2791 H   0  0  0  0  0  0  0  0  0  0  0  0
   20.8076   19.6496   25.2185 C   0  0  0  0  0  0  0  0  0  0  0  0
   21.0692   20.6886   24.9779 H   0  0  0  0  0  0  0  0  0  0  0  0
   21.2377   19.4527   26.2095 H   0  0  0  0  0  0  0  0  0  0  0  0
   19.2743   19.5386   25.3185 C   0  0  0  0  0  0  0  0  0  0  0  0
   18.9105   20.2395   26.0746 H   0  0  0  0  0  0  0  0  0  0  0  0
   18.8198   19.8110   24.3636 H   0  0  0  0  0  0  0  0  0  0  0  0
   18.7890   18.1550   25.7037 N   0  3  0  0  0  0  0  0  0  0  0  0
   19.0815   17.4501   25.0203 H   0  0  0  0  0  0  0  0  0  0  0  0
   17.7660   18.1131   25.7661 H   0  0  0  0  0  0  0  0  0  0  0  0
   19.1568   17.8648   26.6156 H   0  0  0  0  0  0  0  0  0  0  0  0
  1  2  1  0  0  0  0
  1  3  1  0  0  0  0
  1  4  1  0  0  0  0
  1  5  1  0  0  0  0
  5  6  1  0  0  0  0
  5  7  1  0  0  0  0
  5  8  1  0  0  0  0
  8  9  1  0  0  0  0
  8 10  1  0  0  0  0
  8 11  1  0  0  0  0
 11 12  1  0  0  0  0
 11 13  1  0  0  0  0
 11 14  1  0  0  0  0
 14 15  1  0  0  0  0
 14 16  1  0  0  0  0
 14 17  1  0  0  0  0
 17 18  1  0  0  0  0
 17 19  1  0  0  0  0
 17 20  1  0  0  0  0
 20 21  1  0  0  0  0
 20 22  1  0  0  0  0
 20 23  1  0  0  0  0
 23 24  1  0  0  0  0
 23 25  1  0  0  0  0
 23 26  1  0  0  0  0
M  END
> <VM2 Rank>
161

> <Conf_Id>
1295

> <Probability>
0.00

> <Sum Probability>
99.91

> <Delta G>
4.373

> <G>
52.634

> <E>
19.684

> <-TS>
32.950

> <U+W>
-1.777

> <U>
52.362

> <W>
-54.139

> <W(PB)>
-56.380

> <W(SA)>
2.241

> <Valence>
5.335

> <Coulomb>
46.481

> <VdW>
0.546

> <VdW6>
-8.933

> <VdW12>
9.478

> <Bond>
0.278

> <Angle>
1.662

> <Pdih>
3.395

> <Idih>
0.000

> <Tether>
0.000

$$$$
VeraChem MOL file


 26 25  0  0  0  0  0  0  0  0999 V2000     
   19.0318   19.6860   20.2673 C   0  0  0  0  0  0  0  0  0  0  0  0
   18.3687   19.6995   21.1393 H   0  0  0  0  0  0  0  0  0  0  0  0
   19.3445   20.7187   20.0654 H   0  0  0  0  0  0  0  0  0  0  0  0
   18.4433   19.3423   19.4069 H   0  0  0  0  0  0  0  0  0  0  0  0
   20.2596   18.7705   20.4832 C   0  0  0  0  0  0  0  0  0  0  0  0
   20.8642   18.7937   19.5657 H   0  0  0  0  0  0  0  0  0  0  0  0
   19.9408   17.7263   20.6081 H   0  0  0  0  0  0  0  0  0  0  0  0
   21.1510   19.2087   21.6737 C   0  0  0  0  0  0  0  0  0  0  0  0
   22.1990   19.0189   21.4034 H   0  0  0  0  0  0  0  0  0  0  0  0
   21.0773   20.2946   21.8242 H   0  0  0  0  0  0  0  0  0  0  0  0
   20.8722   18.4659   23.0061 C   0  0  0  0  0  0  0  0  0  0  0  0
   21.6106   18.8096   23.7420 H   0  0  0  0  0  0  0  0  0  0  0  0
   21.0550   17.3913   22.8688 H   0  0  0  0  0  0  0  0  0  0  0  0
   19.4438   18.6761   23.5662 C   0  0  0  0  0  0  0  0  0  0  0  0
   19.2213   19.7495   23.6286 H   0  0  0  0  0  0  0  0  0  0  0  0
   18.7157   18.2472   22.8661 H   0  0  0  0  0  0  0  0  0  0  0  0
   19.2241   18.0086   24.9474 C   0  0  0  0  0  0  0  0  0  0  0  0
   19.3834   16.9260   24.8557 H   0  0  0  0  0  0  0  0  0  0  0  0
   18.1763   18.1387   25.2488 H   0  0  0  0  0  0  0  0  0  0  0  0
   20.1382   18.5508   26.0652 C   0  0  0  0  0  0  0  0  0  0  0  0
   19.9276   18.0175   26.9961 H   0  0  0  0  0  0  0  0  0  0  0  0
   21.1854   18.3768   25.8053 H   0  0  0  0  0  0  0  0  0  0  0  0
   19.9602   20.0323   26.3319 N   0  3  0  0  0  0  0  0  0  0  0  0
   20.1751   20.5932   25.5017 H   0  0  0  0  0  0  0  0  0  0  0  0
   20.5742   20.3605   27.0853 H   0  0  0  0  0  0  0  0  0  0  0  0
   18.9990   20.2560   26.6094 H   0  0  0  0  0  0  0  0  0  0  0  0
  1  2  1  0  0  0  0
  1  3  1  0  0  0  0
  1  4  1  0  0  0  0
  1  5  1  0  0  0  0
  5  6  1  0  0  0  0
  5  7  1  0  0  0  0
  5  8  1  0  0  0  0
  8  9  1  0  0  0  0
  8 10  1  0  0  0  0
  8 11  1  0  0  0  0
 11 12  1  0  0  0  0
 11 13  1  0  0  0  0
 11 14  1  0  0  0  0
 14 15  1  0  0  0  0
 14 16  1  0  0  0  0
 14 17  1  0  0  0  0
 17 18  1  0  0  0  0
 17 19  1  0  0  0  0
 17 20  1  0  0  0  0
 20 21  1  0  0  0  0
 20 22  1  0  0  0  0
 20 23  1  0  0  0  0
 23 24  1  0  0  0  0
 23 25  1  0  0  0  0
 23 26  1  0  0  0  0
M  END
> <VM2 Rank>
162

> <Conf_Id>
238

> <Probability>
0.00

> <Sum Probability>
99.92

> <Delta G>
4.374

> <G>
52.635

> <E>
19.671

> <-TS>
32.964

> <U+W>
-1.791

> <U>
52.090

> <W>
-53.881

> <W(PB)>
-56.145

> <W(SA)>
2.264

> <Valence>
5.620

> <Coulomb>
45.628

> <VdW>
0.841

> <VdW6>
-8.591

> <VdW12>
9.432

> <Bond>
0.266

> <Angle>
1.473

> <Pdih>
3.881

> <Idih>
0.000

> <Tether>
0.000

$$$$
VeraChem MOL file


 26 25  0  0  0  0  0  0  0  0999 V2000     
   20.4608   17.9747   19.9969 C   0  0  0  0  0  0  0  0  0  0  0  0
   20.1403   17.0310   19.5370 H   0  0  0  0  0  0  0  0  0  0  0  0
   20.6700   18.6866   19.1879 H   0  0  0  0  0  0  0  0  0  0  0  0
   21.3984   17.7795   20.5311 H   0  0  0  0  0  0  0  0  0  0  0  0
   19.3634   18.5152   20.9423 C   0  0  0  0  0  0  0  0  0  0  0  0
   19.1690   17.7816   21.7341 H   0  0  0  0  0  0  0  0  0  0  0  0
   18.4275   18.6050   20.3735 H   0  0  0  0  0  0  0  0  0  0  0  0
   19.7075   19.9008   21.5473 C   0  0  0  0  0  0  0  0  0  0  0  0
   19.9842   20.5750   20.7250 H   0  0  0  0  0  0  0  0  0  0  0  0
   18.8061   20.3410   21.9953 H   0  0  0  0  0  0  0  0  0  0  0  0
   20.8548   19.8908   22.5942 C   0  0  0  0  0  0  0  0  0  0  0  0
   21.4307   20.8191   22.4758 H   0  0  0  0  0  0  0  0  0  0  0  0
   21.5639   19.0787   22.3911 H   0  0  0  0  0  0  0  0  0  0  0  0
   20.3849   19.8201   24.0701 C   0  0  0  0  0  0  0  0  0  0  0  0
   21.2725   19.9013   24.7113 H   0  0  0  0  0  0  0  0  0  0  0  0
   19.7623   20.6965   24.2977 H   0  0  0  0  0  0  0  0  0  0  0  0
   19.6069   18.5305   24.4284 C   0  0  0  0  0  0  0  0  0  0  0  0
   20.1890   17.6451   24.1404 H   0  0  0  0  0  0  0  0  0  0  0  0
   18.6709   18.4981   23.8574 H   0  0  0  0  0  0  0  0  0  0  0  0
   19.2490   18.4477   25.9250 C   0  0  0  0  0  0  0  0  0  0  0  0
   18.6925   19.3411   26.2206 H   0  0  0  0  0  0  0  0  0  0  0  0
   18.6109   17.5765   26.0966 H   0  0  0  0  0  0  0  0  0  0  0  0
   20.4537   18.3192   26.8367 N   0  3  0  0  0  0  0  0  0  0  0  0
   21.0802   19.1257   26.7547 H   0  0  0  0  0  0  0  0  0  0  0  0
   21.0062   17.4828   26.6219 H   0  0  0  0  0  0  0  0  0  0  0  0
   20.1791   18.2517   27.8228 H   0  0  0  0  0  0  0  0  0  0  0  0
  1  2  1  0  0  0  0
  1  3  1  0  0  0  0
  1  4  1  0  0  0  0
  1  5  1  0  0  0  0
  5  6  1  0  0  0  0
  5  7  1  0  0  0  0
  5  8  1  0  0  0  0
  8  9  1  0  0  0  0
  8 10  1  0  0  0  0
  8 11  1  0  0  0  0
 11 12  1  0  0  0  0
 11 13  1  0  0  0  0
 11 14  1  0  0  0  0
 14 15  1  0  0  0  0
 14 16  1  0  0  0  0
 14 17  1  0  0  0  0
 17 18  1  0  0  0  0
 17 19  1  0  0  0  0
 17 20  1  0  0  0  0
 20 21  1  0  0  0  0
 20 22  1  0  0  0  0
 20 23  1  0  0  0  0
 23 24  1  0  0  0  0
 23 25  1  0  0  0  0
 23 26  1  0  0  0  0
M  END
> <VM2 Rank>
163

> <Conf_Id>
283

> <Probability>
0.00

> <Sum Probability>
99.92

> <Delta G>
4.418

> <G>
52.679

> <E>
19.809

> <-TS>
32.870

> <U+W>
-1.653

> <U>
52.213

> <W>
-53.866

> <W(PB)>
-56.128

> <W(SA)>
2.262

> <Valence>
6.034

> <Coulomb>
45.240

> <VdW>
0.939

> <VdW6>
-8.400

> <VdW12>
9.339

> <Bond>
0.286

> <Angle>
1.513

> <Pdih>
4.235

> <Idih>
0.000

> <Tether>
0.000

$$$$
VeraChem MOL file


 26 25  0  0  0  0  0  0  0  0999 V2000     
   21.1009   19.7191   19.9738 C   0  0  0  0  0  0  0  0  0  0  0  0
   21.7344   20.4298   20.5204 H   0  0  0  0  0  0  0  0  0  0  0  0
   21.6909   19.3125   19.1421 H   0  0  0  0  0  0  0  0  0  0  0  0
   20.2548   20.2734   19.5471 H   0  0  0  0  0  0  0  0  0  0  0  0
   20.6111   18.5857   20.8996 C   0  0  0  0  0  0  0  0  0  0  0  0
   21.4774   18.0291   21.2834 H   0  0  0  0  0  0  0  0  0  0  0  0
   20.0102   17.8734   20.3168 H   0  0  0  0  0  0  0  0  0  0  0  0
   19.7749   19.1315   22.0781 C   0  0  0  0  0  0  0  0  0  0  0  0
   20.3766   19.8567   22.6397 H   0  0  0  0  0  0  0  0  0  0  0  0
   18.9065   19.6794   21.6868 H   0  0  0  0  0  0  0  0  0  0  0  0
   19.2876   17.9964   23.0107 C   0  0  0  0  0  0  0  0  0  0  0  0
   20.1405   17.4272   23.4004 H   0  0  0  0  0  0  0  0  0  0  0  0
   18.7033   17.2801   22.4165 H   0  0  0  0  0  0  0  0  0  0  0  0
   18.3983   18.4915   24.1796 C   0  0  0  0  0  0  0  0  0  0  0  0
   17.4901   18.9471   23.7615 H   0  0  0  0  0  0  0  0  0  0  0  0
   18.0563   17.6188   24.7530 H   0  0  0  0  0  0  0  0  0  0  0  0
   19.0528   19.5039   25.1577 C   0  0  0  0  0  0  0  0  0  0  0  0
   18.2977   19.7789   25.9059 H   0  0  0  0  0  0  0  0  0  0  0  0
   19.3101   20.4379   24.6424 H   0  0  0  0  0  0  0  0  0  0  0  0
   20.2806   18.9559   25.9145 C   0  0  0  0  0  0  0  0  0  0  0  0
   20.4326   19.5442   26.8235 H   0  0  0  0  0  0  0  0  0  0  0  0
   20.1003   17.9185   26.2084 H   0  0  0  0  0  0  0  0  0  0  0  0
   21.5747   19.0151   25.1270 N   0  3  0  0  0  0  0  0  0  0  0  0
   21.5001   18.5049   24.2419 H   0  0  0  0  0  0  0  0  0  0  0  0
   22.3575   18.6082   25.6507 H   0  0  0  0  0  0  0  0  0  0  0  0
   21.8360   19.9802   24.9009 H   0  0  0  0  0  0  0  0  0  0  0  0
  1  2  1  0  0  0  0
  1  3  1  0  0  0  0
  1  4  1  0  0  0  0
  1  5  1  0  0  0  0
  5  6  1  0  0  0  0
  5  7  1  0  0  0  0
  5  8  1  0  0  0  0
  8  9  1  0  0  0  0
  8 10  1  0  0  0  0
  8 11  1  0  0  0  0
 11 12  1  0  0  0  0
 11 13  1  0  0  0  0
 11 14  1  0  0  0  0
 14 15  1  0  0  0  0
 14 16  1  0  0  0  0
 14 17  1  0  0  0  0
 17 18  1  0  0  0  0
 17 19  1  0  0  0  0
 17 20  1  0  0  0  0
 20 21  1  0  0  0  0
 20 22  1  0  0  0  0
 20 23  1  0  0  0  0
 23 24  1  0  0  0  0
 23 25  1  0  0  0  0
 23 26  1  0  0  0  0
M  END
> <VM2 Rank>
164

> <Conf_Id>
821

> <Probability>
0.00

> <Sum Probability>
99.93

> <Delta G>
4.443

> <G>
52.705

> <E>
19.590

> <-TS>
33.115

> <U+W>
-1.872

> <U>
51.717

> <W>
-53.589

> <W(PB)>
-55.826

> <W(SA)>
2.237

> <Valence>
4.225

> <Coulomb>
47.188

> <VdW>
0.304

> <VdW6>
-8.652

> <VdW12>
8.957

> <Bond>
0.232

> <Angle>
1.462

> <Pdih>
2.532

> <Idih>
0.000

> <Tether>
0.000

$$$$
VeraChem MOL file


 26 25  0  0  0  0  0  0  0  0999 V2000     
   19.0064   18.3386   19.9037 C   0  0  0  0  0  0  0  0  0  0  0  0
   18.0792   18.0206   20.3982 H   0  0  0  0  0  0  0  0  0  0  0  0
   18.8499   19.3476   19.5002 H   0  0  0  0  0  0  0  0  0  0  0  0
   19.1865   17.6619   19.0583 H   0  0  0  0  0  0  0  0  0  0  0  0
   20.1967   18.3125   20.8857 C   0  0  0  0  0  0  0  0  0  0  0  0
   21.1141   18.6011   20.3537 H   0  0  0  0  0  0  0  0  0  0  0  0
   20.3492   17.2855   21.2456 H   0  0  0  0  0  0  0  0  0  0  0  0
   19.9694   19.2596   22.0846 C   0  0  0  0  0  0  0  0  0  0  0  0
   19.8258   20.2853   21.7176 H   0  0  0  0  0  0  0  0  0  0  0  0
   19.0407   18.9760   22.5951 H   0  0  0  0  0  0  0  0  0  0  0  0
   21.1599   19.2304   23.0732 C   0  0  0  0  0  0  0  0  0  0  0  0
   22.0750   19.5025   22.5291 H   0  0  0  0  0  0  0  0  0  0  0  0
   21.3291   18.2106   23.4401 H   0  0  0  0  0  0  0  0  0  0  0  0
   21.0006   20.2066   24.2665 C   0  0  0  0  0  0  0  0  0  0  0  0
   21.9097   20.1586   24.8817 H   0  0  0  0  0  0  0  0  0  0  0  0
   20.9588   21.2333   23.8773 H   0  0  0  0  0  0  0  0  0  0  0  0
   19.7680   19.9753   25.1815 C   0  0  0  0  0  0  0  0  0  0  0  0
   18.8331   20.1236   24.6263 H   0  0  0  0  0  0  0  0  0  0  0  0
   19.7775   20.7544   25.9552 H   0  0  0  0  0  0  0  0  0  0  0  0
   19.7532   18.6084   25.8970 C   0  0  0  0  0  0  0  0  0  0  0  0
   20.7630   18.3555   26.2308 H   0  0  0  0  0  0  0  0  0  0  0  0
   19.1107   18.6732   26.7793 H   0  0  0  0  0  0  0  0  0  0  0  0
   19.2269   17.4675   25.0487 N   0  3  0  0  0  0  0  0  0  0  0  0
   18.2484   17.6154   24.7810 H   0  0  0  0  0  0  0  0  0  0  0  0
   19.2682   16.5721   25.5478 H   0  0  0  0  0  0  0  0  0  0  0  0
   19.7660   17.3616   24.1842 H   0  0  0  0  0  0  0  0  0  0  0  0
  1  2  1  0  0  0  0
  1  3  1  0  0  0  0
  1  4  1  0  0  0  0
  1  5  1  0  0  0  0
  5  6  1  0  0  0  0
  5  7  1  0  0  0  0
  5  8  1  0  0  0  0
  8  9  1  0  0  0  0
  8 10  1  0  0  0  0
  8 11  1  0  0  0  0
 11 12  1  0  0  0  0
 11 13  1  0  0  0  0
 11 14  1  0  0  0  0
 14 15  1  0  0  0  0
 14 16  1  0  0  0  0
 14 17  1  0  0  0  0
 17 18  1  0  0  0  0
 17 19  1  0  0  0  0
 17 20  1  0  0  0  0
 20 21  1  0  0  0  0
 20 22  1  0  0  0  0
 20 23  1  0  0  0  0
 23 24  1  0  0  0  0
 23 25  1  0  0  0  0
 23 26  1  0  0  0  0
M  END
> <VM2 Rank>
165

> <Conf_Id>
545

> <Probability>
0.00

> <Sum Probability>
99.93

> <Delta G>
4.465

> <G>
52.726

> <E>
19.612

> <-TS>
33.114

> <U+W>
-1.850

> <U>
51.717

> <W>
-53.568

> <W(PB)>
-55.822

> <W(SA)>
2.254

> <Valence>
4.225

> <Coulomb>
47.188

> <VdW>
0.304

> <VdW6>
-8.652

> <VdW12>
8.956

> <Bond>
0.232

> <Angle>
1.463

> <Pdih>
2.531

> <Idih>
0.000

> <Tether>
0.000

$$$$
VeraChem MOL file


 26 25  0  0  0  0  0  0  0  0999 V2000     
   20.7702   20.1522   20.6766 C   0  0  0  0  0  0  0  0  0  0  0  0
   21.2644   19.6614   19.8282 H   0  0  0  0  0  0  0  0  0  0  0  0
   20.6280   21.2090   20.4161 H   0  0  0  0  0  0  0  0  0  0  0  0
   21.4497   20.1109   21.5362 H   0  0  0  0  0  0  0  0  0  0  0  0
   19.4116   19.4833   20.9871 C   0  0  0  0  0  0  0  0  0  0  0  0
   18.7501   19.6185   20.1201 H   0  0  0  0  0  0  0  0  0  0  0  0
   18.9152   19.9957   21.8208 H   0  0  0  0  0  0  0  0  0  0  0  0
   19.5283   17.9679   21.2822 C   0  0  0  0  0  0  0  0  0  0  0  0
   18.5180   17.5514   21.3951 H   0  0  0  0  0  0  0  0  0  0  0  0
   19.9562   17.4722   20.3999 H   0  0  0  0  0  0  0  0  0  0  0  0
   20.3730   17.5785   22.5255 C   0  0  0  0  0  0  0  0  0  0  0  0
   21.4119   17.9151   22.4121 H   0  0  0  0  0  0  0  0  0  0  0  0
   20.4263   16.4812   22.5485 H   0  0  0  0  0  0  0  0  0  0  0  0
   19.7901   18.0520   23.8832 C   0  0  0  0  0  0  0  0  0  0  0  0
   18.6957   18.1257   23.8188 H   0  0  0  0  0  0  0  0  0  0  0  0
   19.9984   17.2748   24.6304 H   0  0  0  0  0  0  0  0  0  0  0  0
   20.3901   19.3893   24.3866 C   0  0  0  0  0  0  0  0  0  0  0  0
   20.2315   20.1793   23.6450 H   0  0  0  0  0  0  0  0  0  0  0  0
   21.4771   19.2902   24.5061 H   0  0  0  0  0  0  0  0  0  0  0  0
   19.7695   19.8538   25.7183 C   0  0  0  0  0  0  0  0  0  0  0  0
   20.1679   20.8379   25.9798 H   0  0  0  0  0  0  0  0  0  0  0  0
   18.6855   19.9435   25.6075 H   0  0  0  0  0  0  0  0  0  0  0  0
   20.0482   18.9221   26.8815 N   0  3  0  0  0  0  0  0  0  0  0  0
   19.6331   19.2673   27.7537 H   0  0  0  0  0  0  0  0  0  0  0  0
   21.0535   18.8142   27.0505 H   0  0  0  0  0  0  0  0  0  0  0  0
   19.6660   17.9856   26.7178 H   0  0  0  0  0  0  0  0  0  0  0  0
  1  2  1  0  0  0  0
  1  3  1  0  0  0  0
  1  4  1  0  0  0  0
  1  5  1  0  0  0  0
  5  6  1  0  0  0  0
  5  7  1  0  0  0  0
  5  8  1  0  0  0  0
  8  9  1  0  0  0  0
  8 10  1  0  0  0  0
  8 11  1  0  0  0  0
 11 12  1  0  0  0  0
 11 13  1  0  0  0  0
 11 14  1  0  0  0  0
 14 15  1  0  0  0  0
 14 16  1  0  0  0  0
 14 17  1  0  0  0  0
 17 18  1  0  0  0  0
 17 19  1  0  0  0  0
 17 20  1  0  0  0  0
 20 21  1  0  0  0  0
 20 22  1  0  0  0  0
 20 23  1  0  0  0  0
 23 24  1  0  0  0  0
 23 25  1  0  0  0  0
 23 26  1  0  0  0  0
M  END
> <VM2 Rank>
166

> <Conf_Id>
263

> <Probability>
0.00

> <Sum Probability>
99.94

> <Delta G>
4.469

> <G>
52.730

> <E>
19.465

> <-TS>
33.265

> <U+W>
-1.997

> <U>
51.906

> <W>
-53.903

> <W(PB)>
-56.108

> <W(SA)>
2.205

> <Valence>
5.914

> <Coulomb>
45.360

> <VdW>
0.633

> <VdW6>
-8.891

> <VdW12>
9.524

> <Bond>
0.284

> <Angle>
1.760

> <Pdih>
3.870

> <Idih>
0.000

> <Tether>
0.000

$$$$
VeraChem MOL file


 26 25  0  0  0  0  0  0  0  0999 V2000     
   18.5830   19.1135   20.8809 C   0  0  0  0  0  0  0  0  0  0  0  0
   17.9784   18.2714   21.2416 H   0  0  0  0  0  0  0  0  0  0  0  0
   18.4937   19.9319   21.6025 H   0  0  0  0  0  0  0  0  0  0  0  0
   18.1414   19.4595   19.9374 H   0  0  0  0  0  0  0  0  0  0  0  0
   20.0529   18.6872   20.6617 C   0  0  0  0  0  0  0  0  0  0  0  0
   20.6443   19.5367   20.2927 H   0  0  0  0  0  0  0  0  0  0  0  0
   20.0674   17.9383   19.8575 H   0  0  0  0  0  0  0  0  0  0  0  0
   20.7244   18.0671   21.9148 C   0  0  0  0  0  0  0  0  0  0  0  0
   19.9939   17.4927   22.4992 H   0  0  0  0  0  0  0  0  0  0  0  0
   21.4587   17.3281   21.5656 H   0  0  0  0  0  0  0  0  0  0  0  0
   21.4879   19.0739   22.8174 C   0  0  0  0  0  0  0  0  0  0  0  0
   22.2432   19.5913   22.2100 H   0  0  0  0  0  0  0  0  0  0  0  0
   22.0573   18.5078   23.5667 H   0  0  0  0  0  0  0  0  0  0  0  0
   20.6221   20.1372   23.5419 C   0  0  0  0  0  0  0  0  0  0  0  0
   21.2850   20.7701   24.1480 H   0  0  0  0  0  0  0  0  0  0  0  0
   20.1729   20.8119   22.8027 H   0  0  0  0  0  0  0  0  0  0  0  0
   19.5166   19.5583   24.4601 C   0  0  0  0  0  0  0  0  0  0  0  0
   18.7842   18.9992   23.8650 H   0  0  0  0  0  0  0  0  0  0  0  0
   18.9688   20.3900   24.9226 H   0  0  0  0  0  0  0  0  0  0  0  0
   20.0815   18.6496   25.5674 C   0  0  0  0  0  0  0  0  0  0  0  0
   20.5955   17.7963   25.1174 H   0  0  0  0  0  0  0  0  0  0  0  0
   20.8030   19.2084   26.1694 H   0  0  0  0  0  0  0  0  0  0  0  0
   19.0126   18.1120   26.4968 N   0  3  0  0  0  0  0  0  0  0  0  0
   18.3155   17.5527   25.9946 H   0  0  0  0  0  0  0  0  0  0  0  0
   18.5080   18.8657   26.9746 H   0  0  0  0  0  0  0  0  0  0  0  0
   19.4099   17.5099   27.2261 H   0  0  0  0  0  0  0  0  0  0  0  0
  1  2  1  0  0  0  0
  1  3  1  0  0  0  0
  1  4  1  0  0  0  0
  1  5  1  0  0  0  0
  5  6  1  0  0  0  0
  5  7  1  0  0  0  0
  5  8  1  0  0  0  0
  8  9  1  0  0  0  0
  8 10  1  0  0  0  0
  8 11  1  0  0  0  0
 11 12  1  0  0  0  0
 11 13  1  0  0  0  0
 11 14  1  0  0  0  0
 14 15  1  0  0  0  0
 14 16  1  0  0  0  0
 14 17  1  0  0  0  0
 17 18  1  0  0  0  0
 17 19  1  0  0  0  0
 17 20  1  0  0  0  0
 20 21  1  0  0  0  0
 20 22  1  0  0  0  0
 20 23  1  0  0  0  0
 23 24  1  0  0  0  0
 23 25  1  0  0  0  0
 23 26  1  0  0  0  0
M  END
> <VM2 Rank>
167

> <Conf_Id>
214

> <Probability>
0.00

> <Sum Probability>
99.94

> <Delta G>
4.486

> <G>
52.747

> <E>
19.426

> <-TS>
33.321

> <U+W>
-2.035

> <U>
52.153

> <W>
-54.188

> <W(PB)>
-56.391

> <W(SA)>
2.203

> <Valence>
5.986

> <Coulomb>
45.781

> <VdW>
0.386

> <VdW6>
-9.288

> <VdW12>
9.674

> <Bond>
0.289

> <Angle>
2.079

> <Pdih>
3.617

> <Idih>
0.000

> <Tether>
0.000

$$$$
VeraChem MOL file


 26 25  0  0  0  0  0  0  0  0999 V2000     
   19.8635   18.9884   19.7040 C   0  0  0  0  0  0  0  0  0  0  0  0
   20.6824   19.7120   19.7999 H   0  0  0  0  0  0  0  0  0  0  0  0
   20.0065   18.4536   18.7561 H   0  0  0  0  0  0  0  0  0  0  0  0
   18.9189   19.5436   19.6367 H   0  0  0  0  0  0  0  0  0  0  0  0
   19.8413   17.9943   20.8873 C   0  0  0  0  0  0  0  0  0  0  0  0
   20.8089   17.4774   20.9542 H   0  0  0  0  0  0  0  0  0  0  0  0
   19.0920   17.2173   20.6810 H   0  0  0  0  0  0  0  0  0  0  0  0
   19.5068   18.6567   22.2457 C   0  0  0  0  0  0  0  0  0  0  0  0
   18.5333   19.1608   22.1745 H   0  0  0  0  0  0  0  0  0  0  0  0
   19.3868   17.8602   22.9876 H   0  0  0  0  0  0  0  0  0  0  0  0
   20.5832   19.6677   22.7184 C   0  0  0  0  0  0  0  0  0  0  0  0
   20.6414   20.4814   21.9837 H   0  0  0  0  0  0  0  0  0  0  0  0
   21.5743   19.1939   22.7263 H   0  0  0  0  0  0  0  0  0  0  0  0
   20.2870   20.3033   24.1022 C   0  0  0  0  0  0  0  0  0  0  0  0
   20.7256   21.3108   24.1093 H   0  0  0  0  0  0  0  0  0  0  0  0
   19.2071   20.4552   24.2311 H   0  0  0  0  0  0  0  0  0  0  0  0
   20.8833   19.5355   25.3120 C   0  0  0  0  0  0  0  0  0  0  0  0
   20.7325   20.1317   26.2218 H   0  0  0  0  0  0  0  0  0  0  0  0
   21.9707   19.4503   25.1847 H   0  0  0  0  0  0  0  0  0  0  0  0
   20.3027   18.1278   25.5449 C   0  0  0  0  0  0  0  0  0  0  0  0
   20.4908   17.4998   24.6711 H   0  0  0  0  0  0  0  0  0  0  0  0
   20.8022   17.6686   26.4023 H   0  0  0  0  0  0  0  0  0  0  0  0
   18.8130   18.1253   25.8266 N   0  3  0  0  0  0  0  0  0  0  0  0
   18.4551   17.1762   25.9790 H   0  0  0  0  0  0  0  0  0  0  0  0
   18.2818   18.5298   25.0496 H   0  0  0  0  0  0  0  0  0  0  0  0
   18.5852   18.6692   26.6651 H   0  0  0  0  0  0  0  0  0  0  0  0
  1  2  1  0  0  0  0
  1  3  1  0  0  0  0
  1  4  1  0  0  0  0
  1  5  1  0  0  0  0
  5  6  1  0  0  0  0
  5  7  1  0  0  0  0
  5  8  1  0  0  0  0
  8  9  1  0  0  0  0
  8 10  1  0  0  0  0
  8 11  1  0  0  0  0
 11 12  1  0  0  0  0
 11 13  1  0  0  0  0
 11 14  1  0  0  0  0
 14 15  1  0  0  0  0
 14 16  1  0  0  0  0
 14 17  1  0  0  0  0
 17 18  1  0  0  0  0
 17 19  1  0  0  0  0
 17 20  1  0  0  0  0
 20 21  1  0  0  0  0
 20 22  1  0  0  0  0
 20 23  1  0  0  0  0
 23 24  1  0  0  0  0
 23 25  1  0  0  0  0
 23 26  1  0  0  0  0
M  END
> <VM2 Rank>
168

> <Conf_Id>
286

> <Probability>
0.00

> <Sum Probability>
99.94

> <Delta G>
4.492

> <G>
52.754

> <E>
19.764

> <-TS>
32.990

> <U+W>
-1.697

> <U>
52.488

> <W>
-54.186

> <W(PB)>
-56.455

> <W(SA)>
2.269

> <Valence>
5.467

> <Coulomb>
46.392

> <VdW>
0.629

> <VdW6>
-8.780

> <VdW12>
9.409

> <Bond>
0.279

> <Angle>
1.629

> <Pdih>
3.559

> <Idih>
0.000

> <Tether>
0.000

$$$$
VeraChem MOL file


 26 25  0  0  0  0  0  0  0  0999 V2000     
   18.4296   19.3488   20.6481 C   0  0  0  0  0  0  0  0  0  0  0  0
   18.8921   19.6908   19.7131 H   0  0  0  0  0  0  0  0  0  0  0  0
   17.5676   18.7211   20.3876 H   0  0  0  0  0  0  0  0  0  0  0  0
   18.0550   20.2292   21.1864 H   0  0  0  0  0  0  0  0  0  0  0  0
   19.4376   18.5597   21.5097 C   0  0  0  0  0  0  0  0  0  0  0  0
   19.7697   17.6687   20.9589 H   0  0  0  0  0  0  0  0  0  0  0  0
   18.9293   18.2008   22.4129 H   0  0  0  0  0  0  0  0  0  0  0  0
   20.6637   19.4239   21.8873 C   0  0  0  0  0  0  0  0  0  0  0  0
   21.1369   19.7844   20.9635 H   0  0  0  0  0  0  0  0  0  0  0  0
   20.3451   20.3249   22.4260 H   0  0  0  0  0  0  0  0  0  0  0  0
   21.7305   18.6606   22.7115 C   0  0  0  0  0  0  0  0  0  0  0  0
   22.5926   19.3237   22.8672 H   0  0  0  0  0  0  0  0  0  0  0  0
   22.1068   17.8231   22.1081 H   0  0  0  0  0  0  0  0  0  0  0  0
   21.2704   18.1095   24.0885 C   0  0  0  0  0  0  0  0  0  0  0  0
   20.4889   17.3505   23.9595 H   0  0  0  0  0  0  0  0  0  0  0  0
   22.1240   17.5716   24.5237 H   0  0  0  0  0  0  0  0  0  0  0  0
   20.8267   19.1933   25.1074 C   0  0  0  0  0  0  0  0  0  0  0  0
   21.4596   20.0837   24.9967 H   0  0  0  0  0  0  0  0  0  0  0  0
   21.0067   18.8225   26.1253 H   0  0  0  0  0  0  0  0  0  0  0  0
   19.3434   19.6038   25.0007 C   0  0  0  0  0  0  0  0  0  0  0  0
   19.1556   20.4506   25.6663 H   0  0  0  0  0  0  0  0  0  0  0  0
   19.1086   19.9161   23.9815 H   0  0  0  0  0  0  0  0  0  0  0  0
   18.3790   18.4995   25.3877 N   0  3  0  0  0  0  0  0  0  0  0  0
   17.4023   18.8036   25.3123 H   0  0  0  0  0  0  0  0  0  0  0  0
   18.5223   18.1935   26.3556 H   0  0  0  0  0  0  0  0  0  0  0  0
   18.4857   17.6739   24.7911 H   0  0  0  0  0  0  0  0  0  0  0  0
  1  2  1  0  0  0  0
  1  3  1  0  0  0  0
  1  4  1  0  0  0  0
  1  5  1  0  0  0  0
  5  6  1  0  0  0  0
  5  7  1  0  0  0  0
  5  8  1  0  0  0  0
  8  9  1  0  0  0  0
  8 10  1  0  0  0  0
  8 11  1  0  0  0  0
 11 12  1  0  0  0  0
 11 13  1  0  0  0  0
 11 14  1  0  0  0  0
 14 15  1  0  0  0  0
 14 16  1  0  0  0  0
 14 17  1  0  0  0  0
 17 18  1  0  0  0  0
 17 19  1  0  0  0  0
 17 20  1  0  0  0  0
 20 21  1  0  0  0  0
 20 22  1  0  0  0  0
 20 23  1  0  0  0  0
 23 24  1  0  0  0  0
 23 25  1  0  0  0  0
 23 26  1  0  0  0  0
M  END
> <VM2 Rank>
169

> <Conf_Id>
702

> <Probability>
0.00

> <Sum Probability>
99.95

> <Delta G>
4.495

> <G>
52.757

> <E>
19.304

> <-TS>
33.452

> <U+W>
-2.157

> <U>
52.359

> <W>
-54.516

> <W(PB)>
-56.739

> <W(SA)>
2.223

> <Valence>
5.321

> <Coulomb>
46.894

> <VdW>
0.144

> <VdW6>
-9.549

> <VdW12>
9.694

> <Bond>
0.274

> <Angle>
1.814

> <Pdih>
3.233

> <Idih>
0.000

> <Tether>
0.000

$$$$
VeraChem MOL file


 26 25  0  0  0  0  0  0  0  0999 V2000     
   20.1765   19.1947   19.7144 C   0  0  0  0  0  0  0  0  0  0  0  0
   19.1854   18.7257   19.7499 H   0  0  0  0  0  0  0  0  0  0  0  0
   20.0416   20.2834   19.6743 H   0  0  0  0  0  0  0  0  0  0  0  0
   20.6554   18.8812   18.7778 H   0  0  0  0  0  0  0  0  0  0  0  0
   21.0429   18.7861   20.9274 C   0  0  0  0  0  0  0  0  0  0  0  0
   21.1337   17.6915   20.9650 H   0  0  0  0  0  0  0  0  0  0  0  0
   22.0608   19.1735   20.7802 H   0  0  0  0  0  0  0  0  0  0  0  0
   20.5030   19.3131   22.2790 C   0  0  0  0  0  0  0  0  0  0  0  0
   21.2470   19.0859   23.0498 H   0  0  0  0  0  0  0  0  0  0  0  0
   20.4266   20.4083   22.2378 H   0  0  0  0  0  0  0  0  0  0  0  0
   19.1292   18.7096   22.6698 C   0  0  0  0  0  0  0  0  0  0  0  0
   19.1741   17.6122   22.6460 H   0  0  0  0  0  0  0  0  0  0  0  0
   18.3935   19.0002   21.9087 H   0  0  0  0  0  0  0  0  0  0  0  0
   18.5979   19.1902   24.0458 C   0  0  0  0  0  0  0  0  0  0  0  0
   18.8771   20.2378   24.2202 H   0  0  0  0  0  0  0  0  0  0  0  0
   17.4999   19.1850   24.0016 H   0  0  0  0  0  0  0  0  0  0  0  0
   19.0120   18.3023   25.2495 C   0  0  0  0  0  0  0  0  0  0  0  0
   18.6685   17.2741   25.0744 H   0  0  0  0  0  0  0  0  0  0  0  0
   18.4815   18.6482   26.1466 H   0  0  0  0  0  0  0  0  0  0  0  0
   20.5222   18.2723   25.5522 C   0  0  0  0  0  0  0  0  0  0  0  0
   20.7074   17.6062   26.3992 H   0  0  0  0  0  0  0  0  0  0  0  0
   21.0654   17.8784   24.6903 H   0  0  0  0  0  0  0  0  0  0  0  0
   21.0973   19.6306   25.9028 N   0  3  0  0  0  0  0  0  0  0  0  0
   22.1025   19.5798   26.1007 H   0  0  0  0  0  0  0  0  0  0  0  0
   20.6484   20.0290   26.7339 H   0  0  0  0  0  0  0  0  0  0  0  0
   20.9710   20.3019   25.1393 H   0  0  0  0  0  0  0  0  0  0  0  0
  1  2  1  0  0  0  0
  1  3  1  0  0  0  0
  1  4  1  0  0  0  0
  1  5  1  0  0  0  0
  5  6  1  0  0  0  0
  5  7  1  0  0  0  0
  5  8  1  0  0  0  0
  8  9  1  0  0  0  0
  8 10  1  0  0  0  0
  8 11  1  0  0  0  0
 11 12  1  0  0  0  0
 11 13  1  0  0  0  0
 11 14  1  0  0  0  0
 14 15  1  0  0  0  0
 14 16  1  0  0  0  0
 14 17  1  0  0  0  0
 17 18  1  0  0  0  0
 17 19  1  0  0  0  0
 17 20  1  0  0  0  0
 20 21  1  0  0  0  0
 20 22  1  0  0  0  0
 20 23  1  0  0  0  0
 23 24  1  0  0  0  0
 23 25  1  0  0  0  0
 23 26  1  0  0  0  0
M  END
> <VM2 Rank>
170

> <Conf_Id>
1120

> <Probability>
0.00

> <Sum Probability>
99.95

> <Delta G>
4.498

> <G>
52.759

> <E>
19.769

> <-TS>
32.990

> <U+W>
-1.693

> <U>
52.488

> <W>
-54.181

> <W(PB)>
-56.435

> <W(SA)>
2.255

> <Valence>
5.467

> <Coulomb>
46.392

> <VdW>
0.629

> <VdW6>
-8.780

> <VdW12>
9.409

> <Bond>
0.279

> <Angle>
1.629

> <Pdih>
3.559

> <Idih>
0.000

> <Tether>
0.000

$$$$
VeraChem MOL file


 26 25  0  0  0  0  0  0  0  0999 V2000     
   20.5091   20.3842   20.9450 C   0  0  0  0  0  0  0  0  0  0  0  0
   19.7591   20.7666   21.6448 H   0  0  0  0  0  0  0  0  0  0  0  0
   21.5034   20.5966   21.3588 H   0  0  0  0  0  0  0  0  0  0  0  0
   20.4081   20.9551   20.0130 H   0  0  0  0  0  0  0  0  0  0  0  0
   20.3338   18.8727   20.6709 C   0  0  0  0  0  0  0  0  0  0  0  0
   21.0532   18.5890   19.8901 H   0  0  0  0  0  0  0  0  0  0  0  0
   19.3384   18.6755   20.2493 H   0  0  0  0  0  0  0  0  0  0  0  0
   20.5818   17.9731   21.9099 C   0  0  0  0  0  0  0  0  0  0  0  0
   20.9888   17.0182   21.5496 H   0  0  0  0  0  0  0  0  0  0  0  0
   21.3691   18.4000   22.5449 H   0  0  0  0  0  0  0  0  0  0  0  0
   19.3155   17.6407   22.7448 C   0  0  0  0  0  0  0  0  0  0  0  0
   19.5774   16.8717   23.4838 H   0  0  0  0  0  0  0  0  0  0  0  0
   18.5721   17.1692   22.0875 H   0  0  0  0  0  0  0  0  0  0  0  0
   18.6449   18.8327   23.4759 C   0  0  0  0  0  0  0  0  0  0  0  0
   18.2358   19.5339   22.7380 H   0  0  0  0  0  0  0  0  0  0  0  0
   17.7752   18.4546   24.0307 H   0  0  0  0  0  0  0  0  0  0  0  0
   19.5678   19.5919   24.4618 C   0  0  0  0  0  0  0  0  0  0  0  0
   18.9973   20.4087   24.9235 H   0  0  0  0  0  0  0  0  0  0  0  0
   20.3965   20.0626   23.9190 H   0  0  0  0  0  0  0  0  0  0  0  0
   20.1292   18.6810   25.5691 C   0  0  0  0  0  0  0  0  0  0  0  0
   19.3046   18.2198   26.1192 H   0  0  0  0  0  0  0  0  0  0  0  0
   20.7325   17.8866   25.1222 H   0  0  0  0  0  0  0  0  0  0  0  0
   20.9988   19.4226   26.5636 N   0  3  0  0  0  0  0  0  0  0  0  0
   20.4820   20.1683   27.0410 H   0  0  0  0  0  0  0  0  0  0  0  0
   21.8096   19.8582   26.1121 H   0  0  0  0  0  0  0  0  0  0  0  0
   21.3620   18.7980   27.2918 H   0  0  0  0  0  0  0  0  0  0  0  0
  1  2  1  0  0  0  0
  1  3  1  0  0  0  0
  1  4  1  0  0  0  0
  1  5  1  0  0  0  0
  5  6  1  0  0  0  0
  5  7  1  0  0  0  0
  5  8  1  0  0  0  0
  8  9  1  0  0  0  0
  8 10  1  0  0  0  0
  8 11  1  0  0  0  0
 11 12  1  0  0  0  0
 11 13  1  0  0  0  0
 11 14  1  0  0  0  0
 14 15  1  0  0  0  0
 14 16  1  0  0  0  0
 14 17  1  0  0  0  0
 17 18  1  0  0  0  0
 17 19  1  0  0  0  0
 17 20  1  0  0  0  0
 20 21  1  0  0  0  0
 20 22  1  0  0  0  0
 20 23  1  0  0  0  0
 23 24  1  0  0  0  0
 23 25  1  0  0  0  0
 23 26  1  0  0  0  0
M  END
> <VM2 Rank>
171

> <Conf_Id>
863

> <Probability>
0.00

> <Sum Probability>
99.96

> <Delta G>
4.504

> <G>
52.765

> <E>
19.444

> <-TS>
33.321

> <U+W>
-2.017

> <U>
52.152

> <W>
-54.170

> <W(PB)>
-56.395

> <W(SA)>
2.226

> <Valence>
5.986

> <Coulomb>
45.781

> <VdW>
0.386

> <VdW6>
-9.287

> <VdW12>
9.673

> <Bond>
0.289

> <Angle>
2.079

> <Pdih>
3.618

> <Idih>
0.000

> <Tether>
0.000

$$$$
VeraChem MOL file


 26 25  0  0  0  0  0  0  0  0999 V2000     
   18.9628   20.1022   21.0871 C   0  0  0  0  0  0  0  0  0  0  0  0
   18.0895   20.2468   20.4380 H   0  0  0  0  0  0  0  0  0  0  0  0
   18.5945   19.9907   22.1122 H   0  0  0  0  0  0  0  0  0  0  0  0
   19.5672   21.0173   21.0398 H   0  0  0  0  0  0  0  0  0  0  0  0
   19.7803   18.8740   20.6239 C   0  0  0  0  0  0  0  0  0  0  0  0
   20.0466   19.0271   19.5686 H   0  0  0  0  0  0  0  0  0  0  0  0
   19.1568   17.9696   20.6491 H   0  0  0  0  0  0  0  0  0  0  0  0
   21.0866   18.6508   21.4296 C   0  0  0  0  0  0  0  0  0  0  0  0
   21.8354   18.2327   20.7427 H   0  0  0  0  0  0  0  0  0  0  0  0
   21.5043   19.6111   21.7591 H   0  0  0  0  0  0  0  0  0  0  0  0
   20.9611   17.6636   22.6218 C   0  0  0  0  0  0  0  0  0  0  0  0
   21.9609   17.5009   23.0474 H   0  0  0  0  0  0  0  0  0  0  0  0
   20.6406   16.6857   22.2368 H   0  0  0  0  0  0  0  0  0  0  0  0
   20.0011   18.0845   23.7622 C   0  0  0  0  0  0  0  0  0  0  0  0
   18.9768   18.1673   23.3777 H   0  0  0  0  0  0  0  0  0  0  0  0
   19.9773   17.2721   24.5003 H   0  0  0  0  0  0  0  0  0  0  0  0
   20.4198   19.3990   24.4676 C   0  0  0  0  0  0  0  0  0  0  0  0
   20.4543   20.2196   23.7408 H   0  0  0  0  0  0  0  0  0  0  0  0
   21.4349   19.2995   24.8742 H   0  0  0  0  0  0  0  0  0  0  0  0
   19.4508   19.8019   25.5958 C   0  0  0  0  0  0  0  0  0  0  0  0
   19.7447   20.7764   25.9949 H   0  0  0  0  0  0  0  0  0  0  0  0
   18.4368   19.8889   25.1962 H   0  0  0  0  0  0  0  0  0  0  0  0
   19.4186   18.8229   26.7530 N   0  3  0  0  0  0  0  0  0  0  0  0
   18.7753   19.1276   27.4917 H   0  0  0  0  0  0  0  0  0  0  0  0
   20.3416   18.7149   27.1858 H   0  0  0  0  0  0  0  0  0  0  0  0
   19.1130   17.8917   26.4543 H   0  0  0  0  0  0  0  0  0  0  0  0
  1  2  1  0  0  0  0
  1  3  1  0  0  0  0
  1  4  1  0  0  0  0
  1  5  1  0  0  0  0
  5  6  1  0  0  0  0
  5  7  1  0  0  0  0
  5  8  1  0  0  0  0
  8  9  1  0  0  0  0
  8 10  1  0  0  0  0
  8 11  1  0  0  0  0
 11 12  1  0  0  0  0
 11 13  1  0  0  0  0
 11 14  1  0  0  0  0
 14 15  1  0  0  0  0
 14 16  1  0  0  0  0
 14 17  1  0  0  0  0
 17 18  1  0  0  0  0
 17 19  1  0  0  0  0
 17 20  1  0  0  0  0
 20 21  1  0  0  0  0
 20 22  1  0  0  0  0
 20 23  1  0  0  0  0
 23 24  1  0  0  0  0
 23 25  1  0  0  0  0
 23 26  1  0  0  0  0
M  END
> <VM2 Rank>
172

> <Conf_Id>
541

> <Probability>
0.00

> <Sum Probability>
99.96

> <Delta G>
4.512

> <G>
52.774

> <E>
19.498

> <-TS>
33.275

> <U+W>
-1.963

> <U>
51.929

> <W>
-53.892

> <W(PB)>
-56.114

> <W(SA)>
2.222

> <Valence>
5.867

> <Coulomb>
45.498

> <VdW>
0.563

> <VdW6>
-9.057

> <VdW12>
9.621

> <Bond>
0.287

> <Angle>
1.896

> <Pdih>
3.685

> <Idih>
0.000

> <Tether>
0.000

$$$$
VeraChem MOL file


 26 25  0  0  0  0  0  0  0  0999 V2000     
   18.7063   18.7899   20.6074 C   0  0  0  0  0  0  0  0  0  0  0  0
   18.4379   18.1227   21.4352 H   0  0  0  0  0  0  0  0  0  0  0  0
   17.8032   19.3444   20.3216 H   0  0  0  0  0  0  0  0  0  0  0  0
   19.0032   18.1691   19.7522 H   0  0  0  0  0  0  0  0  0  0  0  0
   19.8389   19.7654   21.0015 C   0  0  0  0  0  0  0  0  0  0  0  0
   19.5238   20.3974   21.8414 H   0  0  0  0  0  0  0  0  0  0  0  0
   20.0144   20.4533   20.1626 H   0  0  0  0  0  0  0  0  0  0  0  0
   21.1718   19.0528   21.3372 C   0  0  0  0  0  0  0  0  0  0  0  0
   21.5006   18.4918   20.4516 H   0  0  0  0  0  0  0  0  0  0  0  0
   21.9452   19.8137   21.5098 H   0  0  0  0  0  0  0  0  0  0  0  0
   21.1407   18.0852   22.5511 C   0  0  0  0  0  0  0  0  0  0  0  0
   22.1269   17.6037   22.6053 H   0  0  0  0  0  0  0  0  0  0  0  0
   20.4295   17.2666   22.3792 H   0  0  0  0  0  0  0  0  0  0  0  0
   20.8709   18.7653   23.9193 C   0  0  0  0  0  0  0  0  0  0  0  0
   21.4687   18.2452   24.6795 H   0  0  0  0  0  0  0  0  0  0  0  0
   21.2348   19.8019   23.9036 H   0  0  0  0  0  0  0  0  0  0  0  0
   19.3836   18.7244   24.3531 C   0  0  0  0  0  0  0  0  0  0  0  0
   19.0433   17.6829   24.4251 H   0  0  0  0  0  0  0  0  0  0  0  0
   18.7542   19.2034   23.5956 H   0  0  0  0  0  0  0  0  0  0  0  0
   19.1379   19.4369   25.6971 C   0  0  0  0  0  0  0  0  0  0  0  0
   19.4851   20.4717   25.6338 H   0  0  0  0  0  0  0  0  0  0  0  0
   18.0654   19.4497   25.9096 H   0  0  0  0  0  0  0  0  0  0  0  0
   19.8310   18.7790   26.8743 N   0  3  0  0  0  0  0  0  0  0  0  0
   19.6357   19.2697   27.7537 H   0  0  0  0  0  0  0  0  0  0  0  0
   20.8488   18.7671   26.7573 H   0  0  0  0  0  0  0  0  0  0  0  0
   19.5285   17.8076   26.9999 H   0  0  0  0  0  0  0  0  0  0  0  0
  1  2  1  0  0  0  0
  1  3  1  0  0  0  0
  1  4  1  0  0  0  0
  1  5  1  0  0  0  0
  5  6  1  0  0  0  0
  5  7  1  0  0  0  0
  5  8  1  0  0  0  0
  8  9  1  0  0  0  0
  8 10  1  0  0  0  0
  8 11  1  0  0  0  0
 11 12  1  0  0  0  0
 11 13  1  0  0  0  0
 11 14  1  0  0  0  0
 14 15  1  0  0  0  0
 14 16  1  0  0  0  0
 14 17  1  0  0  0  0
 17 18  1  0  0  0  0
 17 19  1  0  0  0  0
 17 20  1  0  0  0  0
 20 21  1  0  0  0  0
 20 22  1  0  0  0  0
 20 23  1  0  0  0  0
 23 24  1  0  0  0  0
 23 25  1  0  0  0  0
 23 26  1  0  0  0  0
M  END
> <VM2 Rank>
173

> <Conf_Id>
1260

> <Probability>
0.00

> <Sum Probability>
99.96

> <Delta G>
4.518

> <G>
52.780

> <E>
19.515

> <-TS>
33.265

> <U+W>
-1.947

> <U>
51.906

> <W>
-53.853

> <W(PB)>
-56.077

> <W(SA)>
2.224

> <Valence>
5.914

> <Coulomb>
45.360

> <VdW>
0.633

> <VdW6>
-8.890

> <VdW12>
9.523

> <Bond>
0.284

> <Angle>
1.759

> <Pdih>
3.871

> <Idih>
0.000

> <Tether>
0.000

$$$$
VeraChem MOL file


 26 25  0  0  0  0  0  0  0  0999 V2000     
   19.7073   20.4744   20.9914 C   0  0  0  0  0  0  0  0  0  0  0  0
   18.7203   20.2776   21.4273 H   0  0  0  0  0  0  0  0  0  0  0  0
   20.3352   20.9610   21.7490 H   0  0  0  0  0  0  0  0  0  0  0  0
   19.5647   21.1845   20.1666 H   0  0  0  0  0  0  0  0  0  0  0  0
   20.3617   19.1741   20.4763 C   0  0  0  0  0  0  0  0  0  0  0  0
   21.2547   19.4375   19.8924 H   0  0  0  0  0  0  0  0  0  0  0  0
   19.6778   18.6737   19.7766 H   0  0  0  0  0  0  0  0  0  0  0  0
   20.7805   18.1843   21.5932 C   0  0  0  0  0  0  0  0  0  0  0  0
   21.2803   17.3345   21.1081 H   0  0  0  0  0  0  0  0  0  0  0  0
   21.5431   18.6464   22.2318 H   0  0  0  0  0  0  0  0  0  0  0  0
   19.6045   17.6274   22.4417 C   0  0  0  0  0  0  0  0  0  0  0  0
   19.8223   16.5835   22.7063 H   0  0  0  0  0  0  0  0  0  0  0  0
   18.6966   17.5891   21.8243 H   0  0  0  0  0  0  0  0  0  0  0  0
   19.3083   18.4085   23.7489 C   0  0  0  0  0  0  0  0  0  0  0  0
   19.1616   19.4719   23.5302 H   0  0  0  0  0  0  0  0  0  0  0  0
   18.3555   18.0458   24.1587 H   0  0  0  0  0  0  0  0  0  0  0  0
   20.4071   18.2369   24.8281 C   0  0  0  0  0  0  0  0  0  0  0  0
   21.3598   18.6565   24.4826 H   0  0  0  0  0  0  0  0  0  0  0  0
   20.5811   17.1670   25.0030 H   0  0  0  0  0  0  0  0  0  0  0  0
   20.0255   18.8928   26.1691 C   0  0  0  0  0  0  0  0  0  0  0  0
   19.0763   18.4817   26.5232 H   0  0  0  0  0  0  0  0  0  0  0  0
   20.7935   18.6682   26.9143 H   0  0  0  0  0  0  0  0  0  0  0  0
   19.8862   20.4006   26.0923 N   0  3  0  0  0  0  0  0  0  0  0  0
   19.1528   20.6807   25.4338 H   0  0  0  0  0  0  0  0  0  0  0  0
   20.7563   20.8480   25.7865 H   0  0  0  0  0  0  0  0  0  0  0  0
   19.6440   20.8070   27.0025 H   0  0  0  0  0  0  0  0  0  0  0  0
  1  2  1  0  0  0  0
  1  3  1  0  0  0  0
  1  4  1  0  0  0  0
  1  5  1  0  0  0  0
  5  6  1  0  0  0  0
  5  7  1  0  0  0  0
  5  8  1  0  0  0  0
  8  9  1  0  0  0  0
  8 10  1  0  0  0  0
  8 11  1  0  0  0  0
 11 12  1  0  0  0  0
 11 13  1  0  0  0  0
 11 14  1  0  0  0  0
 14 15  1  0  0  0  0
 14 16  1  0  0  0  0
 14 17  1  0  0  0  0
 17 18  1  0  0  0  0
 17 19  1  0  0  0  0
 17 20  1  0  0  0  0
 20 21  1  0  0  0  0
 20 22  1  0  0  0  0
 20 23  1  0  0  0  0
 23 24  1  0  0  0  0
 23 25  1  0  0  0  0
 23 26  1  0  0  0  0
M  END
> <VM2 Rank>
174

> <Conf_Id>
504

> <Probability>
0.00

> <Sum Probability>
99.97

> <Delta G>
4.523

> <G>
52.785

> <E>
19.969

> <-TS>
32.816

> <U+W>
-1.493

> <U>
52.644

> <W>
-54.137

> <W(PB)>
-56.384

> <W(SA)>
2.247

> <Valence>
5.947

> <Coulomb>
45.853

> <VdW>
0.845

> <VdW6>
-8.493

> <VdW12>
9.339

> <Bond>
0.292

> <Angle>
1.527

> <Pdih>
4.127

> <Idih>
0.000

> <Tether>
0.000

$$$$
VeraChem MOL file


 26 25  0  0  0  0  0  0  0  0999 V2000     
   20.3633   20.6250   20.7127 C   0  0  0  0  0  0  0  0  0  0  0  0
   19.6763   21.2992   21.2405 H   0  0  0  0  0  0  0  0  0  0  0  0
   21.2901   21.1780   20.5119 H   0  0  0  0  0  0  0  0  0  0  0  0
   19.9113   20.3634   19.7471 H   0  0  0  0  0  0  0  0  0  0  0  0
   20.6531   19.3619   21.5503 C   0  0  0  0  0  0  0  0  0  0  0  0
   21.1401   19.6600   22.4867 H   0  0  0  0  0  0  0  0  0  0  0  0
   21.3671   18.7229   21.0122 H   0  0  0  0  0  0  0  0  0  0  0  0
   19.3608   18.5640   21.8437 C   0  0  0  0  0  0  0  0  0  0  0  0
   18.6329   19.1948   22.3689 H   0  0  0  0  0  0  0  0  0  0  0  0
   18.8871   18.2995   20.8883 H   0  0  0  0  0  0  0  0  0  0  0  0
   19.6055   17.2581   22.6405 C   0  0  0  0  0  0  0  0  0  0  0  0
   20.2556   16.6013   22.0462 H   0  0  0  0  0  0  0  0  0  0  0  0
   18.6510   16.7223   22.7355 H   0  0  0  0  0  0  0  0  0  0  0  0
   20.2282   17.4216   24.0537 C   0  0  0  0  0  0  0  0  0  0  0  0
   20.3675   16.4123   24.4649 H   0  0  0  0  0  0  0  0  0  0  0  0
   21.2379   17.8449   23.9845 H   0  0  0  0  0  0  0  0  0  0  0  0
   19.3589   18.2245   25.0584 C   0  0  0  0  0  0  0  0  0  0  0  0
   19.5818   17.8819   26.0777 H   0  0  0  0  0  0  0  0  0  0  0  0
   18.2979   17.9968   24.8911 H   0  0  0  0  0  0  0  0  0  0  0  0
   19.5682   19.7521   25.0083 C   0  0  0  0  0  0  0  0  0  0  0  0
   19.4206   20.1222   23.9921 H   0  0  0  0  0  0  0  0  0  0  0  0
   18.8329   20.2375   25.6557 H   0  0  0  0  0  0  0  0  0  0  0  0
   20.9429   20.1917   25.4733 N   0  3  0  0  0  0  0  0  0  0  0  0
   21.0499   21.2111   25.4341 H   0  0  0  0  0  0  0  0  0  0  0  0
   21.6874   19.7871   24.8979 H   0  0  0  0  0  0  0  0  0  0  0  0
   21.1231   19.9099   26.4424 H   0  0  0  0  0  0  0  0  0  0  0  0
  1  2  1  0  0  0  0
  1  3  1  0  0  0  0
  1  4  1  0  0  0  0
  1  5  1  0  0  0  0
  5  6  1  0  0  0  0
  5  7  1  0  0  0  0
  5  8  1  0  0  0  0
  8  9  1  0  0  0  0
  8 10  1  0  0  0  0
  8 11  1  0  0  0  0
 11 12  1  0  0  0  0
 11 13  1  0  0  0  0
 11 14  1  0  0  0  0
 14 15  1  0  0  0  0
 14 16  1  0  0  0  0
 14 17  1  0  0  0  0
 17 18  1  0  0  0  0
 17 19  1  0  0  0  0
 17 20  1  0  0  0  0
 20 21  1  0  0  0  0
 20 22  1  0  0  0  0
 20 23  1  0  0  0  0
 23 24  1  0  0  0  0
 23 25  1  0  0  0  0
 23 26  1  0  0  0  0
M  END
> <VM2 Rank>
175

> <Conf_Id>
413

> <Probability>
0.00

> <Sum Probability>
99.97

> <Delta G>
4.533

> <G>
52.795

> <E>
19.343

> <-TS>
33.452

> <U+W>
-2.119

> <U>
52.359

> <W>
-54.478

> <W(PB)>
-56.700

> <W(SA)>
2.222

> <Valence>
5.321

> <Coulomb>
46.894

> <VdW>
0.144

> <VdW6>
-9.549

> <VdW12>
9.693

> <Bond>
0.274

> <Angle>
1.814

> <Pdih>
3.233

> <Idih>
0.000

> <Tether>
0.000

$$$$
VeraChem MOL file


 26 25  0  0  0  0  0  0  0  0999 V2000     
   18.8088   18.3585   20.7529 C   0  0  0  0  0  0  0  0  0  0  0  0
   18.8384   18.9273   19.8146 H   0  0  0  0  0  0  0  0  0  0  0  0
   18.2345   17.4410   20.5710 H   0  0  0  0  0  0  0  0  0  0  0  0
   18.2598   18.9520   21.4937 H   0  0  0  0  0  0  0  0  0  0  0  0
   20.2365   18.0168   21.2372 C   0  0  0  0  0  0  0  0  0  0  0  0
   20.7096   17.3604   20.4936 H   0  0  0  0  0  0  0  0  0  0  0  0
   20.1953   17.4314   22.1642 H   0  0  0  0  0  0  0  0  0  0  0  0
   21.1336   19.2637   21.4303 C   0  0  0  0  0  0  0  0  0  0  0  0
   22.1475   18.9318   21.6927 H   0  0  0  0  0  0  0  0  0  0  0  0
   21.2307   19.7767   20.4636 H   0  0  0  0  0  0  0  0  0  0  0  0
   20.6534   20.2937   22.4885 C   0  0  0  0  0  0  0  0  0  0  0  0
   19.6759   20.7095   22.2111 H   0  0  0  0  0  0  0  0  0  0  0  0
   21.3491   21.1433   22.4504 H   0  0  0  0  0  0  0  0  0  0  0  0
   20.6301   19.7676   23.9479 C   0  0  0  0  0  0  0  0  0  0  0  0
   21.4094   19.0058   24.0810 H   0  0  0  0  0  0  0  0  0  0  0  0
   20.8995   20.5974   24.6162 H   0  0  0  0  0  0  0  0  0  0  0  0
   19.2490   19.2247   24.3949 C   0  0  0  0  0  0  0  0  0  0  0  0
   18.9476   18.3661   23.7854 H   0  0  0  0  0  0  0  0  0  0  0  0
   18.4875   20.0000   24.2380 H   0  0  0  0  0  0  0  0  0  0  0  0
   19.2271   18.8188   25.8810 C   0  0  0  0  0  0  0  0  0  0  0  0
   19.5253   19.6696   26.4995 H   0  0  0  0  0  0  0  0  0  0  0  0
   18.2109   18.5310   26.1638 H   0  0  0  0  0  0  0  0  0  0  0  0
   20.1424   17.6553   26.2082 N   0  3  0  0  0  0  0  0  0  0  0  0
   20.0977   17.4039   27.2017 H   0  0  0  0  0  0  0  0  0  0  0  0
   21.1214   17.8721   25.9975 H   0  0  0  0  0  0  0  0  0  0  0  0
   19.8958   16.8151   25.6752 H   0  0  0  0  0  0  0  0  0  0  0  0
  1  2  1  0  0  0  0
  1  3  1  0  0  0  0
  1  4  1  0  0  0  0
  1  5  1  0  0  0  0
  5  6  1  0  0  0  0
  5  7  1  0  0  0  0
  5  8  1  0  0  0  0
  8  9  1  0  0  0  0
  8 10  1  0  0  0  0
  8 11  1  0  0  0  0
 11 12  1  0  0  0  0
 11 13  1  0  0  0  0
 11 14  1  0  0  0  0
 14 15  1  0  0  0  0
 14 16  1  0  0  0  0
 14 17  1  0  0  0  0
 17 18  1  0  0  0  0
 17 19  1  0  0  0  0
 17 20  1  0  0  0  0
 20 21  1  0  0  0  0
 20 22  1  0  0  0  0
 20 23  1  0  0  0  0
 23 24  1  0  0  0  0
 23 25  1  0  0  0  0
 23 26  1  0  0  0  0
M  END
> <VM2 Rank>
176

> <Conf_Id>
976

> <Probability>
0.00

> <Sum Probability>
99.97

> <Delta G>
4.536

> <G>
52.797

> <E>
19.535

> <-TS>
33.262

> <U+W>
-1.927

> <U>
52.271

> <W>
-54.197

> <W(PB)>
-56.414

> <W(SA)>
2.217

> <Valence>
5.855

> <Coulomb>
45.878

> <VdW>
0.537

> <VdW6>
-9.012

> <VdW12>
9.549

> <Bond>
0.284

> <Angle>
1.819

> <Pdih>
3.752

> <Idih>
0.000

> <Tether>
0.000

$$$$
VeraChem MOL file


 26 25  0  0  0  0  0  0  0  0999 V2000     
   21.1220   19.8810   20.8302 C   0  0  0  0  0  0  0  0  0  0  0  0
   20.7591   20.5972   21.5770 H   0  0  0  0  0  0  0  0  0  0  0  0
   22.1990   20.0505   20.7035 H   0  0  0  0  0  0  0  0  0  0  0  0
   20.6321   20.1076   19.8744 H   0  0  0  0  0  0  0  0  0  0  0  0
   20.8500   18.4206   21.2578 C   0  0  0  0  0  0  0  0  0  0  0  0
   21.3603   18.1984   22.2033 H   0  0  0  0  0  0  0  0  0  0  0  0
   21.3006   17.7493   20.5136 H   0  0  0  0  0  0  0  0  0  0  0  0
   19.3428   18.0850   21.3705 C   0  0  0  0  0  0  0  0  0  0  0  0
   18.8788   18.2286   20.3850 H   0  0  0  0  0  0  0  0  0  0  0  0
   19.2354   17.0150   21.5954 H   0  0  0  0  0  0  0  0  0  0  0  0
   18.5376   18.9010   22.4178 C   0  0  0  0  0  0  0  0  0  0  0  0
   17.4853   18.6000   22.3214 H   0  0  0  0  0  0  0  0  0  0  0  0
   18.5543   19.9713   22.1737 H   0  0  0  0  0  0  0  0  0  0  0  0
   18.9616   18.6694   23.8922 C   0  0  0  0  0  0  0  0  0  0  0  0
   18.0626   18.7300   24.5214 H   0  0  0  0  0  0  0  0  0  0  0  0
   19.3474   17.6485   24.0121 H   0  0  0  0  0  0  0  0  0  0  0  0
   19.9835   19.7084   24.4196 C   0  0  0  0  0  0  0  0  0  0  0  0
   19.5793   20.7190   24.2747 H   0  0  0  0  0  0  0  0  0  0  0  0
   20.9187   19.6641   23.8512 H   0  0  0  0  0  0  0  0  0  0  0  0
   20.2956   19.5221   25.9167 C   0  0  0  0  0  0  0  0  0  0  0  0
   20.9470   20.3323   26.2553 H   0  0  0  0  0  0  0  0  0  0  0  0
   19.3684   19.5658   26.4944 H   0  0  0  0  0  0  0  0  0  0  0  0
   20.9878   18.2115   26.2361 N   0  3  0  0  0  0  0  0  0  0  0  0
   21.1899   18.1224   27.2379 H   0  0  0  0  0  0  0  0  0  0  0  0
   21.8810   18.1221   25.7413 H   0  0  0  0  0  0  0  0  0  0  0  0
   20.4129   17.4052   25.9733 H   0  0  0  0  0  0  0  0  0  0  0  0
  1  2  1  0  0  0  0
  1  3  1  0  0  0  0
  1  4  1  0  0  0  0
  1  5  1  0  0  0  0
  5  6  1  0  0  0  0
  5  7  1  0  0  0  0
  5  8  1  0  0  0  0
  8  9  1  0  0  0  0
  8 10  1  0  0  0  0
  8 11  1  0  0  0  0
 11 12  1  0  0  0  0
 11 13  1  0  0  0  0
 11 14  1  0  0  0  0
 14 15  1  0  0  0  0
 14 16  1  0  0  0  0
 14 17  1  0  0  0  0
 17 18  1  0  0  0  0
 17 19  1  0  0  0  0
 17 20  1  0  0  0  0
 20 21  1  0  0  0  0
 20 22  1  0  0  0  0
 20 23  1  0  0  0  0
 23 24  1  0  0  0  0
 23 25  1  0  0  0  0
 23 26  1  0  0  0  0
M  END
> <VM2 Rank>
177

> <Conf_Id>
974

> <Probability>
0.00

> <Sum Probability>
99.98

> <Delta G>
4.545

> <G>
52.806

> <E>
19.544

> <-TS>
33.262

> <U+W>
-1.918

> <U>
52.271

> <W>
-54.189

> <W(PB)>
-56.407

> <W(SA)>
2.218

> <Valence>
5.856

> <Coulomb>
45.879

> <VdW>
0.537

> <VdW6>
-9.012

> <VdW12>
9.549

> <Bond>
0.284

> <Angle>
1.819

> <Pdih>
3.753

> <Idih>
0.000

> <Tether>
0.000

$$$$
VeraChem MOL file


 26 25  0  0  0  0  0  0  0  0999 V2000     
   20.0366   20.1567   20.0352 C   0  0  0  0  0  0  0  0  0  0  0  0
   21.0415   20.1052   19.5963 H   0  0  0  0  0  0  0  0  0  0  0  0
   19.3090   20.1370   19.2135 H   0  0  0  0  0  0  0  0  0  0  0  0
   19.9373   21.1210   20.5503 H   0  0  0  0  0  0  0  0  0  0  0  0
   19.7938   18.9818   21.0062 C   0  0  0  0  0  0  0  0  0  0  0  0
   19.8691   18.0331   20.4568 H   0  0  0  0  0  0  0  0  0  0  0  0
   18.7681   19.0454   21.3933 H   0  0  0  0  0  0  0  0  0  0  0  0
   20.8059   18.9901   22.1756 C   0  0  0  0  0  0  0  0  0  0  0  0
   21.8246   18.9947   21.7638 H   0  0  0  0  0  0  0  0  0  0  0  0
   20.7040   19.9246   22.7411 H   0  0  0  0  0  0  0  0  0  0  0  0
   20.6664   17.7686   23.1212 C   0  0  0  0  0  0  0  0  0  0  0  0
   21.4628   17.7963   23.8749 H   0  0  0  0  0  0  0  0  0  0  0  0
   20.8534   16.8545   22.5408 H   0  0  0  0  0  0  0  0  0  0  0  0
   19.2900   17.6271   23.8243 C   0  0  0  0  0  0  0  0  0  0  0  0
   18.5240   17.4081   23.0686 H   0  0  0  0  0  0  0  0  0  0  0  0
   19.3183   16.7411   24.4734 H   0  0  0  0  0  0  0  0  0  0  0  0
   18.8225   18.8454   24.6649 C   0  0  0  0  0  0  0  0  0  0  0  0
   17.8053   18.6334   25.0198 H   0  0  0  0  0  0  0  0  0  0  0  0
   18.7359   19.7441   24.0412 H   0  0  0  0  0  0  0  0  0  0  0  0
   19.6941   19.1348   25.9047 C   0  0  0  0  0  0  0  0  0  0  0  0
   19.1195   19.7391   26.6118 H   0  0  0  0  0  0  0  0  0  0  0  0
   19.9569   18.1952   26.3980 H   0  0  0  0  0  0  0  0  0  0  0  0
   20.9716   19.8945   25.6089 N   0  3  0  0  0  0  0  0  0  0  0  0
   21.5607   19.3932   24.9380 H   0  0  0  0  0  0  0  0  0  0  0  0
   21.5310   20.0417   26.4562 H   0  0  0  0  0  0  0  0  0  0  0  0
   20.7786   20.8202   25.2134 H   0  0  0  0  0  0  0  0  0  0  0  0
  1  2  1  0  0  0  0
  1  3  1  0  0  0  0
  1  4  1  0  0  0  0
  1  5  1  0  0  0  0
  5  6  1  0  0  0  0
  5  7  1  0  0  0  0
  5  8  1  0  0  0  0
  8  9  1  0  0  0  0
  8 10  1  0  0  0  0
  8 11  1  0  0  0  0
 11 12  1  0  0  0  0
 11 13  1  0  0  0  0
 11 14  1  0  0  0  0
 14 15  1  0  0  0  0
 14 16  1  0  0  0  0
 14 17  1  0  0  0  0
 17 18  1  0  0  0  0
 17 19  1  0  0  0  0
 17 20  1  0  0  0  0
 20 21  1  0  0  0  0
 20 22  1  0  0  0  0
 20 23  1  0  0  0  0
 23 24  1  0  0  0  0
 23 25  1  0  0  0  0
 23 26  1  0  0  0  0
M  END
> <VM2 Rank>
178

> <Conf_Id>
571

> <Probability>
0.00

> <Sum Probability>
99.98

> <Delta G>
4.570

> <G>
52.832

> <E>
19.510

> <-TS>
33.322

> <U+W>
-1.952

> <U>
52.118

> <W>
-54.070

> <W(PB)>
-56.281

> <W(SA)>
2.211

> <Valence>
4.669

> <Coulomb>
47.148

> <VdW>
0.301

> <VdW6>
-9.413

> <VdW12>
9.714

> <Bond>
0.278

> <Angle>
1.801

> <Pdih>
2.590

> <Idih>
0.000

> <Tether>
0.000

$$$$
VeraChem MOL file


 26 25  0  0  0  0  0  0  0  0999 V2000     
   19.0192   19.4848   20.0013 C   0  0  0  0  0  0  0  0  0  0  0  0
   18.6937   18.5545   19.5178 H   0  0  0  0  0  0  0  0  0  0  0  0
   18.1478   19.9391   20.4907 H   0  0  0  0  0  0  0  0  0  0  0  0
   19.3603   20.1712   19.2155 H   0  0  0  0  0  0  0  0  0  0  0  0
   20.1488   19.2164   21.0181 C   0  0  0  0  0  0  0  0  0  0  0  0
   20.4738   20.1721   21.4505 H   0  0  0  0  0  0  0  0  0  0  0  0
   21.0168   18.7912   20.4952 H   0  0  0  0  0  0  0  0  0  0  0  0
   19.6907   18.2534   22.1383 C   0  0  0  0  0  0  0  0  0  0  0  0
   18.8454   18.6968   22.6789 H   0  0  0  0  0  0  0  0  0  0  0  0
   19.3070   17.3316   21.6795 H   0  0  0  0  0  0  0  0  0  0  0  0
   20.8239   17.8725   23.1264 C   0  0  0  0  0  0  0  0  0  0  0  0
   21.6178   17.3593   22.5664 H   0  0  0  0  0  0  0  0  0  0  0  0
   20.4517   17.1284   23.8411 H   0  0  0  0  0  0  0  0  0  0  0  0
   21.4599   19.0604   23.8969 C   0  0  0  0  0  0  0  0  0  0  0  0
   22.2329   18.6662   24.5710 H   0  0  0  0  0  0  0  0  0  0  0  0
   21.9963   19.7014   23.1847 H   0  0  0  0  0  0  0  0  0  0  0  0
   20.4841   19.9429   24.7203 C   0  0  0  0  0  0  0  0  0  0  0  0
   19.7211   20.3948   24.0740 H   0  0  0  0  0  0  0  0  0  0  0  0
   21.0605   20.7837   25.1284 H   0  0  0  0  0  0  0  0  0  0  0  0
   19.8194   19.2177   25.9088 C   0  0  0  0  0  0  0  0  0  0  0  0
   20.5571   18.5919   26.4182 H   0  0  0  0  0  0  0  0  0  0  0  0
   19.4559   19.9616   26.6229 H   0  0  0  0  0  0  0  0  0  0  0  0
   18.6349   18.3510   25.5308 N   0  3  0  0  0  0  0  0  0  0  0  0
   18.2413   17.8689   26.3463 H   0  0  0  0  0  0  0  0  0  0  0  0
   18.8965   17.6331   24.8491 H   0  0  0  0  0  0  0  0  0  0  0  0
   17.8782   18.9043   25.1163 H   0  0  0  0  0  0  0  0  0  0  0  0
  1  2  1  0  0  0  0
  1  3  1  0  0  0  0
  1  4  1  0  0  0  0
  1  5  1  0  0  0  0
  5  6  1  0  0  0  0
  5  7  1  0  0  0  0
  5  8  1  0  0  0  0
  8  9  1  0  0  0  0
  8 10  1  0  0  0  0
  8 11  1  0  0  0  0
 11 12  1  0  0  0  0
 11 13  1  0  0  0  0
 11 14  1  0  0  0  0
 14 15  1  0  0  0  0
 14 16  1  0  0  0  0
 14 17  1  0  0  0  0
 17 18  1  0  0  0  0
 17 19  1  0  0  0  0
 17 20  1  0  0  0  0
 20 21  1  0  0  0  0
 20 22  1  0  0  0  0
 20 23  1  0  0  0  0
 23 24  1  0  0  0  0
 23 25  1  0  0  0  0
 23 26  1  0  0  0  0
M  END
> <VM2 Rank>
179

> <Conf_Id>
543

> <Probability>
0.00

> <Sum Probability>
99.98

> <Delta G>
4.588

> <G>
52.849

> <E>
19.528

> <-TS>
33.322

> <U+W>
-1.934

> <U>
52.118

> <W>
-54.052

> <W(PB)>
-56.271

> <W(SA)>
2.219

> <Valence>
4.669

> <Coulomb>
47.148

> <VdW>
0.301

> <VdW6>
-9.413

> <VdW12>
9.715

> <Bond>
0.278

> <Angle>
1.801

> <Pdih>
2.590

> <Idih>
0.000

> <Tether>
0.000

$$$$
VeraChem MOL file


 26 25  0  0  0  0  0  0  0  0999 V2000     
   18.5235   18.5827   21.1033 C   0  0  0  0  0  0  0  0  0  0  0  0
   18.2405   19.6427   21.0689 H   0  0  0  0  0  0  0  0  0  0  0  0
   17.8341   18.0296   20.4524 H   0  0  0  0  0  0  0  0  0  0  0  0
   18.3760   18.2125   22.1243 H   0  0  0  0  0  0  0  0  0  0  0  0
   19.9821   18.3794   20.6395 C   0  0  0  0  0  0  0  0  0  0  0  0
   20.0406   18.5889   19.5623 H   0  0  0  0  0  0  0  0  0  0  0  0
   20.2589   17.3225   20.7587 H   0  0  0  0  0  0  0  0  0  0  0  0
   21.0165   19.2738   21.3693 C   0  0  0  0  0  0  0  0  0  0  0  0
   21.9984   19.0780   20.9165 H   0  0  0  0  0  0  0  0  0  0  0  0
   20.8060   20.3336   21.1703 H   0  0  0  0  0  0  0  0  0  0  0  0
   21.1321   19.0236   22.8957 C   0  0  0  0  0  0  0  0  0  0  0  0
   22.1806   19.1683   23.1907 H   0  0  0  0  0  0  0  0  0  0  0  0
   20.8961   17.9746   23.1176 H   0  0  0  0  0  0  0  0  0  0  0  0
   20.2574   19.9810   23.7458 C   0  0  0  0  0  0  0  0  0  0  0  0
   20.5176   21.0187   23.4955 H   0  0  0  0  0  0  0  0  0  0  0  0
   19.1979   19.8683   23.4905 H   0  0  0  0  0  0  0  0  0  0  0  0
   20.4494   19.7849   25.2706 C   0  0  0  0  0  0  0  0  0  0  0  0
   19.8449   20.5254   25.8110 H   0  0  0  0  0  0  0  0  0  0  0  0
   21.4950   19.9935   25.5336 H   0  0  0  0  0  0  0  0  0  0  0  0
   20.0855   18.3731   25.7734 C   0  0  0  0  0  0  0  0  0  0  0  0
   20.7104   17.6291   25.2728 H   0  0  0  0  0  0  0  0  0  0  0  0
   20.2785   18.3100   26.8478 H   0  0  0  0  0  0  0  0  0  0  0  0
   18.6344   18.0005   25.5433 N   0  3  0  0  0  0  0  0  0  0  0  0
   18.4224   17.0607   25.8956 H   0  0  0  0  0  0  0  0  0  0  0  0
   18.3965   18.0112   24.5471 H   0  0  0  0  0  0  0  0  0  0  0  0
   17.9965   18.6488   26.0164 H   0  0  0  0  0  0  0  0  0  0  0  0
  1  2  1  0  0  0  0
  1  3  1  0  0  0  0
  1  4  1  0  0  0  0
  1  5  1  0  0  0  0
  5  6  1  0  0  0  0
  5  7  1  0  0  0  0
  5  8  1  0  0  0  0
  8  9  1  0  0  0  0
  8 10  1  0  0  0  0
  8 11  1  0  0  0  0
 11 12  1  0  0  0  0
 11 13  1  0  0  0  0
 11 14  1  0  0  0  0
 14 15  1  0  0  0  0
 14 16  1  0  0  0  0
 14 17  1  0  0  0  0
 17 18  1  0  0  0  0
 17 19  1  0  0  0  0
 17 20  1  0  0  0  0
 20 21  1  0  0  0  0
 20 22  1  0  0  0  0
 20 23  1  0  0  0  0
 23 24  1  0  0  0  0
 23 25  1  0  0  0  0
 23 26  1  0  0  0  0
M  END
> <VM2 Rank>
180

> <Conf_Id>
843

> <Probability>
0.00

> <Sum Probability>
99.99

> <Delta G>
4.795

> <G>
53.056

> <E>
20.140

> <-TS>
32.916

> <U+W>
-1.322

> <U>
52.694

> <W>
-54.016

> <W(PB)>
-56.221

> <W(SA)>
2.206

> <Valence>
5.523

> <Coulomb>
46.642

> <VdW>
0.528

> <VdW6>
-8.872

> <VdW12>
9.400

> <Bond>
0.267

> <Angle>
1.435

> <Pdih>
3.821

> <Idih>
0.000

> <Tether>
0.000

$$$$
VeraChem MOL file


 26 25  0  0  0  0  0  0  0  0999 V2000     
   20.3035   20.6305   21.5476 C   0  0  0  0  0  0  0  0  0  0  0  0
   20.5921   20.5662   22.6013 H   0  0  0  0  0  0  0  0  0  0  0  0
   20.9661   21.3634   21.0695 H   0  0  0  0  0  0  0  0  0  0  0  0
   19.2803   21.0248   21.4974 H   0  0  0  0  0  0  0  0  0  0  0  0
   20.4064   19.2641   20.8312 C   0  0  0  0  0  0  0  0  0  0  0  0
   21.4394   18.8914   20.8680 H   0  0  0  0  0  0  0  0  0  0  0  0
   20.1821   19.4258   19.7675 H   0  0  0  0  0  0  0  0  0  0  0  0
   19.4271   18.1933   21.3787 C   0  0  0  0  0  0  0  0  0  0  0  0
   18.4971   18.6632   21.7245 H   0  0  0  0  0  0  0  0  0  0  0  0
   19.1299   17.5520   20.5374 H   0  0  0  0  0  0  0  0  0  0  0  0
   20.0169   17.2635   22.4736 C   0  0  0  0  0  0  0  0  0  0  0  0
   20.8944   16.7454   22.0629 H   0  0  0  0  0  0  0  0  0  0  0  0
   19.2839   16.4752   22.6936 H   0  0  0  0  0  0  0  0  0  0  0  0
   20.4212   17.9465   23.8035 C   0  0  0  0  0  0  0  0  0  0  0  0
   20.8492   17.1818   24.4665 H   0  0  0  0  0  0  0  0  0  0  0  0
   21.2278   18.6656   23.6187 H   0  0  0  0  0  0  0  0  0  0  0  0
   19.2342   18.6259   24.5312 C   0  0  0  0  0  0  0  0  0  0  0  0
   18.4256   17.8951   24.6645 H   0  0  0  0  0  0  0  0  0  0  0  0
   18.8217   19.4399   23.9225 H   0  0  0  0  0  0  0  0  0  0  0  0
   19.6259   19.1774   25.9154 C   0  0  0  0  0  0  0  0  0  0  0  0
   18.7350   19.5647   26.4172 H   0  0  0  0  0  0  0  0  0  0  0  0
   20.0395   18.3722   26.5285 H   0  0  0  0  0  0  0  0  0  0  0  0
   20.6460   20.2977   25.8597 N   0  3  0  0  0  0  0  0  0  0  0  0
   20.8788   20.6454   26.7963 H   0  0  0  0  0  0  0  0  0  0  0  0
   20.3027   21.0987   25.3201 H   0  0  0  0  0  0  0  0  0  0  0  0
   21.5228   19.9908   25.4275 H   0  0  0  0  0  0  0  0  0  0  0  0
  1  2  1  0  0  0  0
  1  3  1  0  0  0  0
  1  4  1  0  0  0  0
  1  5  1  0  0  0  0
  5  6  1  0  0  0  0
  5  7  1  0  0  0  0
  5  8  1  0  0  0  0
  8  9  1  0  0  0  0
  8 10  1  0  0  0  0
  8 11  1  0  0  0  0
 11 12  1  0  0  0  0
 11 13  1  0  0  0  0
 11 14  1  0  0  0  0
 14 15  1  0  0  0  0
 14 16  1  0  0  0  0
 14 17  1  0  0  0  0
 17 18  1  0  0  0  0
 17 19  1  0  0  0  0
 17 20  1  0  0  0  0
 20 21  1  0  0  0  0
 20 22  1  0  0  0  0
 20 23  1  0  0  0  0
 23 24  1  0  0  0  0
 23 25  1  0  0  0  0
 23 26  1  0  0  0  0
M  END
> <VM2 Rank>
181

> <Conf_Id>
405

> <Probability>
0.00

> <Sum Probability>
99.99

> <Delta G>
4.818

> <G>
53.079

> <E>
19.768

> <-TS>
33.311

> <U+W>
-1.694

> <U>
52.676

> <W>
-54.369

> <W(PB)>
-56.548

> <W(SA)>
2.179

> <Valence>
5.835

> <Coulomb>
46.484

> <VdW>
0.357

> <VdW6>
-9.272

> <VdW12>
9.629

> <Bond>
0.284

> <Angle>
1.857

> <Pdih>
3.694

> <Idih>
0.000

> <Tether>
0.000

$$$$
VeraChem MOL file


 26 25  0  0  0  0  0  0  0  0999 V2000     
   18.4089   19.3789   21.4845 C   0  0  0  0  0  0  0  0  0  0  0  0
   18.4492   20.4758   21.4700 H   0  0  0  0  0  0  0  0  0  0  0  0
   17.4982   19.0727   20.9537 H   0  0  0  0  0  0  0  0  0  0  0  0
   18.3061   19.0558   22.5250 H   0  0  0  0  0  0  0  0  0  0  0  0
   19.6577   18.7697   20.8062 C   0  0  0  0  0  0  0  0  0  0  0  0
   19.6462   19.0721   19.7496 H   0  0  0  0  0  0  0  0  0  0  0  0
   19.5944   17.6727   20.8062 H   0  0  0  0  0  0  0  0  0  0  0  0
   20.9997   19.2321   21.4313 C   0  0  0  0  0  0  0  0  0  0  0  0
   21.7445   19.2792   20.6248 H   0  0  0  0  0  0  0  0  0  0  0  0
   20.9157   20.2609   21.8053 H   0  0  0  0  0  0  0  0  0  0  0  0
   21.5725   18.2911   22.5256 C   0  0  0  0  0  0  0  0  0  0  0  0
   22.5736   18.6482   22.8035 H   0  0  0  0  0  0  0  0  0  0  0  0
   21.7244   17.2937   22.0906 H   0  0  0  0  0  0  0  0  0  0  0  0
   20.7248   18.1469   23.8137 C   0  0  0  0  0  0  0  0  0  0  0  0
   19.7567   17.6938   23.5695 H   0  0  0  0  0  0  0  0  0  0  0  0
   21.2293   17.4328   24.4792 H   0  0  0  0  0  0  0  0  0  0  0  0
   20.5310   19.4825   24.5745 C   0  0  0  0  0  0  0  0  0  0  0  0
   19.9727   20.2001   23.9610 H   0  0  0  0  0  0  0  0  0  0  0  0
   21.5129   19.9344   24.7678 H   0  0  0  0  0  0  0  0  0  0  0  0
   19.8064   19.2967   25.9214 C   0  0  0  0  0  0  0  0  0  0  0  0
   20.3560   18.5812   26.5390 H   0  0  0  0  0  0  0  0  0  0  0  0
   19.7758   20.2522   26.4520 H   0  0  0  0  0  0  0  0  0  0  0  0
   18.3801   18.8011   25.7839 N   0  3  0  0  0  0  0  0  0  0  0  0
   17.9259   18.6949   26.6975 H   0  0  0  0  0  0  0  0  0  0  0  0
   18.3391   17.8880   25.3209 H   0  0  0  0  0  0  0  0  0  0  0  0
   17.8035   19.4479   25.2365 H   0  0  0  0  0  0  0  0  0  0  0  0
  1  2  1  0  0  0  0
  1  3  1  0  0  0  0
  1  4  1  0  0  0  0
  1  5  1  0  0  0  0
  5  6  1  0  0  0  0
  5  7  1  0  0  0  0
  5  8  1  0  0  0  0
  8  9  1  0  0  0  0
  8 10  1  0  0  0  0
  8 11  1  0  0  0  0
 11 12  1  0  0  0  0
 11 13  1  0  0  0  0
 11 14  1  0  0  0  0
 14 15  1  0  0  0  0
 14 16  1  0  0  0  0
 14 17  1  0  0  0  0
 17 18  1  0  0  0  0
 17 19  1  0  0  0  0
 17 20  1  0  0  0  0
 20 21  1  0  0  0  0
 20 22  1  0  0  0  0
 20 23  1  0  0  0  0
 23 24  1  0  0  0  0
 23 25  1  0  0  0  0
 23 26  1  0  0  0  0
M  END
> <VM2 Rank>
182

> <Conf_Id>
403

> <Probability>
0.00

> <Sum Probability>
99.99

> <Delta G>
4.910

> <G>
53.171

> <E>
19.860

> <-TS>
33.311

> <U+W>
-1.602

> <U>
52.676

> <W>
-54.278

> <W(PB)>
-56.460

> <W(SA)>
2.182

> <Valence>
5.835

> <Coulomb>
46.484

> <VdW>
0.357

> <VdW6>
-9.272

> <VdW12>
9.629

> <Bond>
0.284

> <Angle>
1.858

> <Pdih>
3.694

> <Idih>
0.000

> <Tether>
0.000

$$$$
VeraChem MOL file


 26 25  0  0  0  0  0  0  0  0999 V2000     
   21.1495   19.4511   20.5981 C   0  0  0  0  0  0  0  0  0  0  0  0
   20.5910   19.2792   19.6688 H   0  0  0  0  0  0  0  0  0  0  0  0
   21.9603   20.1572   20.3771 H   0  0  0  0  0  0  0  0  0  0  0  0
   21.6104   18.5033   20.9028 H   0  0  0  0  0  0  0  0  0  0  0  0
   20.2280   20.0133   21.7037 C   0  0  0  0  0  0  0  0  0  0  0  0
   19.8827   21.0121   21.4022 H   0  0  0  0  0  0  0  0  0  0  0  0
   20.8071   20.1600   22.6233 H   0  0  0  0  0  0  0  0  0  0  0  0
   18.9883   19.1253   21.9810 C   0  0  0  0  0  0  0  0  0  0  0  0
   18.3447   19.6156   22.7220 H   0  0  0  0  0  0  0  0  0  0  0  0
   18.3849   19.0730   21.0644 H   0  0  0  0  0  0  0  0  0  0  0  0
   19.3014   17.6777   22.4425 C   0  0  0  0  0  0  0  0  0  0  0  0
   19.8053   17.1445   21.6255 H   0  0  0  0  0  0  0  0  0  0  0  0
   18.3517   17.1458   22.5916 H   0  0  0  0  0  0  0  0  0  0  0  0
   20.1592   17.5379   23.7290 C   0  0  0  0  0  0  0  0  0  0  0  0
   20.3583   16.4666   23.8701 H   0  0  0  0  0  0  0  0  0  0  0  0
   21.1452   17.9978   23.5881 H   0  0  0  0  0  0  0  0  0  0  0  0
   19.4800   18.0633   25.0222 C   0  0  0  0  0  0  0  0  0  0  0  0
   19.8822   17.5156   25.8848 H   0  0  0  0  0  0  0  0  0  0  0  0
   18.4071   17.8320   24.9944 H   0  0  0  0  0  0  0  0  0  0  0  0
   19.6701   19.5719   25.2800 C   0  0  0  0  0  0  0  0  0  0  0  0
   19.3394   20.1488   24.4146 H   0  0  0  0  0  0  0  0  0  0  0  0
   19.0615   19.8698   26.1381 H   0  0  0  0  0  0  0  0  0  0  0  0
   21.1044   19.9584   25.5846 N   0  3  0  0  0  0  0  0  0  0  0  0
   21.4563   19.4793   26.4199 H   0  0  0  0  0  0  0  0  0  0  0  0
   21.1993   20.9653   25.7563 H   0  0  0  0  0  0  0  0  0  0  0  0
   21.7349   19.7217   24.8129 H   0  0  0  0  0  0  0  0  0  0  0  0
  1  2  1  0  0  0  0
  1  3  1  0  0  0  0
  1  4  1  0  0  0  0
  1  5  1  0  0  0  0
  5  6  1  0  0  0  0
  5  7  1  0  0  0  0
  5  8  1  0  0  0  0
  8  9  1  0  0  0  0
  8 10  1  0  0  0  0
  8 11  1  0  0  0  0
 11 12  1  0  0  0  0
 11 13  1  0  0  0  0
 11 14  1  0  0  0  0
 14 15  1  0  0  0  0
 14 16  1  0  0  0  0
 14 17  1  0  0  0  0
 17 18  1  0  0  0  0
 17 19  1  0  0  0  0
 17 20  1  0  0  0  0
 20 21  1  0  0  0  0
 20 22  1  0  0  0  0
 20 23  1  0  0  0  0
 23 24  1  0  0  0  0
 23 25  1  0  0  0  0
 23 26  1  0  0  0  0
M  END
> <VM2 Rank>
183

> <Conf_Id>
1322

> <Probability>
0.00

> <Sum Probability>
99.99

> <Delta G>
5.090

> <G>
53.352

> <E>
19.657

> <-TS>
33.695

> <U+W>
-1.805

> <U>
52.878

> <W>
-54.683

> <W(PB)>
-56.875

> <W(SA)>
2.192

> <Valence>
5.780

> <Coulomb>
46.918

> <VdW>
0.181

> <VdW6>
-10.252

> <VdW12>
10.432

> <Bond>
0.312

> <Angle>
2.153

> <Pdih>
3.315

> <Idih>
0.000

> <Tether>
0.000

$$$$
VeraChem MOL file


 26 25  0  0  0  0  0  0  0  0999 V2000     
   19.8794   19.1382   19.9785 C   0  0  0  0  0  0  0  0  0  0  0  0
   20.8539   19.4390   19.5725 H   0  0  0  0  0  0  0  0  0  0  0  0
   19.2910   18.7096   19.1571 H   0  0  0  0  0  0  0  0  0  0  0  0
   19.3576   20.0394   20.3236 H   0  0  0  0  0  0  0  0  0  0  0  0
   20.0469   18.1090   21.1190 C   0  0  0  0  0  0  0  0  0  0  0  0
   20.4680   17.1841   20.7010 H   0  0  0  0  0  0  0  0  0  0  0  0
   19.0614   17.8368   21.5199 H   0  0  0  0  0  0  0  0  0  0  0  0
   20.9724   18.6004   22.2609 C   0  0  0  0  0  0  0  0  0  0  0  0
   21.0892   17.7902   22.9913 H   0  0  0  0  0  0  0  0  0  0  0  0
   21.9765   18.7758   21.8508 H   0  0  0  0  0  0  0  0  0  0  0  0
   20.4989   19.8917   22.9819 C   0  0  0  0  0  0  0  0  0  0  0  0
   20.5227   20.7274   22.2699 H   0  0  0  0  0  0  0  0  0  0  0  0
   21.2264   20.1639   23.7560 H   0  0  0  0  0  0  0  0  0  0  0  0
   19.0799   19.8176   23.6057 C   0  0  0  0  0  0  0  0  0  0  0  0
   18.8582   20.7797   24.0878 H   0  0  0  0  0  0  0  0  0  0  0  0
   18.3414   19.7197   22.7990 H   0  0  0  0  0  0  0  0  0  0  0  0
   18.8444   18.6788   24.6336 C   0  0  0  0  0  0  0  0  0  0  0  0
   19.0172   17.6954   24.1783 H   0  0  0  0  0  0  0  0  0  0  0  0
   17.7816   18.6943   24.9090 H   0  0  0  0  0  0  0  0  0  0  0  0
   19.6614   18.8174   25.9351 C   0  0  0  0  0  0  0  0  0  0  0  0
   19.6638   19.8613   26.2597 H   0  0  0  0  0  0  0  0  0  0  0  0
   19.1878   18.2202   26.7190 H   0  0  0  0  0  0  0  0  0  0  0  0
   21.0976   18.3458   25.8262 N   0  3  0  0  0  0  0  0  0  0  0  0
   21.1521   17.3485   25.5958 H   0  0  0  0  0  0  0  0  0  0  0  0
   21.6087   18.4782   26.7057 H   0  0  0  0  0  0  0  0  0  0  0  0
   21.6068   18.8551   25.0983 H   0  0  0  0  0  0  0  0  0  0  0  0
  1  2  1  0  0  0  0
  1  3  1  0  0  0  0
  1  4  1  0  0  0  0
  1  5  1  0  0  0  0
  5  6  1  0  0  0  0
  5  7  1  0  0  0  0
  5  8  1  0  0  0  0
  8  9  1  0  0  0  0
  8 10  1  0  0  0  0
  8 11  1  0  0  0  0
 11 12  1  0  0  0  0
 11 13  1  0  0  0  0
 11 14  1  0  0  0  0
 14 15  1  0  0  0  0
 14 16  1  0  0  0  0
 14 17  1  0  0  0  0
 17 18  1  0  0  0  0
 17 19  1  0  0  0  0
 17 20  1  0  0  0  0
 20 21  1  0  0  0  0
 20 22  1  0  0  0  0
 20 23  1  0  0  0  0
 23 24  1  0  0  0  0
 23 25  1  0  0  0  0
 23 26  1  0  0  0  0
M  END
> <VM2 Rank>
184

> <Conf_Id>
222

> <Probability>
0.00

> <Sum Probability>
99.99

> <Delta G>
5.212

> <G>
53.474

> <E>
19.848

> <-TS>
33.626

> <U+W>
-1.614

> <U>
52.542

> <W>
-54.157

> <W(PB)>
-56.334

> <W(SA)>
2.177

> <Valence>
5.103

> <Coulomb>
47.135

> <VdW>
0.304

> <VdW6>
-10.241

> <VdW12>
10.545

> <Bond>
0.320

> <Angle>
2.105

> <Pdih>
2.678

> <Idih>
0.000

> <Tether>
0.000

$$$$
VeraChem MOL file


 26 25  0  0  0  0  0  0  0  0999 V2000     
   19.8098   18.5059   19.8271 C   0  0  0  0  0  0  0  0  0  0  0  0
   20.0676   19.5036   19.4486 H   0  0  0  0  0  0  0  0  0  0  0  0
   19.9509   17.7894   19.0075 H   0  0  0  0  0  0  0  0  0  0  0  0
   18.7443   18.5013   20.0882 H   0  0  0  0  0  0  0  0  0  0  0  0
   20.6935   18.1247   21.0364 C   0  0  0  0  0  0  0  0  0  0  0  0
   21.7325   18.0188   20.6942 H   0  0  0  0  0  0  0  0  0  0  0  0
   20.3934   17.1381   21.4160 H   0  0  0  0  0  0  0  0  0  0  0  0
   20.6530   19.1643   22.1825 C   0  0  0  0  0  0  0  0  0  0  0  0
   21.3996   18.8742   22.9317 H   0  0  0  0  0  0  0  0  0  0  0  0
   20.9701   20.1439   21.7990 H   0  0  0  0  0  0  0  0  0  0  0  0
   19.2586   19.2952   22.8469 C   0  0  0  0  0  0  0  0  0  0  0  0
   18.8943   18.3130   23.1715 H   0  0  0  0  0  0  0  0  0  0  0  0
   18.5366   19.6442   22.0973 H   0  0  0  0  0  0  0  0  0  0  0  0
   19.2256   20.2949   24.0314 C   0  0  0  0  0  0  0  0  0  0  0  0
   19.4815   21.2948   23.6547 H   0  0  0  0  0  0  0  0  0  0  0  0
   18.1913   20.3699   24.3948 H   0  0  0  0  0  0  0  0  0  0  0  0
   20.1507   19.9686   25.2348 C   0  0  0  0  0  0  0  0  0  0  0  0
   20.0226   20.7665   25.9782 H   0  0  0  0  0  0  0  0  0  0  0  0
   21.2071   20.0084   24.9410 H   0  0  0  0  0  0  0  0  0  0  0  0
   19.8409   18.6276   25.9320 C   0  0  0  0  0  0  0  0  0  0  0  0
   20.2375   18.6534   26.9505 H   0  0  0  0  0  0  0  0  0  0  0  0
   18.7588   18.4846   25.9929 H   0  0  0  0  0  0  0  0  0  0  0  0
   20.4489   17.4179   25.2500 N   0  3  0  0  0  0  0  0  0  0  0  0
   20.1883   16.5446   25.7211 H   0  0  0  0  0  0  0  0  0  0  0  0
   21.4731   17.4611   25.2458 H   0  0  0  0  0  0  0  0  0  0  0  0
   20.1437   17.3435   24.2750 H   0  0  0  0  0  0  0  0  0  0  0  0
  1  2  1  0  0  0  0
  1  3  1  0  0  0  0
  1  4  1  0  0  0  0
  1  5  1  0  0  0  0
  5  6  1  0  0  0  0
  5  7  1  0  0  0  0
  5  8  1  0  0  0  0
  8  9  1  0  0  0  0
  8 10  1  0  0  0  0
  8 11  1  0  0  0  0
 11 12  1  0  0  0  0
 11 13  1  0  0  0  0
 11 14  1  0  0  0  0
 14 15  1  0  0  0  0
 14 16  1  0  0  0  0
 14 17  1  0  0  0  0
 17 18  1  0  0  0  0
 17 19  1  0  0  0  0
 17 20  1  0  0  0  0
 20 21  1  0  0  0  0
 20 22  1  0  0  0  0
 20 23  1  0  0  0  0
 23 24  1  0  0  0  0
 23 25  1  0  0  0  0
 23 26  1  0  0  0  0
M  END
> <VM2 Rank>
185

> <Conf_Id>
464

> <Probability>
0.00

> <Sum Probability>
100.00

> <Delta G>
5.221

> <G>
53.482

> <E>
20.252

> <-TS>
33.230

> <U+W>
-1.210

> <U>
52.436

> <W>
-53.646

> <W(PB)>
-55.879

> <W(SA)>
2.233

> <Valence>
4.797

> <Coulomb>
47.143

> <VdW>
0.497

> <VdW6>
-9.253

> <VdW12>
9.750

> <Bond>
0.276

> <Angle>
1.763

> <Pdih>
2.758

> <Idih>
0.000

> <Tether>
0.000

$$$$
VeraChem MOL file


 26 25  0  0  0  0  0  0  0  0999 V2000     
   18.7784   19.9556   21.0084 C   0  0  0  0  0  0  0  0  0  0  0  0
   18.8060   20.5898   21.9023 H   0  0  0  0  0  0  0  0  0  0  0  0
   19.3247   20.4689   20.2065 H   0  0  0  0  0  0  0  0  0  0  0  0
   17.7290   19.8722   20.6975 H   0  0  0  0  0  0  0  0  0  0  0  0
   19.3741   18.5545   21.2774 C   0  0  0  0  0  0  0  0  0  0  0  0
   19.2072   17.9315   20.3877 H   0  0  0  0  0  0  0  0  0  0  0  0
   18.8202   18.0680   22.0875 H   0  0  0  0  0  0  0  0  0  0  0  0
   20.8960   18.5750   21.5765 C   0  0  0  0  0  0  0  0  0  0  0  0
   21.2790   17.5456   21.5938 H   0  0  0  0  0  0  0  0  0  0  0  0
   21.3978   19.0592   20.7274 H   0  0  0  0  0  0  0  0  0  0  0  0
   21.3243   19.3064   22.8789 C   0  0  0  0  0  0  0  0  0  0  0  0
   20.6990   20.1875   23.0631 H   0  0  0  0  0  0  0  0  0  0  0  0
   22.3347   19.7053   22.7142 H   0  0  0  0  0  0  0  0  0  0  0  0
   21.3943   18.4097   24.1449 C   0  0  0  0  0  0  0  0  0  0  0  0
   22.0936   17.5828   23.9597 H   0  0  0  0  0  0  0  0  0  0  0  0
   21.8421   18.9938   24.9600 H   0  0  0  0  0  0  0  0  0  0  0  0
   20.0465   17.8223   24.6341 C   0  0  0  0  0  0  0  0  0  0  0  0
   20.2153   17.2656   25.5653 H   0  0  0  0  0  0  0  0  0  0  0  0
   19.6833   17.0825   23.9107 H   0  0  0  0  0  0  0  0  0  0  0  0
   18.9529   18.8822   24.8756 C   0  0  0  0  0  0  0  0  0  0  0  0
   18.7558   19.4263   23.9485 H   0  0  0  0  0  0  0  0  0  0  0  0
   18.0279   18.3872   25.1835 H   0  0  0  0  0  0  0  0  0  0  0  0
   19.3144   19.8934   25.9453 N   0  3  0  0  0  0  0  0  0  0  0  0
   20.1644   20.4112   25.7023 H   0  0  0  0  0  0  0  0  0  0  0  0
   19.4817   19.4442   26.8514 H   0  0  0  0  0  0  0  0  0  0  0  0
   18.5689   20.5837   26.0856 H   0  0  0  0  0  0  0  0  0  0  0  0
  1  2  1  0  0  0  0
  1  3  1  0  0  0  0
  1  4  1  0  0  0  0
  1  5  1  0  0  0  0
  5  6  1  0  0  0  0
  5  7  1  0  0  0  0
  5  8  1  0  0  0  0
  8  9  1  0  0  0  0
  8 10  1  0  0  0  0
  8 11  1  0  0  0  0
 11 12  1  0  0  0  0
 11 13  1  0  0  0  0
 11 14  1  0  0  0  0
 14 15  1  0  0  0  0
 14 16  1  0  0  0  0
 14 17  1  0  0  0  0
 17 18  1  0  0  0  0
 17 19  1  0  0  0  0
 17 20  1  0  0  0  0
 20 21  1  0  0  0  0
 20 22  1  0  0  0  0
 20 23  1  0  0  0  0
 23 24  1  0  0  0  0
 23 25  1  0  0  0  0
 23 26  1  0  0  0  0
M  END
> <VM2 Rank>
186

> <Conf_Id>
1107

> <Probability>
0.00

> <Sum Probability>
100.00

> <Delta G>
5.323

> <G>
53.585

> <E>
20.001

> <-TS>
33.583

> <U+W>
-1.461

> <U>
52.809

> <W>
-54.269

> <W(PB)>
-56.453

> <W(SA)>
2.184

> <Valence>
6.265

> <Coulomb>
46.221

> <VdW>
0.323

> <VdW6>
-10.155

> <VdW12>
10.478

> <Bond>
0.329

> <Angle>
2.314

> <Pdih>
3.622

> <Idih>
0.000

> <Tether>
0.000

$$$$
VeraChem MOL file


 26 25  0  0  0  0  0  0  0  0999 V2000     
   18.3616   18.3861   20.8125 C   0  0  0  0  0  0  0  0  0  0  0  0
   17.6400   18.9276   21.4379 H   0  0  0  0  0  0  0  0  0  0  0  0
   18.4540   18.9191   19.8572 H   0  0  0  0  0  0  0  0  0  0  0  0
   17.9471   17.3911   20.6046 H   0  0  0  0  0  0  0  0  0  0  0  0
   19.7294   18.2700   21.5174 C   0  0  0  0  0  0  0  0  0  0  0  0
   20.4162   17.6919   20.8834 H   0  0  0  0  0  0  0  0  0  0  0  0
   19.6108   17.6966   22.4443 H   0  0  0  0  0  0  0  0  0  0  0  0
   20.3432   19.6614   21.8057 C   0  0  0  0  0  0  0  0  0  0  0  0
   20.5363   20.1521   20.8416 H   0  0  0  0  0  0  0  0  0  0  0  0
   19.6249   20.3064   22.3289 H   0  0  0  0  0  0  0  0  0  0  0  0
   21.6743   19.5907   22.5968 C   0  0  0  0  0  0  0  0  0  0  0  0
   22.3380   20.3766   22.2103 H   0  0  0  0  0  0  0  0  0  0  0  0
   22.1908   18.6438   22.3873 H   0  0  0  0  0  0  0  0  0  0  0  0
   21.5541   19.8024   24.1306 C   0  0  0  0  0  0  0  0  0  0  0  0
   22.5734   19.8136   24.5408 H   0  0  0  0  0  0  0  0  0  0  0  0
   21.1412   20.7988   24.3408 H   0  0  0  0  0  0  0  0  0  0  0  0
   20.7458   18.7253   24.8958 C   0  0  0  0  0  0  0  0  0  0  0  0
   21.0971   18.6998   25.9359 H   0  0  0  0  0  0  0  0  0  0  0  0
   20.9508   17.7313   24.4772 H   0  0  0  0  0  0  0  0  0  0  0  0
   19.2305   19.0057   24.9120 C   0  0  0  0  0  0  0  0  0  0  0  0
   19.0425   19.9742   25.3831 H   0  0  0  0  0  0  0  0  0  0  0  0
   18.8429   19.0420   23.8921 H   0  0  0  0  0  0  0  0  0  0  0  0
   18.4421   17.9575   25.6702 N   0  3  0  0  0  0  0  0  0  0  0  0
   18.7353   17.8952   26.6506 H   0  0  0  0  0  0  0  0  0  0  0  0
   18.5546   17.0241   25.2617 H   0  0  0  0  0  0  0  0  0  0  0  0
   17.4373   18.1643   25.6722 H   0  0  0  0  0  0  0  0  0  0  0  0
  1  2  1  0  0  0  0
  1  3  1  0  0  0  0
  1  4  1  0  0  0  0
  1  5  1  0  0  0  0
  5  6  1  0  0  0  0
  5  7  1  0  0  0  0
  5  8  1  0  0  0  0
  8  9  1  0  0  0  0
  8 10  1  0  0  0  0
  8 11  1  0  0  0  0
 11 12  1  0  0  0  0
 11 13  1  0  0  0  0
 11 14  1  0  0  0  0
 14 15  1  0  0  0  0
 14 16  1  0  0  0  0
 14 17  1  0  0  0  0
 17 18  1  0  0  0  0
 17 19  1  0  0  0  0
 17 20  1  0  0  0  0
 20 21  1  0  0  0  0
 20 22  1  0  0  0  0
 20 23  1  0  0  0  0
 23 24  1  0  0  0  0
 23 25  1  0  0  0  0
 23 26  1  0  0  0  0
M  END
> <VM2 Rank>
187

> <Conf_Id>
736

> <Probability>
0.00

> <Sum Probability>
100.00

> <Delta G>
5.823

> <G>
54.085

> <E>
20.802

> <-TS>
33.283

> <U+W>
-0.660

> <U>
53.727

> <W>
-54.387

> <W(PB)>
-56.587

> <W(SA)>
2.200

> <Valence>
7.057

> <Coulomb>
46.464

> <VdW>
0.207

> <VdW6>
-9.122

> <VdW12>
9.329

> <Bond>
0.248

> <Angle>
1.758

> <Pdih>
5.050

> <Idih>
0.000

> <Tether>
0.000

$$$$
VeraChem MOL file


 26 25  0  0  0  0  0  0  0  0999 V2000     
   18.5124   18.5816   20.7935 C   0  0  0  0  0  0  0  0  0  0  0  0
   18.1400   19.5127   21.2379 H   0  0  0  0  0  0  0  0  0  0  0  0
   18.0679   18.4957   19.7934 H   0  0  0  0  0  0  0  0  0  0  0  0
   18.1467   17.7385   21.3933 H   0  0  0  0  0  0  0  0  0  0  0  0
   20.0553   18.5711   20.6981 C   0  0  0  0  0  0  0  0  0  0  0  0
   20.3959   19.4306   20.1039 H   0  0  0  0  0  0  0  0  0  0  0  0
   20.3687   17.6735   20.1469 H   0  0  0  0  0  0  0  0  0  0  0  0
   20.7561   18.5764   22.0774 C   0  0  0  0  0  0  0  0  0  0  0  0
   20.4109   17.7121   22.6578 H   0  0  0  0  0  0  0  0  0  0  0  0
   21.8339   18.4291   21.9228 H   0  0  0  0  0  0  0  0  0  0  0  0
   20.5413   19.8917   22.8687 C   0  0  0  0  0  0  0  0  0  0  0  0
   19.4756   20.0755   23.0449 H   0  0  0  0  0  0  0  0  0  0  0  0
   20.8862   20.7325   22.2511 H   0  0  0  0  0  0  0  0  0  0  0  0
   21.3066   19.9340   24.2156 C   0  0  0  0  0  0  0  0  0  0  0  0
   22.3846   19.8757   24.0114 H   0  0  0  0  0  0  0  0  0  0  0  0
   21.1441   20.9169   24.6791 H   0  0  0  0  0  0  0  0  0  0  0  0
   20.9372   18.8319   25.2450 C   0  0  0  0  0  0  0  0  0  0  0  0
   21.5615   18.9849   26.1353 H   0  0  0  0  0  0  0  0  0  0  0  0
   21.2032   17.8369   24.8663 H   0  0  0  0  0  0  0  0  0  0  0  0
   19.4625   18.8530   25.6983 C   0  0  0  0  0  0  0  0  0  0  0  0
   19.3762   18.3450   26.6626 H   0  0  0  0  0  0  0  0  0  0  0  0
   19.1316   19.8868   25.8288 H   0  0  0  0  0  0  0  0  0  0  0  0
   18.5096   18.1593   24.7444 N   0  3  0  0  0  0  0  0  0  0  0  0
   17.5353   18.2381   25.0562 H   0  0  0  0  0  0  0  0  0  0  0  0
   18.7180   17.1586   24.6648 H   0  0  0  0  0  0  0  0  0  0  0  0
   18.5662   18.5584   23.8023 H   0  0  0  0  0  0  0  0  0  0  0  0
  1  2  1  0  0  0  0
  1  3  1  0  0  0  0
  1  4  1  0  0  0  0
  1  5  1  0  0  0  0
  5  6  1  0  0  0  0
  5  7  1  0  0  0  0
  5  8  1  0  0  0  0
  8  9  1  0  0  0  0
  8 10  1  0  0  0  0
  8 11  1  0  0  0  0
 11 12  1  0  0  0  0
 11 13  1  0  0  0  0
 11 14  1  0  0  0  0
 14 15  1  0  0  0  0
 14 16  1  0  0  0  0
 14 17  1  0  0  0  0
 17 18  1  0  0  0  0
 17 19  1  0  0  0  0
 17 20  1  0  0  0  0
 20 21  1  0  0  0  0
 20 22  1  0  0  0  0
 20 23  1  0  0  0  0
 23 24  1  0  0  0  0
 23 25  1  0  0  0  0
 23 26  1  0  0  0  0
M  END
> <VM2 Rank>
188

> <Conf_Id>
1101

> <Probability>
0.00

> <Sum Probability>
100.00

> <Delta G>
6.011

> <G>
54.273

> <E>
20.896

> <-TS>
33.377

> <U+W>
-0.566

> <U>
52.431

> <W>
-52.997

> <W(PB)>
-55.181

> <W(SA)>
2.184

> <Valence>
4.698

> <Coulomb>
47.457

> <VdW>
0.276

> <VdW6>
-9.682

> <VdW12>
9.958

> <Bond>
0.267

> <Angle>
1.656

> <Pdih>
2.774

> <Idih>
0.000

> <Tether>
0.000

$$$$
VeraChem MOL file


 26 25  0  0  0  0  0  0  0  0999 V2000     
   19.2291   19.5563   20.1675 C   0  0  0  0  0  0  0  0  0  0  0  0
   19.9772   20.1007   19.5767 H   0  0  0  0  0  0  0  0  0  0  0  0
   18.3737   19.3495   19.5115 H   0  0  0  0  0  0  0  0  0  0  0  0
   18.8799   20.2203   20.9654 H   0  0  0  0  0  0  0  0  0  0  0  0
   19.8158   18.2368   20.7211 C   0  0  0  0  0  0  0  0  0  0  0  0
   20.0956   17.6073   19.8648 H   0  0  0  0  0  0  0  0  0  0  0  0
   19.0451   17.6767   21.2687 H   0  0  0  0  0  0  0  0  0  0  0  0
   21.0693   18.4400   21.6112 C   0  0  0  0  0  0  0  0  0  0  0  0
   21.7347   17.5783   21.4624 H   0  0  0  0  0  0  0  0  0  0  0  0
   21.6398   19.3153   21.2714 H   0  0  0  0  0  0  0  0  0  0  0  0
   20.7800   18.5460   23.1309 C   0  0  0  0  0  0  0  0  0  0  0  0
   21.7419   18.5916   23.6600 H   0  0  0  0  0  0  0  0  0  0  0  0
   20.2817   17.6250   23.4583 H   0  0  0  0  0  0  0  0  0  0  0  0
   19.9254   19.7728   23.5303 C   0  0  0  0  0  0  0  0  0  0  0  0
   20.3123   20.6602   23.0109 H   0  0  0  0  0  0  0  0  0  0  0  0
   18.8932   19.6309   23.1840 H   0  0  0  0  0  0  0  0  0  0  0  0
   19.9086   20.0718   25.0512 C   0  0  0  0  0  0  0  0  0  0  0  0
   19.3556   21.0081   25.2039 H   0  0  0  0  0  0  0  0  0  0  0  0
   20.9271   20.2608   25.4158 H   0  0  0  0  0  0  0  0  0  0  0  0
   19.2327   18.9825   25.9096 C   0  0  0  0  0  0  0  0  0  0  0  0
   18.9371   19.4175   26.8682 H   0  0  0  0  0  0  0  0  0  0  0  0
   18.3304   18.6221   25.4084 H   0  0  0  0  0  0  0  0  0  0  0  0
   20.1200   17.7927   26.2192 N   0  3  0  0  0  0  0  0  0  0  0  0
   19.6330   17.0940   26.7910 H   0  0  0  0  0  0  0  0  0  0  0  0
   20.9594   18.0706   26.7381 H   0  0  0  0  0  0  0  0  0  0  0  0
   20.4333   17.3208   25.3665 H   0  0  0  0  0  0  0  0  0  0  0  0
  1  2  1  0  0  0  0
  1  3  1  0  0  0  0
  1  4  1  0  0  0  0
  1  5  1  0  0  0  0
  5  6  1  0  0  0  0
  5  7  1  0  0  0  0
  5  8  1  0  0  0  0
  8  9  1  0  0  0  0
  8 10  1  0  0  0  0
  8 11  1  0  0  0  0
 11 12  1  0  0  0  0
 11 13  1  0  0  0  0
 11 14  1  0  0  0  0
 14 15  1  0  0  0  0
 14 16  1  0  0  0  0
 14 17  1  0  0  0  0
 17 18  1  0  0  0  0
 17 19  1  0  0  0  0
 17 20  1  0  0  0  0
 20 21  1  0  0  0  0
 20 22  1  0  0  0  0
 20 23  1  0  0  0  0
 23 24  1  0  0  0  0
 23 25  1  0  0  0  0
 23 26  1  0  0  0  0
M  END
> <VM2 Rank>
189

> <Conf_Id>
1365

> <Probability>
0.00

> <Sum Probability>
100.00

> <Delta G>
6.033

> <G>
54.294

> <E>
21.435

> <-TS>
32.859

> <U+W>
-0.027

> <U>
53.913

> <W>
-53.940

> <W(PB)>
-56.167

> <W(SA)>
2.227

> <Valence>
6.633

> <Coulomb>
46.628

> <VdW>
0.652

> <VdW6>
-8.843

> <VdW12>
9.495

> <Bond>
0.271

> <Angle>
1.731

> <Pdih>
4.631

> <Idih>
0.000

> <Tether>
0.000

$$$$
VeraChem MOL file


 26 25  0  0  0  0  0  0  0  0999 V2000     
   20.0715   18.2247   20.2193 C   0  0  0  0  0  0  0  0  0  0  0  0
   19.0108   18.1173   20.4786 H   0  0  0  0  0  0  0  0  0  0  0  0
   20.1752   19.0784   19.5372 H   0  0  0  0  0  0  0  0  0  0  0  0
   20.3709   17.3204   19.6738 H   0  0  0  0  0  0  0  0  0  0  0  0
   20.9456   18.4108   21.4798 C   0  0  0  0  0  0  0  0  0  0  0  0
   22.0030   18.3853   21.1810 H   0  0  0  0  0  0  0  0  0  0  0  0
   20.8047   17.5555   22.1517 H   0  0  0  0  0  0  0  0  0  0  0  0
   20.6788   19.7442   22.2257 C   0  0  0  0  0  0  0  0  0  0  0  0
   21.3699   19.8250   23.0717 H   0  0  0  0  0  0  0  0  0  0  0  0
   20.9481   20.5723   21.5558 H   0  0  0  0  0  0  0  0  0  0  0  0
   19.2162   19.9667   22.7020 C   0  0  0  0  0  0  0  0  0  0  0  0
   18.5667   19.9993   21.8174 H   0  0  0  0  0  0  0  0  0  0  0  0
   19.1325   20.9650   23.1528 H   0  0  0  0  0  0  0  0  0  0  0  0
   18.6470   18.9113   23.6898 C   0  0  0  0  0  0  0  0  0  0  0  0
   17.5536   18.9157   23.5823 H   0  0  0  0  0  0  0  0  0  0  0  0
   18.9542   17.8976   23.4073 H   0  0  0  0  0  0  0  0  0  0  0  0
   18.9554   19.1806   25.1871 C   0  0  0  0  0  0  0  0  0  0  0  0
   18.4169   18.4436   25.7976 H   0  0  0  0  0  0  0  0  0  0  0  0
   18.5472   20.1602   25.4688 H   0  0  0  0  0  0  0  0  0  0  0  0
   20.4463   19.1413   25.5728 C   0  0  0  0  0  0  0  0  0  0  0  0
   20.9855   19.9337   25.0496 H   0  0  0  0  0  0  0  0  0  0  0  0
   20.5456   19.3215   26.6466 H   0  0  0  0  0  0  0  0  0  0  0  0
   21.1202   17.8195   25.2646 N   0  3  0  0  0  0  0  0  0  0  0  0
   21.0840   17.6083   24.2632 H   0  0  0  0  0  0  0  0  0  0  0  0
   20.6714   17.0413   25.7586 H   0  0  0  0  0  0  0  0  0  0  0  0
   22.1079   17.8217   25.5417 H   0  0  0  0  0  0  0  0  0  0  0  0
  1  2  1  0  0  0  0
  1  3  1  0  0  0  0
  1  4  1  0  0  0  0
  1  5  1  0  0  0  0
  5  6  1  0  0  0  0
  5  7  1  0  0  0  0
  5  8  1  0  0  0  0
  8  9  1  0  0  0  0
  8 10  1  0  0  0  0
  8 11  1  0  0  0  0
 11 12  1  0  0  0  0
 11 13  1  0  0  0  0
 11 14  1  0  0  0  0
 14 15  1  0  0  0  0
 14 16  1  0  0  0  0
 14 17  1  0  0  0  0
 17 18  1  0  0  0  0
 17 19  1  0  0  0  0
 17 20  1  0  0  0  0
 20 21  1  0  0  0  0
 20 22  1  0  0  0  0
 20 23  1  0  0  0  0
 23 24  1  0  0  0  0
 23 25  1  0  0  0  0
 23 26  1  0  0  0  0
M  END
> <VM2 Rank>
190

> <Conf_Id>
798

> <Probability>
0.00

> <Sum Probability>
100.00

> <Delta G>
6.093

> <G>
54.355

> <E>
20.888

> <-TS>
33.466

> <U+W>
-0.573

> <U>
53.513

> <W>
-54.087

> <W(PB)>
-56.257

> <W(SA)>
2.170

> <Valence>
6.042

> <Coulomb>
47.147

> <VdW>
0.324

> <VdW6>
-10.118

> <VdW12>
10.442

> <Bond>
0.350

> <Angle>
2.482

> <Pdih>
3.210

> <Idih>
0.000

> <Tether>
0.000

$$$$
VeraChem MOL file


 26 25  0  0  0  0  0  0  0  0999 V2000     
   19.0626   18.6109   20.3313 C   0  0  0  0  0  0  0  0  0  0  0  0
   18.6962   19.6439   20.2726 H   0  0  0  0  0  0  0  0  0  0  0  0
   18.7566   18.0936   19.4127 H   0  0  0  0  0  0  0  0  0  0  0  0
   18.5649   18.1103   21.1711 H   0  0  0  0  0  0  0  0  0  0  0  0
   20.5987   18.5729   20.4857 C   0  0  0  0  0  0  0  0  0  0  0  0
   21.0555   18.9498   19.5599 H   0  0  0  0  0  0  0  0  0  0  0  0
   20.9289   17.5294   20.5846 H   0  0  0  0  0  0  0  0  0  0  0  0
   21.1414   19.4038   21.6766 C   0  0  0  0  0  0  0  0  0  0  0  0
   22.2381   19.3420   21.6498 H   0  0  0  0  0  0  0  0  0  0  0  0
   20.9014   20.4669   21.5371 H   0  0  0  0  0  0  0  0  0  0  0  0
   20.6631   18.9218   23.0711 C   0  0  0  0  0  0  0  0  0  0  0  0
   21.4926   19.0593   23.7759 H   0  0  0  0  0  0  0  0  0  0  0  0
   20.4493   17.8446   23.0415 H   0  0  0  0  0  0  0  0  0  0  0  0
   19.4357   19.7058   23.6009 C   0  0  0  0  0  0  0  0  0  0  0  0
   19.7289   20.7454   23.8021 H   0  0  0  0  0  0  0  0  0  0  0  0
   18.6654   19.7585   22.8223 H   0  0  0  0  0  0  0  0  0  0  0  0
   18.7903   19.0992   24.8730 C   0  0  0  0  0  0  0  0  0  0  0  0
   18.4404   18.0776   24.6737 H   0  0  0  0  0  0  0  0  0  0  0  0
   17.8915   19.6853   25.1064 H   0  0  0  0  0  0  0  0  0  0  0  0
   19.6972   19.1136   26.1211 C   0  0  0  0  0  0  0  0  0  0  0  0
   20.2473   20.0572   26.1692 H   0  0  0  0  0  0  0  0  0  0  0  0
   19.0726   19.0395   27.0155 H   0  0  0  0  0  0  0  0  0  0  0  0
   20.6921   17.9710   26.1814 N   0  3  0  0  0  0  0  0  0  0  0  0
   21.3238   17.9745   25.3758 H   0  0  0  0  0  0  0  0  0  0  0  0
   20.2226   17.0597   26.1946 H   0  0  0  0  0  0  0  0  0  0  0  0
   21.2751   18.0188   27.0242 H   0  0  0  0  0  0  0  0  0  0  0  0
  1  2  1  0  0  0  0
  1  3  1  0  0  0  0
  1  4  1  0  0  0  0
  1  5  1  0  0  0  0
  5  6  1  0  0  0  0
  5  7  1  0  0  0  0
  5  8  1  0  0  0  0
  8  9  1  0  0  0  0
  8 10  1  0  0  0  0
  8 11  1  0  0  0  0
 11 12  1  0  0  0  0
 11 13  1  0  0  0  0
 11 14  1  0  0  0  0
 14 15  1  0  0  0  0
 14 16  1  0  0  0  0
 14 17  1  0  0  0  0
 17 18  1  0  0  0  0
 17 19  1  0  0  0  0
 17 20  1  0  0  0  0
 20 21  1  0  0  0  0
 20 22  1  0  0  0  0
 20 23  1  0  0  0  0
 23 24  1  0  0  0  0
 23 25  1  0  0  0  0
 23 26  1  0  0  0  0
M  END
> <VM2 Rank>
191

> <Conf_Id>
847

> <Probability>
0.00

> <Sum Probability>
100.00

> <Delta G>
6.130

> <G>
54.391

> <E>
21.444

> <-TS>
32.947

> <U+W>
-0.018

> <U>
54.015

> <W>
-54.033

> <W(PB)>
-56.244

> <W(SA)>
2.211

> <Valence>
6.748

> <Coulomb>
46.597

> <VdW>
0.670

> <VdW6>
-8.868

> <VdW12>
9.538

> <Bond>
0.273

> <Angle>
1.645

> <Pdih>
4.830

> <Idih>
0.000

> <Tether>
0.000

$$$$
VeraChem MOL file


 26 25  0  0  0  0  0  0  0  0999 V2000     
   18.4164   18.5603   21.3572 C   0  0  0  0  0  0  0  0  0  0  0  0
   18.3119   18.9502   22.3751 H   0  0  0  0  0  0  0  0  0  0  0  0
   18.0304   19.3201   20.6653 H   0  0  0  0  0  0  0  0  0  0  0  0
   17.7731   17.6751   21.2717 H   0  0  0  0  0  0  0  0  0  0  0  0
   19.8814   18.1997   21.0165 C   0  0  0  0  0  0  0  0  0  0  0  0
   19.9001   17.8129   19.9880 H   0  0  0  0  0  0  0  0  0  0  0  0
   20.2372   17.3765   21.6504 H   0  0  0  0  0  0  0  0  0  0  0  0
   20.8497   19.4065   21.1035 C   0  0  0  0  0  0  0  0  0  0  0  0
   21.6144   19.2782   20.3249 H   0  0  0  0  0  0  0  0  0  0  0  0
   20.3224   20.3348   20.8442 H   0  0  0  0  0  0  0  0  0  0  0  0
   21.5960   19.5773   22.4547 C   0  0  0  0  0  0  0  0  0  0  0  0
   22.3226   20.3910   22.3232 H   0  0  0  0  0  0  0  0  0  0  0  0
   22.1962   18.6824   22.6695 H   0  0  0  0  0  0  0  0  0  0  0  0
   20.7049   19.9320   23.6723 C   0  0  0  0  0  0  0  0  0  0  0  0
   21.2659   20.6150   24.3255 H   0  0  0  0  0  0  0  0  0  0  0  0
   19.8201   20.4930   23.3428 H   0  0  0  0  0  0  0  0  0  0  0  0
   20.2936   18.6997   24.5131 C   0  0  0  0  0  0  0  0  0  0  0  0
   21.1935   18.2085   24.9065 H   0  0  0  0  0  0  0  0  0  0  0  0
   19.7785   17.9608   23.8895 H   0  0  0  0  0  0  0  0  0  0  0  0
   19.3798   19.1006   25.6843 C   0  0  0  0  0  0  0  0  0  0  0  0
   19.8985   19.8166   26.3275 H   0  0  0  0  0  0  0  0  0  0  0  0
   18.4749   19.5775   25.2982 H   0  0  0  0  0  0  0  0  0  0  0  0
   18.9591   17.9228   26.5393 N   0  3  0  0  0  0  0  0  0  0  0  0
   18.3516   18.2123   27.3136 H   0  0  0  0  0  0  0  0  0  0  0  0
   19.7656   17.4457   26.9555 H   0  0  0  0  0  0  0  0  0  0  0  0
   18.4404   17.2234   25.9983 H   0  0  0  0  0  0  0  0  0  0  0  0
  1  2  1  0  0  0  0
  1  3  1  0  0  0  0
  1  4  1  0  0  0  0
  1  5  1  0  0  0  0
  5  6  1  0  0  0  0
  5  7  1  0  0  0  0
  5  8  1  0  0  0  0
  8  9  1  0  0  0  0
  8 10  1  0  0  0  0
  8 11  1  0  0  0  0
 11 12  1  0  0  0  0
 11 13  1  0  0  0  0
 11 14  1  0  0  0  0
 14 15  1  0  0  0  0
 14 16  1  0  0  0  0
 14 17  1  0  0  0  0
 17 18  1  0  0  0  0
 17 19  1  0  0  0  0
 17 20  1  0  0  0  0
 20 21  1  0  0  0  0
 20 22  1  0  0  0  0
 20 23  1  0  0  0  0
 23 24  1  0  0  0  0
 23 25  1  0  0  0  0
 23 26  1  0  0  0  0
M  END
> <VM2 Rank>
192

> <Conf_Id>
499

> <Probability>
0.00

> <Sum Probability>
100.00

> <Delta G>
6.216

> <G>
54.478

> <E>
21.258

> <-TS>
33.220

> <U+W>
-0.204

> <U>
53.883

> <W>
-54.087

> <W(PB)>
-56.325

> <W(SA)>
2.237

> <Valence>
7.744

> <Coulomb>
45.678

> <VdW>
0.461

> <VdW6>
-8.645

> <VdW12>
9.106

> <Bond>
0.266

> <Angle>
1.932

> <Pdih>
5.545

> <Idih>
0.000

> <Tether>
0.000

$$$$
VeraChem MOL file


 26 25  0  0  0  0  0  0  0  0999 V2000     
   20.9345   19.1057   19.7572 C   0  0  0  0  0  0  0  0  0  0  0  0
   21.9310   19.5205   19.5576 H   0  0  0  0  0  0  0  0  0  0  0  0
   20.8878   18.1078   19.3019 H   0  0  0  0  0  0  0  0  0  0  0  0
   20.1965   19.7452   19.2556 H   0  0  0  0  0  0  0  0  0  0  0  0
   20.6671   19.0365   21.2757 C   0  0  0  0  0  0  0  0  0  0  0  0
   20.7598   20.0454   21.6991 H   0  0  0  0  0  0  0  0  0  0  0  0
   21.4367   18.4137   21.7525 H   0  0  0  0  0  0  0  0  0  0  0  0
   19.2652   18.4614   21.5822 C   0  0  0  0  0  0  0  0  0  0  0  0
   18.4974   19.1174   21.1493 H   0  0  0  0  0  0  0  0  0  0  0  0
   19.1591   17.4920   21.0758 H   0  0  0  0  0  0  0  0  0  0  0  0
   18.9783   18.2578   23.0922 C   0  0  0  0  0  0  0  0  0  0  0  0
   19.6902   17.5330   23.5046 H   0  0  0  0  0  0  0  0  0  0  0  0
   17.9884   17.7895   23.1817 H   0  0  0  0  0  0  0  0  0  0  0  0
   18.9715   19.5696   23.9237 C   0  0  0  0  0  0  0  0  0  0  0  0
   18.6834   20.4053   23.2712 H   0  0  0  0  0  0  0  0  0  0  0  0
   18.1820   19.5134   24.6861 H   0  0  0  0  0  0  0  0  0  0  0  0
   20.3171   19.9037   24.6219 C   0  0  0  0  0  0  0  0  0  0  0  0
   20.3878   20.9940   24.7313 H   0  0  0  0  0  0  0  0  0  0  0  0
   21.1705   19.6059   24.0011 H   0  0  0  0  0  0  0  0  0  0  0  0
   20.4543   19.2893   26.0310 C   0  0  0  0  0  0  0  0  0  0  0  0
   21.3774   19.6500   26.4928 H   0  0  0  0  0  0  0  0  0  0  0  0
   19.6160   19.6141   26.6531 H   0  0  0  0  0  0  0  0  0  0  0  0
   20.4930   17.7751   26.0572 N   0  3  0  0  0  0  0  0  0  0  0  0
   20.5857   17.4135   27.0126 H   0  0  0  0  0  0  0  0  0  0  0  0
   21.2826   17.4056   25.5181 H   0  0  0  0  0  0  0  0  0  0  0  0
   19.6371   17.3721   25.6634 H   0  0  0  0  0  0  0  0  0  0  0  0
  1  2  1  0  0  0  0
  1  3  1  0  0  0  0
  1  4  1  0  0  0  0
  1  5  1  0  0  0  0
  5  6  1  0  0  0  0
  5  7  1  0  0  0  0
  5  8  1  0  0  0  0
  8  9  1  0  0  0  0
  8 10  1  0  0  0  0
  8 11  1  0  0  0  0
 11 12  1  0  0  0  0
 11 13  1  0  0  0  0
 11 14  1  0  0  0  0
 14 15  1  0  0  0  0
 14 16  1  0  0  0  0
 14 17  1  0  0  0  0
 17 18  1  0  0  0  0
 17 19  1  0  0  0  0
 17 20  1  0  0  0  0
 20 21  1  0  0  0  0
 20 22  1  0  0  0  0
 20 23  1  0  0  0  0
 23 24  1  0  0  0  0
 23 25  1  0  0  0  0
 23 26  1  0  0  0  0
M  END
> <VM2 Rank>
193

> <Conf_Id>
542

> <Probability>
0.00

> <Sum Probability>
100.00

> <Delta G>
6.230

> <G>
54.491

> <E>
21.518

> <-TS>
32.974

> <U+W>
0.056

> <U>
54.162

> <W>
-54.106

> <W(PB)>
-56.351

> <W(SA)>
2.245

> <Valence>
7.004

> <Coulomb>
46.400

> <VdW>
0.758

> <VdW6>
-8.752

> <VdW12>
9.510

> <Bond>
0.280

> <Angle>
1.396

> <Pdih>
5.328

> <Idih>
0.000

> <Tether>
0.000

$$$$
VeraChem MOL file


 26 25  0  0  0  0  0  0  0  0999 V2000     
   20.0232   20.6485   20.7085 C   0  0  0  0  0  0  0  0  0  0  0  0
   19.5161   21.2914   21.4397 H   0  0  0  0  0  0  0  0  0  0  0  0
   20.8708   21.2110   20.2959 H   0  0  0  0  0  0  0  0  0  0  0  0
   19.3225   20.4449   19.8882 H   0  0  0  0  0  0  0  0  0  0  0  0
   20.5063   19.3374   21.3633 C   0  0  0  0  0  0  0  0  0  0  0  0
   21.2360   19.5712   22.1479 H   0  0  0  0  0  0  0  0  0  0  0  0
   21.0408   18.7342   20.6161 H   0  0  0  0  0  0  0  0  0  0  0  0
   19.3261   18.5172   21.9376 C   0  0  0  0  0  0  0  0  0  0  0  0
   18.6958   19.1386   22.5873 H   0  0  0  0  0  0  0  0  0  0  0  0
   18.6830   18.2163   21.0989 H   0  0  0  0  0  0  0  0  0  0  0  0
   19.7806   17.2420   22.6922 C   0  0  0  0  0  0  0  0  0  0  0  0
   20.7453   16.8917   22.2999 H   0  0  0  0  0  0  0  0  0  0  0  0
   19.0645   16.4408   22.4622 H   0  0  0  0  0  0  0  0  0  0  0  0
   19.8504   17.3684   24.2382 C   0  0  0  0  0  0  0  0  0  0  0  0
   18.8545   17.5973   24.6389 H   0  0  0  0  0  0  0  0  0  0  0  0
   20.1009   16.3747   24.6346 H   0  0  0  0  0  0  0  0  0  0  0  0
   20.9006   18.3715   24.7846 C   0  0  0  0  0  0  0  0  0  0  0  0
   21.8211   18.3019   24.1906 H   0  0  0  0  0  0  0  0  0  0  0  0
   21.1794   18.0727   25.8039 H   0  0  0  0  0  0  0  0  0  0  0  0
   20.4237   19.8385   24.8309 C   0  0  0  0  0  0  0  0  0  0  0  0
   21.2520   20.4761   25.1516 H   0  0  0  0  0  0  0  0  0  0  0  0
   20.1107   20.1656   23.8376 H   0  0  0  0  0  0  0  0  0  0  0  0
   19.2702   20.0756   25.7857 N   0  3  0  0  0  0  0  0  0  0  0  0
   18.4427   19.5310   25.5245 H   0  0  0  0  0  0  0  0  0  0  0  0
   18.9882   21.0616   25.8052 H   0  0  0  0  0  0  0  0  0  0  0  0
   19.5131   19.8150   26.7470 H   0  0  0  0  0  0  0  0  0  0  0  0
  1  2  1  0  0  0  0
  1  3  1  0  0  0  0
  1  4  1  0  0  0  0
  1  5  1  0  0  0  0
  5  6  1  0  0  0  0
  5  7  1  0  0  0  0
  5  8  1  0  0  0  0
  8  9  1  0  0  0  0
  8 10  1  0  0  0  0
  8 11  1  0  0  0  0
 11 12  1  0  0  0  0
 11 13  1  0  0  0  0
 11 14  1  0  0  0  0
 14 15  1  0  0  0  0
 14 16  1  0  0  0  0
 14 17  1  0  0  0  0
 17 18  1  0  0  0  0
 17 19  1  0  0  0  0
 17 20  1  0  0  0  0
 20 21  1  0  0  0  0
 20 22  1  0  0  0  0
 20 23  1  0  0  0  0
 23 24  1  0  0  0  0
 23 25  1  0  0  0  0
 23 26  1  0  0  0  0
M  END
> <VM2 Rank>
194

> <Conf_Id>
1345

> <Probability>
0.00

> <Sum Probability>
100.00

> <Delta G>
6.240

> <G>
54.501

> <E>
21.134

> <-TS>
33.367

> <U+W>
-0.328

> <U>
54.016

> <W>
-54.344

> <W(PB)>
-56.553

> <W(SA)>
2.209

> <Valence>
7.241

> <Coulomb>
46.463

> <VdW>
0.312

> <VdW6>
-9.614

> <VdW12>
9.926

> <Bond>
0.277

> <Angle>
1.893

> <Pdih>
5.071

> <Idih>
0.000

> <Tether>
0.000

$$$$
VeraChem MOL file


 26 25  0  0  0  0  0  0  0  0999 V2000     
   19.6283   20.0111   20.2057 C   0  0  0  0  0  0  0  0  0  0  0  0
   20.1187   20.4995   19.3538 H   0  0  0  0  0  0  0  0  0  0  0  0
   18.5664   19.8916   19.9544 H   0  0  0  0  0  0  0  0  0  0  0  0
   19.6975   20.6906   21.0622 H   0  0  0  0  0  0  0  0  0  0  0  0
   20.2844   18.6406   20.4940 C   0  0  0  0  0  0  0  0  0  0  0  0
   21.3611   18.7629   20.6767 H   0  0  0  0  0  0  0  0  0  0  0  0
   20.2003   18.0281   19.5853 H   0  0  0  0  0  0  0  0  0  0  0  0
   19.6216   17.8746   21.6680 C   0  0  0  0  0  0  0  0  0  0  0  0
   18.5575   18.1382   21.7411 H   0  0  0  0  0  0  0  0  0  0  0  0
   19.6443   16.8019   21.4306 H   0  0  0  0  0  0  0  0  0  0  0  0
   20.3131   18.0611   23.0434 C   0  0  0  0  0  0  0  0  0  0  0  0
   21.3490   17.7005   22.9796 H   0  0  0  0  0  0  0  0  0  0  0  0
   19.8110   17.4050   23.7623 H   0  0  0  0  0  0  0  0  0  0  0  0
   20.3123   19.5203   23.5635 C   0  0  0  0  0  0  0  0  0  0  0  0
   20.9428   20.1223   22.8966 H   0  0  0  0  0  0  0  0  0  0  0  0
   19.3015   19.9474   23.5070 H   0  0  0  0  0  0  0  0  0  0  0  0
   20.8692   19.6723   25.0025 C   0  0  0  0  0  0  0  0  0  0  0  0
   21.2878   20.6828   25.1013 H   0  0  0  0  0  0  0  0  0  0  0  0
   21.7072   18.9823   25.1680 H   0  0  0  0  0  0  0  0  0  0  0  0
   19.8103   19.5081   26.1136 C   0  0  0  0  0  0  0  0  0  0  0  0
   20.2592   19.7717   27.0752 H   0  0  0  0  0  0  0  0  0  0  0  0
   18.9789   20.1940   25.9306 H   0  0  0  0  0  0  0  0  0  0  0  0
   19.2418   18.1109   26.2502 N   0  3  0  0  0  0  0  0  0  0  0  0
   18.7542   17.8194   25.3978 H   0  0  0  0  0  0  0  0  0  0  0  0
   18.5659   18.0493   27.0195 H   0  0  0  0  0  0  0  0  0  0  0  0
   19.9743   17.4188   26.4378 H   0  0  0  0  0  0  0  0  0  0  0  0
  1  2  1  0  0  0  0
  1  3  1  0  0  0  0
  1  4  1  0  0  0  0
  1  5  1  0  0  0  0
  5  6  1  0  0  0  0
  5  7  1  0  0  0  0
  5  8  1  0  0  0  0
  8  9  1  0  0  0  0
  8 10  1  0  0  0  0
  8 11  1  0  0  0  0
 11 12  1  0  0  0  0
 11 13  1  0  0  0  0
 11 14  1  0  0  0  0
 14 15  1  0  0  0  0
 14 16  1  0  0  0  0
 14 17  1  0  0  0  0
 17 18  1  0  0  0  0
 17 19  1  0  0  0  0
 17 20  1  0  0  0  0
 20 21  1  0  0  0  0
 20 22  1  0  0  0  0
 20 23  1  0  0  0  0
 23 24  1  0  0  0  0
 23 25  1  0  0  0  0
 23 26  1  0  0  0  0
M  END
> <VM2 Rank>
195

> <Conf_Id>
837

> <Probability>
0.00

> <Sum Probability>
100.00

> <Delta G>
6.251

> <G>
54.512

> <E>
21.880

> <-TS>
32.632

> <U+W>
0.418

> <U>
54.286

> <W>
-53.868

> <W(PB)>
-56.110

> <W(SA)>
2.242

> <Valence>
7.201

> <Coulomb>
46.253

> <VdW>
0.832

> <VdW6>
-8.603

> <VdW12>
9.435

> <Bond>
0.281

> <Angle>
1.744

> <Pdih>
5.177

> <Idih>
0.000

> <Tether>
0.000

$$$$
VeraChem MOL file


 26 25  0  0  0  0  0  0  0  0999 V2000     
   20.8091   19.7618   20.3897 C   0  0  0  0  0  0  0  0  0  0  0  0
   20.0074   20.5079   20.3164 H   0  0  0  0  0  0  0  0  0  0  0  0
   21.4252   19.9955   21.2669 H   0  0  0  0  0  0  0  0  0  0  0  0
   21.4473   19.8667   19.5029 H   0  0  0  0  0  0  0  0  0  0  0  0
   20.2326   18.3315   20.4735 C   0  0  0  0  0  0  0  0  0  0  0  0
   21.0563   17.6133   20.5890 H   0  0  0  0  0  0  0  0  0  0  0  0
   19.7501   18.0894   19.5163 H   0  0  0  0  0  0  0  0  0  0  0  0
   19.2007   18.1248   21.6118 C   0  0  0  0  0  0  0  0  0  0  0  0
   18.3254   18.7691   21.4509 H   0  0  0  0  0  0  0  0  0  0  0  0
   18.8274   17.0941   21.5358 H   0  0  0  0  0  0  0  0  0  0  0  0
   19.7664   18.3309   23.0411 C   0  0  0  0  0  0  0  0  0  0  0  0
   20.8410   18.1030   23.0547 H   0  0  0  0  0  0  0  0  0  0  0  0
   19.2812   17.6018   23.7020 H   0  0  0  0  0  0  0  0  0  0  0  0
   19.5043   19.7512   23.6032 C   0  0  0  0  0  0  0  0  0  0  0  0
   19.7950   20.5032   22.8601 H   0  0  0  0  0  0  0  0  0  0  0  0
   18.4249   19.8861   23.7586 H   0  0  0  0  0  0  0  0  0  0  0  0
   20.2558   20.0654   24.9220 C   0  0  0  0  0  0  0  0  0  0  0  0
   20.0598   21.1149   25.1790 H   0  0  0  0  0  0  0  0  0  0  0  0
   21.3408   19.9899   24.7706 H   0  0  0  0  0  0  0  0  0  0  0  0
   19.8282   19.1998   26.1254 C   0  0  0  0  0  0  0  0  0  0  0  0
   20.1000   19.7166   27.0498 H   0  0  0  0  0  0  0  0  0  0  0  0
   18.7433   19.0652   26.1188 H   0  0  0  0  0  0  0  0  0  0  0  0
   20.4840   17.8335   26.1742 N   0  3  0  0  0  0  0  0  0  0  0  0
   21.5048   17.9050   26.2373 H   0  0  0  0  0  0  0  0  0  0  0  0
   20.2701   17.2795   25.3403 H   0  0  0  0  0  0  0  0  0  0  0  0
   20.1718   17.2910   26.9870 H   0  0  0  0  0  0  0  0  0  0  0  0
  1  2  1  0  0  0  0
  1  3  1  0  0  0  0
  1  4  1  0  0  0  0
  1  5  1  0  0  0  0
  5  6  1  0  0  0  0
  5  7  1  0  0  0  0
  5  8  1  0  0  0  0
  8  9  1  0  0  0  0
  8 10  1  0  0  0  0
  8 11  1  0  0  0  0
 11 12  1  0  0  0  0
 11 13  1  0  0  0  0
 11 14  1  0  0  0  0
 14 15  1  0  0  0  0
 14 16  1  0  0  0  0
 14 17  1  0  0  0  0
 17 18  1  0  0  0  0
 17 19  1  0  0  0  0
 17 20  1  0  0  0  0
 20 21  1  0  0  0  0
 20 22  1  0  0  0  0
 20 23  1  0  0  0  0
 23 24  1  0  0  0  0
 23 25  1  0  0  0  0
 23 26  1  0  0  0  0
M  END
> <VM2 Rank>
196

> <Conf_Id>
816

> <Probability>
0.00

> <Sum Probability>
100.00

> <Delta G>
6.268

> <G>
54.530

> <E>
21.582

> <-TS>
32.948

> <U+W>
0.120

> <U>
54.015

> <W>
-53.894

> <W(PB)>
-56.155

> <W(SA)>
2.260

> <Valence>
6.748

> <Coulomb>
46.597

> <VdW>
0.670

> <VdW6>
-8.868

> <VdW12>
9.538

> <Bond>
0.273

> <Angle>
1.645

> <Pdih>
4.830

> <Idih>
0.000

> <Tether>
0.000

$$$$
VeraChem MOL file


 26 25  0  0  0  0  0  0  0  0999 V2000     
   21.0608   20.3044   21.4457 C   0  0  0  0  0  0  0  0  0  0  0  0
   20.6964   20.5227   22.4550 H   0  0  0  0  0  0  0  0  0  0  0  0
   22.1304   20.5490   21.4174 H   0  0  0  0  0  0  0  0  0  0  0  0
   20.5466   20.9798   20.7497 H   0  0  0  0  0  0  0  0  0  0  0  0
   20.8327   18.8272   21.0484 C   0  0  0  0  0  0  0  0  0  0  0  0
   21.4196   18.1563   21.6899 H   0  0  0  0  0  0  0  0  0  0  0  0
   21.2285   18.6892   20.0324 H   0  0  0  0  0  0  0  0  0  0  0  0
   19.3400   18.4107   21.0531 C   0  0  0  0  0  0  0  0  0  0  0  0
   18.7065   19.2689   20.7901 H   0  0  0  0  0  0  0  0  0  0  0  0
   19.1939   17.6817   20.2440 H   0  0  0  0  0  0  0  0  0  0  0  0
   18.8272   17.7511   22.3621 C   0  0  0  0  0  0  0  0  0  0  0  0
   19.4034   16.8405   22.5761 H   0  0  0  0  0  0  0  0  0  0  0  0
   17.8006   17.4085   22.1720 H   0  0  0  0  0  0  0  0  0  0  0  0
   18.7945   18.6720   23.6085 C   0  0  0  0  0  0  0  0  0  0  0  0
   18.6421   19.7160   23.3034 H   0  0  0  0  0  0  0  0  0  0  0  0
   17.9166   18.4060   24.2135 H   0  0  0  0  0  0  0  0  0  0  0  0
   20.0487   18.5382   24.5050 C   0  0  0  0  0  0  0  0  0  0  0  0
   20.9588   18.7388   23.9290 H   0  0  0  0  0  0  0  0  0  0  0  0
   20.1281   17.5060   24.8712 H   0  0  0  0  0  0  0  0  0  0  0  0
   19.9850   19.4998   25.7043 C   0  0  0  0  0  0  0  0  0  0  0  0
   19.9205   20.5308   25.3462 H   0  0  0  0  0  0  0  0  0  0  0  0
   19.0936   19.2863   26.3004 H   0  0  0  0  0  0  0  0  0  0  0  0
   21.1921   19.3955   26.6139 N   0  3  0  0  0  0  0  0  0  0  0  0
   21.2939   18.4540   27.0069 H   0  0  0  0  0  0  0  0  0  0  0  0
   21.1289   20.0442   27.4062 H   0  0  0  0  0  0  0  0  0  0  0  0
   22.0635   19.6124   26.1193 H   0  0  0  0  0  0  0  0  0  0  0  0
  1  2  1  0  0  0  0
  1  3  1  0  0  0  0
  1  4  1  0  0  0  0
  1  5  1  0  0  0  0
  5  6  1  0  0  0  0
  5  7  1  0  0  0  0
  5  8  1  0  0  0  0
  8  9  1  0  0  0  0
  8 10  1  0  0  0  0
  8 11  1  0  0  0  0
 11 12  1  0  0  0  0
 11 13  1  0  0  0  0
 11 14  1  0  0  0  0
 14 15  1  0  0  0  0
 14 16  1  0  0  0  0
 14 17  1  0  0  0  0
 17 18  1  0  0  0  0
 17 19  1  0  0  0  0
 17 20  1  0  0  0  0
 20 21  1  0  0  0  0
 20 22  1  0  0  0  0
 20 23  1  0  0  0  0
 23 24  1  0  0  0  0
 23 25  1  0  0  0  0
 23 26  1  0  0  0  0
M  END
> <VM2 Rank>
197

> <Conf_Id>
377

> <Probability>
0.00

> <Sum Probability>
100.00

> <Delta G>
6.313

> <G>
54.575

> <E>
21.354

> <-TS>
33.221

> <U+W>
-0.108

> <U>
53.883

> <W>
-53.991

> <W(PB)>
-56.255

> <W(SA)>
2.264

> <Valence>
7.743

> <Coulomb>
45.678

> <VdW>
0.462

> <VdW6>
-8.645

> <VdW12>
9.107

> <Bond>
0.266

> <Angle>
1.932

> <Pdih>
5.545

> <Idih>
0.000

> <Tether>
0.000

$$$$
VeraChem MOL file


 26 25  0  0  0  0  0  0  0  0999 V2000     
   18.5887   19.5981   21.1541 C   0  0  0  0  0  0  0  0  0  0  0  0
   18.5295   19.8207   22.2245 H   0  0  0  0  0  0  0  0  0  0  0  0
   18.7820   20.5401   20.6248 H   0  0  0  0  0  0  0  0  0  0  0  0
   17.6037   19.2335   20.8352 H   0  0  0  0  0  0  0  0  0  0  0  0
   19.6822   18.5523   20.8337 C   0  0  0  0  0  0  0  0  0  0  0  0
   19.6670   18.3745   19.7493 H   0  0  0  0  0  0  0  0  0  0  0  0
   19.4437   17.5855   21.2970 H   0  0  0  0  0  0  0  0  0  0  0  0
   21.1086   19.0066   21.2346 C   0  0  0  0  0  0  0  0  0  0  0  0
   21.8109   18.5865   20.5014 H   0  0  0  0  0  0  0  0  0  0  0  0
   21.2007   20.0968   21.1353 H   0  0  0  0  0  0  0  0  0  0  0  0
   21.5912   18.5566   22.6405 C   0  0  0  0  0  0  0  0  0  0  0  0
   22.6487   18.8424   22.7269 H   0  0  0  0  0  0  0  0  0  0  0  0
   21.5791   17.4602   22.7105 H   0  0  0  0  0  0  0  0  0  0  0  0
   20.8338   19.1804   23.8403 C   0  0  0  0  0  0  0  0  0  0  0  0
   21.5584   19.3583   24.6462 H   0  0  0  0  0  0  0  0  0  0  0  0
   20.4407   20.1685   23.5660 H   0  0  0  0  0  0  0  0  0  0  0  0
   19.7053   18.2721   24.3912 C   0  0  0  0  0  0  0  0  0  0  0  0
   20.1346   17.3380   24.7770 H   0  0  0  0  0  0  0  0  0  0  0  0
   19.0219   17.9839   23.5848 H   0  0  0  0  0  0  0  0  0  0  0  0
   18.8835   18.9544   25.5015 C   0  0  0  0  0  0  0  0  0  0  0  0
   18.4553   19.8862   25.1222 H   0  0  0  0  0  0  0  0  0  0  0  0
   18.0616   18.2980   25.7999 H   0  0  0  0  0  0  0  0  0  0  0  0
   19.6878   19.2786   26.7451 N   0  3  0  0  0  0  0  0  0  0  0  0
   19.1097   19.7204   27.4681 H   0  0  0  0  0  0  0  0  0  0  0  0
   20.4581   19.9229   26.5414 H   0  0  0  0  0  0  0  0  0  0  0  0
   20.0985   18.4372   27.1627 H   0  0  0  0  0  0  0  0  0  0  0  0
  1  2  1  0  0  0  0
  1  3  1  0  0  0  0
  1  4  1  0  0  0  0
  1  5  1  0  0  0  0
  5  6  1  0  0  0  0
  5  7  1  0  0  0  0
  5  8  1  0  0  0  0
  8  9  1  0  0  0  0
  8 10  1  0  0  0  0
  8 11  1  0  0  0  0
 11 12  1  0  0  0  0
 11 13  1  0  0  0  0
 11 14  1  0  0  0  0
 14 15  1  0  0  0  0
 14 16  1  0  0  0  0
 14 17  1  0  0  0  0
 17 18  1  0  0  0  0
 17 19  1  0  0  0  0
 17 20  1  0  0  0  0
 20 21  1  0  0  0  0
 20 22  1  0  0  0  0
 20 23  1  0  0  0  0
 23 24  1  0  0  0  0
 23 25  1  0  0  0  0
 23 26  1  0  0  0  0
M  END
> <VM2 Rank>
198

> <Conf_Id>
796

> <Probability>
0.00

> <Sum Probability>
100.00

> <Delta G>
6.540

> <G>
54.802

> <E>
21.466

> <-TS>
33.336

> <U+W>
0.004

> <U>
54.063

> <W>
-54.059

> <W(PB)>
-56.251

> <W(SA)>
2.192

> <Valence>
7.875

> <Coulomb>
45.591

> <VdW>
0.597

> <VdW6>
-9.142

> <VdW12>
9.739

> <Bond>
0.290

> <Angle>
1.958

> <Pdih>
5.626

> <Idih>
0.000

> <Tether>
0.000

$$$$
VeraChem MOL file


 26 25  0  0  0  0  0  0  0  0999 V2000     
   19.7072   20.4948   21.3361 C   0  0  0  0  0  0  0  0  0  0  0  0
   18.6715   20.1524   21.4380 H   0  0  0  0  0  0  0  0  0  0  0  0
   20.0367   20.9209   22.2915 H   0  0  0  0  0  0  0  0  0  0  0  0
   19.7064   21.3028   20.5931 H   0  0  0  0  0  0  0  0  0  0  0  0
   20.6361   19.3496   20.8790 C   0  0  0  0  0  0  0  0  0  0  0  0
   21.5930   19.7871   20.5617 H   0  0  0  0  0  0  0  0  0  0  0  0
   20.2124   18.8711   19.9851 H   0  0  0  0  0  0  0  0  0  0  0  0
   20.9322   18.2735   21.9558 C   0  0  0  0  0  0  0  0  0  0  0  0
   21.6734   17.5883   21.5218 H   0  0  0  0  0  0  0  0  0  0  0  0
   21.4376   18.7200   22.8185 H   0  0  0  0  0  0  0  0  0  0  0  0
   19.7171   17.4134   22.3987 C   0  0  0  0  0  0  0  0  0  0  0  0
   20.0996   16.4435   22.7456 H   0  0  0  0  0  0  0  0  0  0  0  0
   19.0993   17.1836   21.5198 H   0  0  0  0  0  0  0  0  0  0  0  0
   18.8114   17.9869   23.5240 C   0  0  0  0  0  0  0  0  0  0  0  0
   18.2900   18.8929   23.1967 H   0  0  0  0  0  0  0  0  0  0  0  0
   18.0159   17.2502   23.7024 H   0  0  0  0  0  0  0  0  0  0  0  0
   19.5286   18.2428   24.8739 C   0  0  0  0  0  0  0  0  0  0  0  0
   20.3577   17.5347   25.0044 H   0  0  0  0  0  0  0  0  0  0  0  0
   18.8207   18.0433   25.6894 H   0  0  0  0  0  0  0  0  0  0  0  0
   20.0309   19.6919   25.0236 C   0  0  0  0  0  0  0  0  0  0  0  0
   20.7399   19.9316   24.2293 H   0  0  0  0  0  0  0  0  0  0  0  0
   19.1860   20.3813   24.9451 H   0  0  0  0  0  0  0  0  0  0  0  0
   20.7176   19.9461   26.3498 N   0  3  0  0  0  0  0  0  0  0  0  0
   21.5394   19.3463   26.4758 H   0  0  0  0  0  0  0  0  0  0  0  0
   20.0922   19.7711   27.1432 H   0  0  0  0  0  0  0  0  0  0  0  0
   21.0400   20.9164   26.4325 H   0  0  0  0  0  0  0  0  0  0  0  0
  1  2  1  0  0  0  0
  1  3  1  0  0  0  0
  1  4  1  0  0  0  0
  1  5  1  0  0  0  0
  5  6  1  0  0  0  0
  5  7  1  0  0  0  0
  5  8  1  0  0  0  0
  8  9  1  0  0  0  0
  8 10  1  0  0  0  0
  8 11  1  0  0  0  0
 11 12  1  0  0  0  0
 11 13  1  0  0  0  0
 11 14  1  0  0  0  0
 14 15  1  0  0  0  0
 14 16  1  0  0  0  0
 14 17  1  0  0  0  0
 17 18  1  0  0  0  0
 17 19  1  0  0  0  0
 17 20  1  0  0  0  0
 20 21  1  0  0  0  0
 20 22  1  0  0  0  0
 20 23  1  0  0  0  0
 23 24  1  0  0  0  0
 23 25  1  0  0  0  0
 23 26  1  0  0  0  0
M  END
> <VM2 Rank>
199

> <Conf_Id>
799

> <Probability>
0.00

> <Sum Probability>
100.00

> <Delta G>
6.713

> <G>
54.974

> <E>
21.946

> <-TS>
33.028

> <U+W>
0.484

> <U>
54.806

> <W>
-54.322

> <W(PB)>
-56.547

> <W(SA)>
2.225

> <Valence>
8.228

> <Coulomb>
46.249

> <VdW>
0.329

> <VdW6>
-9.307

> <VdW12>
9.636

> <Bond>
0.318

> <Angle>
2.924

> <Pdih>
4.986

> <Idih>
0.000

> <Tether>
0.000

$$$$
VeraChem MOL file


 26 25  0  0  0  0  0  0  0  0999 V2000     
   18.7993   20.1288   21.5670 C   0  0  0  0  0  0  0  0  0  0  0  0
   18.4597   20.8601   20.8221 H   0  0  0  0  0  0  0  0  0  0  0  0
   17.9072   19.7098   22.0500 H   0  0  0  0  0  0  0  0  0  0  0  0
   19.3749   20.6766   22.3192 H   0  0  0  0  0  0  0  0  0  0  0  0
   19.6359   19.0216   20.8871 C   0  0  0  0  0  0  0  0  0  0  0  0
   19.0334   18.6066   20.0668 H   0  0  0  0  0  0  0  0  0  0  0  0
   20.5270   19.4569   20.4137 H   0  0  0  0  0  0  0  0  0  0  0  0
   20.0407   17.8550   21.8263 C   0  0  0  0  0  0  0  0  0  0  0  0
   19.2494   17.6404   22.5534 H   0  0  0  0  0  0  0  0  0  0  0  0
   20.1035   16.9496   21.2069 H   0  0  0  0  0  0  0  0  0  0  0  0
   21.4201   18.0125   22.5207 C   0  0  0  0  0  0  0  0  0  0  0  0
   22.1775   18.1937   21.7457 H   0  0  0  0  0  0  0  0  0  0  0  0
   21.6930   17.0483   22.9714 H   0  0  0  0  0  0  0  0  0  0  0  0
   21.5570   19.1137   23.6054 C   0  0  0  0  0  0  0  0  0  0  0  0
   22.6212   19.1658   23.8736 H   0  0  0  0  0  0  0  0  0  0  0  0
   21.3195   20.1027   23.1966 H   0  0  0  0  0  0  0  0  0  0  0  0
   20.7660   18.8489   24.9124 C   0  0  0  0  0  0  0  0  0  0  0  0
   21.2653   19.3817   25.7326 H   0  0  0  0  0  0  0  0  0  0  0  0
   20.8084   17.7818   25.1675 H   0  0  0  0  0  0  0  0  0  0  0  0
   19.3021   19.3231   24.8606 C   0  0  0  0  0  0  0  0  0  0  0  0
   19.2717   20.3934   24.6400 H   0  0  0  0  0  0  0  0  0  0  0  0
   18.7613   18.7961   24.0735 H   0  0  0  0  0  0  0  0  0  0  0  0
   18.5600   19.0954   26.1616 N   0  3  0  0  0  0  0  0  0  0  0  0
   17.5887   19.4211   26.1087 H   0  0  0  0  0  0  0  0  0  0  0  0
   18.9991   19.5921   26.9436 H   0  0  0  0  0  0  0  0  0  0  0  0
   18.5288   18.1024   26.4146 H   0  0  0  0  0  0  0  0  0  0  0  0
  1  2  1  0  0  0  0
  1  3  1  0  0  0  0
  1  4  1  0  0  0  0
  1  5  1  0  0  0  0
  5  6  1  0  0  0  0
  5  7  1  0  0  0  0
  5  8  1  0  0  0  0
  8  9  1  0  0  0  0
  8 10  1  0  0  0  0
  8 11  1  0  0  0  0
 11 12  1  0  0  0  0
 11 13  1  0  0  0  0
 11 14  1  0  0  0  0
 14 15  1  0  0  0  0
 14 16  1  0  0  0  0
 14 17  1  0  0  0  0
 17 18  1  0  0  0  0
 17 19  1  0  0  0  0
 17 20  1  0  0  0  0
 20 21  1  0  0  0  0
 20 22  1  0  0  0  0
 20 23  1  0  0  0  0
 23 24  1  0  0  0  0
 23 25  1  0  0  0  0
 23 26  1  0  0  0  0
M  END
> <VM2 Rank>
200

> <Conf_Id>
269

> <Probability>
0.00

> <Sum Probability>
100.00

> <Delta G>
6.751

> <G>
55.013

> <E>
21.737

> <-TS>
33.276

> <U+W>
0.275

> <U>
54.656

> <W>
-54.381

> <W(PB)>
-56.613

> <W(SA)>
2.233

> <Valence>
8.239

> <Coulomb>
46.349

> <VdW>
0.068

> <VdW6>
-9.596

> <VdW12>
9.664

> <Bond>
0.303

> <Angle>
3.050

> <Pdih>
4.886

> <Idih>
0.000

> <Tether>
0.000

$$$$
VeraChem MOL file


 26 25  0  0  0  0  0  0  0  0999 V2000     
   18.7392   18.6864   20.0340 C   0  0  0  0  0  0  0  0  0  0  0  0
   17.7930   18.6840   20.5907 H   0  0  0  0  0  0  0  0  0  0  0  0
   18.8718   19.6815   19.5896 H   0  0  0  0  0  0  0  0  0  0  0  0
   18.6500   17.9611   19.2149 H   0  0  0  0  0  0  0  0  0  0  0  0
   19.9258   18.3270   20.9531 C   0  0  0  0  0  0  0  0  0  0  0  0
   20.8515   18.3037   20.3610 H   0  0  0  0  0  0  0  0  0  0  0  0
   19.7815   17.3139   21.3534 H   0  0  0  0  0  0  0  0  0  0  0  0
   20.0755   19.3356   22.1133 C   0  0  0  0  0  0  0  0  0  0  0  0
   20.2317   20.3420   21.7006 H   0  0  0  0  0  0  0  0  0  0  0  0
   19.1391   19.3837   22.6811 H   0  0  0  0  0  0  0  0  0  0  0  0
   21.2652   18.9780   23.0381 C   0  0  0  0  0  0  0  0  0  0  0  0
   22.1904   19.0862   22.4550 H   0  0  0  0  0  0  0  0  0  0  0  0
   21.2284   17.9234   23.3417 H   0  0  0  0  0  0  0  0  0  0  0  0
   21.3618   19.8907   24.2873 C   0  0  0  0  0  0  0  0  0  0  0  0
   22.4258   20.0623   24.5016 H   0  0  0  0  0  0  0  0  0  0  0  0
   20.9436   20.8823   24.0650 H   0  0  0  0  0  0  0  0  0  0  0  0
   20.7150   19.3202   25.5780 C   0  0  0  0  0  0  0  0  0  0  0  0
   20.9011   20.0355   26.3902 H   0  0  0  0  0  0  0  0  0  0  0  0
   21.2207   18.3921   25.8760 H   0  0  0  0  0  0  0  0  0  0  0  0
   19.1930   19.0833   25.5020 C   0  0  0  0  0  0  0  0  0  0  0  0
   18.7847   19.0573   26.5160 H   0  0  0  0  0  0  0  0  0  0  0  0
   18.7151   19.9065   24.9645 H   0  0  0  0  0  0  0  0  0  0  0  0
   18.8055   17.7778   24.8352 N   0  3  0  0  0  0  0  0  0  0  0  0
   17.7873   17.6581   24.7954 H   0  0  0  0  0  0  0  0  0  0  0  0
   19.1826   16.9685   25.3394 H   0  0  0  0  0  0  0  0  0  0  0  0
   19.1589   17.7319   23.8740 H   0  0  0  0  0  0  0  0  0  0  0  0
  1  2  1  0  0  0  0
  1  3  1  0  0  0  0
  1  4  1  0  0  0  0
  1  5  1  0  0  0  0
  5  6  1  0  0  0  0
  5  7  1  0  0  0  0
  5  8  1  0  0  0  0
  8  9  1  0  0  0  0
  8 10  1  0  0  0  0
  8 11  1  0  0  0  0
 11 12  1  0  0  0  0
 11 13  1  0  0  0  0
 11 14  1  0  0  0  0
 14 15  1  0  0  0  0
 14 16  1  0  0  0  0
 14 17  1  0  0  0  0
 17 18  1  0  0  0  0
 17 19  1  0  0  0  0
 17 20  1  0  0  0  0
 20 21  1  0  0  0  0
 20 22  1  0  0  0  0
 20 23  1  0  0  0  0
 23 24  1  0  0  0  0
 23 25  1  0  0  0  0
 23 26  1  0  0  0  0
M  END
> <VM2 Rank>
201

> <Conf_Id>
234

> <Probability>
0.00

> <Sum Probability>
100.00

> <Delta G>
6.832

> <G>
55.094

> <E>
21.961

> <-TS>
33.133

> <U+W>
0.499

> <U>
53.726

> <W>
-53.227

> <W(PB)>
-55.471

> <W(SA)>
2.244

> <Valence>
6.198

> <Coulomb>
47.155

> <VdW>
0.373

> <VdW6>
-8.927

> <VdW12>
9.300

> <Bond>
0.233

> <Angle>
1.463

> <Pdih>
4.502

> <Idih>
0.000

> <Tether>
0.000

$$$$
VeraChem MOL file


 26 25  0  0  0  0  0  0  0  0999 V2000     
   20.8798   20.0982   20.1055 C   0  0  0  0  0  0  0  0  0  0  0  0
   21.2277   20.9492   20.7055 H   0  0  0  0  0  0  0  0  0  0  0  0
   21.6192   19.9193   19.3141 H   0  0  0  0  0  0  0  0  0  0  0  0
   19.9345   20.3823   19.6251 H   0  0  0  0  0  0  0  0  0  0  0  0
   20.7012   18.8384   20.9790 C   0  0  0  0  0  0  0  0  0  0  0  0
   21.6698   18.5593   21.4165 H   0  0  0  0  0  0  0  0  0  0  0  0
   20.3867   17.9971   20.3455 H   0  0  0  0  0  0  0  0  0  0  0  0
   19.6621   19.0629   22.0994 C   0  0  0  0  0  0  0  0  0  0  0  0
   19.9591   19.9245   22.7085 H   0  0  0  0  0  0  0  0  0  0  0  0
   18.6955   19.3290   21.6493 H   0  0  0  0  0  0  0  0  0  0  0  0
   19.4803   17.8008   22.9784 C   0  0  0  0  0  0  0  0  0  0  0  0
   20.4493   17.4096   23.3157 H   0  0  0  0  0  0  0  0  0  0  0  0
   19.0448   17.0116   22.3499 H   0  0  0  0  0  0  0  0  0  0  0  0
   18.5460   18.0336   24.1932 C   0  0  0  0  0  0  0  0  0  0  0  0
   17.8098   18.8155   23.9604 H   0  0  0  0  0  0  0  0  0  0  0  0
   17.9606   17.1174   24.3524 H   0  0  0  0  0  0  0  0  0  0  0  0
   19.2639   18.3631   25.5295 C   0  0  0  0  0  0  0  0  0  0  0  0
   19.9040   17.5236   25.8319 H   0  0  0  0  0  0  0  0  0  0  0  0
   18.4961   18.4492   26.3098 H   0  0  0  0  0  0  0  0  0  0  0  0
   20.0827   19.6700   25.5318 C   0  0  0  0  0  0  0  0  0  0  0  0
   19.5392   20.4500   24.9920 H   0  0  0  0  0  0  0  0  0  0  0  0
   20.2197   20.0037   26.5639 H   0  0  0  0  0  0  0  0  0  0  0  0
   21.4650   19.5318   24.9241 N   0  3  0  0  0  0  0  0  0  0  0  0
   21.9766   20.4210   24.9354 H   0  0  0  0  0  0  0  0  0  0  0  0
   21.4132   19.2186   23.9494 H   0  0  0  0  0  0  0  0  0  0  0  0
   22.0368   18.8509   25.4348 H   0  0  0  0  0  0  0  0  0  0  0  0
  1  2  1  0  0  0  0
  1  3  1  0  0  0  0
  1  4  1  0  0  0  0
  1  5  1  0  0  0  0
  5  6  1  0  0  0  0
  5  7  1  0  0  0  0
  5  8  1  0  0  0  0
  8  9  1  0  0  0  0
  8 10  1  0  0  0  0
  8 11  1  0  0  0  0
 11 12  1  0  0  0  0
 11 13  1  0  0  0  0
 11 14  1  0  0  0  0
 14 15  1  0  0  0  0
 14 16  1  0  0  0  0
 14 17  1  0  0  0  0
 17 18  1  0  0  0  0
 17 19  1  0  0  0  0
 17 20  1  0  0  0  0
 20 21  1  0  0  0  0
 20 22  1  0  0  0  0
 20 23  1  0  0  0  0
 23 24  1  0  0  0  0
 23 25  1  0  0  0  0
 23 26  1  0  0  0  0
M  END
> <VM2 Rank>
202

> <Conf_Id>
715

> <Probability>
0.00

> <Sum Probability>
100.00

> <Delta G>
6.834

> <G>
55.096

> <E>
21.963

> <-TS>
33.133

> <U+W>
0.501

> <U>
53.726

> <W>
-53.225

> <W(PB)>
-55.464

> <W(SA)>
2.239

> <Valence>
6.198

> <Coulomb>
47.155

> <VdW>
0.373

> <VdW6>
-8.927

> <VdW12>
9.300

> <Bond>
0.233

> <Angle>
1.462

> <Pdih>
4.503

> <Idih>
0.000

> <Tether>
0.000

$$$$
VeraChem MOL file


 26 25  0  0  0  0  0  0  0  0999 V2000     
   21.4076   19.6037   20.9678 C   0  0  0  0  0  0  0  0  0  0  0  0
   21.2612   20.3037   21.7973 H   0  0  0  0  0  0  0  0  0  0  0  0
   22.4837   19.4039   20.8850 H   0  0  0  0  0  0  0  0  0  0  0  0
   21.0905   20.1063   20.0448 H   0  0  0  0  0  0  0  0  0  0  0  0
   20.6257   18.2852   21.1722 C   0  0  0  0  0  0  0  0  0  0  0  0
   21.0120   17.7338   22.0399 H   0  0  0  0  0  0  0  0  0  0  0  0
   20.8181   17.6429   20.3014 H   0  0  0  0  0  0  0  0  0  0  0  0
   19.0957   18.4928   21.3011 C   0  0  0  0  0  0  0  0  0  0  0  0
   18.7826   19.3753   20.7264 H   0  0  0  0  0  0  0  0  0  0  0  0
   18.6002   17.6394   20.8178 H   0  0  0  0  0  0  0  0  0  0  0  0
   18.5487   18.5795   22.7517 C   0  0  0  0  0  0  0  0  0  0  0  0
   18.7792   17.6524   23.2919 H   0  0  0  0  0  0  0  0  0  0  0  0
   17.4525   18.6087   22.6820 H   0  0  0  0  0  0  0  0  0  0  0  0
   19.0009   19.8217   23.5655 C   0  0  0  0  0  0  0  0  0  0  0  0
   19.1727   20.6671   22.8860 H   0  0  0  0  0  0  0  0  0  0  0  0
   18.1726   20.1345   24.2164 H   0  0  0  0  0  0  0  0  0  0  0  0
   20.2480   19.5936   24.4568 C   0  0  0  0  0  0  0  0  0  0  0  0
   20.5583   20.5573   24.8818 H   0  0  0  0  0  0  0  0  0  0  0  0
   21.0908   19.2323   23.8576 H   0  0  0  0  0  0  0  0  0  0  0  0
   19.9787   18.6067   25.6085 C   0  0  0  0  0  0  0  0  0  0  0  0
   19.1474   18.9712   26.2180 H   0  0  0  0  0  0  0  0  0  0  0  0
   19.7059   17.6287   25.2045 H   0  0  0  0  0  0  0  0  0  0  0  0
   21.1757   18.4157   26.5175 N   0  3  0  0  0  0  0  0  0  0  0  0
   20.9751   17.7568   27.2777 H   0  0  0  0  0  0  0  0  0  0  0  0
   21.4671   19.2959   26.9550 H   0  0  0  0  0  0  0  0  0  0  0  0
   21.9866   18.0478   26.0095 H   0  0  0  0  0  0  0  0  0  0  0  0
  1  2  1  0  0  0  0
  1  3  1  0  0  0  0
  1  4  1  0  0  0  0
  1  5  1  0  0  0  0
  5  6  1  0  0  0  0
  5  7  1  0  0  0  0
  5  8  1  0  0  0  0
  8  9  1  0  0  0  0
  8 10  1  0  0  0  0
  8 11  1  0  0  0  0
 11 12  1  0  0  0  0
 11 13  1  0  0  0  0
 11 14  1  0  0  0  0
 14 15  1  0  0  0  0
 14 16  1  0  0  0  0
 14 17  1  0  0  0  0
 17 18  1  0  0  0  0
 17 19  1  0  0  0  0
 17 20  1  0  0  0  0
 20 21  1  0  0  0  0
 20 22  1  0  0  0  0
 20 23  1  0  0  0  0
 23 24  1  0  0  0  0
 23 25  1  0  0  0  0
 23 26  1  0  0  0  0
M  END
> <VM2 Rank>
203

> <Conf_Id>
255

> <Probability>
0.00

> <Sum Probability>
100.00

> <Delta G>
6.861

> <G>
55.122

> <E>
21.852

> <-TS>
33.270

> <U+W>
0.391

> <U>
54.561

> <W>
-54.171

> <W(PB)>
-56.394

> <W(SA)>
2.223

> <Valence>
8.178

> <Coulomb>
45.812

> <VdW>
0.572

> <VdW6>
-9.082

> <VdW12>
9.654

> <Bond>
0.296

> <Angle>
2.094

> <Pdih>
5.788

> <Idih>
0.000

> <Tether>
0.000

$$$$
VeraChem MOL file


 26 25  0  0  0  0  0  0  0  0999 V2000     
   19.9908   20.2740   20.0662 C   0  0  0  0  0  0  0  0  0  0  0  0
   21.0354   20.4476   19.7768 H   0  0  0  0  0  0  0  0  0  0  0  0
   19.3954   20.1954   19.1473 H   0  0  0  0  0  0  0  0  0  0  0  0
   19.6390   21.1533   20.6214 H   0  0  0  0  0  0  0  0  0  0  0  0
   19.8553   18.9917   20.9145 C   0  0  0  0  0  0  0  0  0  0  0  0
   20.1831   18.1274   20.3200 H   0  0  0  0  0  0  0  0  0  0  0  0
   18.7956   18.8284   21.1501 H   0  0  0  0  0  0  0  0  0  0  0  0
   20.6899   19.0777   22.2145 C   0  0  0  0  0  0  0  0  0  0  0  0
   21.7396   19.2596   21.9450 H   0  0  0  0  0  0  0  0  0  0  0  0
   20.3621   19.9474   22.7963 H   0  0  0  0  0  0  0  0  0  0  0  0
   20.6152   17.7859   23.0702 C   0  0  0  0  0  0  0  0  0  0  0  0
   21.4462   17.7581   23.7874 H   0  0  0  0  0  0  0  0  0  0  0  0
   20.7801   16.9246   22.4079 H   0  0  0  0  0  0  0  0  0  0  0  0
   19.2709   17.5896   23.8214 C   0  0  0  0  0  0  0  0  0  0  0  0
   18.4461   18.0603   23.2715 H   0  0  0  0  0  0  0  0  0  0  0  0
   19.0414   16.5151   23.8290 H   0  0  0  0  0  0  0  0  0  0  0  0
   19.2578   18.0763   25.2950 C   0  0  0  0  0  0  0  0  0  0  0  0
   19.9960   17.5181   25.8860 H   0  0  0  0  0  0  0  0  0  0  0  0
   18.2789   17.8221   25.7226 H   0  0  0  0  0  0  0  0  0  0  0  0
   19.4723   19.5914   25.4850 C   0  0  0  0  0  0  0  0  0  0  0  0
   18.9422   20.1427   24.7038 H   0  0  0  0  0  0  0  0  0  0  0  0
   19.0605   19.8920   26.4523 H   0  0  0  0  0  0  0  0  0  0  0  0
   20.9287   20.0124   25.4741 N   0  3  0  0  0  0  0  0  0  0  0  0
   21.0332   21.0264   25.5904 H   0  0  0  0  0  0  0  0  0  0  0  0
   21.3851   19.7552   24.5936 H   0  0  0  0  0  0  0  0  0  0  0  0
   21.4569   19.5685   26.2325 H   0  0  0  0  0  0  0  0  0  0  0  0
  1  2  1  0  0  0  0
  1  3  1  0  0  0  0
  1  4  1  0  0  0  0
  1  5  1  0  0  0  0
  5  6  1  0  0  0  0
  5  7  1  0  0  0  0
  5  8  1  0  0  0  0
  8  9  1  0  0  0  0
  8 10  1  0  0  0  0
  8 11  1  0  0  0  0
 11 12  1  0  0  0  0
 11 13  1  0  0  0  0
 11 14  1  0  0  0  0
 14 15  1  0  0  0  0
 14 16  1  0  0  0  0
 14 17  1  0  0  0  0
 17 18  1  0  0  0  0
 17 19  1  0  0  0  0
 17 20  1  0  0  0  0
 20 21  1  0  0  0  0
 20 22  1  0  0  0  0
 20 23  1  0  0  0  0
 23 24  1  0  0  0  0
 23 25  1  0  0  0  0
 23 26  1  0  0  0  0
M  END
> <VM2 Rank>
204

> <Conf_Id>
1344

> <Probability>
0.00

> <Sum Probability>
100.00

> <Delta G>
6.865

> <G>
55.127

> <E>
21.974

> <-TS>
33.153

> <U+W>
0.512

> <U>
54.574

> <W>
-54.062

> <W(PB)>
-56.307

> <W(SA)>
2.245

> <Valence>
6.966

> <Coulomb>
47.041

> <VdW>
0.567

> <VdW6>
-9.189

> <VdW12>
9.756

> <Bond>
0.281

> <Angle>
1.616

> <Pdih>
5.070

> <Idih>
0.000

> <Tether>
0.000

$$$$
VeraChem MOL file


 26 25  0  0  0  0  0  0  0  0999 V2000     
   20.8601   20.4564   21.6147 C   0  0  0  0  0  0  0  0  0  0  0  0
   21.8962   20.8013   21.5031 H   0  0  0  0  0  0  0  0  0  0  0  0
   20.2153   21.1564   21.0678 H   0  0  0  0  0  0  0  0  0  0  0  0
   20.5993   20.5204   22.6758 H   0  0  0  0  0  0  0  0  0  0  0  0
   20.7046   19.0202   21.0631 C   0  0  0  0  0  0  0  0  0  0  0  0
   21.4220   18.3396   21.5408 H   0  0  0  0  0  0  0  0  0  0  0  0
   20.9756   19.0390   19.9982 H   0  0  0  0  0  0  0  0  0  0  0  0
   19.2638   18.4652   21.1937 C   0  0  0  0  0  0  0  0  0  0  0  0
   18.5349   19.2852   21.1357 H   0  0  0  0  0  0  0  0  0  0  0  0
   19.0663   17.8368   20.3141 H   0  0  0  0  0  0  0  0  0  0  0  0
   18.9882   17.5951   22.4500 C   0  0  0  0  0  0  0  0  0  0  0  0
   19.6547   16.7218   22.4565 H   0  0  0  0  0  0  0  0  0  0  0  0
   17.9737   17.1863   22.3445 H   0  0  0  0  0  0  0  0  0  0  0  0
   19.0591   18.3364   23.8097 C   0  0  0  0  0  0  0  0  0  0  0  0
   18.7714   19.3871   23.6771 H   0  0  0  0  0  0  0  0  0  0  0  0
   18.3045   17.9007   24.4793 H   0  0  0  0  0  0  0  0  0  0  0  0
   20.4387   18.2146   24.5060 C   0  0  0  0  0  0  0  0  0  0  0  0
   21.2355   18.6265   23.8770 H   0  0  0  0  0  0  0  0  0  0  0  0
   20.6773   17.1522   24.6472 H   0  0  0  0  0  0  0  0  0  0  0  0
   20.4696   18.9031   25.8840 C   0  0  0  0  0  0  0  0  0  0  0  0
   19.6749   18.4970   26.5156 H   0  0  0  0  0  0  0  0  0  0  0  0
   21.4280   18.7001   26.3695 H   0  0  0  0  0  0  0  0  0  0  0  0
   20.2969   20.4080   25.8198 N   0  3  0  0  0  0  0  0  0  0  0  0
   20.3269   20.8330   26.7530 H   0  0  0  0  0  0  0  0  0  0  0  0
   19.3992   20.6691   25.4006 H   0  0  0  0  0  0  0  0  0  0  0  0
   21.0350   20.8526   25.2649 H   0  0  0  0  0  0  0  0  0  0  0  0
  1  2  1  0  0  0  0
  1  3  1  0  0  0  0
  1  4  1  0  0  0  0
  1  5  1  0  0  0  0
  5  6  1  0  0  0  0
  5  7  1  0  0  0  0
  5  8  1  0  0  0  0
  8  9  1  0  0  0  0
  8 10  1  0  0  0  0
  8 11  1  0  0  0  0
 11 12  1  0  0  0  0
 11 13  1  0  0  0  0
 11 14  1  0  0  0  0
 14 15  1  0  0  0  0
 14 16  1  0  0  0  0
 14 17  1  0  0  0  0
 17 18  1  0  0  0  0
 17 19  1  0  0  0  0
 17 20  1  0  0  0  0
 20 21  1  0  0  0  0
 20 22  1  0  0  0  0
 20 23  1  0  0  0  0
 23 24  1  0  0  0  0
 23 25  1  0  0  0  0
 23 26  1  0  0  0  0
M  END
> <VM2 Rank>
205

> <Conf_Id>
1088

> <Probability>
0.00

> <Sum Probability>
100.00

> <Delta G>
7.125

> <G>
55.386

> <E>
21.974

> <-TS>
33.412

> <U+W>
0.512

> <U>
54.899

> <W>
-54.387

> <W(PB)>
-56.584

> <W(SA)>
2.198

> <Valence>
7.854

> <Coulomb>
46.638

> <VdW>
0.407

> <VdW6>
-9.363

> <VdW12>
9.770

> <Bond>
0.292

> <Angle>
1.989

> <Pdih>
5.573

> <Idih>
0.000

> <Tether>
0.000

$$$$
VeraChem MOL file


 26 25  0  0  0  0  0  0  0  0999 V2000     
   20.1610   20.2662   20.8471 C   0  0  0  0  0  0  0  0  0  0  0  0
   19.2902   20.5140   21.4626 H   0  0  0  0  0  0  0  0  0  0  0  0
   21.0244   20.8206   21.2368 H   0  0  0  0  0  0  0  0  0  0  0  0
   19.9602   20.6342   19.8326 H   0  0  0  0  0  0  0  0  0  0  0  0
   20.4432   18.7463   20.8215 C   0  0  0  0  0  0  0  0  0  0  0  0
   21.2650   18.5706   20.1132 H   0  0  0  0  0  0  0  0  0  0  0  0
   19.5765   18.2052   20.4172 H   0  0  0  0  0  0  0  0  0  0  0  0
   20.8526   18.1580   22.1968 C   0  0  0  0  0  0  0  0  0  0  0  0
   21.5370   17.3194   22.0074 H   0  0  0  0  0  0  0  0  0  0  0  0
   21.4413   18.8903   22.7632 H   0  0  0  0  0  0  0  0  0  0  0  0
   19.6774   17.6037   23.0478 C   0  0  0  0  0  0  0  0  0  0  0  0
   20.0821   17.0461   23.9012 H   0  0  0  0  0  0  0  0  0  0  0  0
   19.1383   16.8542   22.4522 H   0  0  0  0  0  0  0  0  0  0  0  0
   18.6523   18.6465   23.5630 C   0  0  0  0  0  0  0  0  0  0  0  0
   18.1094   19.0661   22.7070 H   0  0  0  0  0  0  0  0  0  0  0  0
   17.8904   18.1204   24.1545 H   0  0  0  0  0  0  0  0  0  0  0  0
   19.2281   19.8058   24.4202 C   0  0  0  0  0  0  0  0  0  0  0  0
   18.4052   20.4995   24.6374 H   0  0  0  0  0  0  0  0  0  0  0  0
   19.9647   20.3885   23.8537 H   0  0  0  0  0  0  0  0  0  0  0  0
   19.8282   19.3601   25.7697 C   0  0  0  0  0  0  0  0  0  0  0  0
   19.8634   20.2184   26.4461 H   0  0  0  0  0  0  0  0  0  0  0  0
   19.1900   18.5971   26.2235 H   0  0  0  0  0  0  0  0  0  0  0  0
   21.2382   18.8125   25.6750 N   0  3  0  0  0  0  0  0  0  0  0  0
   21.8955   19.5178   25.3269 H   0  0  0  0  0  0  0  0  0  0  0  0
   21.2882   18.0104   25.0404 H   0  0  0  0  0  0  0  0  0  0  0  0
   21.5878   18.5022   26.5882 H   0  0  0  0  0  0  0  0  0  0  0  0
  1  2  1  0  0  0  0
  1  3  1  0  0  0  0
  1  4  1  0  0  0  0
  1  5  1  0  0  0  0
  5  6  1  0  0  0  0
  5  7  1  0  0  0  0
  5  8  1  0  0  0  0
  8  9  1  0  0  0  0
  8 10  1  0  0  0  0
  8 11  1  0  0  0  0
 11 12  1  0  0  0  0
 11 13  1  0  0  0  0
 11 14  1  0  0  0  0
 14 15  1  0  0  0  0
 14 16  1  0  0  0  0
 14 17  1  0  0  0  0
 17 18  1  0  0  0  0
 17 19  1  0  0  0  0
 17 20  1  0  0  0  0
 20 21  1  0  0  0  0
 20 22  1  0  0  0  0
 20 23  1  0  0  0  0
 23 24  1  0  0  0  0
 23 25  1  0  0  0  0
 23 26  1  0  0  0  0
M  END
> <VM2 Rank>
206

> <Conf_Id>
507

> <Probability>
0.00

> <Sum Probability>
100.00

> <Delta G>
7.337

> <G>
55.599

> <E>
21.945

> <-TS>
33.654

> <U+W>
0.483

> <U>
54.731

> <W>
-54.248

> <W(PB)>
-56.395

> <W(SA)>
2.147

> <Valence>
7.253

> <Coulomb>
47.328

> <VdW>
0.149

> <VdW6>
-10.450

> <VdW12>
10.600

> <Bond>
0.329

> <Angle>
2.592

> <Pdih>
4.331

> <Idih>
0.000

> <Tether>
0.000

$$$$
VeraChem MOL file


 26 25  0  0  0  0  0  0  0  0999 V2000     
   19.2831   20.1160   20.8895 C   0  0  0  0  0  0  0  0  0  0  0  0
   19.0908   20.6297   19.9387 H   0  0  0  0  0  0  0  0  0  0  0  0
   18.4588   19.4110   21.0536 H   0  0  0  0  0  0  0  0  0  0  0  0
   19.2636   20.8697   21.6868 H   0  0  0  0  0  0  0  0  0  0  0  0
   20.6442   19.3878   20.8426 C   0  0  0  0  0  0  0  0  0  0  0  0
   21.4182   20.1071   20.5402 H   0  0  0  0  0  0  0  0  0  0  0  0
   20.6198   18.6200   20.0567 H   0  0  0  0  0  0  0  0  0  0  0  0
   21.0689   18.7423   22.1862 C   0  0  0  0  0  0  0  0  0  0  0  0
   22.0708   18.3142   22.0441 H   0  0  0  0  0  0  0  0  0  0  0  0
   21.1871   19.5202   22.9480 H   0  0  0  0  0  0  0  0  0  0  0  0
   20.1290   17.6096   22.6818 C   0  0  0  0  0  0  0  0  0  0  0  0
   20.7286   16.8348   23.1789 H   0  0  0  0  0  0  0  0  0  0  0  0
   19.6841   17.1126   21.8088 H   0  0  0  0  0  0  0  0  0  0  0  0
   18.9959   18.0607   23.6440 C   0  0  0  0  0  0  0  0  0  0  0  0
   18.6246   19.0568   23.3767 H   0  0  0  0  0  0  0  0  0  0  0  0
   18.1438   17.3815   23.5033 H   0  0  0  0  0  0  0  0  0  0  0  0
   19.3809   18.0168   25.1464 C   0  0  0  0  0  0  0  0  0  0  0  0
   19.7029   16.9999   25.4070 H   0  0  0  0  0  0  0  0  0  0  0  0
   18.4872   18.2146   25.7531 H   0  0  0  0  0  0  0  0  0  0  0  0
   20.4883   19.0059   25.5572 C   0  0  0  0  0  0  0  0  0  0  0  0
   20.7414   18.8494   26.6093 H   0  0  0  0  0  0  0  0  0  0  0  0
   21.3867   18.8242   24.9622 H   0  0  0  0  0  0  0  0  0  0  0  0
   20.0907   20.4599   25.3933 N   0  3  0  0  0  0  0  0  0  0  0  0
   19.2740   20.6958   25.9664 H   0  0  0  0  0  0  0  0  0  0  0  0
   19.8526   20.6784   24.4212 H   0  0  0  0  0  0  0  0  0  0  0  0
   20.8459   21.0953   25.6729 H   0  0  0  0  0  0  0  0  0  0  0  0
  1  2  1  0  0  0  0
  1  3  1  0  0  0  0
  1  4  1  0  0  0  0
  1  5  1  0  0  0  0
  5  6  1  0  0  0  0
  5  7  1  0  0  0  0
  5  8  1  0  0  0  0
  8  9  1  0  0  0  0
  8 10  1  0  0  0  0
  8 11  1  0  0  0  0
 11 12  1  0  0  0  0
 11 13  1  0  0  0  0
 11 14  1  0  0  0  0
 14 15  1  0  0  0  0
 14 16  1  0  0  0  0
 14 17  1  0  0  0  0
 17 18  1  0  0  0  0
 17 19  1  0  0  0  0
 17 20  1  0  0  0  0
 20 21  1  0  0  0  0
 20 22  1  0  0  0  0
 20 23  1  0  0  0  0
 23 24  1  0  0  0  0
 23 25  1  0  0  0  0
 23 26  1  0  0  0  0
M  END
> <VM2 Rank>
207

> <Conf_Id>
522

> <Probability>
0.00

> <Sum Probability>
100.00

> <Delta G>
7.349

> <G>
55.610

> <E>
22.215

> <-TS>
33.395

> <U+W>
0.753

> <U>
54.948

> <W>
-54.195

> <W(PB)>
-56.389

> <W(SA)>
2.194

> <Valence>
7.630

> <Coulomb>
46.869

> <VdW>
0.449

> <VdW6>
-9.856

> <VdW12>
10.305

> <Bond>
0.325

> <Angle>
1.917

> <Pdih>
5.389

> <Idih>
0.000

> <Tether>
0.000

$$$$
VeraChem MOL file


 26 25  0  0  0  0  0  0  0  0999 V2000     
   18.8328   19.3906   20.8027 C   0  0  0  0  0  0  0  0  0  0  0  0
   18.6211   19.7513   19.7878 H   0  0  0  0  0  0  0  0  0  0  0  0
   17.9662   18.8044   21.1346 H   0  0  0  0  0  0  0  0  0  0  0  0
   18.9187   20.2691   21.4502 H   0  0  0  0  0  0  0  0  0  0  0  0
   20.1189   18.5325   20.8106 C   0  0  0  0  0  0  0  0  0  0  0  0
   19.9903   17.7302   20.0706 H   0  0  0  0  0  0  0  0  0  0  0  0
   20.9753   19.1274   20.4639 H   0  0  0  0  0  0  0  0  0  0  0  0
   20.4343   17.8822   22.1829 C   0  0  0  0  0  0  0  0  0  0  0  0
   19.5040   17.6131   22.6985 H   0  0  0  0  0  0  0  0  0  0  0  0
   20.9442   16.9286   21.9877 H   0  0  0  0  0  0  0  0  0  0  0  0
   21.3656   18.7167   23.1042 C   0  0  0  0  0  0  0  0  0  0  0  0
   22.2935   18.9343   22.5576 H   0  0  0  0  0  0  0  0  0  0  0  0
   21.6789   18.0989   23.9546 H   0  0  0  0  0  0  0  0  0  0  0  0
   20.7869   20.0537   23.6343 C   0  0  0  0  0  0  0  0  0  0  0  0
   21.5419   20.5277   24.2765 H   0  0  0  0  0  0  0  0  0  0  0  0
   20.6546   20.7442   22.7920 H   0  0  0  0  0  0  0  0  0  0  0  0
   19.4561   19.9561   24.4279 C   0  0  0  0  0  0  0  0  0  0  0  0
   18.6577   19.5270   23.8101 H   0  0  0  0  0  0  0  0  0  0  0  0
   19.1324   20.9789   24.6618 H   0  0  0  0  0  0  0  0  0  0  0  0
   19.5667   19.1877   25.7610 C   0  0  0  0  0  0  0  0  0  0  0  0
   20.4970   19.4587   26.2671 H   0  0  0  0  0  0  0  0  0  0  0  0
   18.7331   19.4732   26.4083 H   0  0  0  0  0  0  0  0  0  0  0  0
   19.5197   17.6796   25.6175 N   0  3  0  0  0  0  0  0  0  0  0  0
   19.6248   17.2081   26.5225 H   0  0  0  0  0  0  0  0  0  0  0  0
   20.2663   17.3367   25.0062 H   0  0  0  0  0  0  0  0  0  0  0  0
   18.6299   17.3650   25.2176 H   0  0  0  0  0  0  0  0  0  0  0  0
  1  2  1  0  0  0  0
  1  3  1  0  0  0  0
  1  4  1  0  0  0  0
  1  5  1  0  0  0  0
  5  6  1  0  0  0  0
  5  7  1  0  0  0  0
  5  8  1  0  0  0  0
  8  9  1  0  0  0  0
  8 10  1  0  0  0  0
  8 11  1  0  0  0  0
 11 12  1  0  0  0  0
 11 13  1  0  0  0  0
 11 14  1  0  0  0  0
 14 15  1  0  0  0  0
 14 16  1  0  0  0  0
 14 17  1  0  0  0  0
 17 18  1  0  0  0  0
 17 19  1  0  0  0  0
 17 20  1  0  0  0  0
 20 21  1  0  0  0  0
 20 22  1  0  0  0  0
 20 23  1  0  0  0  0
 23 24  1  0  0  0  0
 23 25  1  0  0  0  0
 23 26  1  0  0  0  0
M  END
> <VM2 Rank>
208

> <Conf_Id>
751

> <Probability>
0.00

> <Sum Probability>
100.00

> <Delta G>
7.359

> <G>
55.620

> <E>
21.966

> <-TS>
33.654

> <U+W>
0.504

> <U>
54.731

> <W>
-54.227

> <W(PB)>
-56.358

> <W(SA)>
2.131

> <Valence>
7.253

> <Coulomb>
47.329

> <VdW>
0.149

> <VdW6>
-10.450

> <VdW12>
10.599

> <Bond>
0.329

> <Angle>
2.593

> <Pdih>
4.331

> <Idih>
0.000

> <Tether>
0.000

$$$$
VeraChem MOL file


 26 25  0  0  0  0  0  0  0  0999 V2000     
   19.5234   17.4669   21.1068 C   0  0  0  0  0  0  0  0  0  0  0  0
   20.3540   17.0158   20.5486 H   0  0  0  0  0  0  0  0  0  0  0  0
   19.5986   17.1405   22.1505 H   0  0  0  0  0  0  0  0  0  0  0  0
   18.5877   17.0631   20.6992 H   0  0  0  0  0  0  0  0  0  0  0  0
   19.5473   19.0077   20.9835 C   0  0  0  0  0  0  0  0  0  0  0  0
   18.6966   19.4458   21.5215 H   0  0  0  0  0  0  0  0  0  0  0  0
   19.4022   19.2748   19.9275 H   0  0  0  0  0  0  0  0  0  0  0  0
   20.8743   19.6388   21.4717 C   0  0  0  0  0  0  0  0  0  0  0  0
   21.7034   19.2014   20.8987 H   0  0  0  0  0  0  0  0  0  0  0  0
   20.8719   20.7082   21.2195 H   0  0  0  0  0  0  0  0  0  0  0  0
   21.1766   19.4807   22.9860 C   0  0  0  0  0  0  0  0  0  0  0  0
   22.1816   19.8885   23.1615 H   0  0  0  0  0  0  0  0  0  0  0  0
   21.2426   18.4193   23.2476 H   0  0  0  0  0  0  0  0  0  0  0  0
   20.1878   20.2355   23.9171 C   0  0  0  0  0  0  0  0  0  0  0  0
   20.7421   20.6596   24.7659 H   0  0  0  0  0  0  0  0  0  0  0  0
   19.7810   21.1018   23.3776 H   0  0  0  0  0  0  0  0  0  0  0  0
   19.0143   19.3825   24.4688 C   0  0  0  0  0  0  0  0  0  0  0  0
   18.6450   18.6786   23.7149 H   0  0  0  0  0  0  0  0  0  0  0  0
   18.1749   20.0558   24.6871 H   0  0  0  0  0  0  0  0  0  0  0  0
   19.3490   18.6302   25.7742 C   0  0  0  0  0  0  0  0  0  0  0  0
   19.6932   19.3439   26.5275 H   0  0  0  0  0  0  0  0  0  0  0  0
   18.4434   18.1493   26.1540 H   0  0  0  0  0  0  0  0  0  0  0  0
   20.4084   17.5567   25.6329 N   0  3  0  0  0  0  0  0  0  0  0  0
   21.2978   17.9497   25.3099 H   0  0  0  0  0  0  0  0  0  0  0  0
   20.1296   16.8331   24.9629 H   0  0  0  0  0  0  0  0  0  0  0  0
   20.5928   17.0856   26.5253 H   0  0  0  0  0  0  0  0  0  0  0  0
  1  2  1  0  0  0  0
  1  3  1  0  0  0  0
  1  4  1  0  0  0  0
  1  5  1  0  0  0  0
  5  6  1  0  0  0  0
  5  7  1  0  0  0  0
  5  8  1  0  0  0  0
  8  9  1  0  0  0  0
  8 10  1  0  0  0  0
  8 11  1  0  0  0  0
 11 12  1  0  0  0  0
 11 13  1  0  0  0  0
 11 14  1  0  0  0  0
 14 15  1  0  0  0  0
 14 16  1  0  0  0  0
 14 17  1  0  0  0  0
 17 18  1  0  0  0  0
 17 19  1  0  0  0  0
 17 20  1  0  0  0  0
 20 21  1  0  0  0  0
 20 22  1  0  0  0  0
 20 23  1  0  0  0  0
 23 24  1  0  0  0  0
 23 25  1  0  0  0  0
 23 26  1  0  0  0  0
M  END
> <VM2 Rank>
209

> <Conf_Id>
236

> <Probability>
0.00

> <Sum Probability>
100.00

> <Delta G>
7.422

> <G>
55.683

> <E>
22.304

> <-TS>
33.379

> <U+W>
0.842

> <U>
55.059

> <W>
-54.216

> <W(PB)>
-56.398

> <W(SA)>
2.182

> <Valence>
7.670

> <Coulomb>
46.878

> <VdW>
0.510

> <VdW6>
-9.789

> <VdW12>
10.298

> <Bond>
0.327

> <Angle>
1.986

> <Pdih>
5.358

> <Idih>
0.000

> <Tether>
0.000

$$$$
VeraChem MOL file


 26 25  0  0  0  0  0  0  0  0999 V2000     
   20.0370   20.6183   21.6847 C   0  0  0  0  0  0  0  0  0  0  0  0
   19.3530   20.8036   22.5216 H   0  0  0  0  0  0  0  0  0  0  0  0
   21.0625   20.5650   22.0654 H   0  0  0  0  0  0  0  0  0  0  0  0
   19.9881   21.4878   21.0165 H   0  0  0  0  0  0  0  0  0  0  0  0
   19.6516   19.3348   20.9185 C   0  0  0  0  0  0  0  0  0  0  0  0
   20.4128   19.1208   20.1553 H   0  0  0  0  0  0  0  0  0  0  0  0
   18.7205   19.5303   20.3684 H   0  0  0  0  0  0  0  0  0  0  0  0
   19.4320   18.0812   21.8047 C   0  0  0  0  0  0  0  0  0  0  0  0
   18.6388   18.2604   22.5382 H   0  0  0  0  0  0  0  0  0  0  0  0
   19.0325   17.2968   21.1471 H   0  0  0  0  0  0  0  0  0  0  0  0
   20.7055   17.5038   22.4808 C   0  0  0  0  0  0  0  0  0  0  0  0
   21.5433   17.5547   21.7721 H   0  0  0  0  0  0  0  0  0  0  0  0
   20.5380   16.4318   22.6541 H   0  0  0  0  0  0  0  0  0  0  0  0
   21.1425   18.1321   23.8330 C   0  0  0  0  0  0  0  0  0  0  0  0
   22.0495   17.6007   24.1529 H   0  0  0  0  0  0  0  0  0  0  0  0
   21.4583   19.1715   23.7040 H   0  0  0  0  0  0  0  0  0  0  0  0
   20.1008   18.0101   24.9776 C   0  0  0  0  0  0  0  0  0  0  0  0
   20.6305   17.8868   25.9316 H   0  0  0  0  0  0  0  0  0  0  0  0
   19.5078   17.0956   24.8448 H   0  0  0  0  0  0  0  0  0  0  0  0
   19.1547   19.2217   25.1087 C   0  0  0  0  0  0  0  0  0  0  0  0
   18.6505   19.4142   24.1602 H   0  0  0  0  0  0  0  0  0  0  0  0
   18.3914   19.0023   25.8601 H   0  0  0  0  0  0  0  0  0  0  0  0
   19.8568   20.4970   25.5329 N   0  3  0  0  0  0  0  0  0  0  0  0
   19.2006   21.2798   25.6263 H   0  0  0  0  0  0  0  0  0  0  0  0
   20.5714   20.7801   24.8559 H   0  0  0  0  0  0  0  0  0  0  0  0
   20.3236   20.3891   26.4393 H   0  0  0  0  0  0  0  0  0  0  0  0
  1  2  1  0  0  0  0
  1  3  1  0  0  0  0
  1  4  1  0  0  0  0
  1  5  1  0  0  0  0
  5  6  1  0  0  0  0
  5  7  1  0  0  0  0
  5  8  1  0  0  0  0
  8  9  1  0  0  0  0
  8 10  1  0  0  0  0
  8 11  1  0  0  0  0
 11 12  1  0  0  0  0
 11 13  1  0  0  0  0
 11 14  1  0  0  0  0
 14 15  1  0  0  0  0
 14 16  1  0  0  0  0
 14 17  1  0  0  0  0
 17 18  1  0  0  0  0
 17 19  1  0  0  0  0
 17 20  1  0  0  0  0
 20 21  1  0  0  0  0
 20 22  1  0  0  0  0
 20 23  1  0  0  0  0
 23 24  1  0  0  0  0
 23 25  1  0  0  0  0
 23 26  1  0  0  0  0
M  END
> <VM2 Rank>
210

> <Conf_Id>
1351

> <Probability>
0.00

> <Sum Probability>
100.00

> <Delta G>
7.657

> <G>
55.919

> <E>
22.724

> <-TS>
33.194

> <U+W>
1.262

> <U>
55.755

> <W>
-54.493

> <W(PB)>
-56.648

> <W(SA)>
2.155

> <Valence>
8.451

> <Coulomb>
47.113

> <VdW>
0.191

> <VdW6>
-10.124

> <VdW12>
10.315

> <Bond>
0.350

> <Angle>
3.075

> <Pdih>
5.027

> <Idih>
0.000

> <Tether>
0.000

$$$$
VeraChem MOL file


 26 25  0  0  0  0  0  0  0  0999 V2000     
   21.3730   19.1774   20.2844 C   0  0  0  0  0  0  0  0  0  0  0  0
   21.1351   20.2363   20.1193 H   0  0  0  0  0  0  0  0  0  0  0  0
   22.4644   19.0668   20.2428 H   0  0  0  0  0  0  0  0  0  0  0  0
   20.9443   18.5976   19.4565 H   0  0  0  0  0  0  0  0  0  0  0  0
   20.8271   18.6920   21.6439 C   0  0  0  0  0  0  0  0  0  0  0  0
   21.3111   19.2659   22.4410 H   0  0  0  0  0  0  0  0  0  0  0  0
   21.1078   17.6397   21.7890 H   0  0  0  0  0  0  0  0  0  0  0  0
   19.2891   18.8382   21.7229 C   0  0  0  0  0  0  0  0  0  0  0  0
   18.9991   19.8879   21.5772 H   0  0  0  0  0  0  0  0  0  0  0  0
   18.8544   18.2865   20.8778 H   0  0  0  0  0  0  0  0  0  0  0  0
   18.6608   18.2872   23.0305 C   0  0  0  0  0  0  0  0  0  0  0  0
   19.2269   17.4284   23.4081 H   0  0  0  0  0  0  0  0  0  0  0  0
   17.6743   17.8790   22.7701 H   0  0  0  0  0  0  0  0  0  0  0  0
   18.4240   19.3450   24.1424 C   0  0  0  0  0  0  0  0  0  0  0  0
   17.8030   20.1496   23.7249 H   0  0  0  0  0  0  0  0  0  0  0  0
   17.8149   18.8888   24.9351 H   0  0  0  0  0  0  0  0  0  0  0  0
   19.6777   19.9840   24.7947 C   0  0  0  0  0  0  0  0  0  0  0  0
   19.3318   20.8205   25.4162 H   0  0  0  0  0  0  0  0  0  0  0  0
   20.3322   20.4371   24.0420 H   0  0  0  0  0  0  0  0  0  0  0  0
   20.4704   19.0355   25.7193 C   0  0  0  0  0  0  0  0  0  0  0  0
   21.1175   19.6310   26.3690 H   0  0  0  0  0  0  0  0  0  0  0  0
   19.7761   18.4791   26.3547 H   0  0  0  0  0  0  0  0  0  0  0  0
   21.3588   18.0397   25.0028 N   0  3  0  0  0  0  0  0  0  0  0  0
   21.8416   17.4200   25.6627 H   0  0  0  0  0  0  0  0  0  0  0  0
   22.0822   18.5079   24.4483 H   0  0  0  0  0  0  0  0  0  0  0  0
   20.8204   17.4454   24.3668 H   0  0  0  0  0  0  0  0  0  0  0  0
  1  2  1  0  0  0  0
  1  3  1  0  0  0  0
  1  4  1  0  0  0  0
  1  5  1  0  0  0  0
  5  6  1  0  0  0  0
  5  7  1  0  0  0  0
  5  8  1  0  0  0  0
  8  9  1  0  0  0  0
  8 10  1  0  0  0  0
  8 11  1  0  0  0  0
 11 12  1  0  0  0  0
 11 13  1  0  0  0  0
 11 14  1  0  0  0  0
 14 15  1  0  0  0  0
 14 16  1  0  0  0  0
 14 17  1  0  0  0  0
 17 18  1  0  0  0  0
 17 19  1  0  0  0  0
 17 20  1  0  0  0  0
 20 21  1  0  0  0  0
 20 22  1  0  0  0  0
 20 23  1  0  0  0  0
 23 24  1  0  0  0  0
 23 25  1  0  0  0  0
 23 26  1  0  0  0  0
M  END
> <VM2 Rank>
211

> <Conf_Id>
854

> <Probability>
0.00

> <Sum Probability>
100.00

> <Delta G>
7.699

> <G>
55.960

> <E>
22.964

> <-TS>
32.996

> <U+W>
1.502

> <U>
55.487

> <W>
-53.985

> <W(PB)>
-56.176

> <W(SA)>
2.191

> <Valence>
7.292

> <Coulomb>
48.136

> <VdW>
0.059

> <VdW6>
-9.397

> <VdW12>
9.457

> <Bond>
0.292

> <Angle>
2.593

> <Pdih>
4.407

> <Idih>
0.000

> <Tether>
0.000

$$$$
VeraChem MOL file


 26 25  0  0  0  0  0  0  0  0999 V2000     
   18.8603   17.8534   20.9307 C   0  0  0  0  0  0  0  0  0  0  0  0
   19.4476   17.0588   21.4067 H   0  0  0  0  0  0  0  0  0  0  0  0
   17.9570   18.0289   21.5285 H   0  0  0  0  0  0  0  0  0  0  0  0
   18.5385   17.4781   19.9504 H   0  0  0  0  0  0  0  0  0  0  0  0
   19.6805   19.1529   20.7620 C   0  0  0  0  0  0  0  0  0  0  0  0
   19.0733   19.8816   20.2067 H   0  0  0  0  0  0  0  0  0  0  0  0
   20.5656   18.9555   20.1410 H   0  0  0  0  0  0  0  0  0  0  0  0
   20.1144   19.7884   22.1042 C   0  0  0  0  0  0  0  0  0  0  0  0
   20.5243   20.7867   21.8972 H   0  0  0  0  0  0  0  0  0  0  0  0
   19.2324   19.9582   22.7326 H   0  0  0  0  0  0  0  0  0  0  0  0
   21.1929   18.9641   22.8547 C   0  0  0  0  0  0  0  0  0  0  0  0
   22.0987   18.9511   22.2326 H   0  0  0  0  0  0  0  0  0  0  0  0
   20.8988   17.9136   22.9669 H   0  0  0  0  0  0  0  0  0  0  0  0
   21.5568   19.5594   24.2390 C   0  0  0  0  0  0  0  0  0  0  0  0
   22.6346   19.4164   24.3985 H   0  0  0  0  0  0  0  0  0  0  0  0
   21.4025   20.6474   24.2363 H   0  0  0  0  0  0  0  0  0  0  0  0
   20.8202   18.9234   25.4484 C   0  0  0  0  0  0  0  0  0  0  0  0
   21.2010   19.3997   26.3616 H   0  0  0  0  0  0  0  0  0  0  0  0
   21.0828   17.8606   25.5342 H   0  0  0  0  0  0  0  0  0  0  0  0
   19.2863   19.0815   25.4408 C   0  0  0  0  0  0  0  0  0  0  0  0
   18.9076   18.9448   26.4574 H   0  0  0  0  0  0  0  0  0  0  0  0
   19.0184   20.0887   25.1109 H   0  0  0  0  0  0  0  0  0  0  0  0
   18.5696   18.0759   24.5614 N   0  3  0  0  0  0  0  0  0  0  0  0
   18.8845   18.1468   23.5874 H   0  0  0  0  0  0  0  0  0  0  0  0
   17.5535   18.2183   24.5715 H   0  0  0  0  0  0  0  0  0  0  0  0
   18.7405   17.1134   24.8715 H   0  0  0  0  0  0  0  0  0  0  0  0
  1  2  1  0  0  0  0
  1  3  1  0  0  0  0
  1  4  1  0  0  0  0
  1  5  1  0  0  0  0
  5  6  1  0  0  0  0
  5  7  1  0  0  0  0
  5  8  1  0  0  0  0
  8  9  1  0  0  0  0
  8 10  1  0  0  0  0
  8 11  1  0  0  0  0
 11 12  1  0  0  0  0
 11 13  1  0  0  0  0
 11 14  1  0  0  0  0
 14 15  1  0  0  0  0
 14 16  1  0  0  0  0
 14 17  1  0  0  0  0
 17 18  1  0  0  0  0
 17 19  1  0  0  0  0
 17 20  1  0  0  0  0
 20 21  1  0  0  0  0
 20 22  1  0  0  0  0
 20 23  1  0  0  0  0
 23 24  1  0  0  0  0
 23 25  1  0  0  0  0
 23 26  1  0  0  0  0
M  END
> <VM2 Rank>
212

> <Conf_Id>
536

> <Probability>
0.00

> <Sum Probability>
100.00

> <Delta G>
8.481

> <G>
56.742

> <E>
23.151

> <-TS>
33.591

> <U+W>
1.690

> <U>
54.447

> <W>
-52.757

> <W(PB)>
-54.934

> <W(SA)>
2.177

> <Valence>
6.776

> <Coulomb>
47.395

> <VdW>
0.275

> <VdW6>
-10.113

> <VdW12>
10.388

> <Bond>
0.270

> <Angle>
1.774

> <Pdih>
4.732

> <Idih>
0.000

> <Tether>
0.000

$$$$
VeraChem MOL file


 26 25  0  0  0  0  0  0  0  0999 V2000     
   19.2572   17.5502   21.0040 C   0  0  0  0  0  0  0  0  0  0  0  0
   18.9324   17.9899   20.0520 H   0  0  0  0  0  0  0  0  0  0  0  0
   19.4129   16.4763   20.8376 H   0  0  0  0  0  0  0  0  0  0  0  0
   18.4370   17.6586   21.7222 H   0  0  0  0  0  0  0  0  0  0  0  0
   20.5623   18.2151   21.5001 C   0  0  0  0  0  0  0  0  0  0  0  0
   21.3507   18.0187   20.7601 H   0  0  0  0  0  0  0  0  0  0  0  0
   20.9003   17.7373   22.4253 H   0  0  0  0  0  0  0  0  0  0  0  0
   20.4393   19.7488   21.6837 C   0  0  0  0  0  0  0  0  0  0  0  0
   21.4403   20.1808   21.8189 H   0  0  0  0  0  0  0  0  0  0  0  0
   20.0648   20.1727   20.7416 H   0  0  0  0  0  0  0  0  0  0  0  0
   19.5131   20.2189   22.8396 C   0  0  0  0  0  0  0  0  0  0  0  0
   18.6819   19.5260   23.0010 H   0  0  0  0  0  0  0  0  0  0  0  0
   19.0358   21.1532   22.5127 H   0  0  0  0  0  0  0  0  0  0  0  0
   20.2451   20.5366   24.1716 C   0  0  0  0  0  0  0  0  0  0  0  0
   21.0170   21.2918   23.9682 H   0  0  0  0  0  0  0  0  0  0  0  0
   19.5353   21.0228   24.8551 H   0  0  0  0  0  0  0  0  0  0  0  0
   20.9088   19.3480   24.9149 C   0  0  0  0  0  0  0  0  0  0  0  0
   21.5327   19.7692   25.7144 H   0  0  0  0  0  0  0  0  0  0  0  0
   21.6026   18.8066   24.2618 H   0  0  0  0  0  0  0  0  0  0  0  0
   19.9110   18.3801   25.5853 C   0  0  0  0  0  0  0  0  0  0  0  0
   20.4382   17.7893   26.3393 H   0  0  0  0  0  0  0  0  0  0  0  0
   19.1300   18.9533   26.0921 H   0  0  0  0  0  0  0  0  0  0  0  0
   19.2442   17.4012   24.6419 N   0  3  0  0  0  0  0  0  0  0  0  0
   18.7530   17.8866   23.8862 H   0  0  0  0  0  0  0  0  0  0  0  0
   18.5581   16.8131   25.1278 H   0  0  0  0  0  0  0  0  0  0  0  0
   19.9256   16.7709   24.2075 H   0  0  0  0  0  0  0  0  0  0  0  0
  1  2  1  0  0  0  0
  1  3  1  0  0  0  0
  1  4  1  0  0  0  0
  1  5  1  0  0  0  0
  5  6  1  0  0  0  0
  5  7  1  0  0  0  0
  5  8  1  0  0  0  0
  8  9  1  0  0  0  0
  8 10  1  0  0  0  0
  8 11  1  0  0  0  0
 11 12  1  0  0  0  0
 11 13  1  0  0  0  0
 11 14  1  0  0  0  0
 14 15  1  0  0  0  0
 14 16  1  0  0  0  0
 14 17  1  0  0  0  0
 17 18  1  0  0  0  0
 17 19  1  0  0  0  0
 17 20  1  0  0  0  0
 20 21  1  0  0  0  0
 20 22  1  0  0  0  0
 20 23  1  0  0  0  0
 23 24  1  0  0  0  0
 23 25  1  0  0  0  0
 23 26  1  0  0  0  0
M  END
> <VM2 Rank>
213

> <Conf_Id>
1369

> <Probability>
0.00

> <Sum Probability>
100.00

> <Delta G>
9.277

> <G>
57.539

> <E>
24.163

> <-TS>
33.375

> <U+W>
2.702

> <U>
56.051

> <W>
-53.349

> <W(PB)>
-55.505

> <W(SA)>
2.156

> <Valence>
8.063

> <Coulomb>
48.004

> <VdW>
-0.017

> <VdW6>
-10.370

> <VdW12>
10.352

> <Bond>
0.341

> <Angle>
2.906

> <Pdih>
4.817

> <Idih>
0.000

> <Tether>
0.000

$$$$
